@<TRIPOS>MOLECULE
NONAME
47 49 1 0 0 
SMALL
USER_CHARGES


@<TRIPOS>ATOM
  1 O       -0.5370     1.2460     1.5870 O.2   1 <1>  -0.5700 
  2 C       -0.2530     2.3130     1.0680 C.2   1 <1>   0.5440 
  3 N       -1.2730     3.1610     0.6790 N.am  1 <1>  -0.6600 
  4 C        1.1340     2.6560     0.8690 C.ar  1 <1>   0.0860 
  5 C       -2.7020     2.8980     1.0390 C.3   1 <1>   0.1400 
  6 C       -1.0980     4.2700    -0.2990 C.3   1 <1>   0.1400 
  7 C        1.9730     1.8370     0.0920 C.ar  1 <1>   0.4100 
  8 C        1.6780     3.8030     1.4290 C.ar  1 <1>  -0.1500 
  9 C       -3.5430     2.5620    -0.2190 C.3   1 <1>   0.0000 
 10 C       -1.8990     3.9700    -1.5700 C.3   1 <1>  -0.1600 
 11 N        3.2520     2.1170    -0.1580 N.ar  1 <1>  -0.6200 
 12 N        1.4890     0.6710    -0.4570 N.pl3 1 <1>  -0.8690 
 13 C        3.0020     4.0840     1.1790 C.ar  1 <1>  -0.1500 
 14 C       -5.0220     2.3350     0.1410 C.3   1 <1>   0.2000 
 15 C       -3.3800     3.6880    -1.2620 C.3   1 <1>  -0.1600 
 16 C       -3.1490     1.1840    -0.7810 C.3   1 <1>  -0.1600 
 17 C        3.7320     3.2180     0.3840 C.ar  1 <1>   0.1600 
 18 C        2.3410    -0.3660    -1.0880 C.3   1 <1>   0.1290 
 19 O       -5.4680     3.2560     1.0920 O.3   1 <1>  -0.5600 
 20 C       -5.1050     0.8990     0.6700 C.3   1 <1>  -0.1600 
 21 C       -3.8920     0.1620     0.0840 C.3   1 <1>  -0.1600 
 22 C       -6.8500     3.3170     1.2480 C.3   1 <1>   0.0400 
 23 H       -2.7710     2.1000     1.7570 H     1 <1>   0.0800 
 24 H       -3.0960     3.7810     1.5090 H     1 <1>   0.0800 
 25 H       -1.4490     5.1840     0.1470 H     1 <1>   0.0800 
 26 H       -0.0630     4.3980    -0.5600 H     1 <1>   0.0800 
 27 H        1.0720     4.4480     2.0420 H     1 <1>   0.1500 
 28 H       -1.8260     4.8100    -2.2380 H     1 <1>   0.0800 
 29 H       -1.4580     3.1230    -2.0660 H     1 <1>   0.0800 
 30 H        0.6390     0.3140     0.0080 H     1 <1>   0.4000 
 31 H        3.4680     4.9610     1.5910 H     1 <1>   0.1500 
 32 H       -5.6190     2.4320    -0.7500 H     1 <1>   0.0800 
 33 H       -3.8950     3.4330    -2.1710 H     1 <1>   0.0800 
 34 H       -3.8310     4.5850    -0.8730 H     1 <1>   0.0800 
 35 H       -3.4940     1.0950    -1.7960 H     1 <1>   0.0800 
 36 H       -2.0860     1.0150    -0.7670 H     1 <1>   0.0800 
 37 H        4.7670     3.4450     0.1890 H     1 <1>   0.1500 
 38 H        2.9920     0.0880    -1.8160 H     1 <1>   0.0800 
 39 H        1.7240    -1.0970    -1.5790 H     1 <1>   0.0800 
 40 H        2.9400    -0.8500    -0.3360 H     1 <1>   0.0800 
 41 H       -5.0410     0.8930     1.7440 H     1 <1>   0.0800 
 42 H       -6.0220     0.4340     0.3570 H     1 <1>   0.0800 
 43 H       -3.2480    -0.1660     0.8840 H     1 <1>   0.0800 
 44 H       -4.1860    -0.6950    -0.4960 H     1 <1>   0.0800 
 45 H       -7.0700     4.0700     1.9850 H     1 <1>   0.0800 
 46 H       -7.2160     2.3640     1.5870 H     1 <1>   0.0800 
 47 H       -7.3030     3.5870     0.3100 H     1 <1>   0.0800 
@<TRIPOS>BOND
  1   1   2  2   
  2   2   3  am  
  3   2   4  1   
  4   3   5  1   
  5   3   6  1   
  6   4   7  ar  
  7   4   8  ar  
  8   5   9  1   
  9   5  23  1   
 10   5  24  1   
 11   6  10  1   
 12   6  25  1   
 13   6  26  1   
 14   7  11  ar  
 15   7  12  1   
 16   8  13  ar  
 17   8  27  1   
 18   9  14  1   
 19   9  15  1   
 20   9  16  1   
 21  10  15  1   
 22  10  28  1   
 23  10  29  1   
 24  11  17  ar  
 25  12  18  1   
 26  12  30  1   
 27  13  17  ar  
 28  13  31  1   
 29  14  19  1   
 30  14  20  1   
 31  14  32  1   
 32  15  33  1   
 33  15  34  1   
 34  16  21  1   
 35  16  35  1   
 36  16  36  1   
 37  17  37  1   
 38  18  38  1   
 39  18  39  1   
 40  18  40  1   
 41  19  22  1   
 42  20  21  1   
 43  20  41  1   
 44  20  42  1   
 45  21  43  1   
 46  21  44  1   
 47  22  45  1   
 48  22  46  1   
 49  22  47  1   
@<TRIPOS>SUBSTRUCTURE
  1 ****   3 GROUP 4 **** **** 0

# MOE 2024.06 (io_trps.svl 2023.06)
