@<TRIPOS>MOLECULE
NONAME
47 49 1 0 0 
SMALL
USER_CHARGES


@<TRIPOS>ATOM
  1 CL       0.9960    -1.3480    -2.0510 Cl    1 <1>  -0.1240 
  2 C       -0.3160    -1.8370    -1.0160 C.2   1 <1>   0.1640 
  3 S       -0.7290    -3.5380    -1.0250 S.3   1 <1>  -0.0800 
  4 C       -1.1020    -1.1340    -0.1830 C.2   1 <1>  -0.1500 
  5 C       -2.0160    -3.2560     0.1480 C.2   1 <1>  -0.1400 
  6 C       -2.0740    -1.9490     0.4840 C.2   1 <1>  -0.1500 
  7 C       -2.8200    -4.4620     0.5850 C.3   1 <1>   0.5230 
  8 N       -3.3760    -5.1110    -0.6370 N.4   1 <1>  -0.9590 
  9 C       -4.8090    -4.8380    -0.9560 C.3   1 <1>   0.4230 
 10 C       -3.0830    -6.5770    -0.6380 C.3   1 <1>   0.2630 
 11 C       -5.1440    -3.3580    -1.1260 C.3   1 <1>  -0.1600 
 12 C       -5.8010    -5.3240     0.1020 C.3   1 <1>  -0.1600 
 13 C       -6.6750    -3.3050    -1.0050 C.3   1 <1>  -0.0800 
 14 C       -7.0900    -4.5450    -0.2080 C.3   1 <1>  -0.0800 
 15 C       -7.2440    -2.1000    -0.2380 C.3   1 <1>  -0.1600 
 16 C       -7.8650    -4.0190     1.0110 C.3   1 <1>  -0.1600 
 17 C       -8.4110    -2.6470     0.5940 C.3   1 <1>   0.4230 
 18 N       -9.6500    -2.7850    -0.2390 N.4   1 <1>  -0.9590 
 19 C      -10.1450    -1.4670    -0.7580 C.3   1 <1>   0.2630 
 20 C      -10.7780    -3.4390     0.5050 C.3   1 <1>   0.2630 
 21 H       -1.0320    -0.0730    -0.0120 H     1 <1>   0.1500 
 22 H       -2.7580    -1.4990     1.1850 H     1 <1>   0.1500 
 23 H       -3.6060    -4.1620     1.2580 H     1 <1>   0.0800 
 24 H       -2.1650    -5.1430     1.1050 H     1 <1>   0.0800 
 25 H       -2.8250    -4.6930    -1.4030 H     1 <1>   0.4500 
 26 H       -5.0560    -5.3310    -1.8840 H     1 <1>   0.0800 
 27 H       -3.6040    -7.0670     0.1690 H     1 <1>   0.0800 
 28 H       -2.0250    -6.7480    -0.5190 H     1 <1>   0.0800 
 29 H       -3.3960    -7.0220    -1.5690 H     1 <1>   0.0800 
 30 H       -4.7000    -2.7730    -0.3430 H     1 <1>   0.0800 
 31 H       -4.8160    -2.9850    -2.0810 H     1 <1>   0.0800 
 32 H       -5.9710    -6.3840     0.0270 H     1 <1>   0.0800 
 33 H       -5.4530    -5.0880     1.0900 H     1 <1>   0.0800 
 34 H       -7.1170    -3.3580    -1.9880 H     1 <1>   0.0800 
 35 H       -7.7400    -5.1500    -0.8210 H     1 <1>   0.0800 
 36 H       -7.4990    -1.2850    -0.8900 H     1 <1>   0.0800 
 37 H       -6.5090    -1.7300     0.4550 H     1 <1>   0.0800 
 38 H       -7.1860    -3.8540     1.8290 H     1 <1>   0.0800 
 39 H       -8.6100    -4.7140     1.3540 H     1 <1>   0.0800 
 40 H       -8.6080    -2.0240     1.4540 H     1 <1>   0.0800 
 41 H       -9.4090    -3.3780    -1.0450 H     1 <1>   0.4500 
 42 H      -10.3360    -0.7900     0.0590 H     1 <1>   0.0800 
 43 H      -11.0610    -1.6040    -1.3100 H     1 <1>   0.0800 
 44 H       -9.4220    -1.0180    -1.4180 H     1 <1>   0.0800 
 45 H      -11.0080    -2.8850     1.4000 H     1 <1>   0.0800 
 46 H      -10.5220    -4.4490     0.7800 H     1 <1>   0.0800 
 47 H      -11.6610    -3.4750    -0.1130 H     1 <1>   0.0800 
@<TRIPOS>BOND
  1   1   2  1   
  2   2   3  1   
  3   2   4  2   
  4   3   5  1   
  5   4   6  1   
  6   4  21  1   
  7   5   6  2   
  8   5   7  1   
  9   6  22  1   
 10   7   8  1   
 11   7  23  1   
 12   7  24  1   
 13   8   9  1   
 14   8  10  1   
 15   8  25  1   
 16   9  11  1   
 17   9  12  1   
 18   9  26  1   
 19  10  27  1   
 20  10  28  1   
 21  10  29  1   
 22  11  13  1   
 23  11  30  1   
 24  11  31  1   
 25  12  14  1   
 26  12  32  1   
 27  12  33  1   
 28  13  14  1   
 29  13  15  1   
 30  13  34  1   
 31  14  16  1   
 32  14  35  1   
 33  15  17  1   
 34  15  36  1   
 35  15  37  1   
 36  16  17  1   
 37  16  38  1   
 38  16  39  1   
 39  17  18  1   
 40  17  40  1   
 41  18  19  1   
 42  18  20  1   
 43  18  41  1   
 44  19  42  1   
 45  19  43  1   
 46  19  44  1   
 47  20  45  1   
 48  20  46  1   
 49  20  47  1   
@<TRIPOS>SUBSTRUCTURE
  1 ****  11 GROUP 4 **** **** 0

# MOE 2024.06 (io_trps.svl 2023.06)
