@<TRIPOS>MOLECULE
NONAME
41 42 1 0 0 
SMALL
USER_CHARGES


@<TRIPOS>ATOM
  1 O        0.2390    -1.6620     1.9810 O.3   1 <1>  -0.8500 
  2 C        0.1400    -2.3450     0.9460 C.2   1 <1>  -0.1500 
  3 C       -0.8860    -2.1950     0.0110 C.2   1 <1>  -0.1240 
  4 C        1.1320    -3.3280     0.6950 C.2   1 <1>  -0.1500 
  5 C       -0.9090    -2.9960    -1.1410 C.2   1 <1>   0.6160 
  6 C       -1.9710    -1.1460     0.2690 C.3   1 <1>   0.2020 
  7 C        1.0990    -4.1220    -0.4020 C.2   1 <1>  -0.0290 
  8 O       -1.7540    -2.8500    -2.0490 O.2   1 <1>  -0.5700 
  9 N        0.0660    -3.9940    -1.3330 N.am  1 <1>  -0.4690 
 10 C       -3.3470    -1.8060     0.4380 C.ar  1 <1>  -0.1440 
 11 C       -1.8920    -0.0010    -0.7510 C.3   1 <1>  -0.0990 
 12 C        2.1910    -5.1550    -0.6300 C.3   1 <1>  -0.1020 
 13 C       -0.0250    -4.8680    -2.5370 C.3   1 <1>   0.0600 
 14 C       -4.3420    -1.7930    -0.5320 C.ar  1 <1>  -0.1500 
 15 C       -3.5950    -2.4570     1.6390 C.ar  1 <1>  -0.1500 
 16 C       -2.8970     1.0930    -0.4740 C.2   1 <1>   0.6590 
 17 C       -5.5610    -2.4030    -0.2880 C.ar  1 <1>   0.0820 
 18 C       -4.8120    -3.0700     1.8820 C.ar  1 <1>  -0.1500 
 19 O       -3.6370     1.5010    -1.3330 O.2   1 <1>  -0.5700 
 20 O       -2.9050     1.6040     0.7520 O.3   1 <1>  -0.4300 
 21 O       -6.5150    -2.3750    -1.2310 O.3   1 <1>  -0.5320 
 22 C       -5.8030    -3.0420     0.9170 C.ar  1 <1>  -0.1500 
 23 C       -3.8260     2.5980     1.1380 C.3   1 <1>   0.0400 
 24 H        1.9030    -3.3900     1.4390 H     1 <1>   0.1500 
 25 H       -1.7610    -0.6870     1.2190 H     1 <1>   0.0800 
 26 H       -2.0490    -0.3700    -1.7460 H     1 <1>   0.0800 
 27 H       -0.9080     0.4240    -0.7060 H     1 <1>   0.0800 
 28 H        2.6550    -4.9980    -1.5850 H     1 <1>   0.0800 
 29 H        1.7770    -6.1450    -0.5850 H     1 <1>   0.0800 
 30 H        2.9460    -5.0720     0.1310 H     1 <1>   0.0800 
 31 H       -1.0510    -4.9830    -2.8380 H     1 <1>   0.0800 
 32 H        0.3640    -5.8460    -2.3290 H     1 <1>   0.0800 
 33 H        0.5280    -4.4200    -3.3420 H     1 <1>   0.0800 
 34 H       -4.1840    -1.3230    -1.4850 H     1 <1>   0.1500 
 35 H       -2.8150    -2.4870     2.3850 H     1 <1>   0.1500 
 36 H       -4.9770    -3.5680     2.8200 H     1 <1>   0.1500 
 37 H       -7.3120    -2.8630    -0.9710 H     1 <1>   0.4500 
 38 H       -6.7470    -3.5170     1.1070 H     1 <1>   0.1500 
 39 H       -3.6460     2.8450     2.1680 H     1 <1>   0.0800 
 40 H       -4.8220     2.2100     1.0150 H     1 <1>   0.0800 
 41 H       -3.6830     3.4640     0.5140 H     1 <1>   0.0800 
@<TRIPOS>BOND
  1   1   2  1   
  2   2   3  2   
  3   2   4  1   
  4   3   5  1   
  5   3   6  1   
  6   4   7  2   
  7   4  24  1   
  8   5   8  2   
  9   5   9  am  
 10   6  10  1   
 11   6  11  1   
 12   6  25  1   
 13   7   9  1   
 14   7  12  1   
 15   9  13  1   
 16  10  14  ar  
 17  10  15  ar  
 18  11  16  1   
 19  11  26  1   
 20  11  27  1   
 21  12  28  1   
 22  12  29  1   
 23  12  30  1   
 24  13  31  1   
 25  13  32  1   
 26  13  33  1   
 27  14  17  ar  
 28  14  34  1   
 29  15  18  ar  
 30  15  35  1   
 31  16  19  2   
 32  16  20  1   
 33  17  21  1   
 34  17  22  ar  
 35  18  22  ar  
 36  18  36  1   
 37  20  23  1   
 38  21  37  1   
 39  22  38  1   
 40  23  39  1   
 41  23  40  1   
 42  23  41  1   
@<TRIPOS>SUBSTRUCTURE
  1 ****   6 GROUP 4 **** **** 0

# MOE 2024.06 (io_trps.svl 2023.06)
