@<TRIPOS>MOLECULE
NONAME
45 47 1 0 0 
SMALL
USER_CHARGES


@<TRIPOS>ATOM
  1 O        3.3140    -0.8650    -0.9700 O.2   1 <1>  -0.5700 
  2 C        2.1880    -1.2560    -0.7780 C.2   1 <1>   0.5690 
  3 N        1.2760    -0.5480    -0.0600 N.am  1 <1>  -0.4930 
  4 C        1.7760    -2.6090    -1.3740 C.3   1 <1>   0.1710 
  5 C        1.3690     0.6950     0.5600 C.2   1 <1>   0.3520 
  6 N        0.4240    -3.1450    -1.0300 N.3   1 <1>  -0.8100 
  7 N        0.3650     1.2140     1.1750 N.2   1 <1>  -0.4100 
  8 C        2.4770     1.5410     0.6240 C.2   1 <1>  -0.1500 
  9 C        0.2650    -3.5110     0.3960 C.3   1 <1>   0.2530 
 10 C       -0.7050    -2.4130    -1.6440 C.3   1 <1>   0.1100 
 11 O        0.7800     2.3670     1.6360 O.3   1 <1>  -0.0190 
 12 C        2.0300     2.5910     1.3260 C.2   1 <1>  -0.0400 
 13 C       -0.5140    -4.8080     0.5440 C.ar  1 <1>  -0.1430 
 14 C       -1.8740    -3.3450    -1.9900 C.3   1 <1>  -0.1600 
 15 C        2.7020     3.8740     1.7670 C.3   1 <1>  -0.0600 
 16 C       -1.9020    -4.7930     0.5330 C.ar  1 <1>   0.0830 
 17 C        0.1500    -6.0150     0.6970 C.ar  1 <1>  -0.1500 
 18 C       -3.0090    -3.3580    -0.9490 C.3   1 <1>   0.1200 
 19 O       -2.5220    -3.6020     0.3510 O.3   1 <1>  -0.3630 
 20 C       -2.6340    -5.9720     0.6940 C.ar  1 <1>   0.0830 
 21 C       -0.5640    -7.1910     0.8500 C.ar  1 <1>  -0.1500 
 22 O       -3.9970    -5.8950     0.6860 O.3   1 <1>  -0.3630 
 23 C       -1.9490    -7.1730     0.8520 C.ar  1 <1>  -0.1500 
 24 C       -4.7980    -7.0190     0.9740 C.3   1 <1>   0.0400 
 25 H        0.3640    -0.9890     0.0390 H     1 <1>   0.3700 
 26 H        2.5130    -3.3320    -1.0730 H     1 <1>   0.0800 
 27 H        1.8500    -2.5290    -2.4440 H     1 <1>   0.0800 
 28 H        3.4440     1.3550     0.1960 H     1 <1>   0.1500 
 29 H       -0.2330    -2.7230     0.9340 H     1 <1>   0.0800 
 30 H        1.2320    -3.6490     0.8470 H     1 <1>   0.0800 
 31 H       -0.3640    -1.9700    -2.5650 H     1 <1>   0.0800 
 32 H       -1.0460    -1.6170    -1.0040 H     1 <1>   0.0800 
 33 H       -1.5140    -4.3430    -2.1670 H     1 <1>   0.0800 
 34 H       -2.3060    -3.0060    -2.9140 H     1 <1>   0.0800 
 35 H        3.7220     3.8940     1.4290 H     1 <1>   0.0800 
 36 H        2.6870     3.9420     2.8400 H     1 <1>   0.0800 
 37 H        2.1790     4.7180     1.3560 H     1 <1>   0.0800 
 38 H        1.2250    -6.0430     0.6940 H     1 <1>   0.1500 
 39 H       -3.7350    -4.1160    -1.1870 H     1 <1>   0.0800 
 40 H       -3.5040    -2.4030    -0.9250 H     1 <1>   0.0800 
 41 H       -0.0390    -8.1230     0.9680 H     1 <1>   0.1500 
 42 H       -2.4700    -8.1030     0.9740 H     1 <1>   0.1500 
 43 H       -5.8270    -6.7060     0.9640 H     1 <1>   0.0800 
 44 H       -4.5390    -7.3910     1.9500 H     1 <1>   0.0800 
 45 H       -4.6370    -7.7660     0.2180 H     1 <1>   0.0800 
@<TRIPOS>BOND
  1   1   2  2   
  2   2   3  am  
  3   2   4  1   
  4   3   5  1   
  5   3  25  1   
  6   4   6  1   
  7   4  26  1   
  8   4  27  1   
  9   5   7  2   
 10   5   8  1   
 11   6   9  1   
 12   6  10  1   
 13   7  11  1   
 14   8  12  2   
 15   8  28  1   
 16   9  13  1   
 17   9  29  1   
 18   9  30  1   
 19  10  14  1   
 20  10  31  1   
 21  10  32  1   
 22  11  12  1   
 23  12  15  1   
 24  13  16  ar  
 25  13  17  ar  
 26  14  18  1   
 27  14  33  1   
 28  14  34  1   
 29  15  35  1   
 30  15  36  1   
 31  15  37  1   
 32  16  19  1   
 33  16  20  ar  
 34  17  21  ar  
 35  17  38  1   
 36  18  19  1   
 37  18  39  1   
 38  18  40  1   
 39  20  22  1   
 40  20  23  ar  
 41  21  23  ar  
 42  21  41  1   
 43  22  24  1   
 44  23  42  1   
 45  24  43  1   
 46  24  44  1   
 47  24  45  1   
@<TRIPOS>SUBSTRUCTURE
  1 ****   9 GROUP 4 **** **** 0

# MOE 2024.06 (io_trps.svl 2023.06)
