@<TRIPOS>MOLECULE
NONAME
42 44 1 0 0 
SMALL
USER_CHARGES


@<TRIPOS>ATOM
  1 O       -3.4780    -1.3460    -2.5750 O.2   1 <1>  -0.5700 
  2 C       -3.0780    -1.3840    -1.4340 C.2   1 <1>   0.5690 
  3 N       -3.4400    -0.4430    -0.5050 N.am  1 <1>  -0.6600 
  4 C       -2.1010    -2.4880    -1.0670 C.3   1 <1>  -0.0190 
  5 C       -2.9040    -0.4750     0.8950 C.3   1 <1>   0.2200 
  6 C       -4.5850     0.4790    -0.7360 C.3   1 <1>   0.0600 
  7 C       -0.7280    -1.8970    -0.7120 C.3   1 <1>   0.1200 
  8 C       -2.6410    -3.4760    -0.0130 C.3   1 <1>   0.2090 
  9 C       -1.3760    -0.2690     0.8890 C.3   1 <1>   0.1200 
 10 C       -3.3120    -1.7400     1.6980 C.3   1 <1>   0.2090 
 11 O       -0.6670    -1.4430     0.6060 O.3   1 <1>  -0.5600 
 12 N       -3.7260    -2.9080     0.8510 N.pl3 1 <1>  -0.8380 
 13 C       -5.0630    -3.1650     0.5900 C.ar  1 <1>   0.7200 
 14 N       -5.3390    -4.2900    -0.0540 N.ar  1 <1>  -0.6200 
 15 N       -5.9430    -2.2630     1.0060 N.ar  1 <1>  -0.6200 
 16 C       -6.5990    -4.5070    -0.3300 C.ar  1 <1>   0.3930 
 17 C       -7.1960    -2.4980     0.7160 C.ar  1 <1>   0.3930 
 18 O       -6.8420    -5.6530    -0.9980 O.3   1 <1>  -0.3630 
 19 C       -7.5910    -3.6260     0.0350 C.ar  1 <1>  -0.1500 
 20 O       -8.0580    -1.5500     1.1340 O.3   1 <1>  -0.3630 
 21 C       -8.1170    -6.0020    -1.4880 C.3   1 <1>   0.0400 
 22 C       -9.4470    -1.6170     0.8990 C.3   1 <1>   0.0400 
 23 H       -1.9440    -3.0590    -1.9630 H     1 <1>   0.0800 
 24 H       -3.3120     0.3710     1.4190 H     1 <1>   0.0800 
 25 H       -4.2720     1.4970    -0.5840 H     1 <1>   0.0800 
 26 H       -5.3820     0.2420    -0.0530 H     1 <1>   0.0800 
 27 H       -4.9580     0.3790    -1.7400 H     1 <1>   0.0800 
 28 H       -0.4710    -1.0890    -1.3760 H     1 <1>   0.0800 
 29 H        0.0210    -2.6630    -0.8070 H     1 <1>   0.0800 
 30 H       -1.8360    -3.8080     0.6190 H     1 <1>   0.0800 
 31 H       -2.9980    -4.3490    -0.5300 H     1 <1>   0.0800 
 32 H       -1.0640     0.0430     1.8690 H     1 <1>   0.0800 
 33 H       -1.0940     0.4960     0.1870 H     1 <1>   0.0800 
 34 H       -4.1070    -1.4720     2.3700 H     1 <1>   0.0800 
 35 H       -2.4940    -2.0460     2.3260 H     1 <1>   0.0800 
 36 H       -8.6150    -3.8110    -0.1970 H     1 <1>   0.1500 
 37 H       -8.0250    -6.9330    -2.0170 H     1 <1>   0.0800 
 38 H       -8.4570    -5.2330    -2.1590 H     1 <1>   0.0800 
 39 H       -8.7910    -6.1200    -0.6580 H     1 <1>   0.0800 
 40 H       -9.8990    -0.7400     1.3270 H     1 <1>   0.0800 
 41 H       -9.8410    -2.4980     1.3740 H     1 <1>   0.0800 
 42 H       -9.6220    -1.6360    -0.1620 H     1 <1>   0.0800 
@<TRIPOS>BOND
  1   1   2  2   
  2   2   3  am  
  3   2   4  1   
  4   3   5  1   
  5   3   6  1   
  6   4   7  1   
  7   4   8  1   
  8   4  23  1   
  9   5   9  1   
 10   5  10  1   
 11   5  24  1   
 12   6  25  1   
 13   6  26  1   
 14   6  27  1   
 15   7  11  1   
 16   7  28  1   
 17   7  29  1   
 18   8  12  1   
 19   8  30  1   
 20   8  31  1   
 21   9  11  1   
 22   9  32  1   
 23   9  33  1   
 24  10  12  1   
 25  10  34  1   
 26  10  35  1   
 27  12  13  1   
 28  13  14  ar  
 29  13  15  ar  
 30  14  16  ar  
 31  15  17  ar  
 32  16  18  1   
 33  16  19  ar  
 34  17  19  ar  
 35  17  20  1   
 36  18  21  1   
 37  19  36  1   
 38  20  22  1   
 39  21  37  1   
 40  21  38  1   
 41  21  39  1   
 42  22  40  1   
 43  22  41  1   
 44  22  42  1   
@<TRIPOS>SUBSTRUCTURE
  1 ****  13 GROUP 4 **** **** 0

# MOE 2024.06 (io_trps.svl 2023.06)
