@<TRIPOS>MOLECULE
NONAME
50 53 1 0 0 
SMALL
USER_CHARGES


@<TRIPOS>ATOM
  1 O        0.3440     0.3260     0.6500 O.3   1 <1>  -0.0190 
  2 N        1.5430     0.3020     0.1640 N.2   1 <1>  -0.4100 
  3 C       -0.0150    -0.8280     1.1330 C.2   1 <1>  -0.0400 
  4 C        2.0030    -0.8990     0.3440 C.2   1 <1>   0.2350 
  5 C        1.0150    -1.6710     0.9720 C.2   1 <1>  -0.1500 
  6 C       -1.3960    -0.9870     1.7390 C.3   1 <1>   0.5230 
  7 C        3.3260    -1.3440    -0.0520 C.ar  1 <1>   0.0540 
  8 N       -2.4440    -0.9260     0.6780 N.4   1 <1>  -0.9590 
  9 C        4.1630    -0.5570    -0.8320 C.ar  1 <1>  -0.1500 
 10 C        3.8650    -2.5730     0.3090 C.ar  1 <1>  -0.1500 
 11 C       -3.7330    -1.5220     1.1540 C.3   1 <1>   0.3430 
 12 C       -2.6540     0.4680     0.1780 C.3   1 <1>   0.3430 
 13 C        5.4170    -1.0070    -1.1960 C.ar  1 <1>   0.1600 
 14 C        5.1340    -2.9320    -0.1070 C.ar  1 <1>   0.1600 
 15 C       -4.7580    -1.6210     0.0150 C.3   1 <1>   0.0000 
 16 C       -3.6380     0.4560    -0.9920 C.3   1 <1>  -0.1600 
 17 N        5.9230    -2.1800    -0.8530 N.ar  1 <1>  -0.6200 
 18 C       -6.0570    -2.2290     0.5660 C.3   1 <1>   0.2000 
 19 C       -4.9680    -0.2160    -0.6160 C.3   1 <1>  -0.1600 
 20 C       -4.3860    -2.6500    -1.0690 C.3   1 <1>  -0.1600 
 21 O       -6.7580    -1.2850     1.3110 O.3   1 <1>  -0.5600 
 22 C       -6.8150    -2.7220    -0.6670 C.3   1 <1>  -0.1600 
 23 C       -5.7230    -3.0960    -1.6810 C.3   1 <1>  -0.1600 
 24 C       -7.9020    -1.7600     1.9530 C.3   1 <1>   0.0400 
 25 H        1.1060    -2.7070     1.2440 H     1 <1>   0.1500 
 26 H       -1.5630    -0.2170     2.4750 H     1 <1>   0.0800 
 27 H       -1.4420    -1.9430     2.2340 H     1 <1>   0.0800 
 28 H       -2.1130    -1.4810    -0.1210 H     1 <1>   0.4500 
 29 H        3.8370     0.4140    -1.1590 H     1 <1>   0.1500 
 30 H        3.3110    -3.2590     0.9180 H     1 <1>   0.1500 
 31 H       -3.5600    -2.5070     1.5550 H     1 <1>   0.0800 
 32 H       -4.1520    -0.9090     1.9360 H     1 <1>   0.0800 
 33 H       -3.0490     1.0850     0.9700 H     1 <1>   0.0800 
 34 H       -1.7230     0.8970    -0.1540 H     1 <1>   0.0800 
 35 H        6.0400    -0.3700    -1.8020 H     1 <1>   0.1500 
 36 H        5.5240    -3.8920     0.1890 H     1 <1>   0.1500 
 37 H       -3.8320     1.4720    -1.2900 H     1 <1>   0.0800 
 38 H       -3.1870    -0.0360    -1.8350 H     1 <1>   0.0800 
 39 H       -5.8290    -3.0680     1.2030 H     1 <1>   0.0800 
 40 H       -5.5990    -0.2760    -1.4860 H     1 <1>   0.0800 
 41 H       -5.4710     0.4240     0.0900 H     1 <1>   0.0800 
 42 H       -3.7250    -2.2640    -1.8250 H     1 <1>   0.0800 
 43 H       -3.9200    -3.5080    -0.6150 H     1 <1>   0.0800 
 44 H       -7.4330    -3.5700    -0.4310 H     1 <1>   0.0800 
 45 H       -7.4250    -1.9300    -1.0670 H     1 <1>   0.0800 
 46 H       -5.7180    -4.1560    -1.8740 H     1 <1>   0.0800 
 47 H       -5.9020    -2.5820    -2.6110 H     1 <1>   0.0800 
 48 H       -8.3110    -0.9600     2.5450 H     1 <1>   0.0800 
 49 H       -7.6420    -2.5860     2.5930 H     1 <1>   0.0800 
 50 H       -8.6280    -2.0640     1.2190 H     1 <1>   0.0800 
@<TRIPOS>BOND
  1   1   2  1   
  2   1   3  1   
  3   2   4  2   
  4   3   5  2   
  5   3   6  1   
  6   4   5  1   
  7   4   7  1   
  8   5  25  1   
  9   6   8  1   
 10   6  26  1   
 11   6  27  1   
 12   7   9  ar  
 13   7  10  ar  
 14   8  11  1   
 15   8  12  1   
 16   8  28  1   
 17   9  13  ar  
 18   9  29  1   
 19  10  14  ar  
 20  10  30  1   
 21  11  15  1   
 22  11  31  1   
 23  11  32  1   
 24  12  16  1   
 25  12  33  1   
 26  12  34  1   
 27  13  17  ar  
 28  13  35  1   
 29  14  17  ar  
 30  14  36  1   
 31  15  18  1   
 32  15  19  1   
 33  15  20  1   
 34  16  19  1   
 35  16  37  1   
 36  16  38  1   
 37  18  21  1   
 38  18  22  1   
 39  18  39  1   
 40  19  40  1   
 41  19  41  1   
 42  20  23  1   
 43  20  42  1   
 44  20  43  1   
 45  21  24  1   
 46  22  23  1   
 47  22  44  1   
 48  22  45  1   
 49  23  46  1   
 50  23  47  1   
 51  24  48  1   
 52  24  49  1   
 53  24  50  1   
@<TRIPOS>SUBSTRUCTURE
  1 ****   8 GROUP 4 **** **** 0

# MOE 2024.06 (io_trps.svl 2023.06)
