@<TRIPOS>MOLECULE
NONAME
57 60 1 0 0 
SMALL
USER_CHARGES


@<TRIPOS>ATOM
  1 O       -2.6500     0.6560    -1.9850 O.2   1 <1>  -0.5700 
  2 C       -2.4730     1.1180    -0.8740 C.2   1 <1>   0.5440 
  3 N       -2.6320     0.2570     0.1890 N.am  1 <1>  -0.6600 
  4 C       -2.1970     2.5320    -0.6850 C.ar  1 <1>   0.0860 
  5 C       -3.6280     0.5670     1.2560 C.3   1 <1>   0.1400 
  6 C       -2.4320    -1.2060    -0.0250 C.3   1 <1>   0.1400 
  7 C       -2.6520     3.4840    -1.5980 C.ar  1 <1>  -0.1500 
  8 C       -1.4770     3.0030     0.4140 C.ar  1 <1>  -0.1500 
  9 C       -4.9850    -0.1280     0.9760 C.3   1 <1>   0.4230 
 10 C       -3.7760    -1.8700    -0.3670 C.3   1 <1>   0.3430 
 11 C       -2.4210     4.8330    -1.4110 C.ar  1 <1>  -0.1500 
 12 C       -1.2460     4.3520     0.6010 C.ar  1 <1>  -0.1500 
 13 N       -4.8250    -1.6160     0.6970 N.4   1 <1>  -0.9590 
 14 C       -5.7370     0.5720    -0.1810 C.3   1 <1>   0.1200 
 15 C       -1.7180     5.2970    -0.3040 C.ar  1 <1>   0.0000 
 16 C       -6.1700    -2.2060     0.3610 C.3   1 <1>   0.4230 
 17 O       -6.9670    -0.0530    -0.4030 O.3   1 <1>  -0.5600 
 18 C       -1.4830     6.7070    -0.1040 C.ar  1 <1>   0.0000 
 19 C       -6.8790    -1.4040    -0.7580 C.3   1 <1>   0.1200 
 20 C       -6.0400    -3.7030     0.0330 C.3   1 <1>  -0.1600 
 21 C       -0.1880     7.2090     0.0190 C.ar  1 <1>  -0.1500 
 22 C       -2.5450     7.6070    -0.0260 C.ar  1 <1>  -0.1500 
 23 C       -7.3950    -4.4290     0.0630 C.3   1 <1>  -0.1600 
 24 C        0.0390     8.5580     0.2150 C.ar  1 <1>  -0.1500 
 25 C       -2.3280     8.9590     0.1680 C.ar  1 <1>  -0.1500 
 26 C       -7.2140    -5.9290    -0.1850 C.3   1 <1>  -0.2400 
 27 C       -1.0310     9.4320     0.2890 C.ar  1 <1>   0.0820 
 28 O       -0.8010    10.7370     0.4790 O.3   1 <1>  -0.5330 
 29 H       -3.2430     0.2370     2.2050 H     1 <1>   0.0800 
 30 H       -3.7810     1.6310     1.3250 H     1 <1>   0.0800 
 31 H       -1.7390    -1.3640    -0.8350 H     1 <1>   0.0800 
 32 H       -2.0070    -1.6490     0.8590 H     1 <1>   0.0800 
 33 H       -3.1930     3.1560    -2.4700 H     1 <1>   0.1500 
 34 H       -1.0860     2.3010     1.1290 H     1 <1>   0.1500 
 35 H       -5.5960    -0.0040     1.8540 H     1 <1>   0.0800 
 36 H       -3.6180    -2.9290    -0.4860 H     1 <1>   0.0800 
 37 H       -4.1100    -1.4770    -1.3140 H     1 <1>   0.0800 
 38 H       -2.7820     5.5430    -2.1350 H     1 <1>   0.1500 
 39 H       -0.6920     4.6880     1.4610 H     1 <1>   0.1500 
 40 H       -4.5030    -2.0610     1.5640 H     1 <1>   0.4500 
 41 H       -5.1710     0.5530    -1.0970 H     1 <1>   0.0800 
 42 H       -5.9370     1.5990     0.0710 H     1 <1>   0.0800 
 43 H       -6.7950    -2.1280     1.2360 H     1 <1>   0.0800 
 44 H       -7.8850    -1.7610    -0.8960 H     1 <1>   0.0800 
 45 H       -6.3580    -1.4850    -1.6960 H     1 <1>   0.0800 
 46 H       -5.6050    -3.8350    -0.9430 H     1 <1>   0.0800 
 47 H       -5.4000    -4.1690     0.7620 H     1 <1>   0.0800 
 48 H        0.6470     6.5340    -0.0440 H     1 <1>   0.1500 
 49 H       -3.5510     7.2370    -0.1170 H     1 <1>   0.1500 
 50 H       -7.8680    -4.2910     1.0220 H     1 <1>   0.0800 
 51 H       -8.0540    -4.0360    -0.6930 H     1 <1>   0.0800 
 52 H        1.0390     8.9420     0.3090 H     1 <1>   0.1500 
 53 H       -3.1610     9.6340     0.2260 H     1 <1>   0.1500 
 54 H       -6.5900    -6.3710     0.5720 H     1 <1>   0.0800 
 55 H       -6.7690    -6.1060    -1.1490 H     1 <1>   0.0800 
 56 H       -8.1710    -6.4220    -0.1620 H     1 <1>   0.0800 
 57 H       -1.6130    11.2710     0.5200 H     1 <1>   0.4500 
@<TRIPOS>BOND
  1   1   2  2   
  2   2   3  am  
  3   2   4  1   
  4   3   5  1   
  5   3   6  1   
  6   4   7  ar  
  7   4   8  ar  
  8   5   9  1   
  9   5  29  1   
 10   5  30  1   
 11   6  10  1   
 12   6  31  1   
 13   6  32  1   
 14   7  11  ar  
 15   7  33  1   
 16   8  12  ar  
 17   8  34  1   
 18   9  13  1   
 19   9  14  1   
 20   9  35  1   
 21  10  13  1   
 22  10  36  1   
 23  10  37  1   
 24  11  15  ar  
 25  11  38  1   
 26  12  15  ar  
 27  12  39  1   
 28  13  16  1   
 29  13  40  1   
 30  14  17  1   
 31  14  41  1   
 32  14  42  1   
 33  15  18  1   
 34  16  19  1   
 35  16  20  1   
 36  16  43  1   
 37  17  19  1   
 38  18  21  ar  
 39  18  22  ar  
 40  19  44  1   
 41  19  45  1   
 42  20  23  1   
 43  20  46  1   
 44  20  47  1   
 45  21  24  ar  
 46  21  48  1   
 47  22  25  ar  
 48  22  49  1   
 49  23  26  1   
 50  23  50  1   
 51  23  51  1   
 52  24  27  ar  
 53  24  52  1   
 54  25  27  ar  
 55  25  53  1   
 56  26  54  1   
 57  26  55  1   
 58  26  56  1   
 59  27  28  1   
 60  28  57  1   
@<TRIPOS>SUBSTRUCTURE
  1 ****   4 GROUP 4 **** **** 0

# MOE 2024.06 (io_trps.svl 2023.06)
