@<TRIPOS>MOLECULE
NONAME
50 52 1 0 0 
SMALL
USER_CHARGES


@<TRIPOS>ATOM
  1 F       -0.6230    -0.0140    -0.4200 F     1 <1>  -0.1900 
  2 C       -1.8640     0.4030    -0.4230 C.ar  1 <1>   0.1900 
  3 C       -2.3110     1.4090     0.4400 C.ar  1 <1>   0.0830 
  4 C       -2.7140    -0.2070    -1.3250 C.ar  1 <1>  -0.1500 
  5 O       -1.5720     2.0850     1.3670 O.3   1 <1>  -0.3630 
  6 C       -3.6450     1.7750     0.3640 C.ar  1 <1>  -0.1500 
  7 C       -4.0400     0.1830    -1.3760 C.ar  1 <1>  -0.1500 
  8 C       -0.1850     1.8910     1.5350 C.3   1 <1>   0.0400 
  9 C       -4.5360     1.1760    -0.5290 C.ar  1 <1>   0.0530 
 10 C       -5.9190     1.5780    -0.5640 C.2   1 <1>   0.0870 
 11 O       -6.2610     2.8190    -0.3290 O.3   1 <1>  -0.0190 
 12 C       -7.0680     0.8910    -0.7870 C.2   1 <1>  -0.0860 
 13 N       -7.5530     3.0100    -0.3830 N.2   1 <1>  -0.4100 
 14 C       -8.0660     1.8630    -0.6660 C.2   1 <1>   0.3720 
 15 C       -7.2730    -0.4990    -1.0360 C.2   1 <1>   0.7160 
 16 N       -9.4460     1.6300    -0.8040 N.pl3 1 <1>  -0.8210 
 17 O       -7.1380    -0.9180    -2.1740 O.2   1 <1>  -0.5700 
 18 N       -7.5930    -1.3820    -0.0230 N.am  1 <1>  -0.6600 
 19 C       -9.8650     0.9580    -2.0680 C.3   1 <1>   0.1290 
 20 C      -10.3480     2.7450    -0.4000 C.3   1 <1>   0.1290 
 21 C       -7.8480    -0.9240     1.3750 C.3   1 <1>   0.1400 
 22 C       -7.7280    -2.8380    -0.3000 C.3   1 <1>   0.1400 
 23 C       -9.0190    -1.6430     2.0600 C.3   1 <1>  -0.1600 
 24 C       -9.1550    -3.1540    -0.7600 C.3   1 <1>  -0.1600 
 25 C      -10.2600    -1.8250     1.1700 C.3   1 <1>  -0.1600 
 26 C      -10.2140    -3.1270     0.3550 C.3   1 <1>  -0.1600 
 27 H       -2.3410    -0.9740    -1.9790 H     1 <1>   0.1500 
 28 H       -4.0000     2.5470     1.0230 H     1 <1>   0.1500 
 29 H       -4.6940    -0.2870    -2.0890 H     1 <1>   0.1500 
 30 H        0.1580     2.5680     2.2960 H     1 <1>   0.0800 
 31 H        0.3140     2.1050     0.6060 H     1 <1>   0.0800 
 32 H       -0.0070     0.8760     1.8440 H     1 <1>   0.0800 
 33 H       -9.0990     1.0580    -2.8190 H     1 <1>   0.0800 
 34 H      -10.7750     1.3880    -2.4490 H     1 <1>   0.0800 
 35 H      -10.0300    -0.0880    -1.8790 H     1 <1>   0.0800 
 36 H      -10.0550     3.1210     0.5650 H     1 <1>   0.0800 
 37 H      -11.3630     2.3920    -0.3370 H     1 <1>   0.0800 
 38 H      -10.2900     3.5440    -1.1180 H     1 <1>   0.0800 
 39 H       -8.0750     0.1270     1.3760 H     1 <1>   0.0800 
 40 H       -6.9530    -1.0620     1.9570 H     1 <1>   0.0800 
 41 H       -7.4740    -3.4110     0.5750 H     1 <1>   0.0800 
 42 H       -7.0380    -3.1140    -1.0790 H     1 <1>   0.0800 
 43 H       -9.2970    -1.0500     2.9140 H     1 <1>   0.0800 
 44 H       -8.6900    -2.5920     2.4440 H     1 <1>   0.0800 
 45 H       -9.1550    -4.1380    -1.1930 H     1 <1>   0.0800 
 46 H       -9.4300    -2.4680    -1.5420 H     1 <1>   0.0800 
 47 H      -10.3830    -0.9750     0.5200 H     1 <1>   0.0800 
 48 H      -11.1260    -1.8690     1.8080 H     1 <1>   0.0800 
 49 H      -10.0460    -3.9550     1.0210 H     1 <1>   0.0800 
 50 H      -11.1780    -3.2780    -0.0980 H     1 <1>   0.0800 
@<TRIPOS>BOND
  1   1   2  1   
  2   2   3  ar  
  3   2   4  ar  
  4   3   5  1   
  5   3   6  ar  
  6   4   7  ar  
  7   4  27  1   
  8   5   8  1   
  9   6   9  ar  
 10   6  28  1   
 11   7   9  ar  
 12   7  29  1   
 13   8  30  1   
 14   8  31  1   
 15   8  32  1   
 16   9  10  1   
 17  10  11  1   
 18  10  12  2   
 19  11  13  1   
 20  12  14  1   
 21  12  15  1   
 22  13  14  2   
 23  14  16  1   
 24  15  17  2   
 25  15  18  am  
 26  16  19  1   
 27  16  20  1   
 28  18  21  1   
 29  18  22  1   
 30  19  33  1   
 31  19  34  1   
 32  19  35  1   
 33  20  36  1   
 34  20  37  1   
 35  20  38  1   
 36  21  23  1   
 37  21  39  1   
 38  21  40  1   
 39  22  24  1   
 40  22  41  1   
 41  22  42  1   
 42  23  25  1   
 43  23  43  1   
 44  23  44  1   
 45  24  26  1   
 46  24  45  1   
 47  24  46  1   
 48  25  26  1   
 49  25  47  1   
 50  25  48  1   
 51  26  49  1   
 52  26  50  1   
@<TRIPOS>SUBSTRUCTURE
  1 ****  12 GROUP 4 **** **** 0

# MOE 2024.06 (io_trps.svl 2023.06)
