@<TRIPOS>MOLECULE
NONAME
45 47 1 0 0 
SMALL
USER_CHARGES


@<TRIPOS>ATOM
  1 S       -2.4400     0.3300    -1.2340 S.3   1 <1>  -0.0800 
  2 C       -1.2690     1.2820    -0.3520 C.2   1 <1>   0.1980 
  3 C       -2.0510    -1.0260    -0.2170 C.2   1 <1>  -0.1100 
  4 N       -0.6670     0.6560     0.5830 N.2   1 <1>  -0.5650 
  5 C       -1.0810     2.7340    -0.7680 C.3   1 <1>   0.5230 
  6 C       -1.1090    -0.6560     0.6640 C.2   1 <1>   0.0460 
  7 N        0.1230     3.2880    -0.0690 N.4   1 <1>  -0.9590 
  8 C       -0.4890    -1.5320     1.7310 C.3   1 <1>  -0.0590 
  9 C        0.0270     4.7750     0.1320 C.3   1 <1>   0.3430 
 10 C        1.3750     2.8170    -0.7310 C.3   1 <1>   0.3430 
 11 C        1.2140     5.4090     0.8880 C.3   1 <1>   0.2090 
 12 C        2.5290     2.8100     0.2680 C.3   1 <1>  -0.1600 
 13 N        2.4860     5.3250     0.1010 N.pl3 1 <1>  -0.8380 
 14 C        3.3320     4.1130     0.2990 C.3   1 <1>   0.2090 
 15 C        3.0480     6.4320    -0.4540 C.ar  1 <1>   0.1000 
 16 C        3.5940     7.4900     0.3020 C.ar  1 <1>  -0.1440 
 17 C        3.1230     6.5350    -1.8480 C.ar  1 <1>  -0.1500 
 18 C        4.1530     8.5690    -0.3410 C.ar  1 <1>   0.2110 
 19 C        3.6000     7.4480     1.8290 C.3   1 <1>  -0.0970 
 20 C        3.6910     7.6270    -2.4490 C.ar  1 <1>   0.2110 
 21 N        4.1960     8.6340    -1.6950 N.ar  1 <1>  -0.1790 
 22 H       -2.5690    -1.9540    -0.3870 H     1 <1>   0.1500 
 23 H       -1.9630     3.2820    -0.4830 H     1 <1>   0.0800 
 24 H       -0.9630     2.7990    -1.8360 H     1 <1>   0.0800 
 25 H        0.1020     2.8040     0.8450 H     1 <1>   0.4500 
 26 H       -0.9100    -2.5200     1.6960 H     1 <1>   0.0800 
 27 H       -0.6740    -1.1100     2.7020 H     1 <1>   0.0800 
 28 H        0.5720    -1.6010     1.5770 H     1 <1>   0.0800 
 29 H       -0.8720     4.9940     0.6850 H     1 <1>   0.0800 
 30 H       -0.0530     5.2640    -0.8240 H     1 <1>   0.0800 
 31 H        1.6160     3.4360    -1.5810 H     1 <1>   0.0800 
 32 H        1.2300     1.8050    -1.0760 H     1 <1>   0.0800 
 33 H        1.3370     4.9450     1.8510 H     1 <1>   0.0800 
 34 H        0.9770     6.4450     1.0560 H     1 <1>   0.0800 
 35 H        3.2110     2.0280    -0.0140 H     1 <1>   0.0800 
 36 H        2.1770     2.5630     1.2540 H     1 <1>   0.0800 
 37 H        4.0760     4.0840    -0.4800 H     1 <1>   0.0800 
 38 H        3.8550     4.1890     1.2380 H     1 <1>   0.0800 
 39 H        2.7250     5.7330    -2.4420 H     1 <1>   0.1500 
 40 H        4.5760     9.3890     0.2200 H     1 <1>   0.1500 
 41 H        3.9260     6.4840     2.1760 H     1 <1>   0.0800 
 42 H        2.6150     7.6380     2.2140 H     1 <1>   0.0800 
 43 H        4.2670     8.1860     2.2380 H     1 <1>   0.0800 
 44 H        3.7480     7.7060    -3.5240 H     1 <1>   0.1500 
 45 H        4.6220     9.4500    -2.1510 H     1 <1>   0.4570 
@<TRIPOS>BOND
  1   1   2  1   
  2   1   3  1   
  3   2   4  2   
  4   2   5  1   
  5   3   6  2   
  6   3  22  1   
  7   4   6  1   
  8   5   7  1   
  9   5  23  1   
 10   5  24  1   
 11   6   8  1   
 12   7   9  1   
 13   7  10  1   
 14   7  25  1   
 15   8  26  1   
 16   8  27  1   
 17   8  28  1   
 18   9  11  1   
 19   9  29  1   
 20   9  30  1   
 21  10  12  1   
 22  10  31  1   
 23  10  32  1   
 24  11  13  1   
 25  11  33  1   
 26  11  34  1   
 27  12  14  1   
 28  12  35  1   
 29  12  36  1   
 30  13  14  1   
 31  13  15  1   
 32  14  37  1   
 33  14  38  1   
 34  15  16  ar  
 35  15  17  ar  
 36  16  18  ar  
 37  16  19  1   
 38  17  20  ar  
 39  17  39  1   
 40  18  21  ar  
 41  18  40  1   
 42  19  41  1   
 43  19  42  1   
 44  19  43  1   
 45  20  21  ar  
 46  20  44  1   
 47  21  45  1   
@<TRIPOS>SUBSTRUCTURE
  1 ****  10 GROUP 4 **** **** 0

# MOE 2024.06 (io_trps.svl 2023.06)
