@<TRIPOS>MOLECULE
NONAME
54 57 1 0 0 
SMALL
USER_CHARGES


@<TRIPOS>ATOM
  1 O        0.1230    -2.4070    -0.8470 O.3   1 <1>  -0.6800 
  2 C       -1.1500    -2.9100    -0.6290 C.3   1 <1>   0.2000 
  3 C       -1.4640    -3.9970    -1.6740 C.3   1 <1>   0.2090 
  4 C       -2.1340    -1.7400    -0.7130 C.3   1 <1>  -0.1600 
  5 N       -2.8920    -4.4460    -1.5530 N.pl3 1 <1>  -0.8380 
  6 C       -3.5810    -2.2510    -0.6260 C.3   1 <1>  -0.1600 
  7 C       -3.2730    -5.7120    -1.2390 C.ar  1 <1>   0.4100 
  8 C       -3.8690    -3.3200    -1.6860 C.3   1 <1>   0.2090 
  9 N       -4.3800    -5.8650    -0.5350 N.ar  1 <1>  -0.6200 
 10 C       -2.5130    -6.8230    -1.6510 C.ar  1 <1>  -0.1500 
 11 C       -4.7380    -7.0870    -0.1920 C.ar  1 <1>   0.7710 
 12 C       -2.9180    -8.0660    -1.3010 C.ar  1 <1>   0.2110 
 13 N       -4.0460    -8.1790    -0.5640 N.ar  1 <1>  -0.1790 
 14 N       -5.8450    -7.1470     0.5590 N.pl3 1 <1>  -0.8690 
 15 C       -6.5370    -8.1930     1.3510 C.3   1 <1>   0.2890 
 16 C       -5.5510    -9.0900     2.1210 C.3   1 <1>  -0.1600 
 17 C       -7.4970    -8.9870     0.4580 C.3   1 <1>  -0.1600 
 18 C       -5.4840   -10.5210     1.5820 C.3   1 <1>   0.2090 
 19 C       -6.7850    -9.9420    -0.5060 C.3   1 <1>   0.2090 
 20 N       -5.5210   -10.4810     0.0940 N.pl3 1 <1>  -0.8380 
 21 C       -4.8760   -11.4960    -0.5890 C.ar  1 <1>   0.4100 
 22 N       -3.7940   -11.0660    -1.2260 N.ar  1 <1>  -0.6200 
 23 C       -5.3200   -12.8310    -0.6010 C.ar  1 <1>   0.0730 
 24 C       -3.1190   -11.9820    -1.9030 C.ar  1 <1>   0.1600 
 25 C       -6.4970   -13.2230     0.1080 C.1   1 <1>   0.4840 
 26 C       -4.5900   -13.7600    -1.3180 C.ar  1 <1>  -0.1500 
 27 C       -3.4660   -13.3180    -1.9810 C.ar  1 <1>  -0.1500 
 28 N       -7.4410   -13.4940     0.6880 N.1   1 <1>  -0.5570 
 29 H        0.8040    -3.0230    -0.5160 H     1 <1>   0.4000 
 30 H       -1.1750    -3.3370     0.3590 H     1 <1>   0.0800 
 31 H       -0.7920    -4.8190    -1.5210 H     1 <1>   0.0800 
 32 H       -1.3090    -3.5960    -2.6610 H     1 <1>   0.0800 
 33 H       -1.9970    -1.2240    -1.6480 H     1 <1>   0.0800 
 34 H       -1.9450    -1.0500     0.0910 H     1 <1>   0.0800 
 35 H       -4.2610    -1.4290    -0.7600 H     1 <1>   0.0800 
 36 H       -3.7640    -2.6730     0.3470 H     1 <1>   0.0800 
 37 H       -4.8810    -3.6710    -1.5830 H     1 <1>   0.0800 
 38 H       -3.7730    -2.8890    -2.6680 H     1 <1>   0.0800 
 39 H       -1.6380    -6.6700    -2.2520 H     1 <1>   0.1500 
 40 H       -2.3880    -8.9590    -1.5880 H     1 <1>   0.1500 
 41 H       -4.4350    -9.1080    -0.3210 H     1 <1>   0.4570 
 42 H       -6.2560    -6.2180     0.6990 H     1 <1>   0.4000 
 43 H       -7.1340    -7.6760     2.0860 H     1 <1>   0.0800 
 44 H       -5.8830    -9.1570     3.1420 H     1 <1>   0.0800 
 45 H       -4.5690    -8.6550     2.1520 H     1 <1>   0.0800 
 46 H       -8.1350    -8.3190    -0.0910 H     1 <1>   0.0800 
 47 H       -8.1390    -9.5750     1.0910 H     1 <1>   0.0800 
 48 H       -6.3290   -11.0840     1.9460 H     1 <1>   0.0800 
 49 H       -4.5850   -11.0070     1.9260 H     1 <1>   0.0800 
 50 H       -6.5400    -9.4130    -1.4120 H     1 <1>   0.0800 
 51 H       -7.4520   -10.7470    -0.7700 H     1 <1>   0.0800 
 52 H       -2.2360   -11.6600    -2.4300 H     1 <1>   0.1500 
 53 H       -4.8870   -14.7960    -1.3600 H     1 <1>   0.1500 
 54 H       -2.8640   -14.0030    -2.5530 H     1 <1>   0.1500 
@<TRIPOS>BOND
  1   1   2  1   
  2   1  29  1   
  3   2   3  1   
  4   2   4  1   
  5   2  30  1   
  6   3   5  1   
  7   3  31  1   
  8   3  32  1   
  9   4   6  1   
 10   4  33  1   
 11   4  34  1   
 12   5   7  1   
 13   5   8  1   
 14   6   8  1   
 15   6  35  1   
 16   6  36  1   
 17   7   9  ar  
 18   7  10  ar  
 19   8  37  1   
 20   8  38  1   
 21   9  11  ar  
 22  10  12  ar  
 23  10  39  1   
 24  11  13  ar  
 25  11  14  1   
 26  12  13  ar  
 27  12  40  1   
 28  13  41  1   
 29  14  15  1   
 30  14  42  1   
 31  15  16  1   
 32  15  17  1   
 33  15  43  1   
 34  16  18  1   
 35  16  44  1   
 36  16  45  1   
 37  17  19  1   
 38  17  46  1   
 39  17  47  1   
 40  18  20  1   
 41  18  48  1   
 42  18  49  1   
 43  19  20  1   
 44  19  50  1   
 45  19  51  1   
 46  20  21  1   
 47  21  22  ar  
 48  21  23  ar  
 49  22  24  ar  
 50  23  25  1   
 51  23  26  ar  
 52  24  27  ar  
 53  24  52  1   
 54  25  28  3   
 55  26  27  ar  
 56  26  53  1   
 57  27  54  1   
@<TRIPOS>SUBSTRUCTURE
  1 ****  13 GROUP 4 **** **** 0

# MOE 2024.06 (io_trps.svl 2023.06)
