@<TRIPOS>MOLECULE
NONAME
50 53 1 0 0 
SMALL
USER_CHARGES


@<TRIPOS>ATOM
  1 O       -1.0930    -0.0610     0.0860 O.2   1 <1>  -0.5700 
  2 C       -1.7740     0.8160    -0.4230 C.2   1 <1>   0.5440 
  3 N       -2.9860     0.4260    -0.9520 N.am  1 <1>  -0.6600 
  4 C       -1.3390     2.2040    -0.4270 C.ar  1 <1>   0.0860 
  5 C       -3.1740    -0.9870    -1.3700 C.3   1 <1>   0.1400 
  6 C       -4.2430     1.1010    -0.5270 C.3   1 <1>   0.1400 
  7 C       -0.4200     2.6880     0.5250 C.ar  1 <1>  -0.1520 
  8 C       -1.7960     3.1310    -1.3570 C.ar  1 <1>  -0.1500 
  9 C       -3.7440    -1.7930    -0.1820 C.3   1 <1>   0.4230 
 10 C       -4.8360     0.3200     0.6540 C.3   1 <1>  -0.1600 
 11 N        0.2310     2.0200     1.5280 N.pl3 1 <1>   0.0330 
 12 C       -0.0220     4.0210     0.5650 C.ar  1 <1>   0.0000 
 13 C       -1.3990     4.4700    -1.3330 C.ar  1 <1>  -0.1500 
 14 N       -3.7940    -3.2970    -0.4210 N.4   1 <1>  -0.9590 
 15 C       -5.0790    -1.1880     0.3500 C.3   1 <1>   0.0000 
 16 C        1.0150     2.9130     2.2040 C.2   1 <1>  -0.3020 
 17 C       -0.5200     4.9220    -0.3760 C.ar  1 <1>  -0.1500 
 18 C        0.8810     4.1380     1.6440 C.2   1 <1>  -0.1500 
 19 C       -4.7000    -4.0360     0.5180 C.3   1 <1>   0.3430 
 20 C       -4.0650    -3.7200    -1.8340 C.3   1 <1>   0.2630 
 21 C       -5.4770    -1.9050     1.6740 C.3   1 <1>  -0.1600 
 22 C       -6.2020    -1.3500    -0.7140 C.3   1 <1>   0.1200 
 23 C       -4.8350    -3.2950     1.8470 C.3   1 <1>  -0.1600 
 24 O       -7.3430    -0.6460    -0.3680 O.3   1 <1>  -0.6800 
 25 H       -3.8290    -1.0110    -2.2210 H     1 <1>   0.0800 
 26 H       -2.2210    -1.3950    -1.6630 H     1 <1>   0.0800 
 27 H       -4.0420     2.1140    -0.2190 H     1 <1>   0.0800 
 28 H       -4.9370     1.1370    -1.3500 H     1 <1>   0.0800 
 29 H       -2.4770     2.8170    -2.1280 H     1 <1>   0.1500 
 30 H       -3.0320    -1.6420     0.6140 H     1 <1>   0.0800 
 31 H       -4.1490     0.4210     1.4770 H     1 <1>   0.0800 
 32 H       -5.7490     0.8000     0.9600 H     1 <1>   0.0800 
 33 H        0.1560     1.0060     1.6820 H     1 <1>   0.2700 
 34 H       -1.7860     5.1490    -2.0730 H     1 <1>   0.1500 
 35 H       -2.8380    -3.6120    -0.1960 H     1 <1>   0.4500 
 36 H        1.6230     2.6170     3.0400 H     1 <1>   0.1500 
 37 H       -0.2060     5.9490    -0.3410 H     1 <1>   0.1500 
 38 H        1.3600     5.0580     1.9330 H     1 <1>   0.1500 
 39 H       -5.6810    -4.1300     0.0790 H     1 <1>   0.0800 
 40 H       -4.3170    -5.0300     0.6900 H     1 <1>   0.0800 
 41 H       -5.0360    -3.3790    -2.1520 H     1 <1>   0.0800 
 42 H       -4.0360    -4.7950    -1.9130 H     1 <1>   0.0800 
 43 H       -3.3210    -3.3140    -2.5000 H     1 <1>   0.0800 
 44 H       -5.1890    -1.3130     2.5280 H     1 <1>   0.0800 
 45 H       -6.5470    -2.0060     1.7330 H     1 <1>   0.0800 
 46 H       -6.4850    -2.3790    -0.8370 H     1 <1>   0.0800 
 47 H       -5.8940    -0.9670    -1.6710 H     1 <1>   0.0800 
 48 H       -5.4380    -3.8810     2.5190 H     1 <1>   0.0800 
 49 H       -3.8620    -3.2020     2.2980 H     1 <1>   0.0800 
 50 H       -7.7470    -0.9760     0.4590 H     1 <1>   0.4000 
@<TRIPOS>BOND
  1   1   2  2   
  2   2   3  am  
  3   2   4  1   
  4   3   5  1   
  5   3   6  1   
  6   4   7  ar  
  7   4   8  ar  
  8   5   9  1   
  9   5  25  1   
 10   5  26  1   
 11   6  10  1   
 12   6  27  1   
 13   6  28  1   
 14   7  11  1   
 15   7  12  ar  
 16   8  13  ar  
 17   8  29  1   
 18   9  14  1   
 19   9  15  1   
 20   9  30  1   
 21  10  15  1   
 22  10  31  1   
 23  10  32  1   
 24  11  16  1   
 25  11  33  1   
 26  12  17  ar  
 27  12  18  1   
 28  13  17  ar  
 29  13  34  1   
 30  14  19  1   
 31  14  20  1   
 32  14  35  1   
 33  15  21  1   
 34  15  22  1   
 35  16  18  2   
 36  16  36  1   
 37  17  37  1   
 38  18  38  1   
 39  19  23  1   
 40  19  39  1   
 41  19  40  1   
 42  20  41  1   
 43  20  42  1   
 44  20  43  1   
 45  21  23  1   
 46  21  44  1   
 47  21  45  1   
 48  22  24  1   
 49  22  46  1   
 50  22  47  1   
 51  23  48  1   
 52  23  49  1   
 53  24  50  1   
@<TRIPOS>SUBSTRUCTURE
  1 ****   3 GROUP 4 **** **** 0

# MOE 2024.06 (io_trps.svl 2023.06)
