@<TRIPOS>MOLECULE
NONAME
63 66 1 0 0 
SMALL
USER_CHARGES


@<TRIPOS>ATOM
  1 O       -0.4690     0.2520     0.0190 O.2   1 <1>  -0.5700 
  2 C       -1.4960     0.8350    -0.2390 C.2   1 <1>   0.5690 
  3 N       -2.6610     0.1540    -0.4500 N.am  1 <1>  -0.6600 
  4 C       -1.4900     2.3530    -0.3290 C.3   1 <1>  -0.0990 
  5 C       -3.9960     0.7380    -0.7350 C.3   1 <1>   0.1400 
  6 C       -2.7470    -1.3260    -0.3850 C.3   1 <1>   0.1400 
  7 C       -0.0890     2.9830    -0.1860 C.3   1 <1>  -0.0990 
  8 C       -4.9740    -0.3830    -0.3880 C.3   1 <1>   0.2000 
  9 C       -4.2020    -1.6610    -0.7430 C.3   1 <1>  -0.0800 
 10 C       -0.0780     4.5060    -0.2860 C.2   1 <1>   0.4230 
 11 O       -5.2060    -0.3400     0.9790 O.3   1 <1>  -0.6800 
 12 C       -4.7400    -2.9420    -0.0700 C.3   1 <1>  -0.0160 
 13 O       -1.1280     5.0580    -0.5100 O.2   1 <1>  -0.5700 
 14 C        1.1650     5.2320    -0.1130 C.ar  1 <1>   0.0860 
 15 C       -4.1090    -4.2700    -0.5060 C.ar  1 <1>  -0.1440 
 16 C        2.3970     4.6060     0.1160 C.ar  1 <1>  -0.1500 
 17 C        1.1760     6.6270    -0.1710 C.ar  1 <1>  -0.1500 
 18 C       -4.4220    -5.4590     0.2000 C.ar  1 <1>   0.0000 
 19 C       -3.2500    -4.3900    -1.5640 C.ar  1 <1>  -0.1500 
 20 C        3.5700     5.3230     0.2790 C.ar  1 <1>  -0.1440 
 21 C        2.3360     7.3590    -0.0120 C.ar  1 <1>  -0.1500 
 22 C       -3.8110    -6.6660    -0.2220 C.ar  1 <1>   0.3100 
 23 C       -5.3140    -5.5240     1.2980 C.ar  1 <1>  -0.1500 
 24 C       -2.7030    -5.6340    -1.9000 C.ar  1 <1>   0.1600 
 25 C        3.5470     6.7130     0.2160 C.ar  1 <1>   0.0820 
 26 C        4.8810     4.5890     0.5260 C.3   1 <1>  -0.0970 
 27 N       -2.9550    -6.7360    -1.2700 N.ar  1 <1>  -0.6200 
 28 C       -4.1000    -7.8550     0.4670 C.ar  1 <1>  -0.1500 
 29 C       -5.5760    -6.7000     1.9460 C.ar  1 <1>  -0.1500 
 30 O        4.7170     7.3750     0.3800 O.3   1 <1>  -0.3620 
 31 C       -4.9610    -7.8820     1.5290 C.ar  1 <1>  -0.1500 
 32 C        4.8020     8.7790     0.3340 C.3   1 <1>   0.1200 
 33 C        6.2600     9.1700     0.5570 C.3   1 <1>  -0.2400 
 34 H       -1.9040     2.6380    -1.2790 H     1 <1>   0.0800 
 35 H       -2.1270     2.7410     0.4450 H     1 <1>   0.0800 
 36 H       -4.1880     1.6250    -0.1550 H     1 <1>   0.0800 
 37 H       -4.0600     0.9700    -1.7840 H     1 <1>   0.0800 
 38 H       -2.0480    -1.7720    -1.0700 H     1 <1>   0.0800 
 39 H       -2.5110    -1.6470     0.6160 H     1 <1>   0.0800 
 40 H        0.5480     2.5850    -0.9560 H     1 <1>   0.0800 
 41 H        0.3170     2.6990     0.7690 H     1 <1>   0.0800 
 42 H       -5.9180    -0.2950    -0.8990 H     1 <1>   0.0800 
 43 H       -4.2680    -1.7750    -1.8100 H     1 <1>   0.0800 
 44 H       -4.3460    -0.2700     1.4410 H     1 <1>   0.4000 
 45 H       -5.7990    -3.0020    -0.2540 H     1 <1>   0.0800 
 46 H       -4.6040    -2.8410     0.9920 H     1 <1>   0.0800 
 47 H        2.4480     3.5350     0.1690 H     1 <1>   0.1500 
 48 H        0.2500     7.1470    -0.3470 H     1 <1>   0.1500 
 49 H       -2.9590    -3.5600    -2.1760 H     1 <1>   0.1500 
 50 H        2.2790     8.4290    -0.0670 H     1 <1>   0.1500 
 51 H       -5.8060    -4.6320     1.6360 H     1 <1>   0.1500 
 52 H       -2.0280    -5.6760    -2.7380 H     1 <1>   0.1500 
 53 H        4.7380     3.5240     0.5480 H     1 <1>   0.0800 
 54 H        5.2990     4.9000     1.4670 H     1 <1>   0.0800 
 55 H        5.5820     4.8260    -0.2550 H     1 <1>   0.0800 
 56 H       -3.6160    -8.7520     0.1260 H     1 <1>   0.1500 
 57 H       -6.2560    -6.7310     2.7800 H     1 <1>   0.1500 
 58 H       -5.1730    -8.8020     2.0480 H     1 <1>   0.1500 
 59 H        4.4630     9.1090    -0.6330 H     1 <1>   0.0800 
 60 H        4.1760     9.1850     1.1090 H     1 <1>   0.0800 
 61 H        6.8780     8.7460    -0.2140 H     1 <1>   0.0800 
 62 H        6.5930     8.8210     1.5180 H     1 <1>   0.0800 
 63 H        6.3590    10.2400     0.5270 H     1 <1>   0.0800 
@<TRIPOS>BOND
  1   1   2  2   
  2   2   3  am  
  3   2   4  1   
  4   3   5  1   
  5   3   6  1   
  6   4   7  1   
  7   4  34  1   
  8   4  35  1   
  9   5   8  1   
 10   5  36  1   
 11   5  37  1   
 12   6   9  1   
 13   6  38  1   
 14   6  39  1   
 15   7  10  1   
 16   7  40  1   
 17   7  41  1   
 18   8   9  1   
 19   8  11  1   
 20   8  42  1   
 21   9  12  1   
 22   9  43  1   
 23  10  13  2   
 24  10  14  1   
 25  11  44  1   
 26  12  15  1   
 27  12  45  1   
 28  12  46  1   
 29  14  16  ar  
 30  14  17  ar  
 31  15  18  ar  
 32  15  19  ar  
 33  16  20  ar  
 34  16  47  1   
 35  17  21  ar  
 36  17  48  1   
 37  18  22  ar  
 38  18  23  ar  
 39  19  24  ar  
 40  19  49  1   
 41  20  25  ar  
 42  20  26  1   
 43  21  25  ar  
 44  21  50  1   
 45  22  27  ar  
 46  22  28  ar  
 47  23  29  ar  
 48  23  51  1   
 49  24  27  ar  
 50  24  52  1   
 51  25  30  1   
 52  26  53  1   
 53  26  54  1   
 54  26  55  1   
 55  28  31  ar  
 56  28  56  1   
 57  29  31  ar  
 58  29  57  1   
 59  30  32  1   
 60  31  58  1   
 61  32  33  1   
 62  32  59  1   
 63  32  60  1   
 64  33  61  1   
 65  33  62  1   
 66  33  63  1   
@<TRIPOS>SUBSTRUCTURE
  1 ****   2 GROUP 4 **** **** 0

# MOE 2024.06 (io_trps.svl 2023.06)
