@<TRIPOS>MOLECULE
NONAME
52 55 1 0 0 
SMALL
USER_CHARGES


@<TRIPOS>ATOM
  1 S       -3.2000    -3.3790     1.6840 S.3   1 <1>  -0.0800 
  2 C       -2.6960    -3.1450     0.0300 C.2   1 <1>   0.1240 
  3 C       -2.4760    -1.8370     2.1480 C.2   1 <1>  -0.1400 
  4 N       -2.9290    -4.0080    -0.9850 N.pl3 1 <1>  -0.5340 
  5 C       -2.0320    -1.9800    -0.1500 C.2   1 <1>  -0.0860 
  6 C       -1.9080    -1.2320     1.0810 C.2   1 <1>  -0.1810 
  7 C       -2.6120    -1.4740     3.6140 C.3   1 <1>  -0.0600 
  8 C       -2.4890    -3.7000    -2.2340 C.2   1 <1>   0.4390 
  9 C       -1.5970    -1.7190    -1.4910 C.2   1 <1>   0.8670 
 10 C       -1.1900     0.1090     1.0940 C.3   1 <1>  -0.0590 
 11 N       -1.8530    -2.6170    -2.5070 N.2   1 <1>  -0.6610 
 12 C       -2.7600    -4.6900    -3.3540 C.3   1 <1>  -0.0990 
 13 O       -0.9900    -0.7000    -1.7870 O.2   1 <1>  -0.5700 
 14 C       -4.0060    -5.5580    -3.1560 C.3   1 <1>   0.2090 
 15 N       -3.7390    -6.6260    -2.1520 N.pl3 1 <1>  -0.8690 
 16 C       -4.5800    -6.9040    -1.1020 C.ar  1 <1>   0.4100 
 17 N       -5.1970    -5.8850    -0.5410 N.ar  1 <1>  -0.6200 
 18 C       -4.7480    -8.1850    -0.6390 C.ar  1 <1>  -0.1500 
 19 C       -5.9850    -6.1930     0.4720 C.ar  1 <1>   0.4700 
 20 C       -5.5940    -8.3890     0.4240 C.ar  1 <1>   0.4100 
 21 N       -6.2300    -7.3800     0.9910 N.ar  1 <1>  -0.6200 
 22 N       -5.8000    -9.6540     0.9380 N.pl3 1 <1>  -0.8380 
 23 C       -7.1240    -9.9810     1.5330 C.3   1 <1>   0.2090 
 24 C       -4.6530   -10.3310     1.5940 C.3   1 <1>   0.2090 
 25 C       -7.3540   -11.4900     1.4590 C.3   1 <1>  -0.1600 
 26 C       -4.8480   -11.8450     1.5140 C.3   1 <1>  -0.1600 
 27 C       -6.1960   -12.2370     2.1200 C.3   1 <1>   0.2000 
 28 O       -6.3820   -13.5880     1.9320 O.3   1 <1>  -0.6800 
 29 H       -3.4770    -4.8770    -0.8480 H     1 <1>   0.4000 
 30 H       -2.1420    -2.2270     4.2190 H     1 <1>   0.0800 
 31 H       -3.6520    -1.4160     3.8780 H     1 <1>   0.0800 
 32 H       -2.1510    -0.5270     3.8230 H     1 <1>   0.0800 
 33 H       -1.1770     0.5400     2.0770 H     1 <1>   0.0800 
 34 H       -1.6830     0.7950     0.4280 H     1 <1>   0.0800 
 35 H       -0.1740    -0.0170     0.7650 H     1 <1>   0.0800 
 36 H       -1.8980    -5.3160    -3.4850 H     1 <1>   0.0800 
 37 H       -2.8870    -4.1260    -4.2600 H     1 <1>   0.0800 
 38 H       -4.2650    -6.0260    -4.0900 H     1 <1>   0.0800 
 39 H       -4.8400    -4.9430    -2.8580 H     1 <1>   0.0800 
 40 H       -3.2460    -7.4330    -2.5430 H     1 <1>   0.4000 
 41 H       -4.2450    -9.0120    -1.0920 H     1 <1>   0.1500 
 42 H       -6.4960    -5.3660     0.9360 H     1 <1>   0.1500 
 43 H       -7.9030    -9.4680     0.9930 H     1 <1>   0.0800 
 44 H       -7.1460    -9.6470     2.5570 H     1 <1>   0.0800 
 45 H       -4.6020   -10.0190     2.6240 H     1 <1>   0.0800 
 46 H       -3.7310   -10.0550     1.1130 H     1 <1>   0.0800 
 47 H       -7.4380   -11.7690     0.4240 H     1 <1>   0.0800 
 48 H       -8.2740   -11.7320     1.9600 H     1 <1>   0.0800 
 49 H       -4.0550   -12.3330     2.0510 H     1 <1>   0.0800 
 50 H       -4.8020   -12.1400     0.4810 H     1 <1>   0.0800 
 51 H       -6.1930   -12.0510     3.1820 H     1 <1>   0.0800 
 52 H       -6.4090   -13.7850     0.9770 H     1 <1>   0.4000 
@<TRIPOS>BOND
  1   1   2  1   
  2   1   3  1   
  3   2   4  1   
  4   2   5  2   
  5   3   6  2   
  6   3   7  1   
  7   4   8  1   
  8   4  29  1   
  9   5   6  1   
 10   5   9  1   
 11   6  10  1   
 12   7  30  1   
 13   7  31  1   
 14   7  32  1   
 15   8  11  2   
 16   8  12  1   
 17   9  11  1   
 18   9  13  2   
 19  10  33  1   
 20  10  34  1   
 21  10  35  1   
 22  12  14  1   
 23  12  36  1   
 24  12  37  1   
 25  14  15  1   
 26  14  38  1   
 27  14  39  1   
 28  15  16  1   
 29  15  40  1   
 30  16  17  ar  
 31  16  18  ar  
 32  17  19  ar  
 33  18  20  ar  
 34  18  41  1   
 35  19  21  ar  
 36  19  42  1   
 37  20  21  ar  
 38  20  22  1   
 39  22  23  1   
 40  22  24  1   
 41  23  25  1   
 42  23  43  1   
 43  23  44  1   
 44  24  26  1   
 45  24  45  1   
 46  24  46  1   
 47  25  27  1   
 48  25  47  1   
 49  25  48  1   
 50  26  27  1   
 51  26  49  1   
 52  26  50  1   
 53  27  28  1   
 54  27  51  1   
 55  28  52  1   
@<TRIPOS>SUBSTRUCTURE
  1 ****  17 GROUP 4 **** **** 0

# MOE 2024.06 (io_trps.svl 2023.06)
