@<TRIPOS>MOLECULE
NONAME
36 37 1 0 0 
SMALL
USER_CHARGES


@<TRIPOS>ATOM
  1 O       -0.1450    -0.0390    -1.1930 O.2   1 <1>  -0.5700 
  2 C       -1.0890     0.6280    -0.8350 C.2   1 <1>   0.5690 
  3 N       -2.3050     0.0440    -0.5820 N.am  1 <1>  -0.6600 
  4 C       -0.8860     2.1450    -0.7280 C.3   1 <1>   0.1810 
  5 C       -3.5240     0.7390    -0.1020 C.3   1 <1>   0.1400 
  6 C       -2.5180    -1.4200    -0.6400 C.3   1 <1>   0.1400 
  7 O       -1.3420     2.6830     0.4900 O.3   1 <1>  -0.5600 
  8 C       -4.5880    -0.3560    -0.0160 C.3   1 <1>   0.2000 
  9 C       -3.8150    -1.6650     0.1310 C.3   1 <1>  -0.0800 
 10 C       -1.0720     4.0390     0.6440 C.3   1 <1>   0.0400 
 11 O       -5.4250    -0.1710     1.0730 O.3   1 <1>  -0.6800 
 12 C       -4.6070    -2.8860    -0.3610 C.3   1 <1>  -0.0170 
 13 C       -3.7980    -4.1640    -0.2030 C.ar  1 <1>  -0.1440 
 14 C       -3.0980    -4.7260    -1.2520 C.ar  1 <1>  -0.1500 
 15 C       -3.7220    -4.8260     1.0050 C.ar  1 <1>  -0.1500 
 16 C       -2.3730    -5.8890    -1.0450 C.ar  1 <1>   0.1600 
 17 C       -2.9690    -5.9840     1.1050 C.ar  1 <1>   0.1600 
 18 N       -2.2920    -6.5310     0.1090 N.ar  1 <1>  -0.6200 
 19 H       -1.4130     2.6250    -1.5320 H     1 <1>   0.0800 
 20 H        0.1650     2.3550    -0.8180 H     1 <1>   0.0800 
 21 H       -3.3310     1.1600     0.8690 H     1 <1>   0.0800 
 22 H       -3.8170     1.5100    -0.7910 H     1 <1>   0.0800 
 23 H       -2.6170    -1.7140    -1.6710 H     1 <1>   0.0800 
 24 H       -1.6890    -1.9480    -0.1980 H     1 <1>   0.0800 
 25 H       -5.1880    -0.3520    -0.9100 H     1 <1>   0.0800 
 26 H       -3.5460    -1.8060     1.1630 H     1 <1>   0.0800 
 27 H       -1.4660     4.3530     1.5950 H     1 <1>   0.0800 
 28 H       -1.5510     4.5900    -0.1470 H     1 <1>   0.0800 
 29 H       -0.0070     4.1940     0.6250 H     1 <1>   0.0800 
 30 H       -4.9030    -0.1390     1.8980 H     1 <1>   0.4000 
 31 H       -4.8810    -2.7550    -1.3940 H     1 <1>   0.0800 
 32 H       -5.5180    -2.9710     0.2060 H     1 <1>   0.0800 
 33 H       -3.1060    -4.2740    -2.2260 H     1 <1>   0.1500 
 34 H       -4.2400    -4.4530     1.8690 H     1 <1>   0.1500 
 35 H       -1.8320    -6.3120    -1.8740 H     1 <1>   0.1500 
 36 H       -2.9210    -6.4870     2.0560 H     1 <1>   0.1500 
@<TRIPOS>BOND
  1   1   2  2   
  2   2   3  am  
  3   2   4  1   
  4   3   5  1   
  5   3   6  1   
  6   4   7  1   
  7   4  19  1   
  8   4  20  1   
  9   5   8  1   
 10   5  21  1   
 11   5  22  1   
 12   6   9  1   
 13   6  23  1   
 14   6  24  1   
 15   7  10  1   
 16   8   9  1   
 17   8  11  1   
 18   8  25  1   
 19   9  12  1   
 20   9  26  1   
 21  10  27  1   
 22  10  28  1   
 23  10  29  1   
 24  11  30  1   
 25  12  13  1   
 26  12  31  1   
 27  12  32  1   
 28  13  14  ar  
 29  13  15  ar  
 30  14  16  ar  
 31  14  33  1   
 32  15  17  ar  
 33  15  34  1   
 34  16  18  ar  
 35  16  35  1   
 36  17  18  ar  
 37  17  36  1   
@<TRIPOS>SUBSTRUCTURE
  1 ****   6 GROUP 4 **** **** 0

# MOE 2024.06 (io_trps.svl 2023.06)
