@<TRIPOS>MOLECULE
NONAME
57 61 1 0 0 
SMALL
USER_CHARGES


@<TRIPOS>ATOM
  1 O       -0.2720     0.2820     1.5760 O.2   1 <1>  -0.5700 
  2 C       -0.7820     1.3850     1.5340 C.2   1 <1>   0.7150 
  3 N       -2.1350     1.4820     1.2890 N.am  1 <1>  -0.6600 
  4 C        0.0350     2.5490     1.7040 C.2   1 <1>  -0.2370 
  5 C       -2.9300     2.7460     1.3720 C.3   1 <1>   0.1400 
  6 C       -2.9060     0.3000     0.7940 C.3   1 <1>   0.1400 
  7 N        1.0360     2.9330     0.8600 N.pl3 1 <1>   0.3140 
  8 C        0.0010     3.4930     2.6860 C.2   1 <1>  -0.1500 
  9 C       -3.4290     3.1900    -0.0220 C.3   1 <1>   0.1440 
 10 C       -4.0680     0.7180    -0.1250 C.3   1 <1>  -0.1600 
 11 N        1.5840     4.1010     1.2530 N.2   1 <1>  -0.7070 
 12 C        1.6100     2.2510    -0.3470 C.3   1 <1>   0.1760 
 13 C        0.9670     4.4180     2.3490 C.2   1 <1>   0.1390 
 14 C       -4.6540     4.0660     0.1860 C.ar  1 <1>   0.1660 
 15 C       -3.7220     1.9750    -0.9420 C.3   1 <1>  -0.1600 
 16 C       -2.4350     4.1770    -0.6890 C.3   1 <1>  -0.1600 
 17 C        0.5540     1.7900    -1.3640 C.3   1 <1>  -0.2400 
 18 C        2.5460     1.1020     0.0540 C.3   1 <1>  -0.2400 
 19 N       -5.8460     3.6390     0.5290 N.ar  1 <1>  -0.6200 
 20 C       -4.3720     5.3830    -0.0110 C.ar  1 <1>  -0.1440 
 21 C       -2.9270     5.6010    -0.3790 C.3   1 <1>  -0.0170 
 22 C       -6.7920     4.5790     0.6610 C.ar  1 <1>   0.6200 
 23 C       -5.3910     6.2850     0.1480 C.ar  1 <1>   0.1600 
 24 N       -6.6000     5.8940     0.4810 N.ar  1 <1>  -0.6200 
 25 C       -8.1310     4.1360     1.0280 C.ar  1 <1>   0.0000 
 26 C       -8.3430     2.9620     1.7570 C.ar  1 <1>  -0.1500 
 27 C       -9.2690     4.8650     0.6670 C.ar  1 <1>  -0.1500 
 28 C       -9.6130     2.5390     2.1060 C.ar  1 <1>  -0.1500 
 29 C      -10.5420     4.4480     1.0130 C.ar  1 <1>  -0.1500 
 30 C      -10.7170     3.2820     1.7340 C.ar  1 <1>  -0.1500 
 31 H       -2.3770     3.5410     1.8320 H     1 <1>   0.0800 
 32 H       -3.7810     2.5520     2.0030 H     1 <1>   0.0800 
 33 H       -3.2810    -0.2600     1.6340 H     1 <1>   0.0800 
 34 H       -2.2420    -0.3430     0.2400 H     1 <1>   0.0800 
 35 H       -0.6380     3.5290     3.5500 H     1 <1>   0.1500 
 36 H       -4.9430     0.9090     0.4720 H     1 <1>   0.0800 
 37 H       -4.3070    -0.0970    -0.7850 H     1 <1>   0.0800 
 38 H        2.2170     2.9900    -0.8410 H     1 <1>   0.0800 
 39 H        1.1970     5.3040     2.9180 H     1 <1>   0.1500 
 40 H       -2.8510     1.7510    -1.5320 H     1 <1>   0.0800 
 41 H       -4.5250     2.2110    -1.6180 H     1 <1>   0.0800 
 42 H       -2.4570     4.0450    -1.7570 H     1 <1>   0.0800 
 43 H       -1.4260     4.0330    -0.3480 H     1 <1>   0.0800 
 44 H       -0.0350     0.9770    -0.9830 H     1 <1>   0.0800 
 45 H        1.0460     1.4440    -2.2560 H     1 <1>   0.0800 
 46 H       -0.0860     2.6080    -1.6360 H     1 <1>   0.0800 
 47 H        2.0010     0.2980     0.5130 H     1 <1>   0.0800 
 48 H        3.2900     1.4600     0.7430 H     1 <1>   0.0800 
 49 H        3.0470     0.7160    -0.8150 H     1 <1>   0.0800 
 50 H       -2.8240     6.2500    -1.2310 H     1 <1>   0.0800 
 51 H       -2.3950     6.0120     0.4620 H     1 <1>   0.0800 
 52 H       -5.2160     7.3380     0.0020 H     1 <1>   0.1500 
 53 H       -7.4970     2.3690     2.0570 H     1 <1>   0.1500 
 54 H       -9.1540     5.7750     0.1050 H     1 <1>   0.1500 
 55 H       -9.7420     1.6300     2.6670 H     1 <1>   0.1500 
 56 H      -11.3970     5.0330     0.7200 H     1 <1>   0.1500 
 57 H      -11.7070     2.9560     2.0040 H     1 <1>   0.1500 
@<TRIPOS>BOND
  1   1   2  2   
  2   2   3  am  
  3   2   4  1   
  4   3   5  1   
  5   3   6  1   
  6   4   7  1   
  7   4   8  2   
  8   5   9  1   
  9   5  31  1   
 10   5  32  1   
 11   6  10  1   
 12   6  33  1   
 13   6  34  1   
 14   7  11  1   
 15   7  12  1   
 16   8  13  1   
 17   8  35  1   
 18   9  14  1   
 19   9  15  1   
 20   9  16  1   
 21  10  15  1   
 22  10  36  1   
 23  10  37  1   
 24  11  13  2   
 25  12  17  1   
 26  12  18  1   
 27  12  38  1   
 28  13  39  1   
 29  14  19  ar  
 30  14  20  ar  
 31  15  40  1   
 32  15  41  1   
 33  16  21  1   
 34  16  42  1   
 35  16  43  1   
 36  17  44  1   
 37  17  45  1   
 38  17  46  1   
 39  18  47  1   
 40  18  48  1   
 41  18  49  1   
 42  19  22  ar  
 43  20  21  1   
 44  20  23  ar  
 45  21  50  1   
 46  21  51  1   
 47  22  24  ar  
 48  22  25  1   
 49  23  24  ar  
 50  23  52  1   
 51  25  26  ar  
 52  25  27  ar  
 53  26  28  ar  
 54  26  53  1   
 55  27  29  ar  
 56  27  54  1   
 57  28  30  ar  
 58  28  55  1   
 59  29  30  ar  
 60  29  56  1   
 61  30  57  1   
@<TRIPOS>SUBSTRUCTURE
  1 ****   9 GROUP 4 **** **** 0

# MOE 2024.06 (io_trps.svl 2023.06)
