@<TRIPOS>MOLECULE
NONAME
44 46 1 0 0 
SMALL
USER_CHARGES


@<TRIPOS>ATOM
  1 S       -1.0110    -0.6850     1.8310 S.3   1 <1>  -0.0800 
  2 C       -1.6430    -2.3100     1.6420 C.2   1 <1>  -0.1100 
  3 C        0.3870    -1.0700     0.8450 C.2   1 <1>  -0.1100 
  4 C       -0.8250    -3.0590     0.8720 C.2   1 <1>  -0.1810 
  5 C        0.3370    -2.3460     0.4220 C.2   1 <1>  -0.1500 
  6 C       -1.0410    -4.5100     0.4830 C.3   1 <1>   0.5240 
  7 N       -2.4650    -4.7420     0.1890 N.4   1 <1>  -0.9590 
  8 C       -2.8440    -6.1940     0.0640 C.3   1 <1>   0.3430 
  9 C       -3.0360    -3.9020    -0.8940 C.3   1 <1>   0.3430 
 10 C       -4.2690    -6.3940    -0.5200 C.3   1 <1>   0.2000 
 11 C       -4.5720    -3.9060    -0.7990 C.3   1 <1>  -0.1600 
 12 O       -4.1650    -6.5060    -1.9100 O.3   1 <1>  -0.6800 
 13 C       -5.1730    -5.1970    -0.1500 C.3   1 <1>  -0.1060 
 14 C       -5.1040    -5.1640     1.3840 C.2   1 <1>   0.9060 
 15 C       -6.6400    -5.4170    -0.6020 C.3   1 <1>  -0.0160 
 16 O       -4.4310    -4.2860     1.9460 O.co2 1 <1>  -0.9000 
 17 O       -5.5070    -6.1490     1.9990 O.co2 1 <1>  -0.9000 
 18 C       -7.5280    -4.1970    -0.3840 C.ar  1 <1>  -0.1440 
 19 C       -7.9950    -3.8900     0.8850 C.ar  1 <1>  -0.1500 
 20 C       -7.8820    -3.3820    -1.4500 C.ar  1 <1>  -0.1500 
 21 C       -8.7970    -2.7810     1.0890 C.ar  1 <1>  -0.1500 
 22 C       -8.6860    -2.2730    -1.2480 C.ar  1 <1>  -0.1500 
 23 C       -9.1430    -1.9710     0.0220 C.ar  1 <1>  -0.1500 
 24 H       -2.5770    -2.5310     2.1380 H     1 <1>   0.1500 
 25 H        1.1080    -0.2860     0.6880 H     1 <1>   0.1500 
 26 H        1.0850    -2.8120    -0.1950 H     1 <1>   0.1500 
 27 H       -0.7260    -5.1440     1.2950 H     1 <1>   0.0800 
 28 H       -0.4530    -4.7450    -0.3880 H     1 <1>   0.0800 
 29 H       -2.9950    -4.4130     1.0390 H     1 <1>   0.4500 
 30 H       -2.1410    -6.7220    -0.5570 H     1 <1>   0.0800 
 31 H       -2.8270    -6.6320     1.0490 H     1 <1>   0.0800 
 32 H       -2.6780    -2.8870    -0.8190 H     1 <1>   0.0800 
 33 H       -2.7370    -4.3050    -1.8480 H     1 <1>   0.0800 
 34 H       -4.6790    -7.3180    -0.1480 H     1 <1>   0.0800 
 35 H       -4.8950    -3.0420    -0.2420 H     1 <1>   0.0800 
 36 H       -4.9530    -3.7860    -1.7970 H     1 <1>   0.0800 
 37 H       -5.0380    -6.7330    -2.2880 H     1 <1>   0.4000 
 38 H       -6.6690    -5.6730    -1.6450 H     1 <1>   0.0800 
 39 H       -7.0630    -6.2500    -0.0650 H     1 <1>   0.0800 
 40 H       -7.7310    -4.5140     1.7250 H     1 <1>   0.1500 
 41 H       -7.5350    -3.6050    -2.4420 H     1 <1>   0.1500 
 42 H       -9.1460    -2.5530     2.0800 H     1 <1>   0.1500 
 43 H       -8.9560    -1.6450    -2.0790 H     1 <1>   0.1500 
 44 H       -9.7660    -1.1090     0.1830 H     1 <1>   0.1500 
@<TRIPOS>BOND
  1   1   2  1   
  2   1   3  1   
  3   2   4  2   
  4   2  24  1   
  5   3   5  2   
  6   3  25  1   
  7   4   5  1   
  8   4   6  1   
  9   5  26  1   
 10   6   7  1   
 11   6  27  1   
 12   6  28  1   
 13   7   8  1   
 14   7   9  1   
 15   7  29  1   
 16   8  10  1   
 17   8  30  1   
 18   8  31  1   
 19   9  11  1   
 20   9  32  1   
 21   9  33  1   
 22  10  12  1   
 23  10  13  1   
 24  10  34  1   
 25  11  13  1   
 26  11  35  1   
 27  11  36  1   
 28  12  37  1   
 29  13  14  1   
 30  13  15  1   
 31  14  16  ar  
 32  14  17  ar  
 33  15  18  1   
 34  15  38  1   
 35  15  39  1   
 36  18  19  ar  
 37  18  20  ar  
 38  19  21  ar  
 39  19  40  1   
 40  20  22  ar  
 41  20  41  1   
 42  21  23  ar  
 43  21  42  1   
 44  22  23  ar  
 45  22  43  1   
 46  23  44  1   
@<TRIPOS>SUBSTRUCTURE
  1 ****  11 GROUP 4 **** **** 0

# MOE 2024.06 (io_trps.svl 2023.06)
