@<TRIPOS>MOLECULE
NONAME
13 13 1 0 0 
SMALL
USER_CHARGES


@<TRIPOS>ATOM
  1 F        0.6190    -0.3420    -0.6360 F     1 <1>  -0.2320 
  2 C        1.0240    -1.3920     0.0620 C.3   1 <1>   0.4630 
  3 F        1.4960    -0.9640     1.2230 F     1 <1>  -0.2320 
  4 C        1.5930    -2.5810    -0.6330 C.3   1 <1>  -0.1000 
  5 C        0.2440    -2.6650     0.0240 C.3   1 <1>  -0.2000 
  6 C        2.8580    -3.1670    -0.0590 C.2   1 <1>   0.6300 
  7 O        3.9150    -2.6420    -0.2840 O.2   1 <1>  -0.5700 
  8 N        2.8030    -4.2930     0.6740 N.am  1 <1>  -0.8000 
  9 H        1.6230    -2.5400    -1.7050 H     1 <1>   0.1000 
 10 H       -0.6270    -2.7090    -0.6030 H     1 <1>   0.1000 
 11 H        0.1380    -3.2150     0.9400 H     1 <1>   0.1000 
 12 H        3.6690    -4.6780     1.0530 H     1 <1>   0.3700 
 13 H        1.9440    -4.7990     0.8820 H     1 <1>   0.3700 
@<TRIPOS>BOND
  1   1   2  1   
  2   2   3  1   
  3   2   4  1   
  4   2   5  1   
  5   4   5  1   
  6   4   6  1   
  7   4   9  1   
  8   5  10  1   
  9   5  11  1   
 10   6   7  2   
 11   6   8  am  
 12   8  12  1   
 13   8  13  1   
@<TRIPOS>SUBSTRUCTURE
  1 ****   4 GROUP 4 **** **** 0

# MOE 2024.06 (io_trps.svl 2023.06)
