@<TRIPOS>MOLECULE
NONAME
41 43 1 0 0 
SMALL
USER_CHARGES


@<TRIPOS>ATOM
  1 O       -0.2050     2.1710    -1.0560 O.co2 1 <1>  -0.9000 
  2 C       -0.5600     1.1970    -0.3690 C.2   1 <1>   0.9060 
  3 O        0.1140     0.1790    -0.2180 O.co2 1 <1>  -0.9000 
  4 C       -1.9250     1.3440     0.3340 C.3   1 <1>   0.3170 
  5 N       -2.4540     2.7430     0.1550 N.4   1 <1>  -0.9590 
  6 C       -3.0180     0.4340    -0.2340 C.3   1 <1>  -0.1600 
  7 C       -3.8690     2.6740    -0.2870 C.3   1 <1>   0.3430 
  8 C       -2.1850     3.6020     1.3160 C.3   1 <1>   0.4860 
  9 C       -4.3010     1.2260    -0.0370 C.3   1 <1>   0.2000 
 10 C       -2.0900     5.0210     0.7990 C.ar  1 <1>  -0.1430 
 11 O       -4.6830     1.1000     1.2930 O.3   1 <1>  -0.6800 
 12 C       -1.0340     5.3660    -0.0320 C.ar  1 <1>  -0.1500 
 13 C       -3.0400     5.9740     1.1320 C.ar  1 <1>  -0.1500 
 14 C       -0.9260     6.6500    -0.5380 C.ar  1 <1>  -0.1430 
 15 C       -2.9320     7.2610     0.6330 C.ar  1 <1>  -0.1500 
 16 C       -1.8790     7.5970    -0.1990 C.ar  1 <1>  -0.1500 
 17 C        0.2340     7.0160    -1.4560 C.3   1 <1>   0.2390 
 18 N        1.1820     7.9180    -0.7710 N.pl3 1 <1>   0.3140 
 19 N        1.4040     9.1790    -1.1960 N.2   1 <1>  -0.7070 
 20 C        1.9310     7.6320     0.3140 C.2   1 <1>  -0.3020 
 21 C        2.2830     9.6590    -0.3700 C.2   1 <1>   0.1390 
 22 C        2.6540     8.7360     0.6000 C.2   1 <1>  -0.1500 
 23 H       -1.7960     1.1300     1.3790 H     1 <1>   0.0800 
 24 H       -1.8290     3.0890    -0.6090 H     1 <1>   0.4500 
 25 H       -3.0260    -0.5280     0.2460 H     1 <1>   0.0800 
 26 H       -2.8370     0.2860    -1.2850 H     1 <1>   0.0800 
 27 H       -4.4960     3.3650     0.2510 H     1 <1>   0.0800 
 28 H       -3.9200     2.8870    -1.3410 H     1 <1>   0.0800 
 29 H       -2.9680     3.5010     2.0500 H     1 <1>   0.0800 
 30 H       -1.2430     3.3300     1.7640 H     1 <1>   0.0800 
 31 H       -5.1140     0.9120    -0.6700 H     1 <1>   0.0800 
 32 H       -4.9490     0.1790     1.4890 H     1 <1>   0.4000 
 33 H       -0.2870     4.6290    -0.2910 H     1 <1>   0.1500 
 34 H       -3.8660     5.7290     1.7790 H     1 <1>   0.1500 
 35 H       -3.6660     8.0050     0.8930 H     1 <1>   0.1500 
 36 H       -1.7980     8.6030    -0.5790 H     1 <1>   0.1500 
 37 H       -0.1360     7.5140    -2.3320 H     1 <1>   0.0800 
 38 H        0.7680     6.1360    -1.7650 H     1 <1>   0.0800 
 39 H        1.9040     6.6790     0.8100 H     1 <1>   0.1500 
 40 H        2.6750    10.6600    -0.4380 H     1 <1>   0.1500 
 41 H        3.3620     8.8960     1.3930 H     1 <1>   0.1500 
@<TRIPOS>BOND
  1   1   2  ar  
  2   2   3  ar  
  3   2   4  1   
  4   4   5  1   
  5   4   6  1   
  6   4  23  1   
  7   5   7  1   
  8   5   8  1   
  9   5  24  1   
 10   6   9  1   
 11   6  25  1   
 12   6  26  1   
 13   7   9  1   
 14   7  27  1   
 15   7  28  1   
 16   8  10  1   
 17   8  29  1   
 18   8  30  1   
 19   9  11  1   
 20   9  31  1   
 21  10  12  ar  
 22  10  13  ar  
 23  11  32  1   
 24  12  14  ar  
 25  12  33  1   
 26  13  15  ar  
 27  13  34  1   
 28  14  16  ar  
 29  14  17  1   
 30  15  16  ar  
 31  15  35  1   
 32  16  36  1   
 33  17  18  1   
 34  17  37  1   
 35  17  38  1   
 36  18  19  1   
 37  18  20  1   
 38  19  21  2   
 39  20  22  2   
 40  20  39  1   
 41  21  22  1   
 42  21  40  1   
 43  22  41  1   
@<TRIPOS>SUBSTRUCTURE
  1 ****  12 GROUP 4 **** **** 0

# MOE 2024.06 (io_trps.svl 2023.06)
