@<TRIPOS>MOLECULE
NONAME
48 50 1 0 0 
SMALL
USER_CHARGES


@<TRIPOS>ATOM
  1 O        3.9850    -1.4050    -2.1280 O.2   1 <1>  -0.5700 
  2 C        3.0670    -1.3830    -1.3240 C.2   1 <1>   0.5440 
  3 N        2.9300    -0.1950    -0.6540 N.am  1 <1>  -0.6600 
  4 C        2.2860    -2.5800    -1.0350 C.ar  1 <1>   0.0860 
  5 C        3.4130    -0.1470     0.7650 C.3   1 <1>   0.2200 
  6 C        2.8210     1.0720    -1.4380 C.3   1 <1>   0.1400 
  7 C        1.0440    -2.5830    -0.3690 C.ar  1 <1>   0.0830 
  8 C        2.7900    -3.8210    -1.4400 C.ar  1 <1>  -0.1500 
  9 C        2.7580     0.9760     1.5840 C.3   1 <1>   0.1200 
 10 C        4.9600    -0.0350     0.8020 C.3   1 <1>   0.3430 
 11 C        3.7470     2.2060    -0.9590 C.3   1 <1>  -0.0800 
 12 O        0.5080    -1.3970     0.0210 O.3   1 <1>  -0.3630 
 13 C        0.3750    -3.7800    -0.1170 C.ar  1 <1>  -0.1500 
 14 C        2.1220    -5.0020    -1.1920 C.ar  1 <1>  -0.1500 
 15 O        3.4740     2.1680     1.4460 O.3   1 <1>  -0.5600 
 16 N        5.5380     0.4190    -0.5130 N.4   1 <1>  -0.9590 
 17 C        3.2040     2.9030     0.2990 C.3   1 <1>   0.1200 
 18 C        5.2460     1.8510    -0.8390 C.3   1 <1>   0.3430 
 19 C       -0.8340    -1.2570     0.4380 C.3   1 <1>   0.0400 
 20 C        0.9110    -4.9930    -0.5270 C.ar  1 <1>   0.0830 
 21 C        6.9880     0.1030    -0.6270 C.3   1 <1>   0.2630 
 22 O        0.3220    -6.1930    -0.3190 O.3   1 <1>  -0.3620 
 23 C       -0.9330    -6.3170     0.3110 C.3   1 <1>   0.0400 
 24 H        3.1330    -1.0720     1.2400 H     1 <1>   0.0800 
 25 H        3.0360     0.8650    -2.4740 H     1 <1>   0.0800 
 26 H        1.7970     1.4050    -1.3970 H     1 <1>   0.0800 
 27 H        3.7290    -3.8650    -1.9660 H     1 <1>   0.1500 
 28 H        2.7960     0.7180     2.6280 H     1 <1>   0.0800 
 29 H        1.7270     1.1200     1.3100 H     1 <1>   0.0800 
 30 H        5.3520    -1.0100     1.0370 H     1 <1>   0.0800 
 31 H        5.2580     0.6330     1.5920 H     1 <1>   0.0800 
 32 H        3.6890     2.9610    -1.7220 H     1 <1>   0.0800 
 33 H       -0.5620    -3.7760     0.3990 H     1 <1>   0.1500 
 34 H        2.5330    -5.9430    -1.5150 H     1 <1>   0.1500 
 35 H        5.0180    -0.1490    -1.2230 H     1 <1>   0.4500 
 36 H        2.1420     3.0740     0.2340 H     1 <1>   0.0800 
 37 H        3.6860     3.8580     0.4240 H     1 <1>   0.0800 
 38 H        5.6960     2.4880    -0.0950 H     1 <1>   0.0800 
 39 H        5.7110     2.0790    -1.7840 H     1 <1>   0.0800 
 40 H       -1.0380    -0.2090     0.5640 H     1 <1>   0.0800 
 41 H       -0.9660    -1.7680     1.3750 H     1 <1>   0.0800 
 42 H       -1.4810    -1.6650    -0.3190 H     1 <1>   0.0800 
 43 H        7.5510     0.6570     0.1070 H     1 <1>   0.0800 
 44 H        7.3480     0.3600    -1.6100 H     1 <1>   0.0800 
 45 H        7.1510    -0.9500    -0.4700 H     1 <1>   0.0800 
 46 H       -1.1880    -7.3610     0.3440 H     1 <1>   0.0800 
 47 H       -1.6680    -5.7800    -0.2630 H     1 <1>   0.0800 
 48 H       -0.8630    -5.9280     1.3110 H     1 <1>   0.0800 
@<TRIPOS>BOND
  1   1   2  2   
  2   2   3  am  
  3   2   4  1   
  4   3   5  1   
  5   3   6  1   
  6   4   7  ar  
  7   4   8  ar  
  8   5   9  1   
  9   5  10  1   
 10   5  24  1   
 11   6  11  1   
 12   6  25  1   
 13   6  26  1   
 14   7  12  1   
 15   7  13  ar  
 16   8  14  ar  
 17   8  27  1   
 18   9  15  1   
 19   9  28  1   
 20   9  29  1   
 21  10  16  1   
 22  10  30  1   
 23  10  31  1   
 24  11  17  1   
 25  11  18  1   
 26  11  32  1   
 27  12  19  1   
 28  13  20  ar  
 29  13  33  1   
 30  14  20  ar  
 31  14  34  1   
 32  15  17  1   
 33  16  18  1   
 34  16  21  1   
 35  16  35  1   
 36  17  36  1   
 37  17  37  1   
 38  18  38  1   
 39  18  39  1   
 40  19  40  1   
 41  19  41  1   
 42  19  42  1   
 43  20  22  1   
 44  21  43  1   
 45  21  44  1   
 46  21  45  1   
 47  22  23  1   
 48  23  46  1   
 49  23  47  1   
 50  23  48  1   
@<TRIPOS>SUBSTRUCTURE
  1 ****   2 GROUP 4 **** **** 0

# MOE 2024.06 (io_trps.svl 2023.06)
