@<TRIPOS>MOLECULE
NONAME
47 48 1 0 0 
SMALL
USER_CHARGES


@<TRIPOS>ATOM
  1 S        0.7800     0.0860    -1.0110 S.o2  1 <1>   1.3330 
  2 O        0.2450    -0.1960     0.3030 O.2   1 <1>  -0.6500 
  3 O        1.0660    -1.0080    -1.9120 O.2   1 <1>  -0.6500 
  4 N       -0.2890     1.1510    -1.7880 N.am  1 <1>  -0.8490 
  5 C        2.2760     1.0550    -0.8370 C.3   1 <1>  -0.0550 
  6 C       -0.9100     2.1210    -0.8810 C.3   1 <1>   0.1160 
  7 C       -1.3250     0.4380    -2.5430 C.3   1 <1>   0.1160 
  8 C        3.4580     0.2420    -0.2710 C.3   1 <1>  -0.0800 
  9 C        4.7800     0.9910    -0.1940 C.3   1 <1>   0.2200 
 10 C        3.2620    -0.2590     1.1670 C.3   1 <1>   0.1200 
 11 N        4.5750     2.3680     0.3130 N.am  1 <1>  -0.7300 
 12 C        5.4910     0.1820     0.8800 C.3   1 <1>   0.1200 
 13 O        4.4980    -0.1230     1.8100 O.3   1 <1>  -0.5600 
 14 C        4.5570     3.5030    -0.4320 C.2   1 <1>   0.7150 
 15 O        4.6520     3.3990    -1.6380 O.2   1 <1>  -0.5700 
 16 C        4.3950     4.7650     0.2300 C.2   1 <1>  -0.2370 
 17 N        4.5500     5.9920    -0.3430 N.pl3 1 <1>   0.3140 
 18 C        4.0650     5.0190     1.5280 C.2   1 <1>  -0.1500 
 19 N        4.3270     6.9850     0.5350 N.2   1 <1>  -0.7070 
 20 C        4.9360     6.3290    -1.7350 C.3   1 <1>   0.0960 
 21 C        4.0400     6.3940     1.6490 C.2   1 <1>   0.1080 
 22 C        6.4490     6.1830    -1.9460 C.3   1 <1>  -0.2400 
 23 C        3.7210     7.1670     2.9070 C.3   1 <1>  -0.0590 
 24 H        2.5540     1.4340    -1.8020 H     1 <1>   0.0800 
 25 H        2.0760     1.8940    -0.2020 H     1 <1>   0.0800 
 26 H       -1.5120     2.8170    -1.4400 H     1 <1>   0.0800 
 27 H       -0.1540     2.6760    -0.3550 H     1 <1>   0.0800 
 28 H       -1.5350     1.6180    -0.1600 H     1 <1>   0.0800 
 29 H       -1.9730     1.1390    -3.0400 H     1 <1>   0.0800 
 30 H       -1.9090    -0.1820    -1.8830 H     1 <1>   0.0800 
 31 H       -0.8700    -0.1880    -3.2920 H     1 <1>   0.0800 
 32 H        3.6030    -0.6220    -0.8980 H     1 <1>   0.0800 
 33 H        5.3150     0.9990    -1.1290 H     1 <1>   0.0800 
 34 H        2.9660    -1.2950     1.1930 H     1 <1>   0.0800 
 35 H        2.5460     0.3350     1.7080 H     1 <1>   0.0800 
 36 H        4.4840     2.4350     1.3270 H     1 <1>   0.3700 
 37 H        6.2860     0.7260     1.3590 H     1 <1>   0.0800 
 38 H        5.8670    -0.7440     0.4790 H     1 <1>   0.0800 
 39 H        3.8580     4.3200     2.3190 H     1 <1>   0.1500 
 40 H        4.3930     5.7010    -2.4150 H     1 <1>   0.0800 
 41 H        4.6460     7.3480    -1.9210 H     1 <1>   0.0800 
 42 H        6.7540     5.1640    -1.7920 H     1 <1>   0.0800 
 43 H        6.9800     6.8240    -1.2640 H     1 <1>   0.0800 
 44 H        6.7030     6.4660    -2.9510 H     1 <1>   0.0800 
 45 H        3.5190     6.4970     3.7220 H     1 <1>   0.0800 
 46 H        2.8610     7.7880     2.7370 H     1 <1>   0.0800 
 47 H        4.5570     7.7930     3.1620 H     1 <1>   0.0800 
@<TRIPOS>BOND
  1   1   2  2   
  2   1   3  2   
  3   1   4  am  
  4   1   5  1   
  5   4   6  1   
  6   4   7  1   
  7   5   8  1   
  8   5  24  1   
  9   5  25  1   
 10   6  26  1   
 11   6  27  1   
 12   6  28  1   
 13   7  29  1   
 14   7  30  1   
 15   7  31  1   
 16   8   9  1   
 17   8  10  1   
 18   8  32  1   
 19   9  11  1   
 20   9  12  1   
 21   9  33  1   
 22  10  13  1   
 23  10  34  1   
 24  10  35  1   
 25  11  14  am  
 26  11  36  1   
 27  12  13  1   
 28  12  37  1   
 29  12  38  1   
 30  14  15  2   
 31  14  16  1   
 32  16  17  1   
 33  16  18  2   
 34  17  19  1   
 35  17  20  1   
 36  18  21  1   
 37  18  39  1   
 38  19  21  2   
 39  20  22  1   
 40  20  40  1   
 41  20  41  1   
 42  21  23  1   
 43  22  42  1   
 44  22  43  1   
 45  22  44  1   
 46  23  45  1   
 47  23  46  1   
 48  23  47  1   
@<TRIPOS>SUBSTRUCTURE
  1 ****  11 GROUP 4 **** **** 0

# MOE 2024.06 (io_trps.svl 2023.06)
