@<TRIPOS>MOLECULE
NONAME
53 56 1 0 0 
SMALL
USER_CHARGES


@<TRIPOS>ATOM
  1 O       -0.3740     0.2600     1.2420 O.3   1 <1>  -0.5600 
  2 C        0.2050     0.6370     0.0370 C.3   1 <1>   0.1200 
  3 C       -1.7390     0.5500     1.2300 C.3   1 <1>   0.1200 
  4 C       -0.5570     1.8920    -0.3770 C.3   1 <1>   0.2890 
  5 C       -1.9720     1.5090     0.0530 C.3   1 <1>  -0.0800 
  6 N       -0.0520     3.0360     0.4270 N.pl3 1 <1>  -0.8690 
  7 C       -2.9300     2.6710     0.3910 C.3   1 <1>  -0.0170 
  8 C        0.4010     4.2620     0.1550 C.ar  1 <1>   0.7710 
  9 C       -4.3260     2.1490     0.7150 C.ar  1 <1>  -0.1440 
 10 N        0.7830     4.9730     1.1900 N.ar  1 <1>  -0.6200 
 11 N        0.4530     4.7190    -1.1050 N.ar  1 <1>  -0.1790 
 12 C       -5.2330     1.7250    -0.2860 C.ar  1 <1>   0.0000 
 13 C       -4.7400     2.0700     2.0130 C.ar  1 <1>  -0.1500 
 14 C        1.2600     6.1840     0.9710 C.ar  1 <1>   0.4100 
 15 C        0.8970     5.9710    -1.3710 C.ar  1 <1>   0.2110 
 16 C       -6.4910     1.2280     0.1340 C.ar  1 <1>   0.3100 
 17 C       -4.9700     1.7670    -1.6760 C.ar  1 <1>  -0.1500 
 18 C       -6.0120     1.5700     2.3200 C.ar  1 <1>   0.1600 
 19 N        1.6970     6.8620     2.0620 N.pl3 1 <1>  -0.8380 
 20 C        1.3070     6.7430    -0.3330 C.ar  1 <1>  -0.1430 
 21 N       -6.8630     1.1570     1.4360 N.ar  1 <1>  -0.6200 
 22 C       -7.4050     0.7860    -0.8350 C.ar  1 <1>  -0.1500 
 23 C       -5.8850     1.3300    -2.5950 C.ar  1 <1>  -0.1500 
 24 C        3.0860     7.3900     2.1800 C.3   1 <1>   0.1290 
 25 C        0.9720     6.7910     3.3640 C.3   1 <1>   0.1290 
 26 C        1.7640     8.1810    -0.5800 C.3   1 <1>  -0.0970 
 27 C       -7.1180     0.8300    -2.1710 C.ar  1 <1>  -0.1500 
 28 H        1.2580     0.8090     0.1810 H     1 <1>   0.0800 
 29 H        0.0540    -0.1630    -0.6680 H     1 <1>   0.0800 
 30 H       -2.2900    -0.3680     1.1090 H     1 <1>   0.0800 
 31 H       -1.9860     0.9960     2.1770 H     1 <1>   0.0800 
 32 H       -0.4800     2.0770    -1.4330 H     1 <1>   0.0800 
 33 H       -2.4090     0.9250    -0.7370 H     1 <1>   0.0800 
 34 H        0.0180     2.7810     1.4220 H     1 <1>   0.4000 
 35 H       -2.9870     3.3650    -0.4280 H     1 <1>   0.0800 
 36 H       -2.5560     3.2170     1.2400 H     1 <1>   0.0800 
 37 H        0.1390     4.0880    -1.8310 H     1 <1>   0.4570 
 38 H       -4.1140     2.3800     2.8300 H     1 <1>   0.1500 
 39 H        0.9040     6.3170    -2.3920 H     1 <1>   0.1500 
 40 H       -4.0340     2.1520    -2.0260 H     1 <1>   0.1500 
 41 H       -6.2980     1.5240     3.3570 H     1 <1>   0.1500 
 42 H       -8.3490     0.4080    -0.4860 H     1 <1>   0.1500 
 43 H       -5.6750     1.3650    -3.6500 H     1 <1>   0.1500 
 44 H        3.5570     6.9890     3.0610 H     1 <1>   0.0800 
 45 H        3.0640     8.4630     2.2540 H     1 <1>   0.0800 
 46 H        3.6730     7.1030     1.3260 H     1 <1>   0.0800 
 47 H        0.9700     7.7580     3.8370 H     1 <1>   0.0800 
 48 H        1.4540     6.0790     4.0120 H     1 <1>   0.0800 
 49 H       -0.0480     6.4840     3.2090 H     1 <1>   0.0800 
 50 H        1.4610     8.5270    -1.5520 H     1 <1>   0.0800 
 51 H        2.8340     8.2530    -0.5160 H     1 <1>   0.0800 
 52 H        1.3300     8.8370     0.1550 H     1 <1>   0.0800 
 53 H       -7.8300     0.4880    -2.9020 H     1 <1>   0.1500 
@<TRIPOS>BOND
  1   1   2  1   
  2   1   3  1   
  3   2   4  1   
  4   2  28  1   
  5   2  29  1   
  6   3   5  1   
  7   3  30  1   
  8   3  31  1   
  9   4   5  1   
 10   4   6  1   
 11   4  32  1   
 12   5   7  1   
 13   5  33  1   
 14   6   8  1   
 15   6  34  1   
 16   7   9  1   
 17   7  35  1   
 18   7  36  1   
 19   8  10  ar  
 20   8  11  ar  
 21   9  12  ar  
 22   9  13  ar  
 23  10  14  ar  
 24  11  15  ar  
 25  11  37  1   
 26  12  16  ar  
 27  12  17  ar  
 28  13  18  ar  
 29  13  38  1   
 30  14  19  1   
 31  14  20  ar  
 32  15  20  ar  
 33  15  39  1   
 34  16  21  ar  
 35  16  22  ar  
 36  17  23  ar  
 37  17  40  1   
 38  18  21  ar  
 39  18  41  1   
 40  19  24  1   
 41  19  25  1   
 42  20  26  1   
 43  22  27  ar  
 44  22  42  1   
 45  23  27  ar  
 46  23  43  1   
 47  24  44  1   
 48  24  45  1   
 49  24  46  1   
 50  25  47  1   
 51  25  48  1   
 52  25  49  1   
 53  26  50  1   
 54  26  51  1   
 55  26  52  1   
 56  27  53  1   
@<TRIPOS>SUBSTRUCTURE
  1 ****   7 GROUP 4 **** **** 0

# MOE 2024.06 (io_trps.svl 2023.06)
