@<TRIPOS>MOLECULE
NONAME
42 43 1 0 0 
SMALL
USER_CHARGES


@<TRIPOS>ATOM
  1 CL       0.4360     0.4530    -1.1060 Cl    1 <1>  -0.1770 
  2 C        1.8410     1.2590    -0.4580 C.ar  1 <1>   0.1770 
  3 C        1.8030     2.6250    -0.2500 C.ar  1 <1>  -0.1500 
  4 C        2.9710     0.5190    -0.1650 C.ar  1 <1>  -0.1500 
  5 C        2.9170     3.2710     0.2630 C.ar  1 <1>  -0.1440 
  6 C        4.0840     1.1620     0.3480 C.ar  1 <1>  -0.1500 
  7 C        4.0550     2.5320     0.5600 C.ar  1 <1>  -0.1500 
  8 C        2.8890     4.7730     0.4900 C.3   1 <1>  -0.0160 
  9 C        3.2080     5.5150    -0.8130 C.3   1 <1>  -0.0990 
 10 C        3.2240     7.0140    -0.5990 C.2   1 <1>   0.5690 
 11 O        2.1750     7.5710    -0.4120 O.2   1 <1>  -0.5700 
 12 N        4.4310     7.6510    -0.6240 N.am  1 <1>  -0.4940 
 13 C        4.7100     8.9880    -0.4300 C.2   1 <1>   0.4420 
 14 S        6.3720     9.4680    -0.5730 S.3   1 <1>  -0.0800 
 15 N        3.9470     9.9820    -0.1520 N.2   1 <1>  -0.3380 
 16 C        5.8580    11.0820    -0.2230 C.2   1 <1>   0.1980 
 17 N        4.6070    11.1710    -0.0350 N.2   1 <1>  -0.3380 
 18 C        6.8920    12.1840    -0.1750 C.3   1 <1>   0.0200 
 19 C        6.1820    13.5130     0.1120 C.3   1 <1>   0.3430 
 20 N        7.1140    14.6910     0.1170 N.4   1 <1>  -0.9590 
 21 C        8.0570    14.6730     1.2820 C.3   1 <1>   0.2630 
 22 C        6.3170    15.9570     0.1270 C.3   1 <1>   0.2630 
 23 H        0.9070     3.1690    -0.4890 H     1 <1>   0.1500 
 24 H        2.9750    -0.5430    -0.3370 H     1 <1>   0.1500 
 25 H        4.9700     0.5980     0.5830 H     1 <1>   0.1500 
 26 H        4.9270     3.0180     0.9620 H     1 <1>   0.1500 
 27 H        3.6020     5.0420     1.2500 H     1 <1>   0.0800 
 28 H        1.9140     5.0670     0.8430 H     1 <1>   0.0800 
 29 H        2.4530     5.2880    -1.5450 H     1 <1>   0.0800 
 30 H        4.1530     5.1820    -1.1990 H     1 <1>   0.0800 
 31 H        5.2380     7.0660    -0.8170 H     1 <1>   0.3700 
 32 H        7.3940    12.2280    -1.1240 H     1 <1>   0.0800 
 33 H        7.5990    11.9540     0.6000 H     1 <1>   0.0800 
 34 H        5.6740    13.4440     1.0610 H     1 <1>   0.0800 
 35 H        5.4270    13.6580    -0.6450 H     1 <1>   0.0800 
 36 H        7.6650    14.6780    -0.7560 H     1 <1>   0.4500 
 37 H        7.5070    14.6730     2.2100 H     1 <1>   0.0800 
 38 H        8.6930    15.5440     1.2610 H     1 <1>   0.0800 
 39 H        8.6820    13.7960     1.2510 H     1 <1>   0.0800 
 40 H        5.7170    16.0170     1.0210 H     1 <1>   0.0800 
 41 H        5.6610    15.9950    -0.7290 H     1 <1>   0.0800 
 42 H        6.9710    16.8140     0.0940 H     1 <1>   0.0800 
@<TRIPOS>BOND
  1   1   2  1   
  2   2   3  ar  
  3   2   4  ar  
  4   3   5  ar  
  5   3  23  1   
  6   4   6  ar  
  7   4  24  1   
  8   5   7  ar  
  9   5   8  1   
 10   6   7  ar  
 11   6  25  1   
 12   7  26  1   
 13   8   9  1   
 14   8  27  1   
 15   8  28  1   
 16   9  10  1   
 17   9  29  1   
 18   9  30  1   
 19  10  11  2   
 20  10  12  am  
 21  12  13  1   
 22  12  31  1   
 23  13  14  1   
 24  13  15  2   
 25  14  16  1   
 26  15  17  1   
 27  16  17  2   
 28  16  18  1   
 29  18  19  1   
 30  18  32  1   
 31  18  33  1   
 32  19  20  1   
 33  19  34  1   
 34  19  35  1   
 35  20  21  1   
 36  20  22  1   
 37  20  36  1   
 38  21  37  1   
 39  21  38  1   
 40  21  39  1   
 41  22  40  1   
 42  22  41  1   
 43  22  42  1   
@<TRIPOS>SUBSTRUCTURE
  1 ****  12 GROUP 4 **** **** 0

# MOE 2024.06 (io_trps.svl 2023.06)
