@<TRIPOS>MOLECULE
NONAME
46 48 1 0 0 
SMALL
USER_CHARGES


@<TRIPOS>ATOM
  1 S        1.4920     0.3310     1.5100 S.3   1 <1>  -0.0800 
  2 C        2.0790    -0.7130     0.2340 C.2   1 <1>   0.1980 
  3 C        2.0170     1.7050     0.5830 C.2   1 <1>  -0.1100 
  4 N        2.5990    -0.1000    -0.7510 N.2   1 <1>  -0.5650 
  5 C        1.9130    -2.2020     0.4250 C.3   1 <1>  -0.0600 
  6 C        2.5700     1.2730    -0.5630 C.2   1 <1>   0.0460 
  7 C        3.1690     2.1230    -1.6700 C.3   1 <1>   0.0820 
  8 C        3.4320     3.5560    -1.2360 C.2   1 <1>   0.5690 
  9 O        2.7350     4.4160    -1.7230 O.2   1 <1>  -0.5700 
 10 N        4.4270     3.8680    -0.3360 N.am  1 <1>  -0.6600 
 11 C        5.3460     2.8760     0.3120 C.3   1 <1>   0.1400 
 12 C        4.6690     5.2750     0.0890 C.3   1 <1>   0.1400 
 13 C        6.8080     3.2380     0.0250 C.3   1 <1>   0.2000 
 14 C        6.1060     5.6680    -0.2630 C.3   1 <1>  -0.1600 
 15 O        7.6170     2.3930     0.7710 O.3   1 <1>  -0.6800 
 16 C        7.1140     4.7110     0.3810 C.3   1 <1>   0.2200 
 17 N        8.4760     5.1090    -0.0580 N.am  1 <1>  -0.7300 
 18 C        9.6380     4.8320     0.6040 C.2   1 <1>   0.5440 
 19 O        9.5750     4.1090     1.5780 O.2   1 <1>  -0.5700 
 20 C       10.9100     5.3550     0.1340 C.ar  1 <1>   0.0860 
 21 C       12.1000     4.6680     0.3790 C.ar  1 <1>  -0.1500 
 22 C       10.9990     6.5550    -0.5760 C.ar  1 <1>  -0.1500 
 23 C       13.3170     5.1440    -0.0730 C.ar  1 <1>  -0.1500 
 24 C       12.2130     7.0360    -1.0320 C.ar  1 <1>  -0.1500 
 25 C       13.3750     6.3290    -0.7820 C.ar  1 <1>  -0.1500 
 26 H        1.8550     2.6850     0.9930 H     1 <1>   0.1500 
 27 H        2.3090    -2.7230    -0.4280 H     1 <1>   0.0800 
 28 H        0.8720    -2.4420     0.5290 H     1 <1>   0.0800 
 29 H        2.4420    -2.5180     1.3050 H     1 <1>   0.0800 
 30 H        2.4920     2.1230    -2.5040 H     1 <1>   0.0800 
 31 H        4.0890     1.6850    -2.0040 H     1 <1>   0.0800 
 32 H        5.1780     2.8960     1.3750 H     1 <1>   0.0800 
 33 H        5.1610     1.8770    -0.0370 H     1 <1>   0.0800 
 34 H        3.9830     5.9470    -0.3990 H     1 <1>   0.0800 
 35 H        4.5110     5.3550     1.1510 H     1 <1>   0.0800 
 36 H        7.0200     3.0620    -1.0150 H     1 <1>   0.0800 
 37 H        6.2860     6.6680     0.0870 H     1 <1>   0.0800 
 38 H        6.2080     5.6540    -1.3340 H     1 <1>   0.0800 
 39 H        8.4190     2.8980     1.0730 H     1 <1>   0.4000 
 40 H        7.0450     4.8180     1.4520 H     1 <1>   0.0800 
 41 H        8.5290     5.5500    -0.9760 H     1 <1>   0.3700 
 42 H       12.0640     3.7460     0.9340 H     1 <1>   0.1500 
 43 H       10.1100     7.1270    -0.7690 H     1 <1>   0.1500 
 44 H       14.2190     4.5920     0.1290 H     1 <1>   0.1500 
 45 H       12.2580     7.9620    -1.5790 H     1 <1>   0.1500 
 46 H       14.3220     6.7010    -1.1350 H     1 <1>   0.1500 
@<TRIPOS>BOND
  1   1   2  1   
  2   1   3  1   
  3   2   4  2   
  4   2   5  1   
  5   3   6  2   
  6   3  26  1   
  7   4   6  1   
  8   5  27  1   
  9   5  28  1   
 10   5  29  1   
 11   6   7  1   
 12   7   8  1   
 13   7  30  1   
 14   7  31  1   
 15   8   9  2   
 16   8  10  am  
 17  10  11  1   
 18  10  12  1   
 19  11  13  1   
 20  11  32  1   
 21  11  33  1   
 22  12  14  1   
 23  12  34  1   
 24  12  35  1   
 25  13  15  1   
 26  13  16  1   
 27  13  36  1   
 28  14  16  1   
 29  14  37  1   
 30  14  38  1   
 31  15  39  1   
 32  16  17  1   
 33  16  40  1   
 34  17  18  am  
 35  17  41  1   
 36  18  19  2   
 37  18  20  1   
 38  20  21  ar  
 39  20  22  ar  
 40  21  23  ar  
 41  21  42  1   
 42  22  24  ar  
 43  22  43  1   
 44  23  25  ar  
 45  23  44  1   
 46  24  25  ar  
 47  24  45  1   
 48  25  46  1   
@<TRIPOS>SUBSTRUCTURE
  1 ****  13 GROUP 4 **** **** 0

# MOE 2024.06 (io_trps.svl 2023.06)
