@<TRIPOS>MOLECULE
NONAME
51 53 1 0 0 
SMALL
USER_CHARGES


@<TRIPOS>ATOM
  1 O        0.4700    -0.3900     1.1950 O.2   1 <1>  -0.5700 
  2 C        1.2450    -0.8260     0.3760 C.2   1 <1>   0.5690 
  3 N        2.1520    -0.0170    -0.2560 N.am  1 <1>  -0.6600 
  4 C        1.1850    -2.3070     0.0510 C.3   1 <1>  -0.0990 
  5 C        2.2620     1.4410     0.0760 C.3   1 <1>   0.1400 
  6 C        3.1690    -0.4510    -1.2690 C.3   1 <1>   0.1400 
  7 C        0.2310    -3.0770     0.9740 C.3   1 <1>   0.0960 
  8 C        3.6880     1.8010     0.5280 C.3   1 <1>   0.2090 
  9 C        4.5950    -0.0920    -0.8120 C.3   1 <1>   0.2090 
 10 N        0.1600    -4.4940     0.5620 N.pl3 1 <1>   0.3140 
 11 N        4.7040     1.3600    -0.4780 N.pl3 1 <1>  -0.8380 
 12 N        1.2170    -5.2970     0.7440 N.2   1 <1>  -0.7070 
 13 C       -0.8540    -5.1460    -0.0400 C.2   1 <1>  -0.3320 
 14 C        5.9970     1.8600    -0.3130 C.ar  1 <1>   0.1000 
 15 C        0.8570    -6.4420     0.2690 C.2   1 <1>   0.1080 
 16 C       -0.4510    -6.4420    -0.2370 C.2   1 <1>  -0.0860 
 17 C       -2.1640    -4.4630    -0.4210 C.3   1 <1>  -0.0600 
 18 C        6.5590     2.7390    -1.2410 C.ar  1 <1>   0.1600 
 19 C        6.7710     1.4990     0.7770 C.ar  1 <1>  -0.1500 
 20 C        1.7970    -7.6290     0.2960 C.3   1 <1>  -0.0590 
 21 C       -1.1170    -7.5930    -0.7960 C.2   1 <1>   0.5950 
 22 N        7.7750     3.2620    -1.1750 N.ar  1 <1>  -0.6200 
 23 C        8.0380     2.0320     0.8670 C.ar  1 <1>  -0.1500 
 24 O       -0.5460    -8.4950    -1.3540 O.2   1 <1>  -0.5700 
 25 C       -2.6180    -7.7310    -0.6680 C.3   1 <1>  -0.1790 
 26 C        8.4850     2.8950    -0.1200 C.ar  1 <1>   0.1600 
 27 H        2.1680    -2.7250     0.1610 H     1 <1>   0.0800 
 28 H        0.8630    -2.4180    -0.9670 H     1 <1>   0.0800 
 29 H        1.5690     1.7080     0.8540 H     1 <1>   0.0800 
 30 H        2.0150     2.0200    -0.7970 H     1 <1>   0.0800 
 31 H        2.9710     0.0530    -2.1990 H     1 <1>   0.0800 
 32 H        3.1160    -1.5070    -1.4540 H     1 <1>   0.0800 
 33 H       -0.7510    -2.6460     0.9460 H     1 <1>   0.0800 
 34 H        0.5900    -3.0380     1.9860 H     1 <1>   0.0800 
 35 H        3.8860     1.3280     1.4740 H     1 <1>   0.0800 
 36 H        3.7600     2.8660     0.6640 H     1 <1>   0.0800 
 37 H        5.2920    -0.3280    -1.5970 H     1 <1>   0.0800 
 38 H        4.8500    -0.6810     0.0520 H     1 <1>   0.0800 
 39 H       -1.9660    -3.5190    -0.8990 H     1 <1>   0.0800 
 40 H       -2.7600    -4.2890     0.4570 H     1 <1>   0.0800 
 41 H       -2.7290    -5.0580    -1.1120 H     1 <1>   0.0800 
 42 H        5.9510     3.0140    -2.0830 H     1 <1>   0.1500 
 43 H        6.3890     0.8270     1.5220 H     1 <1>   0.1500 
 44 H        2.6900    -7.3810     0.8400 H     1 <1>   0.0800 
 45 H        2.0650    -7.9020    -0.7080 H     1 <1>   0.0800 
 46 H        1.3200    -8.4650     0.7720 H     1 <1>   0.0800 
 47 H        8.6780     1.7840     1.6940 H     1 <1>   0.1500 
 48 H       -2.9750    -7.1730     0.1770 H     1 <1>   0.0800 
 49 H       -2.8690    -8.7660    -0.5260 H     1 <1>   0.0800 
 50 H       -3.0890    -7.3810    -1.5660 H     1 <1>   0.0800 
 51 H        9.4780     3.3040    -0.0390 H     1 <1>   0.1500 
@<TRIPOS>BOND
  1   1   2  2   
  2   2   3  am  
  3   2   4  1   
  4   3   5  1   
  5   3   6  1   
  6   4   7  1   
  7   4  27  1   
  8   4  28  1   
  9   5   8  1   
 10   5  29  1   
 11   5  30  1   
 12   6   9  1   
 13   6  31  1   
 14   6  32  1   
 15   7  10  1   
 16   7  33  1   
 17   7  34  1   
 18   8  11  1   
 19   8  35  1   
 20   8  36  1   
 21   9  11  1   
 22   9  37  1   
 23   9  38  1   
 24  10  12  1   
 25  10  13  1   
 26  11  14  1   
 27  12  15  2   
 28  13  16  2   
 29  13  17  1   
 30  14  18  ar  
 31  14  19  ar  
 32  15  16  1   
 33  15  20  1   
 34  16  21  1   
 35  17  39  1   
 36  17  40  1   
 37  17  41  1   
 38  18  22  ar  
 39  18  42  1   
 40  19  23  ar  
 41  19  43  1   
 42  20  44  1   
 43  20  45  1   
 44  20  46  1   
 45  21  24  2   
 46  21  25  1   
 47  22  26  ar  
 48  23  26  ar  
 49  23  47  1   
 50  25  48  1   
 51  25  49  1   
 52  25  50  1   
 53  26  51  1   
@<TRIPOS>SUBSTRUCTURE
  1 ****   4 GROUP 4 **** **** 0

# MOE 2024.06 (io_trps.svl 2023.06)
