@<TRIPOS>MOLECULE
NONAME
55 58 1 0 0 
SMALL
USER_CHARGES


@<TRIPOS>ATOM
  1 O        0.0850     0.4400    -0.4520 O.2   1 <1>  -0.5700 
  2 C       -0.0270     1.6440    -0.4410 C.2   1 <1>   0.5690 
  3 N       -1.2580     2.2490    -0.4160 N.am  1 <1>  -0.6600 
  4 C        1.2370     2.4930    -0.4590 C.3   1 <1>  -0.0990 
  5 C       -1.4510     3.7300    -0.5140 C.3   1 <1>   0.1400 
  6 C       -2.4930     1.4180    -0.2780 C.3   1 <1>   0.1400 
  7 C        2.5270     1.6960    -0.1840 C.3   1 <1>  -0.0160 
  8 C       -2.8270     4.0420    -1.0980 C.3   1 <1>  -0.1600 
  9 C       -3.5730     2.1850     0.4870 C.3   1 <1>  -0.1600 
 10 C        3.8050     2.5390    -0.1610 C.ar  1 <1>   0.1660 
 11 C       -3.9480     3.5190    -0.1850 C.3   1 <1>   0.4180 
 12 N        3.7180     3.8130    -0.4060 N.ar  1 <1>  -0.6200 
 13 C        5.0380     1.8810     0.1300 C.ar  1 <1>   0.3930 
 14 O       -4.1260     4.4280     0.8740 O.3   1 <1>  -0.5600 
 15 C       -5.2440     3.3530    -0.9760 C.2   1 <1>  -0.2880 
 16 C        4.9020     4.4790    -0.3640 C.ar  1 <1>   0.3100 
 17 O        4.9970     0.5520     0.3670 O.3   1 <1>  -0.3630 
 18 N        6.1900     2.4900     0.1790 N.ar  1 <1>  -0.6200 
 19 C       -4.9280     5.5550     0.6470 C.3   1 <1>   0.1200 
 20 C       -6.3530     4.0650    -0.7620 C.2   1 <1>  -0.2760 
 21 C        6.1230     3.8200    -0.0730 C.ar  1 <1>   0.3100 
 22 C        4.9210     5.8590    -0.6130 C.ar  1 <1>  -0.1500 
 23 C        6.1670    -0.1860     0.6600 C.3   1 <1>   0.0400 
 24 C       -6.3650     5.1420     0.3050 C.3   1 <1>  -0.0220 
 25 C       -7.6580     3.8760    -1.5160 C.3   1 <1>  -0.1020 
 26 C        7.3040     4.5780    -0.0480 C.ar  1 <1>  -0.1500 
 27 C        6.0910     6.5740    -0.5820 C.ar  1 <1>  -0.1500 
 28 C        7.2950     5.9260    -0.2960 C.ar  1 <1>  -0.1500 
 29 H        1.1450     3.2590     0.2880 H     1 <1>   0.0800 
 30 H        1.3150     2.9610    -1.4230 H     1 <1>   0.0800 
 31 H       -0.6960     4.1610    -1.1470 H     1 <1>   0.0800 
 32 H       -1.3670     4.1640     0.4680 H     1 <1>   0.0800 
 33 H       -2.2630     0.5070     0.2500 H     1 <1>   0.0800 
 34 H       -2.8490     1.1530    -1.2580 H     1 <1>   0.0800 
 35 H        2.6360     0.9370    -0.9390 H     1 <1>   0.0800 
 36 H        2.4290     1.1990     0.7650 H     1 <1>   0.0800 
 37 H       -2.8960     3.5710    -2.0620 H     1 <1>   0.0800 
 38 H       -2.9300     5.0980    -1.2570 H     1 <1>   0.0800 
 39 H       -3.2010     2.3660     1.4790 H     1 <1>   0.0800 
 40 H       -4.4470     1.5670     0.5810 H     1 <1>   0.0800 
 41 H       -5.1760     2.5860    -1.7260 H     1 <1>   0.1500 
 42 H       -4.5020     6.1270    -0.1570 H     1 <1>   0.0800 
 43 H       -4.9140     6.1530     1.5410 H     1 <1>   0.0800 
 44 H        3.9850     6.3390    -0.8310 H     1 <1>   0.1500 
 45 H        5.8910    -1.2140     0.8090 H     1 <1>   0.0800 
 46 H        6.6140     0.2120     1.5550 H     1 <1>   0.0800 
 47 H        6.8480    -0.1010    -0.1690 H     1 <1>   0.0800 
 48 H       -6.8950     6.0100    -0.0460 H     1 <1>   0.0800 
 49 H       -6.8600     4.7780     1.1870 H     1 <1>   0.0800 
 50 H       -8.4470     3.6210    -0.8300 H     1 <1>   0.0800 
 51 H       -7.5650     3.0850    -2.2380 H     1 <1>   0.0800 
 52 H       -7.9240     4.7800    -2.0330 H     1 <1>   0.0800 
 53 H        8.2220     4.0630     0.1740 H     1 <1>   0.1500 
 54 H        6.0960     7.6340    -0.7750 H     1 <1>   0.1500 
 55 H        8.2090     6.4970    -0.2730 H     1 <1>   0.1500 
@<TRIPOS>BOND
  1   1   2  2   
  2   2   3  am  
  3   2   4  1   
  4   3   5  1   
  5   3   6  1   
  6   4   7  1   
  7   4  29  1   
  8   4  30  1   
  9   5   8  1   
 10   5  31  1   
 11   5  32  1   
 12   6   9  1   
 13   6  33  1   
 14   6  34  1   
 15   7  10  1   
 16   7  35  1   
 17   7  36  1   
 18   8  11  1   
 19   8  37  1   
 20   8  38  1   
 21   9  11  1   
 22   9  39  1   
 23   9  40  1   
 24  10  12  ar  
 25  10  13  ar  
 26  11  14  1   
 27  11  15  1   
 28  12  16  ar  
 29  13  17  1   
 30  13  18  ar  
 31  14  19  1   
 32  15  20  2   
 33  15  41  1   
 34  16  21  ar  
 35  16  22  ar  
 36  17  23  1   
 37  18  21  ar  
 38  19  24  1   
 39  19  42  1   
 40  19  43  1   
 41  20  24  1   
 42  20  25  1   
 43  21  26  ar  
 44  22  27  ar  
 45  22  44  1   
 46  23  45  1   
 47  23  46  1   
 48  23  47  1   
 49  24  48  1   
 50  24  49  1   
 51  25  50  1   
 52  25  51  1   
 53  25  52  1   
 54  26  28  ar  
 55  26  53  1   
 56  27  28  ar  
 57  27  54  1   
 58  28  55  1   
@<TRIPOS>SUBSTRUCTURE
  1 ****   4 GROUP 4 **** **** 0

# MOE 2024.06 (io_trps.svl 2023.06)
