@<TRIPOS>MOLECULE
NONAME
51 53 1 0 0 
SMALL
USER_CHARGES


@<TRIPOS>ATOM
  1 S        0.5560    -0.0310     2.0040 S.o2  1 <1>   1.4470 
  2 O        0.1590     1.0500     2.8790 O.2   1 <1>  -0.6500 
  3 O        1.4020    -1.0830     2.5260 O.2   1 <1>  -0.6500 
  4 N        1.3960     0.6590     0.7020 N.am  1 <1>  -0.8490 
  5 C       -0.9190    -0.7450     1.2230 C.ar  1 <1>  -0.0090 
  6 C        2.3890     1.6590     1.1570 C.3   1 <1>   0.1960 
  7 C        1.9620    -0.3670    -0.1970 C.3   1 <1>   0.1960 
  8 C       -1.4420    -1.9580     1.6460 C.ar  1 <1>  -0.1500 
  9 C       -1.5730    -0.0960     0.1850 C.ar  1 <1>  -0.1500 
 10 C        3.0060     2.5530     0.0450 C.3   1 <1>   0.2200 
 11 C        2.4470     0.1720    -1.5580 C.3   1 <1>  -0.0190 
 12 C       -2.5630    -2.5100     1.0510 C.ar  1 <1>  -0.1500 
 13 C       -2.6930    -0.6450    -0.4140 C.ar  1 <1>  -0.1500 
 14 N        2.1690     2.6040    -1.1850 N.am  1 <1>  -0.7300 
 15 C        4.4450     2.1240    -0.3050 C.3   1 <1>   0.1200 
 16 C        1.8350     1.5140    -1.9060 C.2   1 <1>   0.5690 
 17 C        3.9800     0.2310    -1.6660 C.3   1 <1>   0.1200 
 18 C       -3.2110    -1.8680     0.0000 C.ar  1 <1>  -0.1430 
 19 O        4.5660     0.7450    -0.5070 O.3   1 <1>  -0.5600 
 20 O        1.0660     1.6030    -2.8300 O.2   1 <1>  -0.5700 
 21 C       -4.4650    -2.4440    -0.7010 C.3   1 <1>   0.1430 
 22 C       -5.6680    -1.5330    -0.3480 C.3   1 <1>  -0.1600 
 23 C       -4.2250    -2.4760    -2.2220 C.3   1 <1>  -0.2400 
 24 C       -4.7590    -3.8930    -0.2640 C.3   1 <1>  -0.2400 
 25 C       -7.0300    -1.9250    -0.9510 C.3   1 <1>  -0.2400 
 26 H        1.9070     2.3310     1.8450 H     1 <1>   0.0800 
 27 H        3.1710     1.1650     1.7100 H     1 <1>   0.0800 
 28 H        2.7610    -0.8910     0.3030 H     1 <1>   0.0800 
 29 H        1.1940    -1.0930    -0.4050 H     1 <1>   0.0800 
 30 H       -0.9620    -2.4820     2.4560 H     1 <1>   0.1500 
 31 H       -1.2010     0.8530    -0.1650 H     1 <1>   0.1500 
 32 H        3.0720     3.5550     0.4330 H     1 <1>   0.0800 
 33 H        2.1230    -0.5200    -2.3130 H     1 <1>   0.0800 
 34 H       -2.9110    -3.4500     1.4340 H     1 <1>   0.1500 
 35 H       -3.1590    -0.0960    -1.2120 H     1 <1>   0.1500 
 36 H        1.6430     3.4580    -1.3760 H     1 <1>   0.3700 
 37 H        5.0930     2.3670     0.5190 H     1 <1>   0.0800 
 38 H        4.8030     2.6430    -1.1770 H     1 <1>   0.0800 
 39 H        4.2920     0.8190    -2.5130 H     1 <1>   0.0800 
 40 H        4.3650    -0.7660    -1.7870 H     1 <1>   0.0800 
 41 H       -5.7680    -1.5060     0.7240 H     1 <1>   0.0800 
 42 H       -5.4480    -0.5290    -0.6620 H     1 <1>   0.0800 
 43 H       -5.0130    -3.0030    -2.7280 H     1 <1>   0.0800 
 44 H       -3.2970    -2.9770    -2.4350 H     1 <1>   0.0800 
 45 H       -4.1770    -1.4840    -2.6310 H     1 <1>   0.0800 
 46 H       -5.5650    -4.3140    -0.8360 H     1 <1>   0.0800 
 47 H       -5.0360    -3.9280     0.7740 H     1 <1>   0.0800 
 48 H       -3.8940    -4.5130    -0.4190 H     1 <1>   0.0800 
 49 H       -7.3510    -2.8880    -0.5970 H     1 <1>   0.0800 
 50 H       -6.9870    -1.9420    -2.0250 H     1 <1>   0.0800 
 51 H       -7.7720    -1.2030    -0.6600 H     1 <1>   0.0800 
@<TRIPOS>BOND
  1   1   2  2   
  2   1   3  2   
  3   1   4  am  
  4   1   5  1   
  5   4   6  1   
  6   4   7  1   
  7   5   8  ar  
  8   5   9  ar  
  9   6  10  1   
 10   6  26  1   
 11   6  27  1   
 12   7  11  1   
 13   7  28  1   
 14   7  29  1   
 15   8  12  ar  
 16   8  30  1   
 17   9  13  ar  
 18   9  31  1   
 19  10  14  1   
 20  10  15  1   
 21  10  32  1   
 22  11  16  1   
 23  11  17  1   
 24  11  33  1   
 25  12  18  ar  
 26  12  34  1   
 27  13  18  ar  
 28  13  35  1   
 29  14  16  am  
 30  14  36  1   
 31  15  19  1   
 32  15  37  1   
 33  15  38  1   
 34  16  20  2   
 35  17  19  1   
 36  17  39  1   
 37  17  40  1   
 38  18  21  1   
 39  21  22  1   
 40  21  23  1   
 41  21  24  1   
 42  22  25  1   
 43  22  41  1   
 44  22  42  1   
 45  23  43  1   
 46  23  44  1   
 47  23  45  1   
 48  24  46  1   
 49  24  47  1   
 50  24  48  1   
 51  25  49  1   
 52  25  50  1   
 53  25  51  1   
@<TRIPOS>SUBSTRUCTURE
  1 ****   9 GROUP 4 **** **** 0

# MOE 2024.06 (io_trps.svl 2023.06)
