@<TRIPOS>MOLECULE
NONAME
65 69 1 0 0 
SMALL
USER_CHARGES


@<TRIPOS>ATOM
  1 O       -0.7710    -1.2520     1.9920 O.2   1 <1>  -0.5700 
  2 C       -1.1490    -1.2740     0.8370 C.2   1 <1>   0.7160 
  3 N       -0.5050    -2.1140    -0.0290 N.am  1 <1>  -0.7300 
  4 C       -2.2420    -0.4540     0.3680 C.2   1 <1>  -0.0860 
  5 C        0.6700    -2.9380     0.3260 C.3   1 <1>   0.1400 
  6 C       -2.8650     0.6100     0.9540 C.2   1 <1>  -0.0400 
  7 C       -2.9220    -0.6050    -0.8630 C.2   1 <1>  -0.1500 
  8 C        0.2130    -4.2440     0.9930 C.3   1 <1>  -0.0800 
  9 O       -3.8190     1.0790     0.1880 O.3   1 <1>  -0.2800 
 10 C       -2.6400     1.3060     2.2820 C.3   1 <1>  -0.0600 
 11 C       -3.8630     0.3570    -0.9070 C.2   1 <1>  -0.0400 
 12 C       -0.4430    -5.1950    -0.0190 C.3   1 <1>   0.2000 
 13 C        1.3460    -5.1460     1.5350 C.3   1 <1>  -0.0800 
 14 C       -4.8950     0.7000    -1.9580 C.3   1 <1>  -0.0600 
 15 O        0.6680    -5.8720    -0.4750 O.3   1 <1>  -0.5600 
 16 C       -1.2100    -6.3240     0.6860 C.3   1 <1>  -0.1600 
 17 C        1.1370    -6.4110     0.7100 C.3   1 <1>   0.2800 
 18 C        2.8170    -4.7620     1.2810 C.3   1 <1>   0.3430 
 19 C       -0.0700    -7.2200     1.1810 C.3   1 <1>  -0.1600 
 20 C        2.5210    -7.0340     0.5450 C.3   1 <1>   0.3430 
 21 N        3.4410    -5.8620     0.4760 N.4   1 <1>  -0.9590 
 22 C        3.6680    -5.4500    -0.9350 C.3   1 <1>   0.4860 
 23 C        4.6860    -4.3250    -0.9500 C.ar  1 <1>  -0.1430 
 24 C        5.9590    -4.5250    -0.4230 C.ar  1 <1>   0.0830 
 25 C        4.3380    -3.0960    -1.4880 C.ar  1 <1>  -0.1500 
 26 O        6.2240    -5.7780     0.0580 O.3   1 <1>  -0.3630 
 27 C        6.8770    -3.4620    -0.3960 C.ar  1 <1>   0.0830 
 28 C        5.2480    -2.0570    -1.4860 C.ar  1 <1>  -0.1500 
 29 C        7.4910    -6.3700    -0.1600 C.3   1 <1>   0.0400 
 30 O        8.0980    -3.6430     0.1850 O.3   1 <1>  -0.3630 
 31 C        6.5070    -2.2350    -0.9410 C.ar  1 <1>  -0.1500 
 32 C        9.0630    -2.6140     0.2530 C.3   1 <1>   0.0400 
 33 H       -0.7700    -2.0710    -1.0130 H     1 <1>   0.3700 
 34 H        1.2420    -3.1430    -0.5620 H     1 <1>   0.0800 
 35 H        1.2860    -2.3760     1.0110 H     1 <1>   0.0800 
 36 H       -2.7190    -1.3520    -1.6070 H     1 <1>   0.1500 
 37 H       -0.4760    -4.0030     1.7860 H     1 <1>   0.0800 
 38 H       -1.8140     0.8760     2.8160 H     1 <1>   0.0800 
 39 H       -3.5240     1.2210     2.8860 H     1 <1>   0.0800 
 40 H       -2.4350     2.3470     2.1120 H     1 <1>   0.0800 
 41 H       -0.9810    -4.7210    -0.8230 H     1 <1>   0.0800 
 42 H        1.2120    -5.3420     2.5850 H     1 <1>   0.0800 
 43 H       -4.8160     0.0270    -2.7920 H     1 <1>   0.0800 
 44 H       -4.7400     1.7070    -2.3010 H     1 <1>   0.0800 
 45 H       -5.8800     0.6230    -1.5360 H     1 <1>   0.0800 
 46 H       -1.8270    -5.9500     1.4850 H     1 <1>   0.0800 
 47 H       -1.8300    -6.8460    -0.0230 H     1 <1>   0.0800 
 48 H        3.3280    -4.6700     2.2260 H     1 <1>   0.0800 
 49 H        2.9000    -3.8220     0.7640 H     1 <1>   0.0800 
 50 H       -0.0970    -8.1800     0.6940 H     1 <1>   0.0800 
 51 H       -0.0830    -7.3550     2.2490 H     1 <1>   0.0800 
 52 H        2.5700    -7.6540    -0.3340 H     1 <1>   0.0800 
 53 H        2.7480    -7.6230     1.4170 H     1 <1>   0.0800 
 54 H        4.3910    -6.0750     0.8310 H     1 <1>   0.4500 
 55 H        4.0550    -6.2800    -1.5020 H     1 <1>   0.0800 
 56 H        2.7430    -5.1270    -1.3840 H     1 <1>   0.0800 
 57 H        3.3630    -2.9330    -1.9160 H     1 <1>   0.1500 
 58 H        4.9800    -1.1020    -1.9080 H     1 <1>   0.1500 
 59 H        7.3780    -7.4390    -0.1290 H     1 <1>   0.0800 
 60 H        8.1620    -6.0570     0.6200 H     1 <1>   0.0800 
 61 H        7.8650    -6.0680    -1.1220 H     1 <1>   0.0800 
 62 H        7.1810    -1.4000    -0.9530 H     1 <1>   0.1500 
 63 H        9.9320    -3.0030     0.7530 H     1 <1>   0.0800 
 64 H        8.6590    -1.7910     0.8150 H     1 <1>   0.0800 
 65 H        9.3240    -2.3110    -0.7450 H     1 <1>   0.0800 
@<TRIPOS>BOND
  1   1   2  2   
  2   2   3  am  
  3   2   4  1   
  4   3   5  1   
  5   3  33  1   
  6   4   6  2   
  7   4   7  1   
  8   5   8  1   
  9   5  34  1   
 10   5  35  1   
 11   6   9  1   
 12   6  10  1   
 13   7  11  2   
 14   7  36  1   
 15   8  12  1   
 16   8  13  1   
 17   8  37  1   
 18   9  11  1   
 19  10  38  1   
 20  10  39  1   
 21  10  40  1   
 22  11  14  1   
 23  12  15  1   
 24  12  16  1   
 25  12  41  1   
 26  13  17  1   
 27  13  18  1   
 28  13  42  1   
 29  14  43  1   
 30  14  44  1   
 31  14  45  1   
 32  15  17  1   
 33  16  19  1   
 34  16  46  1   
 35  16  47  1   
 36  17  19  1   
 37  17  20  1   
 38  18  21  1   
 39  18  48  1   
 40  18  49  1   
 41  19  50  1   
 42  19  51  1   
 43  20  21  1   
 44  20  52  1   
 45  20  53  1   
 46  21  22  1   
 47  21  54  1   
 48  22  23  1   
 49  22  55  1   
 50  22  56  1   
 51  23  24  ar  
 52  23  25  ar  
 53  24  26  1   
 54  24  27  ar  
 55  25  28  ar  
 56  25  57  1   
 57  26  29  1   
 58  27  30  1   
 59  27  31  ar  
 60  28  31  ar  
 61  28  58  1   
 62  29  59  1   
 63  29  60  1   
 64  29  61  1   
 65  30  32  1   
 66  31  62  1   
 67  32  63  1   
 68  32  64  1   
 69  32  65  1   
@<TRIPOS>SUBSTRUCTURE
  1 ****   5 GROUP 4 **** **** 0

# MOE 2024.06 (io_trps.svl 2023.06)
