@<TRIPOS>MOLECULE
NONAME
52 54 1 0 0 
SMALL
USER_CHARGES


@<TRIPOS>ATOM
  1 S       -0.7100    -4.6420     3.3950 S.3   1 <1>  -0.3320 
  2 C       -0.6060    -4.8630     1.6120 C.ar  1 <1>   0.1020 
  3 C        0.7620    -3.6480     3.9020 C.3   1 <1>  -0.0100 
  4 C       -1.6240    -5.5400     1.0050 C.ar  1 <1>  -0.1500 
  5 C        0.4680    -4.3700     0.8650 C.ar  1 <1>  -0.1500 
  6 C       -1.6200    -5.7790    -0.3770 C.ar  1 <1>   0.3100 
  7 C        0.4860    -4.5690    -0.4900 C.ar  1 <1>  -0.1500 
  8 N       -2.6470    -6.4970    -0.8940 N.ar  1 <1>  -0.6200 
  9 C       -0.5500    -5.2670    -1.1490 C.ar  1 <1>   0.0000 
 10 C       -2.6720    -6.6650    -2.1880 C.ar  1 <1>   0.4100 
 11 C       -0.5920    -5.4910    -2.5420 C.ar  1 <1>  -0.1430 
 12 N       -3.7520    -7.3580    -2.7140 N.pl3 1 <1>  -0.8380 
 13 C       -1.6540    -6.1830    -3.0350 C.ar  1 <1>  -0.1500 
 14 C        0.5040    -4.9800    -3.4670 C.3   1 <1>  -0.0970 
 15 C       -4.3190    -8.5360    -1.9950 C.3   1 <1>   0.2090 
 16 C       -4.2900    -7.0750    -4.0760 C.3   1 <1>   0.1290 
 17 C       -5.2220    -8.0870    -0.8130 C.3   1 <1>   0.4230 
 18 N       -4.9820    -8.8720     0.4480 N.4   1 <1>  -0.9590 
 19 C       -6.6980    -8.1700    -1.2170 C.3   1 <1>  -0.2400 
 20 C       -5.9060    -8.5170     1.5820 C.3   1 <1>   0.3430 
 21 C       -3.5630    -8.7340     0.9340 C.3   1 <1>   0.3430 
 22 C       -5.5150    -9.2300     2.8980 C.3   1 <1>   0.1200 
 23 C       -3.3030    -9.5960     2.1900 C.3   1 <1>   0.1200 
 24 O       -4.4910   -10.1610     2.6800 O.3   1 <1>  -0.5600 
 25 H        0.6980    -3.4920     4.9640 H     1 <1>   0.0800 
 26 H        0.7280    -2.7110     3.3760 H     1 <1>   0.0800 
 27 H        1.6450    -4.2090     3.6520 H     1 <1>   0.0800 
 28 H       -2.4480    -5.8920     1.5900 H     1 <1>   0.1500 
 29 H        1.2680    -3.8380     1.3420 H     1 <1>   0.1500 
 30 H        1.3080    -4.1840    -1.0650 H     1 <1>   0.1500 
 31 H       -1.7310    -6.3880    -4.0850 H     1 <1>   0.1500 
 32 H        1.4510    -5.4110    -3.1920 H     1 <1>   0.0800 
 33 H        0.5720    -3.9090    -3.4020 H     1 <1>   0.0800 
 34 H        0.2990    -5.2420    -4.4890 H     1 <1>   0.0800 
 35 H       -3.4980    -9.1350    -1.6500 H     1 <1>   0.0800 
 36 H       -4.8820    -9.1400    -2.6850 H     1 <1>   0.0800 
 37 H       -4.0230    -6.0780    -4.3830 H     1 <1>   0.0800 
 38 H       -5.3640    -7.1490    -4.0750 H     1 <1>   0.0800 
 39 H       -3.8890    -7.7810    -4.7830 H     1 <1>   0.0800 
 40 H       -4.9850    -7.0540    -0.6150 H     1 <1>   0.0800 
 41 H       -5.1230    -9.8760     0.2720 H     1 <1>   0.4500 
 42 H       -7.0110    -9.1920    -1.3350 H     1 <1>   0.0800 
 43 H       -6.8360    -7.6660    -2.1570 H     1 <1>   0.0800 
 44 H       -7.3290    -7.6730    -0.5040 H     1 <1>   0.0800 
 45 H       -6.9160    -8.7930     1.3300 H     1 <1>   0.0800 
 46 H       -5.8930    -7.4520     1.7460 H     1 <1>   0.0800 
 47 H       -3.3690    -7.7030     1.1750 H     1 <1>   0.0800 
 48 H       -2.8590    -9.0110     0.1670 H     1 <1>   0.0800 
 49 H       -6.3620    -9.7580     3.3010 H     1 <1>   0.0800 
 50 H       -5.1820    -8.5170     3.6330 H     1 <1>   0.0800 
 51 H       -2.8520    -9.0050     2.9680 H     1 <1>   0.0800 
 52 H       -2.6330   -10.4030     1.9510 H     1 <1>   0.0800 
@<TRIPOS>BOND
  1   1   2  1   
  2   1   3  1   
  3   2   4  ar  
  4   2   5  ar  
  5   3  25  1   
  6   3  26  1   
  7   3  27  1   
  8   4   6  ar  
  9   4  28  1   
 10   5   7  ar  
 11   5  29  1   
 12   6   8  ar  
 13   6   9  ar  
 14   7   9  ar  
 15   7  30  1   
 16   8  10  ar  
 17   9  11  ar  
 18  10  12  1   
 19  10  13  ar  
 20  11  13  ar  
 21  11  14  1   
 22  12  15  1   
 23  12  16  1   
 24  13  31  1   
 25  14  32  1   
 26  14  33  1   
 27  14  34  1   
 28  15  17  1   
 29  15  35  1   
 30  15  36  1   
 31  16  37  1   
 32  16  38  1   
 33  16  39  1   
 34  17  18  1   
 35  17  19  1   
 36  17  40  1   
 37  18  20  1   
 38  18  21  1   
 39  18  41  1   
 40  19  42  1   
 41  19  43  1   
 42  19  44  1   
 43  20  22  1   
 44  20  45  1   
 45  20  46  1   
 46  21  23  1   
 47  21  47  1   
 48  21  48  1   
 49  22  24  1   
 50  22  49  1   
 51  22  50  1   
 52  23  24  1   
 53  23  51  1   
 54  23  52  1   
@<TRIPOS>SUBSTRUCTURE
  1 ****   8 GROUP 4 **** **** 0

# MOE 2024.06 (io_trps.svl 2023.06)
