@<TRIPOS>MOLECULE
NONAME
46 48 1 0 0 
SMALL
USER_CHARGES


@<TRIPOS>ATOM
  1 F       -1.0820     1.9350     1.7660 F     1 <1>  -0.1900 
  2 C       -0.6940     2.2990     0.5730 C.ar  1 <1>   0.1900 
  3 C       -1.6200     2.2590    -0.4650 C.ar  1 <1>   0.0860 
  4 C        0.6240     2.7140     0.4110 C.ar  1 <1>  -0.1440 
  5 C       -1.1450     2.6770    -1.7030 C.ar  1 <1>   0.1900 
  6 C       -2.9770     1.8190    -0.2750 C.2   1 <1>   0.5440 
  7 C        1.0440     3.1150    -0.8490 C.ar  1 <1>  -0.1500 
  8 C        1.5940     2.7320     1.5840 C.3   1 <1>  -0.0970 
  9 F       -1.9560     2.6940    -2.7250 F     1 <1>  -0.1900 
 10 C        0.1560     3.0980    -1.9130 C.ar  1 <1>  -0.1500 
 11 O       -3.2720     0.6780    -0.5750 O.2   1 <1>  -0.5700 
 12 N       -3.9400     2.6670     0.2300 N.am  1 <1>  -0.6600 
 13 C       -5.3580     2.2310     0.4110 C.3   1 <1>   0.1400 
 14 C       -3.6780     4.1020     0.5460 C.3   1 <1>   0.1400 
 15 C       -6.2920     3.0190    -0.5490 C.3   1 <1>   0.0000 
 16 C       -4.9670     4.9410     0.5120 C.3   1 <1>  -0.1600 
 17 C       -7.7700     2.8500    -0.1490 C.3   1 <1>   0.2000 
 18 C       -5.8750     4.5140    -0.6520 C.3   1 <1>  -0.1600 
 19 C       -6.2820     2.3490    -1.9340 C.3   1 <1>  -0.1600 
 20 O       -7.9550     2.9730     1.2310 O.3   1 <1>  -0.5600 
 21 C       -8.1740     1.4610    -0.6480 C.3   1 <1>  -0.1600 
 22 C       -7.2470     1.1610    -1.8340 C.3   1 <1>  -0.1600 
 23 C       -9.2770     3.1350     1.6350 C.3   1 <1>   0.0400 
 24 H        2.0590     3.4400    -1.0100 H     1 <1>   0.1500 
 25 H        2.5670     3.0720     1.2790 H     1 <1>   0.0800 
 26 H        1.6920     1.7420     1.9930 H     1 <1>   0.0800 
 27 H        1.2290     3.3870     2.3550 H     1 <1>   0.0800 
 28 H        0.4670     3.4060    -2.8950 H     1 <1>   0.1500 
 29 H       -5.4580     1.1720     0.2520 H     1 <1>   0.0800 
 30 H       -5.6300     2.4180     1.4350 H     1 <1>   0.0800 
 31 H       -3.2210     4.1750     1.5180 H     1 <1>   0.0800 
 32 H       -2.9930     4.5010    -0.1830 H     1 <1>   0.0800 
 33 H       -5.4960     4.8220     1.4420 H     1 <1>   0.0800 
 34 H       -4.7110     5.9810     0.4180 H     1 <1>   0.0800 
 35 H       -8.3620     3.5980    -0.6490 H     1 <1>   0.0800 
 36 H       -5.3270     4.6700    -1.5650 H     1 <1>   0.0800 
 37 H       -6.7420     5.1500    -0.6840 H     1 <1>   0.0800 
 38 H       -6.6570     3.0350    -2.6740 H     1 <1>   0.0800 
 39 H       -5.2940     2.0360    -2.2270 H     1 <1>   0.0800 
 40 H       -8.0130     0.7300     0.1250 H     1 <1>   0.0800 
 41 H       -9.2050     1.4480    -0.9520 H     1 <1>   0.0800 
 42 H       -6.6940     0.2560    -1.6440 H     1 <1>   0.0800 
 43 H       -7.8010     1.0410    -2.7500 H     1 <1>   0.0800 
 44 H       -9.2870     3.2420     2.7060 H     1 <1>   0.0800 
 45 H       -9.8480     2.2670     1.3550 H     1 <1>   0.0800 
 46 H       -9.6830     4.0210     1.1790 H     1 <1>   0.0800 
@<TRIPOS>BOND
  1   1   2  1   
  2   2   3  ar  
  3   2   4  ar  
  4   3   5  ar  
  5   3   6  1   
  6   4   7  ar  
  7   4   8  1   
  8   5   9  1   
  9   5  10  ar  
 10   6  11  2   
 11   6  12  am  
 12   7  10  ar  
 13   7  24  1   
 14   8  25  1   
 15   8  26  1   
 16   8  27  1   
 17  10  28  1   
 18  12  13  1   
 19  12  14  1   
 20  13  15  1   
 21  13  29  1   
 22  13  30  1   
 23  14  16  1   
 24  14  31  1   
 25  14  32  1   
 26  15  17  1   
 27  15  18  1   
 28  15  19  1   
 29  16  18  1   
 30  16  33  1   
 31  16  34  1   
 32  17  20  1   
 33  17  21  1   
 34  17  35  1   
 35  18  36  1   
 36  18  37  1   
 37  19  22  1   
 38  19  38  1   
 39  19  39  1   
 40  20  23  1   
 41  21  22  1   
 42  21  40  1   
 43  21  41  1   
 44  22  42  1   
 45  22  43  1   
 46  23  44  1   
 47  23  45  1   
 48  23  46  1   
@<TRIPOS>SUBSTRUCTURE
  1 ****  12 GROUP 4 **** **** 0

# MOE 2024.06 (io_trps.svl 2023.06)
