@<TRIPOS>MOLECULE
NONAME
49 52 1 0 0 
SMALL
USER_CHARGES


@<TRIPOS>ATOM
  1 S       -0.1180    -0.5170     0.9740 S.o2  1 <1>   1.4470 
  2 O       -1.3220     0.2020     1.3180 O.2   1 <1>  -0.6500 
  3 O        0.2380    -1.7190     1.6900 O.2   1 <1>  -0.6500 
  4 N       -0.3760    -0.9050    -0.6400 N.am  1 <1>  -0.9140 
  5 C        1.3030     0.6050     0.8960 C.ar  1 <1>  -0.0090 
  6 C       -0.8670    -2.2430    -0.9940 C.3   1 <1>   0.2760 
  7 C        1.1300     1.9840     0.8430 C.ar  1 <1>  -0.1500 
  8 C        2.6030     0.1100     0.8630 C.ar  1 <1>  -0.1500 
  9 C       -2.0650    -2.7580    -0.1840 C.3   1 <1>  -0.0800 
 10 C        0.1750    -3.3600    -0.8860 C.3   1 <1>   0.1200 
 11 C        2.2100     2.8450     0.7540 C.ar  1 <1>   0.0820 
 12 C        3.6930     0.9600     0.7850 C.ar  1 <1>  -0.1500 
 13 C       -1.5600    -4.1040     0.3450 C.3   1 <1>   0.1200 
 14 C       -3.3160    -2.9130    -1.0670 C.3   1 <1>  -0.0160 
 15 O       -0.5530    -4.4900    -0.5300 O.3   1 <1>  -0.5600 
 16 O        1.9410     4.1720     0.7360 O.3   1 <1>  -0.3630 
 17 C        3.5070     2.3290     0.7250 C.ar  1 <1>   0.0820 
 18 C       -4.5100    -3.4120    -0.2670 C.ar  1 <1>  -0.1430 
 19 C        2.4020     4.9370    -0.3500 C.3   1 <1>   0.1200 
 20 O        4.6130     3.1070     0.6790 O.3   1 <1>  -0.3630 
 21 C       -5.0140    -4.6880    -0.4240 C.ar  1 <1>  -0.1500 
 22 C       -5.1510    -2.6140     0.6580 C.ar  1 <1>  -0.1500 
 23 C        3.8950     5.2360    -0.2080 C.3   1 <1>  -0.1600 
 24 C        4.7660     3.9950    -0.4000 C.3   1 <1>   0.1200 
 25 C       -6.1020    -5.0910     0.3320 C.ar  1 <1>   0.1600 
 26 C       -6.2320    -3.1150     1.3630 C.ar  1 <1>   0.1600 
 27 N       -6.7240    -4.3350     1.2220 N.ar  1 <1>  -0.6200 
 28 H       -1.1000    -0.2400    -0.9080 H     1 <1>   0.4200 
 29 H       -1.1440    -2.2060    -2.0340 H     1 <1>   0.0800 
 30 H        0.1400     2.4030     0.8780 H     1 <1>   0.1500 
 31 H        2.7640    -0.9540     0.9050 H     1 <1>   0.1500 
 32 H       -2.3140    -2.1330     0.6520 H     1 <1>   0.0800 
 33 H        0.9030    -3.1780    -0.1160 H     1 <1>   0.0800 
 34 H        0.6660    -3.5460    -1.8240 H     1 <1>   0.0800 
 35 H        4.6940     0.5650     0.7740 H     1 <1>   0.1500 
 36 H       -2.3160    -4.8690     0.3760 H     1 <1>   0.0800 
 37 H       -1.1220    -3.9910     1.3230 H     1 <1>   0.0800 
 38 H       -3.1090    -3.5960    -1.8740 H     1 <1>   0.0800 
 39 H       -3.5700    -1.9610    -1.5010 H     1 <1>   0.0800 
 40 H        2.1900     4.4040    -1.2610 H     1 <1>   0.0800 
 41 H        1.8430     5.8560    -0.3460 H     1 <1>   0.0800 
 42 H       -4.5720    -5.3730    -1.1240 H     1 <1>   0.1500 
 43 H       -4.8200    -1.6070     0.8410 H     1 <1>   0.1500 
 44 H        4.1620     5.9490    -0.9660 H     1 <1>   0.0800 
 45 H        4.0950     5.6880     0.7480 H     1 <1>   0.0800 
 46 H        5.8040     4.2780    -0.4290 H     1 <1>   0.0800 
 47 H        4.5210     3.4760    -1.3110 H     1 <1>   0.0800 
 48 H       -6.4820    -6.0900     0.1960 H     1 <1>   0.1500 
 49 H       -6.7180    -2.4780     2.0820 H     1 <1>   0.1500 
@<TRIPOS>BOND
  1   1   2  2   
  2   1   3  2   
  3   1   4  am  
  4   1   5  1   
  5   4   6  1   
  6   4  28  1   
  7   5   7  ar  
  8   5   8  ar  
  9   6   9  1   
 10   6  10  1   
 11   6  29  1   
 12   7  11  ar  
 13   7  30  1   
 14   8  12  ar  
 15   8  31  1   
 16   9  13  1   
 17   9  14  1   
 18   9  32  1   
 19  10  15  1   
 20  10  33  1   
 21  10  34  1   
 22  11  16  1   
 23  11  17  ar  
 24  12  17  ar  
 25  12  35  1   
 26  13  15  1   
 27  13  36  1   
 28  13  37  1   
 29  14  18  1   
 30  14  38  1   
 31  14  39  1   
 32  16  19  1   
 33  17  20  1   
 34  18  21  ar  
 35  18  22  ar  
 36  19  23  1   
 37  19  40  1   
 38  19  41  1   
 39  20  24  1   
 40  21  25  ar  
 41  21  42  1   
 42  22  26  ar  
 43  22  43  1   
 44  23  24  1   
 45  23  44  1   
 46  23  45  1   
 47  24  46  1   
 48  24  47  1   
 49  25  27  ar  
 50  25  48  1   
 51  26  27  ar  
 52  26  49  1   
@<TRIPOS>SUBSTRUCTURE
  1 ****   1 GROUP 4 **** **** 0

# MOE 2024.06 (io_trps.svl 2023.06)
