@<TRIPOS>MOLECULE
NONAME
48 50 1 0 0 
SMALL
USER_CHARGES


@<TRIPOS>ATOM
  1 F        5.3840     2.6830     1.4610 F     1 <1>  -0.1900 
  2 C        4.2840     3.3860     1.4650 C.ar  1 <1>   0.1900 
  3 C        4.1800     4.4660     0.6120 C.ar  1 <1>  -0.1500 
  4 C        3.2640     3.0190     2.3180 C.ar  1 <1>  -0.1500 
  5 C        3.0060     5.2110     0.5890 C.ar  1 <1>  -0.1440 
  6 C        2.1050     3.7730     2.3170 C.ar  1 <1>  -0.1500 
  7 C        1.9770     4.8630     1.4640 C.ar  1 <1>  -0.1430 
  8 C        2.9020     6.3840    -0.3960 C.3   1 <1>   0.5670 
  9 C        0.7170     5.7040     1.5330 C.3   1 <1>  -0.0170 
 10 N        1.7180     7.2520    -0.1180 N.4   1 <1>  -0.9590 
 11 C        2.8120     5.8070    -1.8160 C.3   1 <1>  -0.2400 
 12 C        0.4970     6.5010     0.2510 C.3   1 <1>   0.3430 
 13 C        1.4490     8.3290    -1.1200 C.3   1 <1>   0.4860 
 14 C        2.6000     9.3080    -1.1070 C.ar  1 <1>  -0.1430 
 15 C        2.7210    10.0770     0.0280 C.ar  1 <1>  -0.1500 
 16 C        3.5740     9.3960    -2.0910 C.ar  1 <1>  -0.1500 
 17 C        3.9010    10.7280     0.3190 C.ar  1 <1>   0.0830 
 18 C        4.6900    10.1920    -1.8790 C.ar  1 <1>  -0.1500 
 19 O        4.0540    11.0900     1.6190 O.3   1 <1>  -0.3620 
 20 C        4.8840    10.8550    -0.6750 C.ar  1 <1>   0.0830 
 21 C        4.2680    10.0170     2.5720 C.3   1 <1>   0.0140 
 22 O        6.0450    11.5630    -0.5780 O.3   1 <1>  -0.3630 
 23 C        3.7220     8.6260     2.1990 C.2   1 <1>   0.9060 
 24 C        6.3180    12.3840     0.5340 C.3   1 <1>   0.0400 
 25 O        4.4620     7.8010     1.6560 O.co2 1 <1>  -0.9000 
 26 O        2.5130     8.3540     2.3220 O.co2 1 <1>  -0.9000 
 27 H        5.0150     4.7200    -0.0150 H     1 <1>   0.1500 
 28 H        3.3820     2.1730     2.9700 H     1 <1>   0.1500 
 29 H        1.3080     3.5150     2.9930 H     1 <1>   0.1500 
 30 H        3.7980     6.9800    -0.3120 H     1 <1>   0.0800 
 31 H        0.7990     6.3840     2.3630 H     1 <1>   0.0800 
 32 H       -0.1370     5.0750     1.7060 H     1 <1>   0.0800 
 33 H        2.0410     7.7230     0.7730 H     1 <1>   0.4500 
 34 H        1.9140     5.2310    -1.9380 H     1 <1>   0.0800 
 35 H        3.6470     5.1530    -1.9870 H     1 <1>   0.0800 
 36 H        2.8650     6.5750    -2.5610 H     1 <1>   0.0800 
 37 H       -0.3190     7.1870     0.4090 H     1 <1>   0.0800 
 38 H        0.2340     5.8270    -0.5460 H     1 <1>   0.0800 
 39 H        0.5500     8.8570    -0.8480 H     1 <1>   0.0800 
 40 H        1.3170     7.9120    -2.1030 H     1 <1>   0.0800 
 41 H        1.9380    10.0940     0.7660 H     1 <1>   0.1500 
 42 H        3.4910     8.8450    -3.0100 H     1 <1>   0.1500 
 43 H        5.4420    10.2840    -2.6420 H     1 <1>   0.1500 
 44 H        3.8240    10.3180     3.5000 H     1 <1>   0.0800 
 45 H        5.3280     9.9230     2.7090 H     1 <1>   0.0800 
 46 H        7.2100    12.9460     0.3250 H     1 <1>   0.0800 
 47 H        6.4740    11.7590     1.3950 H     1 <1>   0.0800 
 48 H        5.4890    13.0510     0.6900 H     1 <1>   0.0800 
@<TRIPOS>BOND
  1   1   2  1   
  2   2   3  ar  
  3   2   4  ar  
  4   3   5  ar  
  5   3  27  1   
  6   4   6  ar  
  7   4  28  1   
  8   5   7  ar  
  9   5   8  1   
 10   6   7  ar  
 11   6  29  1   
 12   7   9  1   
 13   8  10  1   
 14   8  11  1   
 15   8  30  1   
 16   9  12  1   
 17   9  31  1   
 18   9  32  1   
 19  10  12  1   
 20  10  13  1   
 21  10  33  1   
 22  11  34  1   
 23  11  35  1   
 24  11  36  1   
 25  12  37  1   
 26  12  38  1   
 27  13  14  1   
 28  13  39  1   
 29  13  40  1   
 30  14  15  ar  
 31  14  16  ar  
 32  15  17  ar  
 33  15  41  1   
 34  16  18  ar  
 35  16  42  1   
 36  17  19  1   
 37  17  20  ar  
 38  18  20  ar  
 39  18  43  1   
 40  19  21  1   
 41  20  22  1   
 42  21  23  1   
 43  21  44  1   
 44  21  45  1   
 45  22  24  1   
 46  23  25  ar  
 47  23  26  ar  
 48  24  46  1   
 49  24  47  1   
 50  24  48  1   
@<TRIPOS>SUBSTRUCTURE
  1 ****  25 GROUP 4 **** **** 0

# MOE 2024.06 (io_trps.svl 2023.06)
