@<TRIPOS>MOLECULE
NONAME
44 46 1 0 0 
SMALL
USER_CHARGES


@<TRIPOS>ATOM
  1 CL       1.6770     1.0510     2.8360 Cl    1 <1>  -0.1230 
  2 C        3.1720     0.6630     2.0050 C.2   1 <1>   0.1230 
  3 C        3.8870     1.4970     1.1430 C.2   1 <1>   0.2030 
  4 C        3.8300    -0.5040     2.0710 C.2   1 <1>  -0.3020 
  5 N        4.9550     0.8440     0.6870 N.2   1 <1>  -0.7070 
  6 C        3.5020     2.8650     0.8340 C.2   1 <1>   0.7160 
  7 N        4.9040    -0.3710     1.2720 N.pl3 1 <1>   0.3140 
  8 O        3.1220     3.6110     1.7170 O.2   1 <1>  -0.5700 
  9 N        3.6410     3.3960    -0.4420 N.am  1 <1>  -0.6600 
 10 C        5.9180    -1.4110     1.0460 C.3   1 <1>   0.0160 
 11 C        3.8970     2.5580    -1.6600 C.3   1 <1>   0.1400 
 12 C        3.6800     4.8670    -0.6700 C.3   1 <1>   0.1400 
 13 C        5.4050     2.3610    -1.9320 C.3   1 <1>   0.3430 
 14 C        5.1180     5.3850    -0.5320 C.3   1 <1>  -0.1600 
 15 N        6.2420     3.2530    -1.0750 N.4   1 <1>  -0.9590 
 16 C        6.1490     4.6950    -1.4320 C.3   1 <1>   0.3430 
 17 C        7.6340     2.7640    -0.8830 C.3   1 <1>   0.5240 
 18 C        8.1850     3.2940     0.4340 C.2   1 <1>   0.0460 
 19 N        8.5390     4.6360     0.5070 N.2   1 <1>  -0.5650 
 20 C        8.3540     2.5730     1.5540 C.2   1 <1>  -0.1100 
 21 C        8.9760     4.9370     1.6640 C.2   1 <1>   0.1980 
 22 S        8.9970     3.6040     2.7960 S.3   1 <1>  -0.0800 
 23 C        9.4670     6.2760     2.1650 C.3   1 <1>  -0.0600 
 24 H        3.5950    -1.3930     2.6270 H     1 <1>   0.1500 
 25 H        5.4390    -2.2970     0.6730 H     1 <1>   0.0800 
 26 H        6.4110    -1.6300     1.9750 H     1 <1>   0.0800 
 27 H        6.6370    -1.0610     0.3300 H     1 <1>   0.0800 
 28 H        3.4380     3.0210    -2.5160 H     1 <1>   0.0800 
 29 H        3.4320     1.5940    -1.5440 H     1 <1>   0.0800 
 30 H        3.0480     5.3670     0.0460 H     1 <1>   0.0800 
 31 H        3.2920     5.0950    -1.6490 H     1 <1>   0.0800 
 32 H        5.6170     2.5260    -2.9750 H     1 <1>   0.0800 
 33 H        5.6420     1.3330    -1.7080 H     1 <1>   0.0800 
 34 H        5.4300     5.3070     0.4960 H     1 <1>   0.0800 
 35 H        5.1160     6.4340    -0.7700 H     1 <1>   0.0800 
 36 H        5.8120     3.1810    -0.1380 H     1 <1>   0.4500 
 37 H        7.1040     5.1740    -1.2880 H     1 <1>   0.0800 
 38 H        5.8730     4.8080    -2.4670 H     1 <1>   0.0800 
 39 H        8.2650     3.0790    -1.6970 H     1 <1>   0.0800 
 40 H        7.6330     1.6880    -0.8400 H     1 <1>   0.0800 
 41 H        8.1710     1.5440     1.8080 H     1 <1>   0.1500 
 42 H        9.4100     7.0060     1.3780 H     1 <1>   0.0800 
 43 H       10.4880     6.1920     2.4900 H     1 <1>   0.0800 
 44 H        8.8600     6.6020     2.9900 H     1 <1>   0.0800 
@<TRIPOS>BOND
  1   1   2  1   
  2   2   3  1   
  3   2   4  2   
  4   3   5  2   
  5   3   6  1   
  6   4   7  1   
  7   4  24  1   
  8   5   7  1   
  9   6   8  2   
 10   6   9  am  
 11   7  10  1   
 12   9  11  1   
 13   9  12  1   
 14  10  25  1   
 15  10  26  1   
 16  10  27  1   
 17  11  13  1   
 18  11  28  1   
 19  11  29  1   
 20  12  14  1   
 21  12  30  1   
 22  12  31  1   
 23  13  15  1   
 24  13  32  1   
 25  13  33  1   
 26  14  16  1   
 27  14  34  1   
 28  14  35  1   
 29  15  16  1   
 30  15  17  1   
 31  15  36  1   
 32  16  37  1   
 33  16  38  1   
 34  17  18  1   
 35  17  39  1   
 36  17  40  1   
 37  18  19  1   
 38  18  20  2   
 39  19  21  2   
 40  20  22  1   
 41  20  41  1   
 42  21  22  1   
 43  21  23  1   
 44  23  42  1   
 45  23  43  1   
 46  23  44  1   
@<TRIPOS>SUBSTRUCTURE
  1 ****  15 GROUP 4 **** **** 0

# MOE 2024.06 (io_trps.svl 2023.06)
