@<TRIPOS>MOLECULE
NONAME
53 56 1 0 0 
SMALL
USER_CHARGES


@<TRIPOS>ATOM
  1 O        0.3840     0.0640     0.7220 O.3   1 <1>  -0.5600 
  2 C        0.3350    -1.3330     0.7690 C.3   1 <1>   0.1200 
  3 C        1.2940     0.5380    -0.2150 C.3   1 <1>   0.1200 
  4 C        1.7140    -1.9730     1.0840 C.3   1 <1>   0.2850 
  5 C        2.7020     0.1260     0.2320 C.3   1 <1>   0.1900 
  6 N        2.8370    -1.3510     0.3190 N.3   1 <1>  -0.8100 
  7 C        1.5890    -3.4920     0.8060 C.3   1 <1>  -0.1950 
  8 C        3.7740     0.6900    -0.7230 C.3   1 <1>   0.3430 
  9 C        4.1550    -1.6530     0.9190 C.3   1 <1>   0.1100 
 10 C        2.5590    -4.3930     0.0870 C.3   1 <1>  -0.2000 
 11 C        1.2880    -3.9830    -0.5810 C.3   1 <1>  -0.2000 
 12 N        5.1730     0.3230    -0.2860 N.4   1 <1>  -0.9590 
 13 C        5.2880    -1.1520     0.0000 C.3   1 <1>   0.3430 
 14 C        6.2010     0.7640    -1.2530 C.3   1 <1>   0.4810 
 15 C        6.2760     2.2690    -1.1750 C.2   1 <1>  -0.2880 
 16 C        7.2490     2.9570    -0.5510 C.2   1 <1>  -0.1780 
 17 C        7.3840     4.3930    -0.4410 C.ar  1 <1>   0.0280 
 18 C        6.7030     5.2760    -1.2780 C.ar  1 <1>  -0.1500 
 19 C        8.2250     4.9420     0.5250 C.ar  1 <1>  -0.1500 
 20 C        6.8480     6.6440    -1.1460 C.ar  1 <1>  -0.1500 
 21 C        8.3760     6.3100     0.6620 C.ar  1 <1>  -0.1500 
 22 C        7.6820     7.1750    -0.1770 C.ar  1 <1>   0.0820 
 23 O        7.7690     8.5250    -0.1140 O.3   1 <1>  -0.3630 
 24 C        8.5970     9.1670     0.8290 C.3   1 <1>   0.0400 
 25 H       -0.3770    -1.6110     1.5260 H     1 <1>   0.0800 
 26 H       -0.0370    -1.6810    -0.1780 H     1 <1>   0.0800 
 27 H        1.0480     0.1360    -1.1830 H     1 <1>   0.0800 
 28 H        1.1980     1.6100    -0.2420 H     1 <1>   0.0800 
 29 H        1.9010    -1.8350     2.1350 H     1 <1>   0.0800 
 30 H        2.8540     0.5600     1.2050 H     1 <1>   0.0800 
 31 H        1.0130    -3.9580     1.5880 H     1 <1>   0.1000 
 32 H        3.6750     1.7620    -0.7660 H     1 <1>   0.0800 
 33 H        3.5860     0.2970    -1.7080 H     1 <1>   0.0800 
 34 H        4.2380    -1.1870     1.8870 H     1 <1>   0.0800 
 35 H        4.2730    -2.7090     1.0700 H     1 <1>   0.0800 
 36 H        3.4540    -4.0420    -0.3940 H     1 <1>   0.1000 
 37 H        2.6550    -5.4120     0.4200 H     1 <1>   0.1000 
 38 H        0.5120    -4.7180    -0.7170 H     1 <1>   0.1000 
 39 H        1.3570    -3.3000    -1.4100 H     1 <1>   0.1000 
 40 H        5.3620     0.8330     0.5870 H     1 <1>   0.4500 
 41 H        5.2330    -1.7060    -0.9240 H     1 <1>   0.0800 
 42 H        6.2380    -1.3660     0.4600 H     1 <1>   0.0800 
 43 H        7.1580     0.3490    -0.9800 H     1 <1>   0.0800 
 44 H        5.9570     0.4420    -2.2530 H     1 <1>   0.0800 
 45 H        5.4620     2.7560    -1.6800 H     1 <1>   0.1500 
 46 H        8.0460     2.4270    -0.0570 H     1 <1>   0.1500 
 47 H        6.0560     4.9010    -2.0480 H     1 <1>   0.1500 
 48 H        8.7710     4.2920     1.1850 H     1 <1>   0.1500 
 49 H        6.3180     7.3170    -1.7970 H     1 <1>   0.1500 
 50 H        9.0340     6.6850     1.4230 H     1 <1>   0.1500 
 51 H        8.5040    10.2280     0.6870 H     1 <1>   0.0800 
 52 H        9.6160     8.8640     0.6630 H     1 <1>   0.0800 
 53 H        8.2710     8.9010     1.8190 H     1 <1>   0.0800 
@<TRIPOS>BOND
  1   1   2  1   
  2   1   3  1   
  3   2   4  1   
  4   2  25  1   
  5   2  26  1   
  6   3   5  1   
  7   3  27  1   
  8   3  28  1   
  9   4   6  1   
 10   4   7  1   
 11   4  29  1   
 12   5   6  1   
 13   5   8  1   
 14   5  30  1   
 15   6   9  1   
 16   7  10  1   
 17   7  11  1   
 18   7  31  1   
 19   8  12  1   
 20   8  32  1   
 21   8  33  1   
 22   9  13  1   
 23   9  34  1   
 24   9  35  1   
 25  10  11  1   
 26  10  36  1   
 27  10  37  1   
 28  11  38  1   
 29  11  39  1   
 30  12  13  1   
 31  12  14  1   
 32  12  40  1   
 33  13  41  1   
 34  13  42  1   
 35  14  15  1   
 36  14  43  1   
 37  14  44  1   
 38  15  16  2   
 39  15  45  1   
 40  16  17  1   
 41  16  46  1   
 42  17  18  ar  
 43  17  19  ar  
 44  18  20  ar  
 45  18  47  1   
 46  19  21  ar  
 47  19  48  1   
 48  20  22  ar  
 49  20  49  1   
 50  21  22  ar  
 51  21  50  1   
 52  22  23  1   
 53  23  24  1   
 54  24  51  1   
 55  24  52  1   
 56  24  53  1   
@<TRIPOS>SUBSTRUCTURE
  1 ****  12 GROUP 4 **** **** 0

# MOE 2024.06 (io_trps.svl 2023.06)
