@<TRIPOS>MOLECULE
NONAME
40 42 1 0 0 
SMALL
USER_CHARGES


@<TRIPOS>ATOM
  1 S        3.1620    -0.7230    -1.9750 S.3   1 <1>  -0.0800 
  2 C        1.8710    -0.6380    -0.7850 C.2   1 <1>   0.3250 
  3 C        2.6530    -2.3150    -2.4180 C.2   1 <1>  -0.1100 
  4 N        1.1610    -1.7090    -0.7640 N.2   1 <1>  -0.5650 
  5 C        1.7250     0.5500     0.0310 C.ar  1 <1>   0.0530 
  6 C        1.5790    -2.6790    -1.6860 C.2   1 <1>   0.1410 
  7 C        0.9200     0.5150     1.1720 C.ar  1 <1>  -0.1500 
  8 C        2.3550     1.7630    -0.2640 C.ar  1 <1>  -0.1500 
  9 C        0.9090    -3.9740    -1.7970 C.2   1 <1>   0.7160 
 10 C        0.7510     1.6260     1.9780 C.ar  1 <1>  -0.1500 
 11 C        2.1900     2.8780     0.5390 C.ar  1 <1>  -0.1500 
 12 O        1.5530    -4.9420    -2.1600 O.2   1 <1>  -0.5700 
 13 N       -0.4280    -4.1630    -1.5000 N.am  1 <1>  -0.6600 
 14 C        1.3870     2.8120     1.6630 C.ar  1 <1>  -0.1500 
 15 C       -0.9350    -5.5070    -1.0850 C.3   1 <1>   0.1400 
 16 C       -1.4560    -3.0920    -1.5850 C.3   1 <1>   0.1400 
 17 C       -2.1520    -5.4000    -0.1380 C.3   1 <1>  -0.0800 
 18 C       -2.0950    -2.8510    -0.2090 C.3   1 <1>  -0.1600 
 19 C       -2.1230    -4.0990     0.6880 C.3   1 <1>   0.2000 
 20 C       -2.2470    -6.6270     0.7790 C.3   1 <1>   0.1200 
 21 O       -0.9790    -4.0850     1.4600 O.3   1 <1>  -0.6800 
 22 O       -2.3940    -7.7700     0.0070 O.3   1 <1>  -0.6800 
 23 H        3.2010    -2.8400    -3.1790 H     1 <1>   0.1500 
 24 H        0.4200    -0.4020     1.4320 H     1 <1>   0.1500 
 25 H        2.9810     1.8500    -1.1320 H     1 <1>   0.1500 
 26 H        0.1250     1.5670     2.8520 H     1 <1>   0.1500 
 27 H        2.6860     3.8000     0.2900 H     1 <1>   0.1500 
 28 H        1.2580     3.6790     2.2890 H     1 <1>   0.1500 
 29 H       -1.1960    -6.0790    -1.9580 H     1 <1>   0.0800 
 30 H       -0.1400    -6.0310    -0.5810 H     1 <1>   0.0800 
 31 H       -1.0420    -2.1780    -1.9720 H     1 <1>   0.0800 
 32 H       -2.2160    -3.4170    -2.2760 H     1 <1>   0.0800 
 33 H       -3.0440    -5.3730    -0.7370 H     1 <1>   0.0800 
 34 H       -3.1050    -2.5220    -0.3750 H     1 <1>   0.0800 
 35 H       -1.5880    -2.0450     0.2940 H     1 <1>   0.0800 
 36 H       -2.9610    -4.0540     1.3630 H     1 <1>   0.0800 
 37 H       -3.0900    -6.5560     1.4450 H     1 <1>   0.0800 
 38 H       -1.3480    -6.7350     1.3640 H     1 <1>   0.0800 
 39 H       -0.2120    -3.9520     0.8640 H     1 <1>   0.4000 
 40 H       -3.2770    -7.8000    -0.4100 H     1 <1>   0.4000 
@<TRIPOS>BOND
  1   1   2  1   
  2   1   3  1   
  3   2   4  2   
  4   2   5  1   
  5   3   6  2   
  6   3  23  1   
  7   4   6  1   
  8   5   7  ar  
  9   5   8  ar  
 10   6   9  1   
 11   7  10  ar  
 12   7  24  1   
 13   8  11  ar  
 14   8  25  1   
 15   9  12  2   
 16   9  13  am  
 17  10  14  ar  
 18  10  26  1   
 19  11  14  ar  
 20  11  27  1   
 21  13  15  1   
 22  13  16  1   
 23  14  28  1   
 24  15  17  1   
 25  15  29  1   
 26  15  30  1   
 27  16  18  1   
 28  16  31  1   
 29  16  32  1   
 30  17  19  1   
 31  17  20  1   
 32  17  33  1   
 33  18  19  1   
 34  18  34  1   
 35  18  35  1   
 36  19  21  1   
 37  19  36  1   
 38  20  22  1   
 39  20  37  1   
 40  20  38  1   
 41  21  39  1   
 42  22  40  1   
@<TRIPOS>SUBSTRUCTURE
  1 ****   4 GROUP 4 **** **** 0

# MOE 2024.06 (io_trps.svl 2023.06)
