@<TRIPOS>MOLECULE
NONAME
43 45 1 0 0 
SMALL
USER_CHARGES


@<TRIPOS>ATOM
  1 O       -0.8490    -0.6570    -0.9910 O.2   1 <1>  -0.5700 
  2 C       -1.8050    -0.3780    -0.2900 C.2   1 <1>   0.7150 
  3 N       -2.0020     0.9360     0.0480 N.am  1 <1>  -0.7300 
  4 C       -2.7270    -1.3860     0.1890 C.2   1 <1>   0.0550 
  5 C       -1.1480     2.0810    -0.3640 C.3   1 <1>   0.0600 
  6 O       -2.5470    -2.6740    -0.0920 O.3   1 <1>  -0.2800 
  7 C       -3.8560    -1.2740     0.9470 C.2   1 <1>  -0.1500 
  8 C       -3.5130    -3.3790     0.4520 C.2   1 <1>  -0.0400 
  9 C       -4.3600    -2.5630     1.1160 C.2   1 <1>  -0.1500 
 10 C       -3.5050    -4.8880     0.2600 C.3   1 <1>   0.2900 
 11 N       -4.8030    -5.4940     0.6140 N.3   1 <1>  -0.8100 
 12 C       -5.8610    -5.1750    -0.3500 C.3   1 <1>   0.1100 
 13 C       -4.7430    -6.9610     0.6410 C.3   1 <1>   0.1100 
 14 C       -6.9480    -6.1940    -0.0360 C.3   1 <1>   0.2000 
 15 C       -6.1600    -7.4630     0.2990 C.3   1 <1>  -0.0800 
 16 O       -7.5810    -5.7770     1.1180 O.3   1 <1>  -0.6800 
 17 C       -6.1650    -8.4510    -0.8820 C.3   1 <1>  -0.0160 
 18 C       -5.4070    -9.7290    -0.5580 C.ar  1 <1>   0.1670 
 19 N       -4.1430    -9.7870    -0.9460 N.ar  1 <1>  -0.6200 
 20 C       -6.0530   -10.7650     0.1160 C.ar  1 <1>   0.1600 
 21 C       -3.5750   -10.9370    -0.6210 C.ar  1 <1>   0.1600 
 22 N       -5.4860   -11.9140     0.4450 N.ar  1 <1>  -0.6200 
 23 C       -4.2250   -11.9650     0.0520 C.ar  1 <1>   0.1600 
 24 H       -2.7980     1.1610     0.6430 H     1 <1>   0.3700 
 25 H       -0.3370     1.7430    -0.9890 H     1 <1>   0.0800 
 26 H       -0.7350     2.5590     0.5070 H     1 <1>   0.0800 
 27 H       -1.7350     2.7930    -0.9170 H     1 <1>   0.0800 
 28 H       -4.3030    -0.3860     1.3540 H     1 <1>   0.1500 
 29 H       -5.2420    -2.8370     1.6680 H     1 <1>   0.1500 
 30 H       -2.7330    -5.3010     0.8850 H     1 <1>   0.0800 
 31 H       -3.2630    -5.1140    -0.7650 H     1 <1>   0.0800 
 32 H       -6.2160    -4.1640    -0.2440 H     1 <1>   0.0800 
 33 H       -5.5050    -5.3250    -1.3560 H     1 <1>   0.0800 
 34 H       -4.0340    -7.3110    -0.0910 H     1 <1>   0.0800 
 35 H       -4.4340    -7.3020     1.6140 H     1 <1>   0.0800 
 36 H       -7.6820    -6.3070    -0.8150 H     1 <1>   0.0800 
 37 H       -6.5890    -7.9550     1.1550 H     1 <1>   0.0800 
 38 H       -6.8680    -5.5000     1.7330 H     1 <1>   0.4000 
 39 H       -5.7290    -7.9910    -1.7520 H     1 <1>   0.0800 
 40 H       -7.1820    -8.7040    -1.1270 H     1 <1>   0.0800 
 41 H       -7.0830   -10.6360     0.3980 H     1 <1>   0.1500 
 42 H       -2.5460   -11.0730    -0.9000 H     1 <1>   0.1500 
 43 H       -3.6780   -12.8640     0.2730 H     1 <1>   0.1500 
@<TRIPOS>BOND
  1   1   2  2   
  2   2   3  am  
  3   2   4  1   
  4   3   5  1   
  5   3  24  1   
  6   4   6  1   
  7   4   7  2   
  8   5  25  1   
  9   5  26  1   
 10   5  27  1   
 11   6   8  1   
 12   7   9  1   
 13   7  28  1   
 14   8   9  2   
 15   8  10  1   
 16   9  29  1   
 17  10  11  1   
 18  10  30  1   
 19  10  31  1   
 20  11  12  1   
 21  11  13  1   
 22  12  14  1   
 23  12  32  1   
 24  12  33  1   
 25  13  15  1   
 26  13  34  1   
 27  13  35  1   
 28  14  15  1   
 29  14  16  1   
 30  14  36  1   
 31  15  17  1   
 32  15  37  1   
 33  16  38  1   
 34  17  18  1   
 35  17  39  1   
 36  17  40  1   
 37  18  19  ar  
 38  18  20  ar  
 39  19  21  ar  
 40  20  22  ar  
 41  20  41  1   
 42  21  23  ar  
 43  21  42  1   
 44  22  23  ar  
 45  23  43  1   
@<TRIPOS>SUBSTRUCTURE
  1 ****  11 GROUP 4 **** **** 0

# MOE 2024.06 (io_trps.svl 2023.06)
