@<TRIPOS>MOLECULE
NONAME
27 28 1 0 0 
SMALL
USER_CHARGES


@<TRIPOS>ATOM
  1 F        0.1050    -0.1230     0.2000 F     1 <1>  -0.2980 
  2 C        1.0430    -1.0600     0.2430 C.3   1 <1>   0.5960 
  3 F        1.9900    -0.1340     0.1590 F     1 <1>  -0.2980 
  4 C        2.0690    -2.2540     0.3130 C.3   1 <1>   0.0000 
  5 C        0.0080    -2.2410     0.3570 C.3   1 <1>   0.0000 
  6 C        1.0180    -3.1560    -0.3430 C.3   1 <1>   0.2100 
  7 N        1.0210    -4.5420     0.1530 N.3   1 <1>  -0.7500 
  8 C       -0.2130    -5.2520    -0.2450 C.3   1 <1>   0.1100 
  9 C        2.2280    -5.2660    -0.2970 C.3   1 <1>   0.1100 
 10 C       -0.2300    -6.6930     0.3030 C.3   1 <1>   0.3430 
 11 C        2.2520    -6.7080     0.2510 C.3   1 <1>   0.3430 
 12 N        0.9980    -7.4530    -0.1030 N.4   1 <1>  -0.9060 
 13 H        2.3110    -2.5450     1.3230 H     1 <1>   0.0000 
 14 H        2.9370    -2.1560    -0.3190 H     1 <1>   0.0000 
 15 H       -0.8850    -2.1340    -0.2370 H     1 <1>   0.0000 
 16 H       -0.1950    -2.5300     1.3770 H     1 <1>   0.0000 
 17 H        0.9960    -3.0790    -1.4170 H     1 <1>   0.0000 
 18 H       -0.3010    -5.2670    -1.3180 H     1 <1>   0.0800 
 19 H       -1.0690    -4.7300     0.1480 H     1 <1>   0.0800 
 20 H        3.1070    -4.7540     0.0590 H     1 <1>   0.0800 
 21 H        2.2710    -5.2820    -1.3730 H     1 <1>   0.0800 
 22 H       -1.1130    -7.2000    -0.0510 H     1 <1>   0.0800 
 23 H       -0.2860    -6.6440     1.3790 H     1 <1>   0.0800 
 24 H        2.3550    -6.6590     1.3230 H     1 <1>   0.0800 
 25 H        3.1130    -7.2250    -0.1410 H     1 <1>   0.0800 
 26 H        0.9760    -7.6060    -1.1180 H     1 <1>   0.4500 
 27 H        1.0030    -8.3770     0.3470 H     1 <1>   0.4500 
@<TRIPOS>BOND
  1   1   2  1   
  2   2   3  1   
  3   2   4  1   
  4   2   5  1   
  5   4   6  1   
  6   4  13  1   
  7   4  14  1   
  8   5   6  1   
  9   5  15  1   
 10   5  16  1   
 11   6   7  1   
 12   6  17  1   
 13   7   8  1   
 14   7   9  1   
 15   8  10  1   
 16   8  18  1   
 17   8  19  1   
 18   9  11  1   
 19   9  20  1   
 20   9  21  1   
 21  10  12  1   
 22  10  22  1   
 23  10  23  1   
 24  11  12  1   
 25  11  24  1   
 26  11  25  1   
 27  12  26  1   
 28  12  27  1   
@<TRIPOS>SUBSTRUCTURE
  1 ****   6 GROUP 4 **** **** 0

# MOE 2024.06 (io_trps.svl 2023.06)
