@<TRIPOS>MOLECULE
NONAME
49 51 1 0 0 
SMALL
USER_CHARGES


@<TRIPOS>ATOM
  1 O        4.1000     0.0030     1.1170 O.2   1 <1>  -0.5700 
  2 C        3.1810    -0.4830     0.4790 C.2   1 <1>   0.5440 
  3 N        2.8810     0.1510    -0.7080 N.am  1 <1>  -0.6600 
  4 C        2.5140    -1.7050     0.9260 C.ar  1 <1>   0.3960 
  5 C        3.3600    -0.4340    -1.9980 C.3   1 <1>   0.1400 
  6 C        2.5470     1.6040    -0.7440 C.3   1 <1>   0.1400 
  7 N        1.9500    -2.5340     0.0320 N.ar  1 <1>  -0.6200 
  8 C        2.4900    -1.9920     2.2950 C.ar  1 <1>   0.1600 
  9 C        4.8990    -0.3520    -2.1070 C.3   1 <1>   0.3430 
 10 C        3.7940     2.5070    -0.7410 C.3   1 <1>  -0.1600 
 11 C        1.3860    -3.5910     0.5890 C.ar  1 <1>   0.1600 
 12 N        1.9310    -3.0540     2.8480 N.ar  1 <1>  -0.6200 
 13 N        5.4460     0.7910    -1.3110 N.4   1 <1>  -0.9590 
 14 C        4.8990     2.1110    -1.7220 C.3   1 <1>   0.3430 
 15 C        1.3740    -3.8500     1.9560 C.ar  1 <1>   0.1670 
 16 C        6.9250     0.7650    -1.1490 C.3   1 <1>   0.5230 
 17 C        0.7020    -5.0930     2.5050 C.3   1 <1>  -0.0970 
 18 C        7.3410     1.7530    -0.0770 C.2   1 <1>  -0.0400 
 19 O        7.5170     3.0190    -0.4050 O.3   1 <1>  -0.2800 
 20 C        7.5790     1.5700     1.2400 C.2   1 <1>  -0.1500 
 21 C        7.8710     3.6740     0.6830 C.2   1 <1>  -0.0400 
 22 C        7.9250     2.8320     1.7370 C.2   1 <1>  -0.1500 
 23 C        8.1410     5.1650     0.5650 C.3   1 <1>   0.0200 
 24 C        8.5350     5.8000     1.9020 C.3   1 <1>  -0.2400 
 25 H        2.9110     0.0950    -2.8210 H     1 <1>   0.0800 
 26 H        3.0490    -1.4620    -2.0770 H     1 <1>   0.0800 
 27 H        1.9390     1.8440     0.1130 H     1 <1>   0.0800 
 28 H        1.9540     1.8040    -1.6210 H     1 <1>   0.0800 
 29 H        2.9650    -1.2950     2.9650 H     1 <1>   0.1500 
 30 H        5.1860    -0.2680    -3.1420 H     1 <1>   0.0800 
 31 H        5.3070    -1.2740    -1.7260 H     1 <1>   0.0800 
 32 H        4.2040     2.5500     0.2540 H     1 <1>   0.0800 
 33 H        3.4770     3.5060    -0.9780 H     1 <1>   0.0800 
 34 H        0.9070    -4.2940    -0.0710 H     1 <1>   0.1500 
 35 H        5.0600     0.6530    -0.3510 H     1 <1>   0.4500 
 36 H        5.6720     2.8610    -1.6980 H     1 <1>   0.0800 
 37 H        4.5100     2.0640    -2.7260 H     1 <1>   0.0800 
 38 H        7.4160     1.0080    -2.0760 H     1 <1>   0.0800 
 39 H        7.2340    -0.2210    -0.8430 H     1 <1>   0.0800 
 40 H        0.2740    -5.6870     1.7190 H     1 <1>   0.0800 
 41 H       -0.0760    -4.8080     3.1900 H     1 <1>   0.0800 
 42 H        1.4250    -5.6870     3.0350 H     1 <1>   0.0800 
 43 H        7.5230     0.6720     1.8310 H     1 <1>   0.1500 
 44 H        8.1790     3.0460     2.7610 H     1 <1>   0.1500 
 45 H        7.2570     5.6500     0.1880 H     1 <1>   0.0800 
 46 H        8.9320     5.3180    -0.1480 H     1 <1>   0.0800 
 47 H        7.7460     5.6750     2.6230 H     1 <1>   0.0800 
 48 H        8.7160     6.8520     1.7710 H     1 <1>   0.0800 
 49 H        9.4320     5.3430     2.2820 H     1 <1>   0.0800 
@<TRIPOS>BOND
  1   1   2  2   
  2   2   3  am  
  3   2   4  1   
  4   3   5  1   
  5   3   6  1   
  6   4   7  ar  
  7   4   8  ar  
  8   5   9  1   
  9   5  25  1   
 10   5  26  1   
 11   6  10  1   
 12   6  27  1   
 13   6  28  1   
 14   7  11  ar  
 15   8  12  ar  
 16   8  29  1   
 17   9  13  1   
 18   9  30  1   
 19   9  31  1   
 20  10  14  1   
 21  10  32  1   
 22  10  33  1   
 23  11  15  ar  
 24  11  34  1   
 25  12  15  ar  
 26  13  14  1   
 27  13  16  1   
 28  13  35  1   
 29  14  36  1   
 30  14  37  1   
 31  15  17  1   
 32  16  18  1   
 33  16  38  1   
 34  16  39  1   
 35  17  40  1   
 36  17  41  1   
 37  17  42  1   
 38  18  19  1   
 39  18  20  2   
 40  19  21  1   
 41  20  22  1   
 42  20  43  1   
 43  21  22  2   
 44  21  23  1   
 45  22  44  1   
 46  23  24  1   
 47  23  45  1   
 48  23  46  1   
 49  24  47  1   
 50  24  48  1   
 51  24  49  1   
@<TRIPOS>SUBSTRUCTURE
  1 ****   1 GROUP 4 **** **** 0

# MOE 2024.06 (io_trps.svl 2023.06)
