@<TRIPOS>MOLECULE
NONAME
47 49 1 0 0 
SMALL
USER_CHARGES


@<TRIPOS>ATOM
  1 S       -2.5230    -1.1870     3.0650 S.3   1 <1>  -0.0800 
  2 C       -2.5640    -1.7390     1.4010 C.2   1 <1>  -0.1100 
  3 C       -3.0530     0.4150     2.5880 C.2   1 <1>  -0.1100 
  4 C       -2.9690    -0.7540     0.5760 C.2   1 <1>  -0.1810 
  5 C       -3.2400     0.4780     1.2570 C.2   1 <1>  -0.1500 
  6 C       -3.1430    -0.8710    -0.9350 C.3   1 <1>   0.0820 
  7 C       -3.5040    -2.2810    -1.3920 C.2   1 <1>   0.5690 
  8 O       -2.6890    -2.8580    -2.0720 O.2   1 <1>  -0.5700 
  9 N       -4.7060    -2.8670    -1.0540 N.am  1 <1>  -0.6600 
 10 C       -5.0400    -4.2660    -1.4870 C.3   1 <1>   0.1400 
 11 C       -5.8070    -2.1690    -0.3300 C.3   1 <1>   0.1400 
 12 C       -5.4720    -5.1610    -0.2970 C.3   1 <1>   0.0000 
 13 C       -6.2270    -2.9900     0.8860 C.3   1 <1>  -0.1600 
 14 C       -6.6060    -4.4050     0.4480 C.3   1 <1>   0.2000 
 15 C       -6.0910    -6.4740    -0.8390 C.3   1 <1>   0.1200 
 16 C       -4.2630    -5.4470     0.6500 C.3   1 <1>  -0.0160 
 17 O       -7.0320    -5.1000     1.5670 O.3   1 <1>  -0.6800 
 18 O       -5.2930    -7.0580    -1.8130 O.3   1 <1>  -0.6800 
 19 C       -3.2330    -6.4430     0.1240 C.ar  1 <1>  -0.1440 
 20 C       -3.3300    -7.7860     0.4580 C.ar  1 <1>  -0.1500 
 21 C       -2.1920    -6.0240    -0.6890 C.ar  1 <1>  -0.1500 
 22 C       -2.4100    -8.6990    -0.0280 C.ar  1 <1>  -0.1500 
 23 C       -1.2720    -6.9350    -1.1770 C.ar  1 <1>  -0.1500 
 24 C       -1.3810    -8.2740    -0.8490 C.ar  1 <1>  -0.1500 
 25 H       -2.2740    -2.7580     1.2130 H     1 <1>   0.1500 
 26 H       -3.1660     1.1500     3.3660 H     1 <1>   0.1500 
 27 H       -3.5590     1.3560     0.7220 H     1 <1>   0.1500 
 28 H       -2.2260    -0.5740    -1.4100 H     1 <1>   0.0800 
 29 H       -3.9100    -0.2010    -1.2730 H     1 <1>   0.0800 
 30 H       -5.8430    -4.2150    -2.2020 H     1 <1>   0.0800 
 31 H       -4.2030    -4.7140    -1.9940 H     1 <1>   0.0800 
 32 H       -5.5120    -1.1880    -0.0040 H     1 <1>   0.0800 
 33 H       -6.6430    -2.0560    -0.9980 H     1 <1>   0.0800 
 34 H       -7.0770    -2.5170     1.3440 H     1 <1>   0.0800 
 35 H       -5.4200    -3.0020     1.5970 H     1 <1>   0.0800 
 36 H       -7.4590    -4.3350    -0.2070 H     1 <1>   0.0800 
 37 H       -7.0480    -6.2830    -1.2950 H     1 <1>   0.0800 
 38 H       -6.2330    -7.1870    -0.0450 H     1 <1>   0.0800 
 39 H       -3.7570    -4.5280     0.8780 H     1 <1>   0.0800 
 40 H       -4.6200    -5.8350     1.5860 H     1 <1>   0.0800 
 41 H       -6.3840    -5.0060     2.2920 H     1 <1>   0.4000 
 42 H       -4.3880    -7.2120    -1.4520 H     1 <1>   0.4000 
 43 H       -4.1240    -8.1320     1.0970 H     1 <1>   0.1500 
 44 H       -2.0880    -4.9870    -0.9510 H     1 <1>   0.1500 
 45 H       -2.4950    -9.7400     0.2320 H     1 <1>   0.1500 
 46 H       -0.4720    -6.5970    -1.8130 H     1 <1>   0.1500 
 47 H       -0.6660    -8.9820    -1.2300 H     1 <1>   0.1500 
@<TRIPOS>BOND
  1   1   2  1   
  2   1   3  1   
  3   2   4  2   
  4   2  25  1   
  5   3   5  2   
  6   3  26  1   
  7   4   5  1   
  8   4   6  1   
  9   5  27  1   
 10   6   7  1   
 11   6  28  1   
 12   6  29  1   
 13   7   8  2   
 14   7   9  am  
 15   9  10  1   
 16   9  11  1   
 17  10  12  1   
 18  10  30  1   
 19  10  31  1   
 20  11  13  1   
 21  11  32  1   
 22  11  33  1   
 23  12  14  1   
 24  12  15  1   
 25  12  16  1   
 26  13  14  1   
 27  13  34  1   
 28  13  35  1   
 29  14  17  1   
 30  14  36  1   
 31  15  18  1   
 32  15  37  1   
 33  15  38  1   
 34  16  19  1   
 35  16  39  1   
 36  16  40  1   
 37  17  41  1   
 38  18  42  1   
 39  19  20  ar  
 40  19  21  ar  
 41  20  22  ar  
 42  20  43  1   
 43  21  23  ar  
 44  21  44  1   
 45  22  24  ar  
 46  22  45  1   
 47  23  24  ar  
 48  23  46  1   
 49  24  47  1   
@<TRIPOS>SUBSTRUCTURE
  1 ****  16 GROUP 4 **** **** 0

# MOE 2024.06 (io_trps.svl 2023.06)
