@<TRIPOS>MOLECULE
NONAME
47 49 1 0 0 
SMALL
USER_CHARGES


@<TRIPOS>ATOM
  1 O        1.8870     0.4590     0.5230 O.2   1 <1>  -0.5700 
  2 C        2.1960    -0.6650     0.1680 C.2   1 <1>   0.7160 
  3 N        3.1580    -0.7420    -0.8060 N.am  1 <1>  -0.6600 
  4 C        1.6740    -1.8480     0.8090 C.2   1 <1>  -0.0860 
  5 C        4.5890    -0.9030    -0.4060 C.3   1 <1>   0.1400 
  6 C        2.9250    -0.1760    -2.1630 C.3   1 <1>   0.1400 
  7 C        1.7010    -3.1580     0.4660 C.2   1 <1>  -0.0400 
  8 C        0.9880    -1.9100     2.0170 C.2   1 <1>   0.1080 
  9 C        5.1610     0.3740     0.2510 C.3   1 <1>   0.3430 
 10 C        3.1220     1.3470    -2.2130 C.3   1 <1>  -0.1600 
 11 O        1.1290    -3.9190     1.3670 O.3   1 <1>  -0.0190 
 12 C        2.2550    -3.8720    -0.7550 C.3   1 <1>  -0.0600 
 13 N        0.6980    -3.1200     2.3090 N.2   1 <1>  -0.4100 
 14 C        0.6030    -0.7490     2.9140 C.3   1 <1>  -0.0590 
 15 N        4.4010     1.6130    -0.1240 N.4   1 <1>  -0.9590 
 16 C        4.4180     1.8720    -1.5870 C.3   1 <1>   0.3430 
 17 C        4.8460     2.7970     0.6710 C.3   1 <1>   0.5230 
 18 C        6.2220     3.2730     0.2300 C.2   1 <1>  -0.0400 
 19 O        7.2630     2.4750     0.3800 O.3   1 <1>  -0.2800 
 20 C        6.6040     4.4440    -0.3260 C.2   1 <1>  -0.1500 
 21 C        8.3250     3.1110    -0.0700 C.2   1 <1>  -0.0400 
 22 C        7.9850     4.3350    -0.5240 C.2   1 <1>  -0.1500 
 23 C        9.6730     2.4250    -0.0100 C.3   1 <1>  -0.0600 
 24 H        5.1780    -1.1500    -1.2720 H     1 <1>   0.0800 
 25 H        4.6810    -1.7260     0.2830 H     1 <1>   0.0800 
 26 H        1.9190    -0.4100    -2.4700 H     1 <1>   0.0800 
 27 H        3.5920    -0.6530    -2.8620 H     1 <1>   0.0800 
 28 H        6.2000     0.4740    -0.0170 H     1 <1>   0.0800 
 29 H        5.1180     0.2480     1.3210 H     1 <1>   0.0800 
 30 H        2.2800     1.8330    -1.7520 H     1 <1>   0.0800 
 31 H        3.1100     1.6430    -3.2470 H     1 <1>   0.0800 
 32 H        2.5970    -3.1840    -1.5020 H     1 <1>   0.0800 
 33 H        1.4850    -4.4850    -1.1880 H     1 <1>   0.0800 
 34 H        3.0710    -4.5080    -0.4630 H     1 <1>   0.0800 
 35 H        1.4790    -0.2080     3.2160 H     1 <1>   0.0800 
 36 H        0.1010    -1.1130     3.7920 H     1 <1>   0.0800 
 37 H       -0.0610    -0.0870     2.3890 H     1 <1>   0.0800 
 38 H        3.4100     1.4110     0.1230 H     1 <1>   0.4500 
 39 H        4.4820     2.9330    -1.7680 H     1 <1>   0.0800 
 40 H        5.2770     1.4050    -2.0410 H     1 <1>   0.0800 
 41 H        4.8760     2.5480     1.7190 H     1 <1>   0.0800 
 42 H        4.1420     3.6020     0.5400 H     1 <1>   0.0800 
 43 H        6.0180     5.3110    -0.5800 H     1 <1>   0.1500 
 44 H        8.6190     5.0950    -0.9490 H     1 <1>   0.1500 
 45 H        9.6510     1.5180    -0.5860 H     1 <1>   0.0800 
 46 H        9.9150     2.1870     1.0100 H     1 <1>   0.0800 
 47 H       10.4360     3.0700    -0.4050 H     1 <1>   0.0800 
@<TRIPOS>BOND
  1   1   2  2   
  2   2   3  am  
  3   2   4  1   
  4   3   5  1   
  5   3   6  1   
  6   4   7  2   
  7   4   8  1   
  8   5   9  1   
  9   5  24  1   
 10   5  25  1   
 11   6  10  1   
 12   6  26  1   
 13   6  27  1   
 14   7  11  1   
 15   7  12  1   
 16   8  13  2   
 17   8  14  1   
 18   9  15  1   
 19   9  28  1   
 20   9  29  1   
 21  10  16  1   
 22  10  30  1   
 23  10  31  1   
 24  11  13  1   
 25  12  32  1   
 26  12  33  1   
 27  12  34  1   
 28  14  35  1   
 29  14  36  1   
 30  14  37  1   
 31  15  16  1   
 32  15  17  1   
 33  15  38  1   
 34  16  39  1   
 35  16  40  1   
 36  17  18  1   
 37  17  41  1   
 38  17  42  1   
 39  18  19  1   
 40  18  20  2   
 41  19  21  1   
 42  20  22  1   
 43  20  43  1   
 44  21  22  2   
 45  21  23  1   
 46  22  44  1   
 47  23  45  1   
 48  23  46  1   
 49  23  47  1   
@<TRIPOS>SUBSTRUCTURE
  1 ****   9 GROUP 4 **** **** 0

# MOE 2024.06 (io_trps.svl 2023.06)
