@<TRIPOS>MOLECULE
NONAME
45 47 1 0 0 
SMALL
USER_CHARGES


@<TRIPOS>ATOM
  1 O       -2.2700     0.8980    -1.6880 O.2   1 <1>  -0.5700 
  2 C       -2.0040     0.9510    -0.5030 C.2   1 <1>   0.5440 
  3 N       -1.9810    -0.2120     0.2090 N.am  1 <1>  -0.7300 
  4 C       -1.7350     2.2120     0.1670 C.ar  1 <1>   0.0860 
  5 C       -2.2680    -1.5530    -0.3450 C.3   1 <1>   0.2200 
  6 C       -0.7260     3.1020    -0.2350 C.ar  1 <1>  -0.1440 
  7 C       -2.5160     2.5540     1.2700 C.ar  1 <1>  -0.1500 
  8 C       -3.7140    -1.9120    -0.0520 C.3   1 <1>  -0.0800 
  9 C       -1.5140    -2.6150     0.4480 C.3   1 <1>   0.1200 
 10 C       -0.5330     4.3000     0.4510 C.ar  1 <1>  -0.1430 
 11 C        0.1490     2.7350    -1.4370 C.3   1 <1>  -0.0970 
 12 C       -2.3170     3.7320     1.9570 C.ar  1 <1>  -0.1500 
 13 C       -3.6220    -2.4680     1.3720 C.3   1 <1>   0.1200 
 14 C       -4.2520    -2.9500    -1.0540 C.3   1 <1>  -0.0170 
 15 O       -2.3120    -2.9210     1.5540 O.3   1 <1>  -0.5600 
 16 C       -1.3280     4.6020     1.5450 C.ar  1 <1>  -0.1500 
 17 C        0.5270     5.3150     0.0420 C.3   1 <1>  -0.0970 
 18 C       -5.7130    -3.2770    -0.7830 C.ar  1 <1>  -0.1430 
 19 C       -6.1040    -4.4640    -0.1970 C.ar  1 <1>  -0.1500 
 20 C       -6.7240    -2.3980    -1.1130 C.ar  1 <1>  -0.1500 
 21 C       -7.4500    -4.7050     0.0280 C.ar  1 <1>   0.1600 
 22 C       -8.0400    -2.7360    -0.8450 C.ar  1 <1>   0.1600 
 23 N       -8.4270    -3.8680    -0.2800 N.ar  1 <1>  -0.6200 
 24 H       -1.7700    -0.1930     1.2090 H     1 <1>   0.3700 
 25 H       -2.0270    -1.5810    -1.3950 H     1 <1>   0.0800 
 26 H       -3.2970     1.8850     1.5880 H     1 <1>   0.1500 
 27 H       -4.3440    -1.0400    -0.0880 H     1 <1>   0.0800 
 28 H       -0.5480    -2.2770     0.7800 H     1 <1>   0.0800 
 29 H       -1.4050    -3.5140    -0.1320 H     1 <1>   0.0800 
 30 H        1.0910     3.2480    -1.4300 H     1 <1>   0.0800 
 31 H       -0.3710     2.9790    -2.3460 H     1 <1>   0.0800 
 32 H        0.3660     1.6820    -1.4430 H     1 <1>   0.0800 
 33 H       -2.9300     3.9780     2.8060 H     1 <1>   0.1500 
 34 H       -4.3040    -3.2790     1.5560 H     1 <1>   0.0800 
 35 H       -3.7960    -1.6880     2.0930 H     1 <1>   0.0800 
 36 H       -3.6660    -3.8510    -1.0110 H     1 <1>   0.0800 
 37 H       -4.1700    -2.5560    -2.0520 H     1 <1>   0.0800 
 38 H       -1.1840     5.5220     2.0850 H     1 <1>   0.1500 
 39 H        0.4200     6.2320     0.5930 H     1 <1>   0.0800 
 40 H        0.4350     5.5450    -1.0040 H     1 <1>   0.0800 
 41 H        1.5080     4.9190     0.2330 H     1 <1>   0.0800 
 42 H       -5.3780    -5.2040     0.0880 H     1 <1>   0.1500 
 43 H       -6.5000    -1.4540    -1.5760 H     1 <1>   0.1500 
 44 H       -7.7370    -5.6360     0.4870 H     1 <1>   0.1500 
 45 H       -8.8150    -2.0370    -1.1090 H     1 <1>   0.1500 
@<TRIPOS>BOND
  1   1   2  2   
  2   2   3  am  
  3   2   4  1   
  4   3   5  1   
  5   3  24  1   
  6   4   6  ar  
  7   4   7  ar  
  8   5   8  1   
  9   5   9  1   
 10   5  25  1   
 11   6  10  ar  
 12   6  11  1   
 13   7  12  ar  
 14   7  26  1   
 15   8  13  1   
 16   8  14  1   
 17   8  27  1   
 18   9  15  1   
 19   9  28  1   
 20   9  29  1   
 21  10  16  ar  
 22  10  17  1   
 23  11  30  1   
 24  11  31  1   
 25  11  32  1   
 26  12  16  ar  
 27  12  33  1   
 28  13  15  1   
 29  13  34  1   
 30  13  35  1   
 31  14  18  1   
 32  14  36  1   
 33  14  37  1   
 34  16  38  1   
 35  17  39  1   
 36  17  40  1   
 37  17  41  1   
 38  18  19  ar  
 39  18  20  ar  
 40  19  21  ar  
 41  19  42  1   
 42  20  22  ar  
 43  20  43  1   
 44  21  23  ar  
 45  21  44  1   
 46  22  23  ar  
 47  22  45  1   
@<TRIPOS>SUBSTRUCTURE
  1 ****   3 GROUP 4 **** **** 0

# MOE 2024.06 (io_trps.svl 2023.06)
