@<TRIPOS>MOLECULE
NONAME
48 50 1 0 0 
SMALL
USER_CHARGES


@<TRIPOS>ATOM
  1 O       -1.5620     0.3610    -1.5050 O.2   1 <1>  -0.5700 
  2 C       -1.8600     0.8950    -0.4550 C.2   1 <1>   0.5440 
  3 N       -2.4320     0.1200     0.5140 N.am  1 <1>  -0.7300 
  4 C       -1.6230     2.3040    -0.2620 C.ar  1 <1>   0.0860 
  5 C       -2.6410    -1.3440     0.4160 C.3   1 <1>   0.2200 
  6 C       -1.6350     2.9200     0.9790 C.ar  1 <1>   0.1600 
  7 C       -1.3550     3.1520    -1.3230 C.ar  1 <1>   0.1600 
  8 C       -4.1000    -1.6220     0.0900 C.3   1 <1>  -0.0800 
  9 C       -2.5160    -1.9620     1.8020 C.3   1 <1>   0.1200 
 10 N       -1.4300     4.2020     1.1540 N.ar  1 <1>  -0.6200 
 11 N       -1.1440     4.4390    -1.1860 N.ar  1 <1>  -0.6200 
 12 C       -4.7620    -1.5950     1.4750 C.3   1 <1>   0.1200 
 13 C       -4.2680    -2.9830    -0.6130 C.3   1 <1>  -0.0170 
 14 O       -3.7420    -1.7310     2.4250 O.3   1 <1>  -0.5600 
 15 C       -1.1930     4.9070     0.0570 C.ar  1 <1>   0.7200 
 16 C       -5.7250    -3.2690    -0.9430 C.ar  1 <1>  -0.1430 
 17 N       -0.9870     6.2190     0.2690 N.pl3 1 <1>  -0.8690 
 18 C       -6.4760    -4.1790    -0.2250 C.ar  1 <1>  -0.1500 
 19 C       -6.3720    -2.6340    -1.9840 C.ar  1 <1>  -0.1500 
 20 C       -0.6590     7.2490    -0.7160 C.3   1 <1>   0.2890 
 21 C       -7.8000    -4.3980    -0.5690 C.ar  1 <1>   0.1600 
 22 C       -7.7010    -2.9260    -2.2460 C.ar  1 <1>   0.1600 
 23 C        0.7410     7.7640    -0.4090 C.3   1 <1>  -0.2400 
 24 C       -1.6970     8.3580    -0.5970 C.3   1 <1>  -0.2400 
 25 N       -8.4310    -3.7920    -1.5610 N.ar  1 <1>  -0.6200 
 26 H       -2.8440     0.5280     1.3570 H     1 <1>   0.3700 
 27 H       -1.9530    -1.7790    -0.2900 H     1 <1>   0.0800 
 28 H       -1.8170     2.3300     1.8590 H     1 <1>   0.1500 
 29 H       -1.3170     2.7410    -2.3190 H     1 <1>   0.1500 
 30 H       -4.5080    -0.8560    -0.5460 H     1 <1>   0.0800 
 31 H       -1.7240    -1.5240     2.3840 H     1 <1>   0.0800 
 32 H       -2.3750    -3.0270     1.7370 H     1 <1>   0.0800 
 33 H       -5.4740    -2.3880     1.6170 H     1 <1>   0.0800 
 34 H       -5.2440    -0.6490     1.6500 H     1 <1>   0.0800 
 35 H       -3.8780    -3.7730     0.0040 H     1 <1>   0.0800 
 36 H       -3.7040    -2.9810    -1.5300 H     1 <1>   0.0800 
 37 H       -1.0160     6.5070     1.2430 H     1 <1>   0.4000 
 38 H       -6.0470    -4.7200     0.5980 H     1 <1>   0.1500 
 39 H       -5.8560    -1.9160    -2.5950 H     1 <1>   0.1500 
 40 H       -0.6830     6.8400    -1.7140 H     1 <1>   0.0800 
 41 H       -8.3690    -5.1100     0.0030 H     1 <1>   0.1500 
 42 H       -8.1880    -2.4210    -3.0620 H     1 <1>   0.1500 
 43 H        0.7860     8.1800     0.5810 H     1 <1>   0.0800 
 44 H        1.0150     8.5250    -1.1170 H     1 <1>   0.0800 
 45 H        1.4480     6.9580    -0.4890 H     1 <1>   0.0800 
 46 H       -1.6890     8.7840     0.3890 H     1 <1>   0.0800 
 47 H       -2.6750     7.9610    -0.8060 H     1 <1>   0.0800 
 48 H       -1.4870     9.1330    -1.3110 H     1 <1>   0.0800 
@<TRIPOS>BOND
  1   1   2  2   
  2   2   3  am  
  3   2   4  1   
  4   3   5  1   
  5   3  26  1   
  6   4   6  ar  
  7   4   7  ar  
  8   5   8  1   
  9   5   9  1   
 10   5  27  1   
 11   6  10  ar  
 12   6  28  1   
 13   7  11  ar  
 14   7  29  1   
 15   8  12  1   
 16   8  13  1   
 17   8  30  1   
 18   9  14  1   
 19   9  31  1   
 20   9  32  1   
 21  10  15  ar  
 22  11  15  ar  
 23  12  14  1   
 24  12  33  1   
 25  12  34  1   
 26  13  16  1   
 27  13  35  1   
 28  13  36  1   
 29  15  17  1   
 30  16  18  ar  
 31  16  19  ar  
 32  17  20  1   
 33  17  37  1   
 34  18  21  ar  
 35  18  38  1   
 36  19  22  ar  
 37  19  39  1   
 38  20  23  1   
 39  20  24  1   
 40  20  40  1   
 41  21  25  ar  
 42  21  41  1   
 43  22  25  ar  
 44  22  42  1   
 45  23  43  1   
 46  23  44  1   
 47  23  45  1   
 48  24  46  1   
 49  24  47  1   
 50  24  48  1   
@<TRIPOS>SUBSTRUCTURE
  1 ****   3 GROUP 4 **** **** 0

# MOE 2024.06 (io_trps.svl 2023.06)
