@<TRIPOS>MOLECULE
NONAME
52 54 1 0 0 
SMALL
USER_CHARGES


@<TRIPOS>ATOM
  1 O       -0.6540     0.0990     1.4650 O.2   1 <1>  -0.5700 
  2 C       -1.4100     0.8650     0.8990 C.2   1 <1>   0.5440 
  3 N       -2.3300     0.3750    -0.0050 N.am  1 <1>  -0.6600 
  4 C       -1.3280     2.2810     1.2020 C.ar  1 <1>   0.0860 
  5 C       -2.3100    -1.0510    -0.4690 C.3   1 <1>   0.1400 
  6 C       -3.5200     1.1510    -0.4750 C.3   1 <1>   0.1400 
  7 C       -1.1930     3.2350     0.1950 C.ar  1 <1>  -0.1500 
  8 C       -1.3770     2.7330     2.5200 C.ar  1 <1>  -0.1500 
  9 C       -3.5180    -1.8720     0.0720 C.3   1 <1>  -0.1060 
 10 C       -4.7670     0.2610    -0.5820 C.3   1 <1>  -0.1600 
 11 C       -1.1240     4.5850     0.4890 C.ar  1 <1>   0.0820 
 12 C       -1.3160     4.0810     2.8250 C.ar  1 <1>  -0.1500 
 13 C       -3.9320    -2.8640    -1.0380 C.2   1 <1>   0.9060 
 14 C       -4.6660    -0.8800     0.4280 C.3   1 <1>   0.2000 
 15 C       -3.1320    -2.6250     1.3790 C.3   1 <1>  -0.1600 
 16 O       -1.0040     5.4590    -0.5400 O.3   1 <1>  -0.1650 
 17 C       -1.1950     5.0120     1.8090 C.ar  1 <1>  -0.1500 
 18 O       -5.0980    -3.2840    -1.0900 O.co2 1 <1>  -0.9000 
 19 O       -3.0980    -3.2370    -1.8730 O.co2 1 <1>  -0.9000 
 20 O       -5.8940    -1.5010     0.5210 O.3   1 <1>  -0.6800 
 21 C       -2.1190    -3.7720     1.2100 C.3   1 <1>  -0.1600 
 22 C       -0.2180     6.5610    -0.4470 C.ar  1 <1>   0.0820 
 23 C       -1.8020    -4.4240     2.5580 C.3   1 <1>  -0.2400 
 24 C       -0.6560     7.7320    -1.0470 C.ar  1 <1>  -0.1500 
 25 C        1.0060     6.5380     0.2140 C.ar  1 <1>  -0.1500 
 26 C        0.1150     8.8790    -0.9760 C.ar  1 <1>  -0.1500 
 27 C        1.7750     7.6860     0.2840 C.ar  1 <1>  -0.1500 
 28 C        1.3290     8.8560    -0.3090 C.ar  1 <1>  -0.1500 
 29 H       -2.3430    -1.0230    -1.5450 H     1 <1>   0.0800 
 30 H       -1.3790    -1.5190    -0.2100 H     1 <1>   0.0800 
 31 H       -3.7270     1.9410     0.2250 H     1 <1>   0.0800 
 32 H       -3.3070     1.5920    -1.4330 H     1 <1>   0.0800 
 33 H       -1.1360     2.9140    -0.8300 H     1 <1>   0.1500 
 34 H       -1.4650     2.0050     3.3100 H     1 <1>   0.1500 
 35 H       -4.8410    -0.1450    -1.5760 H     1 <1>   0.0800 
 36 H       -5.6440     0.8520    -0.3900 H     1 <1>   0.0800 
 37 H       -1.3620     4.4060     3.8510 H     1 <1>   0.1500 
 38 H       -4.4760    -0.4480     1.3960 H     1 <1>   0.0800 
 39 H       -2.7380    -1.9140     2.0840 H     1 <1>   0.0800 
 40 H       -4.0310    -3.0410     1.8040 H     1 <1>   0.0800 
 41 H       -1.1570     6.0620     2.0410 H     1 <1>   0.1500 
 42 H       -5.8490    -2.2840    -0.1160 H     1 <1>   0.4000 
 43 H       -2.5230    -4.5180     0.5450 H     1 <1>   0.0800 
 44 H       -1.2060    -3.4080     0.7760 H     1 <1>   0.0800 
 45 H       -2.6990    -4.8220     2.9990 H     1 <1>   0.0800 
 46 H       -1.3720    -3.7020     3.2280 H     1 <1>   0.0800 
 47 H       -1.1010    -5.2270     2.4190 H     1 <1>   0.0800 
 48 H       -1.5980     7.7410    -1.5640 H     1 <1>   0.1500 
 49 H        1.3590     5.6290     0.6660 H     1 <1>   0.1500 
 50 H       -0.2270     9.7880    -1.4390 H     1 <1>   0.1500 
 51 H        2.7210     7.6700     0.7970 H     1 <1>   0.1500 
 52 H        1.9280     9.7480    -0.2540 H     1 <1>   0.1500 
@<TRIPOS>BOND
  1   1   2  2   
  2   2   3  am  
  3   2   4  1   
  4   3   5  1   
  5   3   6  1   
  6   4   7  ar  
  7   4   8  ar  
  8   5   9  1   
  9   5  29  1   
 10   5  30  1   
 11   6  10  1   
 12   6  31  1   
 13   6  32  1   
 14   7  11  ar  
 15   7  33  1   
 16   8  12  ar  
 17   8  34  1   
 18   9  13  1   
 19   9  14  1   
 20   9  15  1   
 21  10  14  1   
 22  10  35  1   
 23  10  36  1   
 24  11  16  1   
 25  11  17  ar  
 26  12  17  ar  
 27  12  37  1   
 28  13  18  ar  
 29  13  19  ar  
 30  14  20  1   
 31  14  38  1   
 32  15  21  1   
 33  15  39  1   
 34  15  40  1   
 35  16  22  1   
 36  17  41  1   
 37  20  42  1   
 38  21  23  1   
 39  21  43  1   
 40  21  44  1   
 41  22  24  ar  
 42  22  25  ar  
 43  23  45  1   
 44  23  46  1   
 45  23  47  1   
 46  24  26  ar  
 47  24  48  1   
 48  25  27  ar  
 49  25  49  1   
 50  26  28  ar  
 51  26  50  1   
 52  27  28  ar  
 53  27  51  1   
 54  28  52  1   
@<TRIPOS>SUBSTRUCTURE
  1 ****   4 GROUP 4 **** **** 0

# MOE 2024.06 (io_trps.svl 2023.06)
