@<TRIPOS>MOLECULE
NONAME
56 59 1 0 0 
SMALL
USER_CHARGES


@<TRIPOS>ATOM
  1 S        0.3250    -0.7320     1.3580 S.3   1 <1>  -0.0800 
  2 C        1.5750    -1.3200     0.2770 C.2   1 <1>  -0.1400 
  3 C        0.8580     0.9240     1.1500 C.2   1 <1>  -0.1100 
  4 C        2.3100    -0.2930    -0.1910 C.2   1 <1>  -0.1500 
  5 C        1.6460    -2.8220     0.0630 C.3   1 <1>   0.5230 
  6 C        1.9100     0.9950     0.3060 C.2   1 <1>  -0.1810 
  7 N        0.3330    -3.3150    -0.4260 N.4   1 <1>  -0.9590 
  8 C        2.6900     2.2350    -0.1220 C.3   1 <1>   0.5240 
  9 C        0.2440    -4.8170    -0.4110 C.3   1 <1>   0.5660 
 10 C       -0.0580    -2.7440    -1.7560 C.3   1 <1>   0.3430 
 11 N        2.0450     3.4740     0.3840 N.4   1 <1>  -0.9590 
 12 C        1.4630    -5.4160    -1.1160 C.ar  1 <1>  -0.1430 
 13 C       -1.1170    -5.3260    -0.9760 C.3   1 <1>   0.2000 
 14 C       -1.3590    -3.3750    -2.3060 C.3   1 <1>   0.1200 
 15 C        0.7870     3.8280    -0.3200 C.3   1 <1>   0.3430 
 16 C        2.9150     4.6690     0.2840 C.3   1 <1>   0.3430 
 17 C        2.4640    -5.9720    -0.3300 C.ar  1 <1>  -0.1500 
 18 C        1.6200    -5.4200    -2.4990 C.ar  1 <1>  -0.1500 
 19 O       -1.9390    -4.2520    -1.3790 O.3   1 <1>  -0.5600 
 20 C       -1.9050    -6.1240     0.0700 C.3   1 <1>   0.1200 
 21 C        0.5760     5.3000     0.0050 C.3   1 <1>  -0.1600 
 22 C        1.9530     5.8440     0.3980 C.3   1 <1>  -0.1600 
 23 C        3.6070    -6.4950    -0.9070 C.ar  1 <1>  -0.1500 
 24 C        2.7630    -5.9430    -3.0750 C.ar  1 <1>  -0.1500 
 25 O       -1.0450    -6.9660     0.7650 O.3   1 <1>  -0.6800 
 26 C        3.7590    -6.4770    -2.2800 C.ar  1 <1>  -0.1500 
 27 H        0.3100     1.6640     1.7070 H     1 <1>   0.1500 
 28 H        3.1430    -0.3920    -0.8700 H     1 <1>   0.1500 
 29 H        1.8900    -3.2990     0.9980 H     1 <1>   0.0800 
 30 H        2.4210    -3.0580    -0.6490 H     1 <1>   0.0800 
 31 H       -0.3870    -2.9990     0.2340 H     1 <1>   0.4500 
 32 H        2.7530     2.2710    -1.1980 H     1 <1>   0.0800 
 33 H        3.6910     2.1620     0.2700 H     1 <1>   0.0800 
 34 H        0.2990    -5.1400     0.6150 H     1 <1>   0.0800 
 35 H       -0.2000    -1.6790    -1.6660 H     1 <1>   0.0800 
 36 H        0.7330    -2.9010    -2.4710 H     1 <1>   0.0800 
 37 H        1.8260     3.3330     1.3780 H     1 <1>   0.4500 
 38 H       -0.9550    -5.9610    -1.8300 H     1 <1>   0.0800 
 39 H       -1.1710    -3.9150    -3.2180 H     1 <1>   0.0800 
 40 H       -2.0790    -2.6040    -2.5210 H     1 <1>   0.0800 
 41 H        0.9160     3.7120    -1.3850 H     1 <1>   0.0800 
 42 H       -0.0440     3.2240     0.0080 H     1 <1>   0.0800 
 43 H        3.6630     4.6900     1.0620 H     1 <1>   0.0800 
 44 H        3.3970     4.6950    -0.6800 H     1 <1>   0.0800 
 45 H        2.3670    -6.0140     0.7430 H     1 <1>   0.1500 
 46 H        0.8640    -5.0290    -3.1550 H     1 <1>   0.1500 
 47 H       -2.6570    -6.7260    -0.4110 H     1 <1>   0.0800 
 48 H       -2.3690    -5.4650     0.7840 H     1 <1>   0.0800 
 49 H        0.1690     5.8190    -0.8460 H     1 <1>   0.0800 
 50 H       -0.1150     5.3990     0.8250 H     1 <1>   0.0800 
 51 H        1.9380     6.2070     1.4120 H     1 <1>   0.0800 
 52 H        2.2640     6.6490    -0.2460 H     1 <1>   0.0800 
 53 H        4.3790    -6.9240    -0.2890 H     1 <1>   0.1500 
 54 H        2.8810    -5.9440    -4.1470 H     1 <1>   0.1500 
 55 H       -1.5510    -7.6030     1.3160 H     1 <1>   0.4000 
 56 H        4.6490    -6.8860    -2.7290 H     1 <1>   0.1500 
@<TRIPOS>BOND
  1   1   2  1   
  2   1   3  1   
  3   2   4  2   
  4   2   5  1   
  5   3   6  2   
  6   3  27  1   
  7   4   6  1   
  8   4  28  1   
  9   5   7  1   
 10   5  29  1   
 11   5  30  1   
 12   6   8  1   
 13   7   9  1   
 14   7  10  1   
 15   7  31  1   
 16   8  11  1   
 17   8  32  1   
 18   8  33  1   
 19   9  12  1   
 20   9  13  1   
 21   9  34  1   
 22  10  14  1   
 23  10  35  1   
 24  10  36  1   
 25  11  15  1   
 26  11  16  1   
 27  11  37  1   
 28  12  17  ar  
 29  12  18  ar  
 30  13  19  1   
 31  13  20  1   
 32  13  38  1   
 33  14  19  1   
 34  14  39  1   
 35  14  40  1   
 36  15  21  1   
 37  15  41  1   
 38  15  42  1   
 39  16  22  1   
 40  16  43  1   
 41  16  44  1   
 42  17  23  ar  
 43  17  45  1   
 44  18  24  ar  
 45  18  46  1   
 46  20  25  1   
 47  20  47  1   
 48  20  48  1   
 49  21  22  1   
 50  21  49  1   
 51  21  50  1   
 52  22  51  1   
 53  22  52  1   
 54  23  26  ar  
 55  23  53  1   
 56  24  26  ar  
 57  24  54  1   
 58  25  55  1   
 59  26  56  1   
@<TRIPOS>SUBSTRUCTURE
  1 ****   2 GROUP 4 **** **** 0

# MOE 2024.06 (io_trps.svl 2023.06)
