@<TRIPOS>MOLECULE
NONAME
47 49 1 0 0 
SMALL
USER_CHARGES


@<TRIPOS>ATOM
  1 O        0.3050    -0.0880     0.9840 O.2   1 <1>  -0.5700 
  2 C        1.1050    -0.5250     0.1790 C.2   1 <1>   0.5440 
  3 N        1.8290     0.3620    -0.5710 N.am  1 <1>  -0.7300 
  4 C        1.2780    -1.9560     0.0050 C.ar  1 <1>   0.0860 
  5 C        1.7530     1.8350    -0.4740 C.3   1 <1>   0.1400 
  6 C        0.2250    -2.8370     0.2780 C.ar  1 <1>  -0.1500 
  7 C        2.4920    -2.5070    -0.4370 C.ar  1 <1>  -0.1500 
  8 C        3.1310     2.3790    -0.1070 C.3   1 <1>  -0.1600 
  9 C        0.3900    -4.1960     0.0980 C.ar  1 <1>  -0.1430 
 10 C        2.6520    -3.8710    -0.6160 C.ar  1 <1>  -0.1500 
 11 C        3.0940     3.9000     0.0020 C.3   1 <1>   0.2090 
 12 C        1.5830    -4.7000    -0.3420 C.ar  1 <1>   0.0830 
 13 C       -0.5610    -5.3360     0.3050 C.3   1 <1>  -0.0170 
 14 N        4.4550     4.3890     0.3050 N.pl3 1 <1>  -0.8690 
 15 O        1.5760    -6.0340    -0.4600 O.3   1 <1>  -0.3620 
 16 C        0.3270    -6.5540    -0.0300 C.3   1 <1>   0.2000 
 17 C        4.7860     5.7220     0.2020 C.ar  1 <1>   0.4100 
 18 C       -0.2330    -7.4340    -1.1470 C.3   1 <1>  -0.2400 
 19 N        3.8990     6.5380    -0.3500 N.ar  1 <1>  -0.6200 
 20 C        6.0200     6.1500     0.6820 C.ar  1 <1>  -0.1500 
 21 C        4.2520     7.8110    -0.4240 C.ar  1 <1>   0.1600 
 22 C        6.3730     7.4770     0.6000 C.ar  1 <1>  -0.1500 
 23 C        5.4550     8.3340     0.0260 C.ar  1 <1>  -0.1430 
 24 C        5.7760     9.8140    -0.1000 C.3   1 <1>  -0.0970 
 25 H        2.4280     0.0020    -1.3140 H     1 <1>   0.3700 
 26 H        1.0340     2.1210     0.2770 H     1 <1>   0.0800 
 27 H        1.4310     2.2360    -1.4200 H     1 <1>   0.0800 
 28 H       -0.7150    -2.4450     0.6280 H     1 <1>   0.1500 
 29 H        3.3260    -1.8590    -0.6350 H     1 <1>   0.1500 
 30 H        3.8390     2.1020    -0.8670 H     1 <1>   0.0800 
 31 H        3.4320     1.9630     0.8380 H     1 <1>   0.0800 
 32 H        3.5800    -4.2940    -0.9560 H     1 <1>   0.1500 
 33 H        2.4200     4.2090     0.7830 H     1 <1>   0.0800 
 34 H        2.7590     4.3240    -0.9310 H     1 <1>   0.0800 
 35 H       -1.4030    -5.2580    -0.3590 H     1 <1>   0.0800 
 36 H       -0.9050    -5.3810     1.3220 H     1 <1>   0.0800 
 37 H        4.9160     3.8870     1.0630 H     1 <1>   0.4000 
 38 H        0.5120    -7.1360     0.8560 H     1 <1>   0.0800 
 39 H       -0.3680    -6.8570    -2.0440 H     1 <1>   0.0800 
 40 H       -1.1820    -7.8450    -0.8520 H     1 <1>   0.0800 
 41 H        0.4430    -8.2460    -1.3450 H     1 <1>   0.0800 
 42 H        6.6920     5.4340     1.1120 H     1 <1>   0.1500 
 43 H        3.5360     8.4760    -0.8730 H     1 <1>   0.1500 
 44 H        7.3220     7.8290     0.9640 H     1 <1>   0.1500 
 45 H        4.9610    10.3470    -0.5560 H     1 <1>   0.0800 
 46 H        6.6540     9.9460    -0.7060 H     1 <1>   0.0800 
 47 H        5.9570    10.2330     0.8730 H     1 <1>   0.0800 
@<TRIPOS>BOND
  1   1   2  2   
  2   2   3  am  
  3   2   4  1   
  4   3   5  1   
  5   3  25  1   
  6   4   6  ar  
  7   4   7  ar  
  8   5   8  1   
  9   5  26  1   
 10   5  27  1   
 11   6   9  ar  
 12   6  28  1   
 13   7  10  ar  
 14   7  29  1   
 15   8  11  1   
 16   8  30  1   
 17   8  31  1   
 18   9  12  ar  
 19   9  13  1   
 20  10  12  ar  
 21  10  32  1   
 22  11  14  1   
 23  11  33  1   
 24  11  34  1   
 25  12  15  1   
 26  13  16  1   
 27  13  35  1   
 28  13  36  1   
 29  14  17  1   
 30  14  37  1   
 31  15  16  1   
 32  16  18  1   
 33  16  38  1   
 34  17  19  ar  
 35  17  20  ar  
 36  18  39  1   
 37  18  40  1   
 38  18  41  1   
 39  19  21  ar  
 40  20  22  ar  
 41  20  42  1   
 42  21  23  ar  
 43  21  43  1   
 44  22  23  ar  
 45  22  44  1   
 46  23  24  1   
 47  24  45  1   
 48  24  46  1   
 49  24  47  1   
@<TRIPOS>SUBSTRUCTURE
  1 ****   3 GROUP 4 **** **** 0

# MOE 2024.06 (io_trps.svl 2023.06)
