@<TRIPOS>MOLECULE
NONAME
54 57 1 0 0 
SMALL
USER_CHARGES


@<TRIPOS>ATOM
  1 O       -0.7160     4.8580    -1.7410 O.2   1 <1>  -0.5700 
  2 C       -0.5500     4.0400    -0.8570 C.2   1 <1>   0.5440 
  3 N       -1.6510     3.4660    -0.2550 N.am  1 <1>  -0.6600 
  4 C        0.7970     3.7070    -0.4480 C.ar  1 <1>   0.0860 
  5 C       -3.0450     3.7180    -0.7390 C.3   1 <1>   0.1400 
  6 C       -1.5970     2.7010     1.0210 C.3   1 <1>   0.1400 
  7 C        1.3770     2.4590    -0.7040 C.ar  1 <1>   0.1660 
  8 C        1.5610     4.6360     0.2430 C.ar  1 <1>  -0.1500 
  9 C       -3.8370     4.5350     0.2990 C.3   1 <1>   0.1440 
 10 C       -2.3490     3.4770     2.1090 C.3   1 <1>  -0.1600 
 11 N        2.5830     2.0920    -0.3000 N.ar  1 <1>  -0.6200 
 12 C        0.6300     1.3970    -1.4950 C.3   1 <1>  -0.0970 
 13 C        2.8220     4.2660     0.6530 C.ar  1 <1>  -0.1500 
 14 C       -5.2810     4.6970    -0.1370 C.ar  1 <1>   0.1670 
 15 C       -3.7850     3.8360     1.6770 C.3   1 <1>  -0.1600 
 16 C       -3.3430     6.0060     0.3740 C.3   1 <1>  -0.1600 
 17 C        3.2830     2.9930     0.3650 C.ar  1 <1>   0.1670 
 18 N       -6.0650     3.7250    -0.5360 N.ar  1 <1>  -0.6200 
 19 C       -5.6880     5.9940    -0.0600 C.ar  1 <1>  -0.1430 
 20 C       -4.5920     6.9020     0.4360 C.3   1 <1>  -0.0170 
 21 C        4.6630     2.5600     0.8110 C.3   1 <1>  -0.0970 
 22 C       -7.3060     4.0940    -0.8680 C.ar  1 <1>   0.7200 
 23 C       -6.9800     6.2790    -0.4230 C.ar  1 <1>   0.1600 
 24 N       -7.7980     5.3360    -0.8280 N.ar  1 <1>  -0.6200 
 25 N       -8.1610     3.0950    -1.2930 N.pl3 1 <1>  -0.8380 
 26 C       -9.6300     3.3070    -1.4000 C.3   1 <1>   0.1290 
 27 C       -7.6690     1.7490    -1.6960 C.3   1 <1>   0.1290 
 28 H       -3.5330     2.7710    -0.8930 H     1 <1>   0.0800 
 29 H       -3.0390     4.2330    -1.6840 H     1 <1>   0.0800 
 30 H       -0.5810     2.5360     1.3350 H     1 <1>   0.0800 
 31 H       -2.0600     1.7410     0.8710 H     1 <1>   0.0800 
 32 H        1.1690     5.6170     0.4460 H     1 <1>   0.1500 
 33 H       -1.7970     4.3700     2.3400 H     1 <1>   0.0800 
 34 H       -2.3850     2.8810     3.0040 H     1 <1>   0.0800 
 35 H       -0.0540     1.8360    -2.1980 H     1 <1>   0.0800 
 36 H        0.0870     0.7610    -0.8220 H     1 <1>   0.0800 
 37 H        1.3290     0.7950    -2.0470 H     1 <1>   0.0800 
 38 H        3.4400     4.9620     1.1900 H     1 <1>   0.1500 
 39 H       -4.3590     2.9260     1.6170 H     1 <1>   0.0800 
 40 H       -4.2490     4.4580     2.4220 H     1 <1>   0.0800 
 41 H       -2.8040     6.2460    -0.5260 H     1 <1>   0.0800 
 42 H       -2.6880     6.1840     1.2070 H     1 <1>   0.0800 
 43 H       -4.4840     7.7730    -0.1870 H     1 <1>   0.0800 
 44 H       -4.7990     7.1980     1.4500 H     1 <1>   0.0800 
 45 H        4.5800     1.7010     1.4510 H     1 <1>   0.0800 
 46 H        5.1650     3.3450     1.3440 H     1 <1>   0.0800 
 47 H        5.2490     2.2940    -0.0500 H     1 <1>   0.0800 
 48 H       -7.3470     7.2900    -0.3810 H     1 <1>   0.1500 
 49 H       -9.9590     4.0370    -0.6800 H     1 <1>   0.0800 
 50 H      -10.1530     2.3860    -1.2110 H     1 <1>   0.0800 
 51 H       -9.8710     3.6590    -2.3880 H     1 <1>   0.0800 
 52 H       -6.6610     1.8100    -2.0670 H     1 <1>   0.0800 
 53 H       -8.2910     1.3450    -2.4750 H     1 <1>   0.0800 
 54 H       -7.6900     1.0900    -0.8450 H     1 <1>   0.0800 
@<TRIPOS>BOND
  1   1   2  2   
  2   2   3  am  
  3   2   4  1   
  4   3   5  1   
  5   3   6  1   
  6   4   7  ar  
  7   4   8  ar  
  8   5   9  1   
  9   5  28  1   
 10   5  29  1   
 11   6  10  1   
 12   6  30  1   
 13   6  31  1   
 14   7  11  ar  
 15   7  12  1   
 16   8  13  ar  
 17   8  32  1   
 18   9  14  1   
 19   9  15  1   
 20   9  16  1   
 21  10  15  1   
 22  10  33  1   
 23  10  34  1   
 24  11  17  ar  
 25  12  35  1   
 26  12  36  1   
 27  12  37  1   
 28  13  17  ar  
 29  13  38  1   
 30  14  18  ar  
 31  14  19  ar  
 32  15  39  1   
 33  15  40  1   
 34  16  20  1   
 35  16  41  1   
 36  16  42  1   
 37  17  21  1   
 38  18  22  ar  
 39  19  20  1   
 40  19  23  ar  
 41  20  43  1   
 42  20  44  1   
 43  21  45  1   
 44  21  46  1   
 45  21  47  1   
 46  22  24  ar  
 47  22  25  1   
 48  23  24  ar  
 49  23  48  1   
 50  25  26  1   
 51  25  27  1   
 52  26  49  1   
 53  26  50  1   
 54  26  51  1   
 55  27  52  1   
 56  27  53  1   
 57  27  54  1   
@<TRIPOS>SUBSTRUCTURE
  1 ****   5 GROUP 4 **** **** 0

# MOE 2024.06 (io_trps.svl 2023.06)
