@<TRIPOS>MOLECULE
NONAME
54 57 1 0 0 
SMALL
USER_CHARGES


@<TRIPOS>ATOM
  1 O        0.3640    -0.2380    -0.9400 O.2   1 <1>  -0.5700 
  2 C        1.2870    -0.7850    -0.3660 C.2   1 <1>   0.5440 
  3 N        2.3620    -0.0270     0.0450 N.am  1 <1>  -0.6600 
  4 C        1.2230    -2.2120    -0.1280 C.ar  1 <1>   0.0860 
  5 C        2.5280     1.4000    -0.3600 C.3   1 <1>   0.1400 
  6 C        3.4180    -0.4880     0.9950 C.3   1 <1>   0.1400 
  7 C        0.2060    -2.7670     0.6460 C.ar  1 <1>  -0.1500 
  8 C        2.1710    -3.0840    -0.6600 C.ar  1 <1>  -0.1500 
  9 C        3.9760     1.6690    -0.8060 C.3   1 <1>   0.1200 
 10 C        4.8130    -0.1260     0.4610 C.3   1 <1>   0.1200 
 11 C        0.1470    -4.1260     0.8880 C.ar  1 <1>  -0.1500 
 12 C        2.1110    -4.4430    -0.4190 C.ar  1 <1>  -0.1500 
 13 O        4.8880     1.2410     0.1680 O.3   1 <1>  -0.5600 
 14 C        1.0950    -4.9990     0.3560 C.ar  1 <1>   0.0860 
 15 C        1.0430    -6.4280     0.5970 C.2   1 <1>   0.5440 
 16 O        2.0260    -7.0020     1.0240 O.2   1 <1>  -0.5700 
 17 N       -0.0890    -7.1660     0.3380 N.am  1 <1>  -0.6600 
 18 C       -1.1960    -6.7390    -0.5580 C.3   1 <1>   0.1400 
 19 C       -0.1510    -8.6340     0.5610 C.3   1 <1>   0.1400 
 20 C       -2.1790    -7.9070    -0.5340 C.3   1 <1>   0.2000 
 21 C       -1.2790    -9.1340    -0.3490 C.3   1 <1>  -0.0800 
 22 O       -2.9930    -7.7570     0.5780 O.3   1 <1>  -0.6800 
 23 C       -1.9960   -10.3920     0.1770 C.3   1 <1>   0.0200 
 24 C       -1.1010   -11.6190     0.2140 C.2   1 <1>  -0.0400 
 25 O       -1.5620   -12.7140     0.7580 O.3   1 <1>  -0.0190 
 26 C        0.1470   -11.8730    -0.2140 C.2   1 <1>  -0.1500 
 27 N       -0.6930   -13.6820     0.7210 N.2   1 <1>  -0.4100 
 28 C        0.3480   -13.2040     0.1410 C.2   1 <1>   0.1080 
 29 C        1.6150   -13.9880    -0.1160 C.3   1 <1>  -0.0590 
 30 H        1.8600     1.6450    -1.1680 H     1 <1>   0.0800 
 31 H        2.2880     2.0360     0.4740 H     1 <1>   0.0800 
 32 H        3.2710    -0.0010     1.9440 H     1 <1>   0.0800 
 33 H        3.3610    -1.5480     1.1600 H     1 <1>   0.0800 
 34 H       -0.5430    -2.1110     1.0580 H     1 <1>   0.1500 
 35 H        2.9610    -2.6820    -1.2700 H     1 <1>   0.1500 
 36 H        4.1270     2.7230    -0.9570 H     1 <1>   0.0800 
 37 H        4.1870     1.1540    -1.7270 H     1 <1>   0.0800 
 38 H        5.0350    -0.6830    -0.4320 H     1 <1>   0.0800 
 39 H        5.5620    -0.3430     1.2010 H     1 <1>   0.0800 
 40 H       -0.6430    -4.5230     1.5020 H     1 <1>   0.1500 
 41 H        2.8610    -5.0970    -0.8320 H     1 <1>   0.1500 
 42 H       -1.6630    -5.8280    -0.2290 H     1 <1>   0.0800 
 43 H       -0.8090    -6.6060    -1.5540 H     1 <1>   0.0800 
 44 H        0.7900    -9.0990     0.3190 H     1 <1>   0.0800 
 45 H       -0.3770    -8.8200     1.5980 H     1 <1>   0.0800 
 46 H       -2.8010    -7.9580    -1.4110 H     1 <1>   0.0800 
 47 H       -0.8480    -9.3650    -1.3070 H     1 <1>   0.0800 
 48 H       -2.4310    -7.5760     1.3580 H     1 <1>   0.4000 
 49 H       -2.8430   -10.6080    -0.4500 H     1 <1>   0.0800 
 50 H       -2.3680   -10.2160     1.1720 H     1 <1>   0.0800 
 51 H        0.8570   -11.2420    -0.7140 H     1 <1>   0.1500 
 52 H        1.8150   -14.0230    -1.1710 H     1 <1>   0.0800 
 53 H        1.5050   -14.9930     0.2510 H     1 <1>   0.0800 
 54 H        2.4410   -13.5220     0.3880 H     1 <1>   0.0800 
@<TRIPOS>BOND
  1   1   2  2   
  2   2   3  am  
  3   2   4  1   
  4   3   5  1   
  5   3   6  1   
  6   4   7  ar  
  7   4   8  ar  
  8   5   9  1   
  9   5  30  1   
 10   5  31  1   
 11   6  10  1   
 12   6  32  1   
 13   6  33  1   
 14   7  11  ar  
 15   7  34  1   
 16   8  12  ar  
 17   8  35  1   
 18   9  13  1   
 19   9  36  1   
 20   9  37  1   
 21  10  13  1   
 22  10  38  1   
 23  10  39  1   
 24  11  14  ar  
 25  11  40  1   
 26  12  14  ar  
 27  12  41  1   
 28  14  15  1   
 29  15  16  2   
 30  15  17  am  
 31  17  18  1   
 32  17  19  1   
 33  18  20  1   
 34  18  42  1   
 35  18  43  1   
 36  19  21  1   
 37  19  44  1   
 38  19  45  1   
 39  20  21  1   
 40  20  22  1   
 41  20  46  1   
 42  21  23  1   
 43  21  47  1   
 44  22  48  1   
 45  23  24  1   
 46  23  49  1   
 47  23  50  1   
 48  24  25  1   
 49  24  26  2   
 50  25  27  1   
 51  26  28  1   
 52  26  51  1   
 53  27  28  2   
 54  28  29  1   
 55  29  52  1   
 56  29  53  1   
 57  29  54  1   
@<TRIPOS>SUBSTRUCTURE
  1 ****  15 GROUP 4 **** **** 0

# MOE 2024.06 (io_trps.svl 2023.06)
