@<TRIPOS>MOLECULE
Untitled Document
59 61 1 0 0 
SMALL
USER_CHARGES


@<TRIPOS>ATOM
  1 O        2.6900     5.6250     0.7620 O.2   1 <1>  -0.5700 
  2 C        1.4680     5.5820     0.7770 C.2   1 <1>   0.6900 
  3 N        0.6170     6.6500     0.5870 N.am  1 <1>  -0.2370 
  4 N        0.7890     4.4010     0.7750 N.am  1 <1>  -0.4770 
  5 C       -0.6660     6.0970     0.7690 C.ar  1 <1>   0.1170 
  6 C        0.8990     7.4330    -0.5190 C.2   1 <1>   0.5690 
  7 C       -0.5560     4.7180     0.8190 C.ar  1 <1>   0.1170 
  8 C        1.3750     3.1270     0.2830 C.3   1 <1>   0.1400 
  9 C       -1.9150     6.6930     0.8990 C.ar  1 <1>  -0.1500 
 10 O        1.4100     6.9250    -1.4980 O.2   1 <1>  -0.5700 
 11 C        0.4960     8.9110    -0.6190 C.3   1 <1>  -0.0190 
 12 C       -1.6750     3.9080     0.9240 C.ar  1 <1>  -0.1500 
 13 C        1.6800     3.1580    -1.2370 C.3   1 <1>   0.3430 
 14 C       -3.0400     5.8920     1.0090 C.ar  1 <1>  -0.1500 
 15 C        0.3760     9.6940     0.7310 C.3   1 <1>  -0.0800 
 16 C       -0.7670     8.9920    -1.5140 C.3   1 <1>  -0.1600 
 17 C       -2.9230     4.4980     1.0090 C.ar  1 <1>   0.0830 
 18 N        2.4970     4.3360    -1.6660 N.4   1 <1>  -0.8530 
 19 C        1.7060     9.9310     1.5140 C.3   1 <1>  -0.0800 
 20 C       -0.2920    11.0730     0.5190 C.3   1 <1>  -0.1600 
 21 C       -1.3310    10.4070    -1.6610 C.3   1 <1>  -0.0800 
 22 O       -3.9820     3.6530     1.0990 O.3   1 <1>  -0.3630 
 23 C        2.8740    10.4420     0.6540 C.3   1 <1>  -0.2400 
 24 C        2.1860     8.7250     2.3280 C.3   1 <1>  -0.2400 
 25 C       -1.5950    11.0010    -0.2780 C.3   1 <1>  -0.1600 
 26 C       -2.6180    10.3860    -2.4920 C.3   1 <1>  -0.2400 
 27 C       -5.2980     4.1410     1.2420 C.3   1 <1>   0.0400 
 28 H        2.2830     2.9320     0.8270 H     1 <1>   0.0800 
 29 H        0.6950     2.3200     0.4950 H     1 <1>   0.0800 
 30 H       -2.0200     7.7610     0.9200 H     1 <1>   0.1500 
 31 H        1.2670     9.3950    -1.1890 H     1 <1>   0.0800 
 32 H       -1.5930     2.8380     0.9560 H     1 <1>   0.1500 
 33 H        0.7490     3.1480    -1.7820 H     1 <1>   0.0800 
 34 H        2.2090     2.2520    -1.4860 H     1 <1>   0.0800 
 35 H       -4.0010     6.3650     1.0970 H     1 <1>   0.1500 
 36 H       -0.2860     9.1490     1.3780 H     1 <1>   0.0800 
 37 H       -0.5180     8.6220    -2.4940 H     1 <1>   0.0800 
 38 H       -1.5380     8.3560    -1.1310 H     1 <1>   0.0800 
 39 H        1.9140     5.1830    -1.8170 H     1 <1>   0.4500 
 40 H        3.0420     4.1850    -2.5190 H     1 <1>   0.4500 
 41 H        3.1300     4.6390    -0.9040 H     1 <1>   0.4500 
 42 H        1.5030    10.6960     2.2460 H     1 <1>   0.0800 
 43 H       -0.5050    11.5200     1.4750 H     1 <1>   0.0800 
 44 H        0.3810    11.7330     0.0010 H     1 <1>   0.0800 
 45 H       -0.6070    11.0210    -2.1720 H     1 <1>   0.0800 
 46 H        3.2200     9.6830    -0.0240 H     1 <1>   0.0800 
 47 H        3.6990    10.7180     1.2870 H     1 <1>   0.0800 
 48 H        2.5920    11.3100     0.0870 H     1 <1>   0.0800 
 49 H        2.6690     8.0030     1.7000 H     1 <1>   0.0800 
 50 H        1.3720     8.2630     2.8570 H     1 <1>   0.0800 
 51 H        2.9100     9.0470     3.0560 H     1 <1>   0.0800 
 52 H       -1.9970    11.9940    -0.3830 H     1 <1>   0.0800 
 53 H       -2.3170    10.4060     0.2540 H     1 <1>   0.0800 
 54 H       -3.3760     9.7920    -2.0120 H     1 <1>   0.0800 
 55 H       -2.4270     9.9770    -3.4680 H     1 <1>   0.0800 
 56 H       -2.9960    11.3860    -2.6150 H     1 <1>   0.0800 
 57 H       -5.9620     3.2970     1.3070 H     1 <1>   0.0800 
 58 H       -5.5490     4.7350     0.3810 H     1 <1>   0.0800 
 59 H       -5.3610     4.7220     2.1450 H     1 <1>   0.0800 
@<TRIPOS>BOND
  1   1   2  2   
  2   2   3  am  
  3   2   4  am  
  4   3   5  1   
  5   3   6  am  
  6   4   7  1   
  7   4   8  1   
  8   5   7  ar  
  9   5   9  ar  
 10   6  10  2   
 11   6  11  1   
 12   7  12  ar  
 13   8  13  1   
 14   8  28  1   
 15   8  29  1   
 16   9  14  ar  
 17   9  30  1   
 18  11  15  1   
 19  11  16  1   
 20  11  31  1   
 21  12  17  ar  
 22  12  32  1   
 23  13  18  1   
 24  13  33  1   
 25  13  34  1   
 26  14  17  ar  
 27  14  35  1   
 28  15  19  1   
 29  15  20  1   
 30  15  36  1   
 31  16  21  1   
 32  16  37  1   
 33  16  38  1   
 34  17  22  1   
 35  18  39  1   
 36  18  40  1   
 37  18  41  1   
 38  19  23  1   
 39  19  24  1   
 40  19  42  1   
 41  20  25  1   
 42  20  43  1   
 43  20  44  1   
 44  21  25  1   
 45  21  26  1   
 46  21  45  1   
 47  22  27  1   
 48  23  46  1   
 49  23  47  1   
 50  23  48  1   
 51  24  49  1   
 52  24  50  1   
 53  24  51  1   
 54  25  52  1   
 55  25  53  1   
 56  26  54  1   
 57  26  55  1   
 58  26  56  1   
 59  27  57  1   
 60  27  58  1   
 61  27  59  1   
@<TRIPOS>SUBSTRUCTURE
  1 ****   3 GROUP 4 **** **** 0

# MOE 2024.06 (io_trps.svl 2023.06)
