@<TRIPOS>MOLECULE
NONAME
57 60 1 0 0 
SMALL
USER_CHARGES


@<TRIPOS>ATOM
  1 O        1.3000    -1.9520    -2.1700 O.3   1 <1>  -0.6800 
  2 C        0.4680    -2.2480    -1.0990 C.3   1 <1>   0.1200 
  3 C        1.1720    -1.9910     0.2660 C.3   1 <1>   0.0000 
  4 C        2.5960    -2.6110     0.3670 C.3   1 <1>   0.4230 
  5 C        1.2710    -0.4600     0.5110 C.3   1 <1>  -0.1600 
  6 C        0.2890    -2.6050     1.3890 C.3   1 <1>  -0.1600 
  7 N        2.6110    -4.1290     0.1780 N.4   1 <1>  -0.9590 
  8 C        3.6540    -1.8170    -0.4690 C.3   1 <1>   0.3430 
  9 C        2.2680     0.2560    -0.4050 C.3   1 <1>   0.3430 
 10 C        0.7370    -4.0120     1.8350 C.3   1 <1>  -0.1600 
 11 C        1.3820    -4.8180     0.7060 C.3   1 <1>   0.3430 
 12 C        2.8540    -4.5930    -1.2310 C.3   1 <1>   0.2630 
 13 N        3.6340    -0.3270    -0.2260 N.4   1 <1>  -0.9590 
 14 C        4.6090     0.3780    -1.1120 C.3   1 <1>   0.4860 
 15 C        4.7160     1.8220    -0.6610 C.ar  1 <1>  -0.1430 
 16 C        5.4010     2.1510     0.5000 C.ar  1 <1>  -0.1500 
 17 C        4.1260     2.8340    -1.4050 C.ar  1 <1>  -0.1500 
 18 C        5.4800     3.4680     0.9130 C.ar  1 <1>  -0.1500 
 19 C        4.2110     4.1480    -0.9860 C.ar  1 <1>  -0.1500 
 20 C        4.8870     4.4910     0.1810 C.ar  1 <1>   0.0000 
 21 C        4.9760     5.8680     0.6130 C.ar  1 <1>   0.0000 
 22 C        6.2090     6.4890     0.8060 C.ar  1 <1>   0.1600 
 23 C        3.8400     6.6250     0.8520 C.ar  1 <1>  -0.1500 
 24 N        6.3950     7.7380     1.2030 N.ar  1 <1>  -0.6200 
 25 C        4.0090     7.9290     1.2640 C.ar  1 <1>  -0.1500 
 26 C        5.2890     8.4300     1.4230 C.ar  1 <1>   0.1600 
 27 H        0.7860    -1.9650    -3.0120 H     1 <1>   0.4000 
 28 H       -0.4160    -1.6360    -1.1860 H     1 <1>   0.0800 
 29 H        0.1650    -3.2750    -1.2000 H     1 <1>   0.0800 
 30 H        2.8860    -2.4480     1.3910 H     1 <1>   0.0800 
 31 H        1.5580    -0.2580     1.5290 H     1 <1>   0.0800 
 32 H        0.3030    -0.0100     0.3710 H     1 <1>   0.0800 
 33 H        0.2900    -1.9800     2.2680 H     1 <1>   0.0800 
 34 H       -0.7380    -2.6480     1.0630 H     1 <1>   0.0800 
 35 H        3.3870    -4.4940     0.7510 H     1 <1>   0.4500 
 36 H        3.4680    -1.9950    -1.5140 H     1 <1>   0.0800 
 37 H        4.6340    -2.1980    -0.2350 H     1 <1>   0.0800 
 38 H        2.2820     1.3080    -0.1620 H     1 <1>   0.0800 
 39 H        1.9560     0.1590    -1.4330 H     1 <1>   0.0800 
 40 H       -0.1190    -4.5520     2.2060 H     1 <1>   0.0800 
 41 H        1.4330    -3.9390     2.6540 H     1 <1>   0.0800 
 42 H        0.6590    -4.9350    -0.0850 H     1 <1>   0.0800 
 43 H        1.6380    -5.8040     1.0620 H     1 <1>   0.0800 
 44 H        2.0750    -4.2400    -1.8870 H     1 <1>   0.0800 
 45 H        2.8670    -5.6710    -1.2720 H     1 <1>   0.0800 
 46 H        3.8010    -4.2330    -1.5970 H     1 <1>   0.0800 
 47 H        3.9310    -0.1010     0.7330 H     1 <1>   0.4500 
 48 H        5.5810    -0.0830    -1.0430 H     1 <1>   0.0800 
 49 H        4.2830     0.3370    -2.1390 H     1 <1>   0.0800 
 50 H        5.8880     1.3970     1.0950 H     1 <1>   0.1500 
 51 H        3.6000     2.6180    -2.3200 H     1 <1>   0.1500 
 52 H        6.0100     3.7140     1.8180 H     1 <1>   0.1500 
 53 H        3.7560     4.9290    -1.5720 H     1 <1>   0.1500 
 54 H        7.0970     5.9120     0.6150 H     1 <1>   0.1500 
 55 H        2.8580     6.2060     0.7230 H     1 <1>   0.1500 
 56 H        3.1580     8.5560     1.4630 H     1 <1>   0.1500 
 57 H        5.4110     9.4500     1.7470 H     1 <1>   0.1500 
@<TRIPOS>BOND
  1   1   2  1   
  2   1  27  1   
  3   2   3  1   
  4   2  28  1   
  5   2  29  1   
  6   3   4  1   
  7   3   5  1   
  8   3   6  1   
  9   4   7  1   
 10   4   8  1   
 11   4  30  1   
 12   5   9  1   
 13   5  31  1   
 14   5  32  1   
 15   6  10  1   
 16   6  33  1   
 17   6  34  1   
 18   7  11  1   
 19   7  12  1   
 20   7  35  1   
 21   8  13  1   
 22   8  36  1   
 23   8  37  1   
 24   9  13  1   
 25   9  38  1   
 26   9  39  1   
 27  10  11  1   
 28  10  40  1   
 29  10  41  1   
 30  11  42  1   
 31  11  43  1   
 32  12  44  1   
 33  12  45  1   
 34  12  46  1   
 35  13  14  1   
 36  13  47  1   
 37  14  15  1   
 38  14  48  1   
 39  14  49  1   
 40  15  16  ar  
 41  15  17  ar  
 42  16  18  ar  
 43  16  50  1   
 44  17  19  ar  
 45  17  51  1   
 46  18  20  ar  
 47  18  52  1   
 48  19  20  ar  
 49  19  53  1   
 50  20  21  1   
 51  21  22  ar  
 52  21  23  ar  
 53  22  24  ar  
 54  22  54  1   
 55  23  25  ar  
 56  23  55  1   
 57  24  26  ar  
 58  25  26  ar  
 59  25  56  1   
 60  26  57  1   
@<TRIPOS>SUBSTRUCTURE
  1 ****   9 GROUP 4 **** **** 0

# MOE 2024.06 (io_trps.svl 2023.06)
