@<TRIPOS>MOLECULE
NONAME
41 44 1 0 0 
SMALL
USER_CHARGES


@<TRIPOS>ATOM
  1 O       -0.7250     0.3470     0.8570 O.2   1 <1>  -0.5700 
  2 C       -1.7130     0.9470     0.4640 C.2   1 <1>   0.7160 
  3 N       -2.8600     0.1980     0.2780 N.am  1 <1>  -0.6600 
  4 C       -1.6310     2.3900     0.2210 C.2   1 <1>   0.2030 
  5 C       -4.2130     0.7150    -0.0510 C.3   1 <1>   0.1400 
  6 C       -2.8760    -1.2850     0.3330 C.3   1 <1>   0.1400 
  7 N       -2.5620     3.1710    -0.3220 N.2   1 <1>  -0.7070 
  8 C       -0.4970     3.1400     0.5440 C.2   1 <1>  -0.1500 
  9 C       -5.1490    -0.4650     0.2120 C.3   1 <1>   0.2000 
 10 C       -4.2850    -1.6880    -0.1140 C.3   1 <1>  -0.0800 
 11 N       -2.0220     4.4000    -0.3430 N.pl3 1 <1>   0.6010 
 12 C       -0.7550     4.4170     0.1820 C.2   1 <1>  -0.0260 
 13 O       -5.4700    -0.4710     1.5610 O.3   1 <1>  -0.6800 
 14 C       -4.7710    -3.0210     0.4840 C.3   1 <1>  -0.0160 
 15 C       -2.5740     5.5760    -0.8100 C.2   1 <1>  -0.1810 
 16 N        0.0160     5.5590     0.2760 N.2   1 <1>  -0.5760 
 17 C       -3.8740    -4.1680     0.0460 C.ar  1 <1>  -0.1440 
 18 C       -1.8280     6.7090    -0.7260 C.2   1 <1>  -0.1360 
 19 C       -0.5190     6.6490    -0.1670 C.2   1 <1>   0.3760 
 20 C       -4.0160    -4.7700    -1.1870 C.ar  1 <1>  -0.1500 
 21 C       -2.8700    -4.6630     0.8550 C.ar  1 <1>  -0.1500 
 22 C       -3.1680    -5.8050    -1.5460 C.ar  1 <1>   0.1600 
 23 C       -2.0760    -5.7030     0.4000 C.ar  1 <1>   0.1600 
 24 N       -2.2000    -6.2850    -0.7820 N.ar  1 <1>  -0.6200 
 25 H       -4.4750     1.5700     0.5490 H     1 <1>   0.0800 
 26 H       -4.2400     0.9860    -1.0920 H     1 <1>   0.0800 
 27 H       -2.1220    -1.7010    -0.3160 H     1 <1>   0.0800 
 28 H       -2.6860    -1.5990     1.3450 H     1 <1>   0.0800 
 29 H        0.4040     2.7620     0.9920 H     1 <1>   0.1500 
 30 H       -6.0610    -0.4170    -0.3580 H     1 <1>   0.0800 
 31 H       -4.2610    -1.7900    -1.1850 H     1 <1>   0.0800 
 32 H       -4.6530    -0.3200     2.0780 H     1 <1>   0.4000 
 33 H       -5.7790    -3.2120     0.1600 H     1 <1>   0.0800 
 34 H       -4.7850    -2.9680     1.5590 H     1 <1>   0.0800 
 35 H       -3.5670     5.5120    -1.2130 H     1 <1>   0.1500 
 36 H       -2.1860     7.6620    -1.0680 H     1 <1>   0.1500 
 37 H        0.0430     7.5650    -0.1160 H     1 <1>   0.0600 
 38 H       -4.7760    -4.4440    -1.8730 H     1 <1>   0.1500 
 39 H       -2.6960    -4.2520     1.8320 H     1 <1>   0.1500 
 40 H       -3.2930    -6.2630    -2.5120 H     1 <1>   0.1500 
 41 H       -1.2970    -6.0760     1.0430 H     1 <1>   0.1500 
@<TRIPOS>BOND
  1   1   2  2   
  2   2   3  am  
  3   2   4  1   
  4   3   5  1   
  5   3   6  1   
  6   4   7  2   
  7   4   8  1   
  8   5   9  1   
  9   5  25  1   
 10   5  26  1   
 11   6  10  1   
 12   6  27  1   
 13   6  28  1   
 14   7  11  1   
 15   8  12  2   
 16   8  29  1   
 17   9  10  1   
 18   9  13  1   
 19   9  30  1   
 20  10  14  1   
 21  10  31  1   
 22  11  12  1   
 23  11  15  1   
 24  12  16  1   
 25  13  32  1   
 26  14  17  1   
 27  14  33  1   
 28  14  34  1   
 29  15  18  2   
 30  15  35  1   
 31  16  19  2   
 32  17  20  ar  
 33  17  21  ar  
 34  18  19  1   
 35  18  36  1   
 36  19  37  1   
 37  20  22  ar  
 38  20  38  1   
 39  21  23  ar  
 40  21  39  1   
 41  22  24  ar  
 42  22  40  1   
 43  23  24  ar  
 44  23  41  1   
@<TRIPOS>SUBSTRUCTURE
  1 ****   3 GROUP 4 **** **** 0

# MOE 2024.06 (io_trps.svl 2023.06)
