@<TRIPOS>MOLECULE
NONAME
43 45 1 0 0 
SMALL
USER_CHARGES


@<TRIPOS>ATOM
  1 S        0.1100    -0.0030     0.9400 S.o2  1 <1>   1.3330 
  2 O       -0.8240    -1.0650     1.2390 O.2   1 <1>  -0.6500 
  3 O        1.0740     0.4020     1.9380 O.2   1 <1>  -0.6500 
  4 N        0.9600    -0.4460    -0.4640 N.am  1 <1>  -0.8490 
  5 C       -0.8040     1.4510     0.4230 C.3   1 <1>  -0.0550 
  6 C        2.2220    -1.1260    -0.1560 C.3   1 <1>   0.1160 
  7 C        0.1670    -1.2630    -1.3890 C.3   1 <1>   0.1160 
  8 C        0.0750     2.5870    -0.1460 C.3   1 <1>  -0.0800 
  9 C       -0.7190     3.7540    -0.7390 C.3   1 <1>   0.2000 
 10 C        1.0090     3.2460     0.8790 C.3   1 <1>   0.1400 
 11 O       -1.7520     4.0860     0.1240 O.3   1 <1>  -0.6800 
 12 C        0.2810     4.9070    -0.7490 C.3   1 <1>   0.1400 
 13 N        1.1330     4.6620     0.4410 N.am  1 <1>  -0.6600 
 14 C        2.1510     5.4820     0.8710 C.2   1 <1>   0.5440 
 15 O        2.9410     5.0550     1.6880 O.2   1 <1>  -0.5700 
 16 C        2.3030     6.8310     0.3620 C.ar  1 <1>   0.0860 
 17 C        3.4700     7.2070    -0.3010 C.ar  1 <1>  -0.1500 
 18 C        1.2870     7.7860     0.5290 C.ar  1 <1>  -0.1500 
 19 C        3.6180     8.4880    -0.8030 C.ar  1 <1>   0.2270 
 20 C        1.4140     9.0730     0.0380 C.ar  1 <1>  -0.1500 
 21 N        4.7310     8.9680    -1.4910 N.2   1 <1>  -0.5650 
 22 C        2.5860     9.3890    -0.6220 C.ar  1 <1>   0.0400 
 23 C        4.5830    10.1840    -1.8290 C.2   1 <1>   0.2280 
 24 S        3.0520    10.9090    -1.3520 S.3   1 <1>  -0.0800 
 25 H       -1.5120     1.1620    -0.3280 H     1 <1>   0.0800 
 26 H       -1.3640     1.8190     1.2610 H     1 <1>   0.0800 
 27 H        2.7400    -1.3840    -1.0640 H     1 <1>   0.0800 
 28 H        2.0350    -2.0220     0.4130 H     1 <1>   0.0800 
 29 H        2.8600    -0.4780     0.4220 H     1 <1>   0.0800 
 30 H        0.7190    -1.4370    -2.2960 H     1 <1>   0.0800 
 31 H       -0.7490    -0.7570    -1.6400 H     1 <1>   0.0800 
 32 H       -0.0760    -2.2120    -0.9390 H     1 <1>   0.0800 
 33 H        0.6930     2.1870    -0.9310 H     1 <1>   0.0800 
 34 H       -1.1350     3.5440    -1.7100 H     1 <1>   0.0800 
 35 H        1.9730     2.7640     0.9010 H     1 <1>   0.0800 
 36 H        0.5840     3.2220     1.8690 H     1 <1>   0.0800 
 37 H       -1.3650     4.4210     0.9590 H     1 <1>   0.4000 
 38 H       -0.2170     5.8600    -0.7070 H     1 <1>   0.0800 
 39 H        0.8920     4.8570    -1.6340 H     1 <1>   0.0800 
 40 H        4.2710     6.5000    -0.4260 H     1 <1>   0.1500 
 41 H        0.3930     7.5020     1.0570 H     1 <1>   0.1500 
 42 H        0.6380     9.8080     0.1630 H     1 <1>   0.1500 
 43 H        5.2690    10.8170    -2.3650 H     1 <1>   0.1500 
@<TRIPOS>BOND
  1   1   2  2   
  2   1   3  2   
  3   1   4  am  
  4   1   5  1   
  5   4   6  1   
  6   4   7  1   
  7   5   8  1   
  8   5  25  1   
  9   5  26  1   
 10   6  27  1   
 11   6  28  1   
 12   6  29  1   
 13   7  30  1   
 14   7  31  1   
 15   7  32  1   
 16   8   9  1   
 17   8  10  1   
 18   8  33  1   
 19   9  11  1   
 20   9  12  1   
 21   9  34  1   
 22  10  13  1   
 23  10  35  1   
 24  10  36  1   
 25  11  37  1   
 26  12  13  1   
 27  12  38  1   
 28  12  39  1   
 29  13  14  am  
 30  14  15  2   
 31  14  16  1   
 32  16  17  ar  
 33  16  18  ar  
 34  17  19  ar  
 35  17  40  1   
 36  18  20  ar  
 37  18  41  1   
 38  19  21  1   
 39  19  22  ar  
 40  20  22  ar  
 41  20  42  1   
 42  21  23  2   
 43  22  24  1   
 44  23  24  1   
 45  23  43  1   
@<TRIPOS>SUBSTRUCTURE
  1 ****  13 GROUP 4 **** **** 0

# MOE 2024.06 (io_trps.svl 2023.06)
