@<TRIPOS>MOLECULE
NONAME
53 55 1 0 0 
SMALL
USER_CHARGES


@<TRIPOS>ATOM
  1 CL      -0.2100    -2.0360    -0.8430 Cl    1 <1>  -0.1770 
  2 C       -1.5470    -2.5220     0.1660 C.ar  1 <1>   0.1770 
  3 C       -1.9290    -3.8490     0.1920 C.ar  1 <1>  -0.1500 
  4 C       -2.2040    -1.5700     0.9230 C.ar  1 <1>  -0.1500 
  5 C       -2.9930    -4.2370     0.9900 C.ar  1 <1>   0.0830 
  6 C       -3.2660    -1.9570     1.7240 C.ar  1 <1>  -0.1500 
  7 O       -3.3200    -5.5520     0.9630 O.3   1 <1>  -0.3630 
  8 C       -3.6600    -3.2850     1.7590 C.ar  1 <1>  -0.1500 
  9 C       -4.4290    -6.0550     1.6930 C.3   1 <1>   0.1810 
 10 C       -4.6250    -7.5540     1.4700 C.2   1 <1>   0.5690 
 11 O       -4.6560    -8.2520     2.4560 O.2   1 <1>  -0.5700 
 12 N       -4.7950    -8.0780     0.2130 N.am  1 <1>  -0.6600 
 13 C       -5.0540    -9.5410     0.0120 C.3   1 <1>   0.3640 
 14 C       -4.8090    -7.2480    -1.0300 C.3   1 <1>   0.1400 
 15 C       -3.7580   -10.2360    -0.4480 C.ar  1 <1>  -0.1430 
 16 C       -6.2840    -9.7240    -0.9260 C.3   1 <1>   0.2000 
 17 C       -5.1880    -8.0500    -2.2880 C.3   1 <1>   0.1200 
 18 C       -2.6530   -10.1770     0.3920 C.ar  1 <1>  -0.1500 
 19 C       -3.6340   -10.9380    -1.6460 C.ar  1 <1>  -0.1500 
 20 O       -6.2950    -8.8830    -2.0680 O.3   1 <1>  -0.5600 
 21 C       -7.6000    -9.4600    -0.1810 C.3   1 <1>   0.1200 
 22 C       -1.4560   -10.7860     0.0570 C.ar  1 <1>   0.0830 
 23 C       -2.4380   -11.5410    -1.9960 C.ar  1 <1>  -0.1500 
 24 O       -7.8540   -10.4780     0.7340 O.3   1 <1>  -0.6800 
 25 O       -0.4390   -10.7090     0.9490 O.3   1 <1>  -0.3630 
 26 C       -1.3380   -11.4590    -1.1620 C.ar  1 <1>   0.0830 
 27 C       -0.1330   -11.9050     1.6280 C.3   1 <1>   0.0400 
 28 O       -0.1900   -12.0460    -1.5830 O.3   1 <1>  -0.3630 
 29 C        0.9320   -11.2070    -1.7500 C.3   1 <1>   0.0400 
 30 H       -1.4040    -4.5750    -0.4000 H     1 <1>   0.1500 
 31 H       -1.8850    -0.5440     0.8850 H     1 <1>   0.1500 
 32 H       -3.7830    -1.2230     2.3200 H     1 <1>   0.1500 
 33 H       -4.4840    -3.5550     2.3930 H     1 <1>   0.1500 
 34 H       -4.2490    -5.8750     2.7380 H     1 <1>   0.0800 
 35 H       -5.3120    -5.5300     1.3800 H     1 <1>   0.0800 
 36 H       -5.3110    -9.9900     0.9570 H     1 <1>   0.0800 
 37 H       -5.5130    -6.4430    -0.9120 H     1 <1>   0.0800 
 38 H       -3.8340    -6.8190    -1.1800 H     1 <1>   0.0800 
 39 H       -6.3180   -10.7350    -1.2850 H     1 <1>   0.0800 
 40 H       -4.3600    -8.6500    -2.6140 H     1 <1>   0.0800 
 41 H       -5.4410    -7.3770    -3.0880 H     1 <1>   0.0800 
 42 H       -2.7120    -9.6550     1.3320 H     1 <1>   0.1500 
 43 H       -4.4560   -11.0250    -2.3330 H     1 <1>   0.1500 
 44 H       -8.4250    -9.4220    -0.8710 H     1 <1>   0.0800 
 45 H       -7.5430    -8.5340     0.3640 H     1 <1>   0.0800 
 46 H       -2.3490   -12.0760    -2.9240 H     1 <1>   0.1500 
 47 H       -8.1480   -11.2930     0.2810 H     1 <1>   0.4000 
 48 H        0.6540   -11.7000     2.3310 H     1 <1>   0.0800 
 49 H        0.1910   -12.6430     0.9160 H     1 <1>   0.0800 
 50 H       -1.0130   -12.2440     2.1460 H     1 <1>   0.0800 
 51 H        1.6870   -11.7570    -2.2820 H     1 <1>   0.0800 
 52 H        1.3070   -10.9150    -0.7860 H     1 <1>   0.0800 
 53 H        0.6380   -10.3400    -2.3160 H     1 <1>   0.0800 
@<TRIPOS>BOND
  1   1   2  1   
  2   2   3  ar  
  3   2   4  ar  
  4   3   5  ar  
  5   3  30  1   
  6   4   6  ar  
  7   4  31  1   
  8   5   7  1   
  9   5   8  ar  
 10   6   8  ar  
 11   6  32  1   
 12   7   9  1   
 13   8  33  1   
 14   9  10  1   
 15   9  34  1   
 16   9  35  1   
 17  10  11  2   
 18  10  12  am  
 19  12  13  1   
 20  12  14  1   
 21  13  15  1   
 22  13  16  1   
 23  13  36  1   
 24  14  17  1   
 25  14  37  1   
 26  14  38  1   
 27  15  18  ar  
 28  15  19  ar  
 29  16  20  1   
 30  16  21  1   
 31  16  39  1   
 32  17  20  1   
 33  17  40  1   
 34  17  41  1   
 35  18  22  ar  
 36  18  42  1   
 37  19  23  ar  
 38  19  43  1   
 39  21  24  1   
 40  21  44  1   
 41  21  45  1   
 42  22  25  1   
 43  22  26  ar  
 44  23  26  ar  
 45  23  46  1   
 46  24  47  1   
 47  25  27  1   
 48  26  28  1   
 49  27  48  1   
 50  27  49  1   
 51  27  50  1   
 52  28  29  1   
 53  29  51  1   
 54  29  52  1   
 55  29  53  1   
@<TRIPOS>SUBSTRUCTURE
  1 ****  12 GROUP 4 **** **** 0

# MOE 2024.06 (io_trps.svl 2023.06)
