@<TRIPOS>MOLECULE
NONAME
53 55 1 0 0 
SMALL
USER_CHARGES


@<TRIPOS>ATOM
  1 O       -4.2370     3.2130     2.8180 O.2   1 <1>  -0.5700 
  2 C       -3.8920     3.2420     1.6630 C.2   1 <1>   0.5690 
  3 N       -4.7010     2.7270     0.6750 N.am  1 <1>  -0.6600 
  4 C       -2.4980     3.7760     1.3570 C.3   1 <1>   0.0450 
  5 C       -5.8860     1.8800     1.0230 C.3   1 <1>   0.1400 
  6 C       -4.3500     2.6340    -0.7730 C.3   1 <1>   0.1400 
  7 C       -1.6100     2.6660     0.8020 C.ar  1 <1>  -0.1440 
  8 C       -5.7340     0.4280     0.4960 C.3   1 <1>   0.4230 
  9 C       -3.9760     1.1840    -1.1600 C.3   1 <1>   0.3430 
 10 C       -0.9580     2.8080    -0.4150 C.ar  1 <1>  -0.1500 
 11 C       -1.4670     1.4860     1.5170 C.ar  1 <1>  -0.1500 
 12 N       -4.3710     0.1580    -0.1210 N.4   1 <1>  -0.9590 
 13 C       -6.8570     0.0710    -0.5020 C.3   1 <1>   0.1200 
 14 C       -0.2040     1.7690    -0.9320 C.ar  1 <1>  -0.1500 
 15 C       -0.7120     0.4480     1.0040 C.ar  1 <1>  -0.1500 
 16 C       -4.3140    -1.2640    -0.6060 C.3   1 <1>   0.4230 
 17 O       -6.7240    -1.2530    -0.9360 O.3   1 <1>  -0.5600 
 18 C       -0.0910     0.5750    -0.2270 C.ar  1 <1>   0.0830 
 19 C       -5.5030    -1.5720    -1.5490 C.3   1 <1>   0.1200 
 20 C       -2.9510    -1.5720    -1.2470 C.3   1 <1>  -0.1600 
 21 O        0.5980    -0.5010    -0.6740 O.3   1 <1>  -0.3630 
 22 C       -2.7340    -3.0720    -1.4980 C.3   1 <1>  -0.1600 
 23 C        1.4980    -0.3970    -1.7570 C.3   1 <1>   0.0400 
 24 C       -1.3180    -3.3340    -2.0170 C.3   1 <1>  -0.2400 
 25 H       -2.5770     4.5970     0.6690 H     1 <1>   0.0800 
 26 H       -2.0610     4.1540     2.2640 H     1 <1>   0.0800 
 27 H       -6.0230     1.8410     2.0900 H     1 <1>   0.0800 
 28 H       -6.7730     2.3370     0.6190 H     1 <1>   0.0800 
 29 H       -5.2030     2.9420    -1.3540 H     1 <1>   0.0800 
 30 H       -3.5490     3.3030    -1.0300 H     1 <1>   0.0800 
 31 H       -5.8630    -0.2260     1.3430 H     1 <1>   0.0800 
 32 H       -2.9090     1.1370    -1.3080 H     1 <1>   0.0800 
 33 H       -4.4400     0.9520    -2.1040 H     1 <1>   0.0800 
 34 H       -1.0280     3.7310    -0.9670 H     1 <1>   0.1500 
 35 H       -1.9350     1.3750     2.4830 H     1 <1>   0.1500 
 36 H       -3.6860     0.2720     0.6410 H     1 <1>   0.4500 
 37 H       -6.8440     0.7190    -1.3610 H     1 <1>   0.0800 
 38 H       -7.8180     0.1550    -0.0240 H     1 <1>   0.0800 
 39 H        0.2890     1.9040    -1.8770 H     1 <1>   0.1500 
 40 H       -0.5900    -0.4670     1.5580 H     1 <1>   0.1500 
 41 H       -4.4170    -1.9140     0.2480 H     1 <1>   0.0800 
 42 H       -5.5320    -2.6220    -1.7810 H     1 <1>   0.0800 
 43 H       -5.4260    -1.0240    -2.4720 H     1 <1>   0.0800 
 44 H       -2.8430    -1.0500    -2.1810 H     1 <1>   0.0800 
 45 H       -2.1770    -1.2410    -0.5790 H     1 <1>   0.0800 
 46 H       -2.8740    -3.6240    -0.5830 H     1 <1>   0.0800 
 47 H       -3.4380    -3.4420    -2.2240 H     1 <1>   0.0800 
 48 H        2.0050    -1.3390    -1.8610 H     1 <1>   0.0800 
 49 H        2.2120     0.3790    -1.5450 H     1 <1>   0.0800 
 50 H        0.9460    -0.1800    -2.6540 H     1 <1>   0.0800 
 51 H       -0.5840    -3.0120    -1.2980 H     1 <1>   0.0800 
 52 H       -1.1470    -2.8110    -2.9420 H     1 <1>   0.0800 
 53 H       -1.1780    -4.3860    -2.1930 H     1 <1>   0.0800 
@<TRIPOS>BOND
  1   1   2  2   
  2   2   3  am  
  3   2   4  1   
  4   3   5  1   
  5   3   6  1   
  6   4   7  1   
  7   4  25  1   
  8   4  26  1   
  9   5   8  1   
 10   5  27  1   
 11   5  28  1   
 12   6   9  1   
 13   6  29  1   
 14   6  30  1   
 15   7  10  ar  
 16   7  11  ar  
 17   8  12  1   
 18   8  13  1   
 19   8  31  1   
 20   9  12  1   
 21   9  32  1   
 22   9  33  1   
 23  10  14  ar  
 24  10  34  1   
 25  11  15  ar  
 26  11  35  1   
 27  12  16  1   
 28  12  36  1   
 29  13  17  1   
 30  13  37  1   
 31  13  38  1   
 32  14  18  ar  
 33  14  39  1   
 34  15  18  ar  
 35  15  40  1   
 36  16  19  1   
 37  16  20  1   
 38  16  41  1   
 39  17  19  1   
 40  18  21  1   
 41  19  42  1   
 42  19  43  1   
 43  20  22  1   
 44  20  44  1   
 45  20  45  1   
 46  21  23  1   
 47  22  24  1   
 48  22  46  1   
 49  22  47  1   
 50  23  48  1   
 51  23  49  1   
 52  23  50  1   
 53  24  51  1   
 54  24  52  1   
 55  24  53  1   
@<TRIPOS>SUBSTRUCTURE
  1 ****  12 GROUP 4 **** **** 0

# MOE 2024.06 (io_trps.svl 2023.06)
