@<TRIPOS>MOLECULE
NONAME
48 49 1 0 0 
SMALL
USER_CHARGES


@<TRIPOS>ATOM
  1 O       -1.0830     0.0190    -1.7510 O.2   1 <1>  -0.5700 
  2 C       -1.7280     0.5810    -0.8960 C.2   1 <1>   0.5690 
  3 N       -2.3510    -0.1540     0.0960 N.am  1 <1>  -0.6600 
  4 C       -1.8110     2.1120    -1.0410 C.3   1 <1>   0.2370 
  5 C       -2.2490    -1.6420     0.0780 C.3   1 <1>   0.3200 
  6 C       -3.0660     0.4090     1.2880 C.3   1 <1>   0.1400 
  7 N       -0.9180     2.8290    -0.0800 N.pl3 1 <1>   0.0480 
  8 C       -3.2490     2.6740    -1.0330 C.3   1 <1>  -0.2400 
  9 C       -3.5160    -2.2400    -0.5020 C.2   1 <1>  -0.3320 
 10 C       -4.5910     0.3060     1.1520 C.3   1 <1>   0.1200 
 11 C       -0.4750     4.1190    -0.1340 C.2   1 <1>   0.0070 
 12 C       -0.3270     2.3250     1.0270 C.2   1 <1>  -0.3020 
 13 N       -3.9910    -3.4590    -0.1810 N.pl3 1 <1>   0.0330 
 14 C       -4.3800    -1.7310    -1.4080 C.2   1 <1>   0.0770 
 15 O       -5.1860     1.0550     2.1560 O.3   1 <1>  -0.6800 
 16 N        0.2980     4.4410     0.8560 N.2   1 <1>  -0.5650 
 17 C       -0.8270     5.1140    -1.2450 C.3   1 <1>   0.1000 
 18 C        0.3950     3.3180     1.5820 C.2   1 <1>   0.0770 
 19 C       -5.1250    -3.6010    -0.9000 C.2   1 <1>   0.0060 
 20 N       -5.3940    -2.5810    -1.6450 N.2   1 <1>  -0.5650 
 21 C        0.4340     5.7970    -1.7900 C.3   1 <1>  -0.2400 
 22 C       -1.8100     6.1660    -0.7200 C.3   1 <1>  -0.2400 
 23 C       -5.9900    -4.8410    -0.8350 C.3   1 <1>  -0.0600 
 24 H       -1.4130     2.3150    -2.0190 H     1 <1>   0.0800 
 25 H       -2.1000    -1.9970     1.0820 H     1 <1>   0.0800 
 26 H       -1.4030    -1.9650    -0.5060 H     1 <1>   0.0800 
 27 H       -2.7990     1.4390     1.4270 H     1 <1>   0.0800 
 28 H       -2.7540    -0.1230     2.1700 H     1 <1>   0.0800 
 29 H       -3.6260     2.7950    -0.0350 H     1 <1>   0.0800 
 30 H       -3.9000     2.0110    -1.5750 H     1 <1>   0.0800 
 31 H       -3.2860     3.6280    -1.5230 H     1 <1>   0.0800 
 32 H       -4.9320    -0.7110     1.2390 H     1 <1>   0.0800 
 33 H       -4.9170     0.7110     0.2110 H     1 <1>   0.0800 
 34 H       -0.4290     1.3110     1.3640 H     1 <1>   0.1500 
 35 H       -3.5910    -4.1500     0.4590 H     1 <1>   0.2700 
 36 H       -4.3220    -0.7800    -1.9110 H     1 <1>   0.1500 
 37 H       -5.1500     0.5900     3.0150 H     1 <1>   0.4000 
 38 H       -1.2830     4.5980    -2.0680 H     1 <1>   0.0800 
 39 H        0.9970     3.2830     2.4750 H     1 <1>   0.1500 
 40 H        0.9140     6.3670    -1.0130 H     1 <1>   0.0800 
 41 H        0.1860     6.4560    -2.6010 H     1 <1>   0.0800 
 42 H        1.1270     5.0550    -2.1420 H     1 <1>   0.0800 
 43 H       -1.3550     6.7250     0.0800 H     1 <1>   0.0800 
 44 H       -2.6950     5.6930    -0.3370 H     1 <1>   0.0800 
 45 H       -2.0900     6.8470    -1.5030 H     1 <1>   0.0800 
 46 H       -6.3490    -4.9910     0.1660 H     1 <1>   0.0800 
 47 H       -5.4280    -5.7010    -1.1480 H     1 <1>   0.0800 
 48 H       -6.8360    -4.7270    -1.4900 H     1 <1>   0.0800 
@<TRIPOS>BOND
  1   1   2  2   
  2   2   3  am  
  3   2   4  1   
  4   3   5  1   
  5   3   6  1   
  6   4   7  1   
  7   4   8  1   
  8   4  24  1   
  9   5   9  1   
 10   5  25  1   
 11   5  26  1   
 12   6  10  1   
 13   6  27  1   
 14   6  28  1   
 15   7  11  1   
 16   7  12  1   
 17   8  29  1   
 18   8  30  1   
 19   8  31  1   
 20   9  13  1   
 21   9  14  2   
 22  10  15  1   
 23  10  32  1   
 24  10  33  1   
 25  11  16  2   
 26  11  17  1   
 27  12  18  2   
 28  12  34  1   
 29  13  19  1   
 30  13  35  1   
 31  14  20  1   
 32  14  36  1   
 33  15  37  1   
 34  16  18  1   
 35  17  21  1   
 36  17  22  1   
 37  17  38  1   
 38  18  39  1   
 39  19  20  2   
 40  19  23  1   
 41  21  40  1   
 42  21  41  1   
 43  21  42  1   
 44  22  43  1   
 45  22  44  1   
 46  22  45  1   
 47  23  46  1   
 48  23  47  1   
 49  23  48  1   
@<TRIPOS>SUBSTRUCTURE
  1 ****   2 GROUP 4 **** **** 0

# MOE 2024.06 (io_trps.svl 2023.06)
