@<TRIPOS>MOLECULE
NONAME
55 58 1 0 0 
SMALL
USER_CHARGES


@<TRIPOS>ATOM
  1 O        2.8000     1.6700    -0.7200 O.3   1 <1>  -0.0190 
  2 N        3.4420     0.7290    -0.0970 N.2   1 <1>  -0.4100 
  3 C        1.6510     1.9320    -0.1550 C.2   1 <1>  -0.0400 
  4 C        2.6850     0.3600     0.8730 C.2   1 <1>   0.1080 
  5 C        1.5100     1.1060     0.8920 C.2   1 <1>  -0.1500 
  6 C        0.7690     3.0340    -0.7080 C.3   1 <1>   0.0200 
  7 C        3.0340    -0.7380     1.8550 C.3   1 <1>  -0.0590 
  8 C        1.6030     4.3010    -0.9820 C.3   1 <1>  -0.0800 
  9 C        0.8070     5.5620    -1.3040 C.3   1 <1>   0.2000 
 10 C        2.4900     4.7090     0.1980 C.3   1 <1>   0.3430 
 11 O       -0.2150     5.6970    -0.3560 O.3   1 <1>  -0.5600 
 12 C        1.8480     6.6560    -1.0570 C.3   1 <1>   0.3430 
 13 N        2.6270     6.1960     0.1360 N.4   1 <1>  -0.9590 
 14 C       -1.3150     6.4460    -0.7770 C.3   1 <1>   0.0400 
 15 C        2.1120     6.8340     1.3760 C.3   1 <1>   0.5240 
 16 C        2.4350     8.3140     1.3370 C.2   1 <1>  -0.1810 
 17 C        3.5380     8.9460     0.8480 C.2   1 <1>  -0.2050 
 18 C        1.6120     9.3240     1.8110 C.2   1 <1>   0.1390 
 19 N        3.3200    10.2670     1.0540 N.pl3 1 <1>   0.3000 
 20 C        4.7090     8.4000     0.2220 C.ar  1 <1>   0.0530 
 21 N        2.1310    10.4980     1.6380 N.2   1 <1>  -0.7070 
 22 C        4.9800     8.6450    -1.1200 C.ar  1 <1>  -0.1500 
 23 C        5.5700     7.5650     0.9290 C.ar  1 <1>  -0.1500 
 24 C        6.0600     8.0510    -1.7430 C.ar  1 <1>  -0.1500 
 25 C        6.6530     6.9680     0.3100 C.ar  1 <1>  -0.1500 
 26 C        6.8990     7.2030    -1.0390 C.ar  1 <1>   0.0820 
 27 O        7.9260     6.6520    -1.7280 O.3   1 <1>  -0.3620 
 28 C        8.8990     5.8510    -1.0930 C.3   1 <1>   0.0400 
 29 H        0.7060     1.0090     1.5990 H     1 <1>   0.1500 
 30 H        0.3140     2.6970    -1.6230 H     1 <1>   0.0800 
 31 H       -0.0170     3.2300     0.0000 H     1 <1>   0.0800 
 32 H        3.0370    -0.3490     2.8560 H     1 <1>   0.0800 
 33 H        4.0080    -1.1350     1.6320 H     1 <1>   0.0800 
 34 H        2.3130    -1.5320     1.7840 H     1 <1>   0.0800 
 35 H        2.2560     4.0950    -1.8130 H     1 <1>   0.0800 
 36 H        0.4010     5.5620    -2.3020 H     1 <1>   0.0800 
 37 H        3.4500     4.2210     0.1350 H     1 <1>   0.0800 
 38 H        2.0100     4.4190     1.1190 H     1 <1>   0.0800 
 39 H        1.3860     7.6170    -0.9020 H     1 <1>   0.0800 
 40 H        2.5050     6.7140    -1.9090 H     1 <1>   0.0800 
 41 H        3.6130     6.4840     0.0340 H     1 <1>   0.4500 
 42 H       -2.0220     6.4920     0.0340 H     1 <1>   0.0800 
 43 H       -1.7760     5.9610    -1.6220 H     1 <1>   0.0800 
 44 H       -1.0010     7.4420    -1.0380 H     1 <1>   0.0800 
 45 H        1.0460     6.6900     1.4490 H     1 <1>   0.0800 
 46 H        2.5790     6.3930     2.2410 H     1 <1>   0.0800 
 47 H        0.6460     9.1810     2.2720 H     1 <1>   0.1500 
 48 H        3.9710    11.0270     0.8130 H     1 <1>   0.2700 
 49 H        4.3400     9.3020    -1.6830 H     1 <1>   0.1500 
 50 H        5.3930     7.3880     1.9760 H     1 <1>   0.1500 
 51 H        6.2680     8.2390    -2.7820 H     1 <1>   0.1500 
 52 H        7.2970     6.3290     0.8870 H     1 <1>   0.1500 
 53 H        9.6260     5.5610    -1.8320 H     1 <1>   0.0800 
 54 H        8.4240     4.9760    -0.6870 H     1 <1>   0.0800 
 55 H        9.3770     6.4270    -0.3200 H     1 <1>   0.0800 
@<TRIPOS>BOND
  1   1   2  1   
  2   1   3  1   
  3   2   4  2   
  4   3   5  2   
  5   3   6  1   
  6   4   5  1   
  7   4   7  1   
  8   5  29  1   
  9   6   8  1   
 10   6  30  1   
 11   6  31  1   
 12   7  32  1   
 13   7  33  1   
 14   7  34  1   
 15   8   9  1   
 16   8  10  1   
 17   8  35  1   
 18   9  11  1   
 19   9  12  1   
 20   9  36  1   
 21  10  13  1   
 22  10  37  1   
 23  10  38  1   
 24  11  14  1   
 25  12  13  1   
 26  12  39  1   
 27  12  40  1   
 28  13  15  1   
 29  13  41  1   
 30  14  42  1   
 31  14  43  1   
 32  14  44  1   
 33  15  16  1   
 34  15  45  1   
 35  15  46  1   
 36  16  17  2   
 37  16  18  1   
 38  17  19  1   
 39  17  20  1   
 40  18  21  2   
 41  18  47  1   
 42  19  21  1   
 43  19  48  1   
 44  20  22  ar  
 45  20  23  ar  
 46  22  24  ar  
 47  22  49  1   
 48  23  25  ar  
 49  23  50  1   
 50  24  26  ar  
 51  24  51  1   
 52  25  26  ar  
 53  25  52  1   
 54  26  27  1   
 55  27  28  1   
 56  28  53  1   
 57  28  54  1   
 58  28  55  1   
@<TRIPOS>SUBSTRUCTURE
  1 ****  13 GROUP 4 **** **** 0

# MOE 2024.06 (io_trps.svl 2023.06)
