@<TRIPOS>MOLECULE
NONAME
49 52 1 0 0 
SMALL
USER_CHARGES


@<TRIPOS>ATOM
  1 O       -0.6440     0.5960     1.2820 O.2   1 <1>  -0.5700 
  2 C       -1.5770     1.2970     0.9150 C.2   1 <1>   0.7160 
  3 N       -2.8270     0.6880     0.7700 N.am  1 <1>  -0.6600 
  4 C       -1.3490     2.7340     0.6800 C.2   1 <1>   0.4300 
  5 C       -3.9650     1.4040     0.1190 C.3   1 <1>   0.2200 
  6 C       -3.0620    -0.6990     1.2830 C.3   1 <1>   0.0600 
  7 N       -0.9090     3.5660     1.6080 N.2   1 <1>  -0.7070 
  8 N       -1.5970     3.3210    -0.5170 N.2   1 <1>  -0.5650 
  9 C       -4.6640     2.3560     1.0850 C.3   1 <1>  -0.1600 
 10 C       -5.1090     0.5410    -0.4200 C.3   1 <1>  -0.1600 
 11 N       -0.8540     4.7190     0.9730 N.pl3 1 <1>   0.6010 
 12 C       -1.2900     4.5530    -0.3040 C.2   1 <1>   0.3120 
 13 C       -5.9880     2.6850     0.3850 C.3   1 <1>  -0.0800 
 14 C       -6.2580     1.5420    -0.6010 C.3   1 <1>  -0.0800 
 15 C       -0.4760     5.9670     1.4190 C.2   1 <1>  -0.1810 
 16 N       -1.3960     5.5850    -1.2070 N.2   1 <1>  -0.5760 
 17 C       -7.2210     2.7530     1.2950 C.3   1 <1>  -0.1600 
 18 C       -7.6610     1.0170    -0.2590 C.3   1 <1>  -0.1600 
 19 C       -0.5650     6.9980     0.5380 C.2   1 <1>  -0.1360 
 20 C       -1.0380     6.7520    -0.7830 C.2   1 <1>   0.3760 
 21 C       -8.3660     2.1750     0.4570 C.3   1 <1>   0.4230 
 22 N       -8.8620     3.1880    -0.5310 N.4   1 <1>  -0.9590 
 23 C       -9.4430     4.4030     0.1280 C.3   1 <1>   0.2630 
 24 C       -9.8820     2.6300    -1.4770 C.3   1 <1>   0.2630 
 25 H       -3.5970     1.9670    -0.7200 H     1 <1>   0.0800 
 26 H       -3.9090    -0.7070     1.9440 H     1 <1>   0.0800 
 27 H       -2.2120    -1.0640     1.8340 H     1 <1>   0.0800 
 28 H       -3.2390    -1.3670     0.4580 H     1 <1>   0.0800 
 29 H       -4.8320     1.8490     2.0180 H     1 <1>   0.0800 
 30 H       -4.0830     3.2440     1.2590 H     1 <1>   0.0800 
 31 H       -4.8400     0.0710    -1.3500 H     1 <1>   0.0800 
 32 H       -5.3950    -0.2060     0.2960 H     1 <1>   0.0800 
 33 H       -5.8790     3.6040    -0.1690 H     1 <1>   0.0800 
 34 H       -6.2370     1.9350    -1.6050 H     1 <1>   0.0800 
 35 H       -0.1360     6.0350     2.4360 H     1 <1>   0.1500 
 36 H       -7.3920     3.7390     1.6820 H     1 <1>   0.0800 
 37 H       -7.0780     2.0990     2.1380 H     1 <1>   0.0800 
 38 H       -7.5790     0.2090     0.4490 H     1 <1>   0.0800 
 39 H       -8.1750     0.6330    -1.1190 H     1 <1>   0.0800 
 40 H       -0.2900     8.0050     0.7990 H     1 <1>   0.1500 
 41 H       -1.0980     7.5910    -1.4540 H     1 <1>   0.0600 
 42 H       -9.1750     1.8240     1.0780 H     1 <1>   0.0800 
 43 H       -8.0360     3.4770    -1.0750 H     1 <1>   0.4500 
 44 H      -10.2540     4.1240     0.7810 H     1 <1>   0.0800 
 45 H       -9.8200     5.0860    -0.6160 H     1 <1>   0.0800 
 46 H       -8.6950     4.9200     0.7060 H     1 <1>   0.0800 
 47 H      -10.7210     2.2310    -0.9300 H     1 <1>   0.0800 
 48 H       -9.4570     1.8460    -2.0800 H     1 <1>   0.0800 
 49 H      -10.2380     3.4030    -2.1380 H     1 <1>   0.0800 
@<TRIPOS>BOND
  1   1   2  2   
  2   2   3  am  
  3   2   4  1   
  4   3   5  1   
  5   3   6  1   
  6   4   7  2   
  7   4   8  1   
  8   5   9  1   
  9   5  10  1   
 10   5  25  1   
 11   6  26  1   
 12   6  27  1   
 13   6  28  1   
 14   7  11  1   
 15   8  12  2   
 16   9  13  1   
 17   9  29  1   
 18   9  30  1   
 19  10  14  1   
 20  10  31  1   
 21  10  32  1   
 22  11  12  1   
 23  11  15  1   
 24  12  16  1   
 25  13  14  1   
 26  13  17  1   
 27  13  33  1   
 28  14  18  1   
 29  14  34  1   
 30  15  19  2   
 31  15  35  1   
 32  16  20  2   
 33  17  21  1   
 34  17  36  1   
 35  17  37  1   
 36  18  21  1   
 37  18  38  1   
 38  18  39  1   
 39  19  20  1   
 40  19  40  1   
 41  20  41  1   
 42  21  22  1   
 43  21  42  1   
 44  22  23  1   
 45  22  24  1   
 46  22  43  1   
 47  23  44  1   
 48  23  45  1   
 49  23  46  1   
 50  24  47  1   
 51  24  48  1   
 52  24  49  1   
@<TRIPOS>SUBSTRUCTURE
  1 ****   9 GROUP 4 **** **** 0

# MOE 2024.06 (io_trps.svl 2023.06)
