@<TRIPOS>MOLECULE
NONAME
47 50 1 0 0 
SMALL
USER_CHARGES


@<TRIPOS>ATOM
  1 CL      -0.6930    -0.6790     0.4550 Cl    1 <1>  -0.1770 
  2 C        0.0440    -2.2250     0.1130 C.ar  1 <1>   0.1770 
  3 C       -0.5160    -3.3720     0.6420 C.ar  1 <1>  -0.1500 
  4 C        1.1700    -2.2770    -0.6830 C.ar  1 <1>  -0.1500 
  5 C        0.0510    -4.6140     0.3850 C.ar  1 <1>  -0.1440 
  6 C        1.7450    -3.5070    -0.9420 C.ar  1 <1>  -0.1500 
  7 C        1.2040    -4.6700    -0.4100 C.ar  1 <1>   0.0830 
  8 C       -0.6500    -5.8350     0.9760 C.3   1 <1>   0.2540 
  9 O        1.8690    -5.8090    -0.7200 O.3   1 <1>  -0.3630 
 10 N       -0.6940    -6.9350    -0.0010 N.3   1 <1>  -0.8100 
 11 C        1.8460    -6.9100     0.1600 C.3   1 <1>   0.1200 
 12 C        0.5550    -7.7320     0.0040 C.3   1 <1>   0.1100 
 13 C       -1.8850    -7.7840     0.1690 C.3   1 <1>   0.1100 
 14 C       -2.1410    -8.6120    -1.0940 C.3   1 <1>   0.0960 
 15 N       -3.3760    -9.4060    -0.9360 N.pl3 1 <1>   0.0480 
 16 C       -3.5360   -10.5630    -0.2450 C.2   1 <1>  -0.2370 
 17 C       -4.5970    -9.1430    -1.4520 C.2   1 <1>   0.0370 
 18 C       -2.6540   -11.3640     0.5210 C.2   1 <1>   0.7150 
 19 C       -4.8330   -10.9040    -0.4000 C.2   1 <1>   0.2900 
 20 N       -5.5040   -10.0210    -1.1510 N.2   1 <1>  -0.5650 
 21 O       -1.4910   -11.0360     0.6950 O.2   1 <1>  -0.5700 
 22 N       -3.1580   -12.5270     1.0770 N.am  1 <1>  -0.4200 
 23 N       -5.3430   -12.0570     0.1830 N.am  1 <1>  -0.4230 
 24 C       -4.5000   -12.8630     0.9260 C.2   1 <1>   0.6900 
 25 C       -2.2730   -13.4230     1.8790 C.3   1 <1>   0.0600 
 26 C       -6.7820   -12.3720    -0.0190 C.3   1 <1>   0.0600 
 27 O       -4.9280   -13.8740     1.4580 O.2   1 <1>  -0.5700 
 28 H       -1.3990    -3.2790     1.2480 H     1 <1>   0.1500 
 29 H        1.5860    -1.3730    -1.0890 H     1 <1>   0.1500 
 30 H        2.6230    -3.5760    -1.5590 H     1 <1>   0.1500 
 31 H       -1.6550    -5.5490     1.2340 H     1 <1>   0.0800 
 32 H       -0.1630    -6.1510     1.8830 H     1 <1>   0.0800 
 33 H        1.9670    -6.5480     1.1650 H     1 <1>   0.0800 
 34 H        2.6930    -7.5260    -0.0780 H     1 <1>   0.0800 
 35 H        0.6240    -8.2770    -0.9210 H     1 <1>   0.0800 
 36 H        0.5220    -8.4540     0.8020 H     1 <1>   0.0800 
 37 H       -2.7460    -7.1580     0.3310 H     1 <1>   0.0800 
 38 H       -1.7600    -8.4270     1.0240 H     1 <1>   0.0800 
 39 H       -1.3260    -9.2870    -1.2750 H     1 <1>   0.0800 
 40 H       -2.2500    -7.9570    -1.9380 H     1 <1>   0.0800 
 41 H       -4.7840    -8.2740    -2.0590 H     1 <1>   0.1500 
 42 H       -1.2360   -13.2410     1.6580 H     1 <1>   0.0800 
 43 H       -2.4920   -14.4520     1.6520 H     1 <1>   0.0800 
 44 H       -2.4470   -13.2520     2.9260 H     1 <1>   0.0800 
 45 H       -7.3810   -11.5840     0.4020 H     1 <1>   0.0800 
 46 H       -7.0470   -13.3030     0.4510 H     1 <1>   0.0800 
 47 H       -6.9870   -12.4410    -1.0730 H     1 <1>   0.0800 
@<TRIPOS>BOND
  1   1   2  1   
  2   2   3  ar  
  3   2   4  ar  
  4   3   5  ar  
  5   3  28  1   
  6   4   6  ar  
  7   4  29  1   
  8   5   7  ar  
  9   5   8  1   
 10   6   7  ar  
 11   6  30  1   
 12   7   9  1   
 13   8  10  1   
 14   8  31  1   
 15   8  32  1   
 16   9  11  1   
 17  10  12  1   
 18  10  13  1   
 19  11  12  1   
 20  11  33  1   
 21  11  34  1   
 22  12  35  1   
 23  12  36  1   
 24  13  14  1   
 25  13  37  1   
 26  13  38  1   
 27  14  15  1   
 28  14  39  1   
 29  14  40  1   
 30  15  16  1   
 31  15  17  1   
 32  16  18  1   
 33  16  19  2   
 34  17  20  2   
 35  17  41  1   
 36  18  21  2   
 37  18  22  am  
 38  19  20  1   
 39  19  23  1   
 40  22  24  am  
 41  22  25  1   
 42  23  24  am  
 43  23  26  1   
 44  24  27  2   
 45  25  42  1   
 46  25  43  1   
 47  25  44  1   
 48  26  45  1   
 49  26  46  1   
 50  26  47  1   
@<TRIPOS>SUBSTRUCTURE
  1 ****  13 GROUP 4 **** **** 0

# MOE 2024.06 (io_trps.svl 2023.06)
