@<TRIPOS>MOLECULE
NONAME
50 52 1 0 0 
SMALL
USER_CHARGES


@<TRIPOS>ATOM
  1 S       -1.1260     0.1850     0.1760 S.3   1 <1>  -0.4600 
  2 C       -2.0660     1.3070    -0.8670 C.3   1 <1>   0.0700 
  3 C        0.5610     0.7380    -0.1090 C.3   1 <1>   0.0700 
  4 C       -1.7680     2.7290    -0.3910 C.3   1 <1>  -0.1600 
  5 C        0.6430     2.2130     0.2920 C.3   1 <1>  -0.1600 
  6 C       -0.2840     3.1320    -0.5360 C.3   1 <1>   0.4230 
  7 N       -0.1430     4.5740    -0.1190 N.4   1 <1>  -0.9590 
  8 C       -0.8030     5.5030    -1.0960 C.3   1 <1>   0.3430 
  9 C        1.2680     5.0200     0.1370 C.3   1 <1>   0.3430 
 10 C       -0.8230     6.9290    -0.5540 C.3   1 <1>  -0.1600 
 11 C        1.2840     6.4330     0.6980 C.3   1 <1>  -0.1600 
 12 C        0.5950     7.3970    -0.2580 C.3   1 <1>   0.2890 
 13 N        0.5390     8.7100     0.3800 N.pl3 1 <1>  -0.8690 
 14 C        1.4560     9.6880     0.0170 C.ar  1 <1>   0.4100 
 15 N        2.6950     9.2910    -0.2090 N.ar  1 <1>  -0.6200 
 16 C        1.0180    11.0460    -0.1050 C.ar  1 <1>   0.4100 
 17 C        3.4850    10.3070    -0.5420 C.ar  1 <1>   0.1600 
 18 N        1.8240    12.0350    -0.4460 N.ar  1 <1>  -0.6200 
 19 N       -0.3210    11.3830     0.1470 N.pl3 1 <1>  -0.8380 
 20 C        3.0670    11.6210    -0.6560 C.ar  1 <1>   0.1600 
 21 C       -0.6030    11.7100     1.5690 C.3   1 <1>   0.1290 
 22 C       -0.9490    12.3510    -0.7950 C.3   1 <1>   0.1290 
 23 H       -3.1050     1.0530    -0.7440 H     1 <1>   0.0800 
 24 H       -1.7650     1.1360    -1.8870 H     1 <1>   0.0800 
 25 H        0.7860     0.5780    -1.1490 H     1 <1>   0.0800 
 26 H        1.2000     0.1230     0.5020 H     1 <1>   0.0800 
 27 H       -2.0690     2.8080     0.6390 H     1 <1>   0.0800 
 28 H       -2.3990     3.3720    -0.9730 H     1 <1>   0.0800 
 29 H        1.6710     2.4860     0.1470 H     1 <1>   0.0800 
 30 H        0.4070     2.2950     1.3380 H     1 <1>   0.0800 
 31 H       -0.0020     3.0400    -1.5730 H     1 <1>   0.0800 
 32 H       -0.6400     4.6640     0.7770 H     1 <1>   0.4500 
 33 H       -1.8190     5.2000    -1.2840 H     1 <1>   0.0800 
 34 H       -0.2690     5.4840    -2.0330 H     1 <1>   0.0800 
 35 H        1.8370     4.9880    -0.7790 H     1 <1>   0.0800 
 36 H        1.7430     4.3720     0.8550 H     1 <1>   0.0800 
 37 H       -1.4260     6.9680     0.3360 H     1 <1>   0.0800 
 38 H       -1.2610     7.5780    -1.2910 H     1 <1>   0.0800 
 39 H        2.3050     6.7440     0.8330 H     1 <1>   0.0800 
 40 H        0.8030     6.4520     1.6600 H     1 <1>   0.0800 
 41 H        1.1540     7.4620    -1.1790 H     1 <1>   0.0800 
 42 H       -0.3910     9.1510     0.3720 H     1 <1>   0.4000 
 43 H        4.5180    10.0750    -0.7340 H     1 <1>   0.1500 
 44 H        3.7860    12.3720    -0.9330 H     1 <1>   0.1500 
 45 H       -0.1280    10.9910     2.2150 H     1 <1>   0.0800 
 46 H       -1.6640    11.6920     1.7490 H     1 <1>   0.0800 
 47 H       -0.2200    12.6890     1.8020 H     1 <1>   0.0800 
 48 H       -0.6540    12.1220    -1.8050 H     1 <1>   0.0800 
 49 H       -0.6300    13.3530    -0.5630 H     1 <1>   0.0800 
 50 H       -2.0210    12.2920    -0.7240 H     1 <1>   0.0800 
@<TRIPOS>BOND
  1   1   2  1   
  2   1   3  1   
  3   2   4  1   
  4   2  23  1   
  5   2  24  1   
  6   3   5  1   
  7   3  25  1   
  8   3  26  1   
  9   4   6  1   
 10   4  27  1   
 11   4  28  1   
 12   5   6  1   
 13   5  29  1   
 14   5  30  1   
 15   6   7  1   
 16   6  31  1   
 17   7   8  1   
 18   7   9  1   
 19   7  32  1   
 20   8  10  1   
 21   8  33  1   
 22   8  34  1   
 23   9  11  1   
 24   9  35  1   
 25   9  36  1   
 26  10  12  1   
 27  10  37  1   
 28  10  38  1   
 29  11  12  1   
 30  11  39  1   
 31  11  40  1   
 32  12  13  1   
 33  12  41  1   
 34  13  14  1   
 35  13  42  1   
 36  14  15  ar  
 37  14  16  ar  
 38  15  17  ar  
 39  16  18  ar  
 40  16  19  1   
 41  17  20  ar  
 42  17  43  1   
 43  18  20  ar  
 44  19  21  1   
 45  19  22  1   
 46  20  44  1   
 47  21  45  1   
 48  21  46  1   
 49  21  47  1   
 50  22  48  1   
 51  22  49  1   
 52  22  50  1   
@<TRIPOS>SUBSTRUCTURE
  1 ****  12 GROUP 4 **** **** 0

# MOE 2024.06 (io_trps.svl 2023.06)
