@<TRIPOS>MOLECULE
NONAME
57 60 1 0 0 
SMALL
USER_CHARGES


@<TRIPOS>ATOM
  1 O       -0.7020     0.8280    -0.8680 O.2   1 <1>  -0.5700 
  2 C       -0.5060     1.9610    -0.5080 C.2   1 <1>   0.5690 
  3 N       -1.4570     2.6480     0.1590 N.am  1 <1>  -0.7300 
  4 C        0.8190     2.6530    -0.8400 C.3   1 <1>   0.1810 
  5 C       -1.2910     4.0430     0.6310 C.3   1 <1>   0.3640 
  6 O        1.0620     3.8010    -0.0550 O.3   1 <1>  -0.5600 
  7 C       -2.5420     4.8360     0.2560 C.ar  1 <1>  -0.1440 
  8 C       -0.0260     4.7130     0.0290 C.3   1 <1>   0.2610 
  9 C       -3.1200     4.7230    -1.0030 C.ar  1 <1>  -0.1500 
 10 C       -3.1130     5.6990     1.1810 C.ar  1 <1>  -0.1500 
 11 C        0.3880     5.9730     0.8140 C.2   1 <1>   0.5690 
 12 C       -4.2460     5.4590    -1.3290 C.ar  1 <1>  -0.1500 
 13 C       -4.2380     6.4360     0.8560 C.ar  1 <1>  -0.1500 
 14 O       -0.0500     6.1280     1.9330 O.2   1 <1>  -0.5700 
 15 N        1.2430     6.9090     0.2650 N.am  1 <1>  -0.6600 
 16 C       -4.8060     6.3160    -0.4000 C.ar  1 <1>  -0.1500 
 17 C        1.6400     8.1150     1.0390 C.3   1 <1>   0.1400 
 18 C        1.9980     6.7140    -1.0010 C.3   1 <1>   0.1400 
 19 C        3.1320     8.0220     1.3750 C.3   1 <1>  -0.1600 
 20 C        3.4940     6.6250    -0.6800 C.3   1 <1>  -0.1600 
 21 C        4.0210     7.8390     0.1190 C.3   1 <1>   0.0000 
 22 C        3.9820     9.1000    -0.7760 C.3   1 <1>   0.3430 
 23 C        5.4840     7.5570     0.5300 C.3   1 <1>  -0.1600 
 24 N        4.6260    10.2750    -0.1080 N.4   1 <1>  -0.9590 
 25 C        6.1800     8.7950     1.1180 C.3   1 <1>  -0.1600 
 26 C        6.0620    10.0090     0.1950 C.3   1 <1>   0.3430 
 27 C        4.4730    11.5120    -0.9310 C.3   1 <1>   0.2630 
 28 H       -2.3440     2.1890     0.3730 H     1 <1>   0.3700 
 29 H        0.8180     2.9430    -1.8750 H     1 <1>   0.0800 
 30 H        1.6280     1.9660    -0.6730 H     1 <1>   0.0800 
 31 H       -1.1980     4.0110     1.7040 H     1 <1>   0.0800 
 32 H       -0.2650     5.0190    -0.9720 H     1 <1>   0.0800 
 33 H       -2.7020     4.0580    -1.7400 H     1 <1>   0.1500 
 34 H       -2.6810     5.8090     2.1620 H     1 <1>   0.1500 
 35 H       -4.6880     5.3630    -2.3060 H     1 <1>   0.1500 
 36 H       -4.6710     7.1030     1.5810 H     1 <1>   0.1500 
 37 H       -5.6810     6.8890    -0.6520 H     1 <1>   0.1500 
 38 H        1.4260     8.9940     0.4570 H     1 <1>   0.0800 
 39 H        1.0730     8.1900     1.9520 H     1 <1>   0.0800 
 40 H        1.6960     5.8140    -1.5050 H     1 <1>   0.0800 
 41 H        1.7960     7.5390    -1.6620 H     1 <1>   0.0800 
 42 H        3.4130     8.8940     1.9350 H     1 <1>   0.0800 
 43 H        3.2610     7.1780     2.0310 H     1 <1>   0.0800 
 44 H        3.6500     5.7240    -0.1090 H     1 <1>   0.0800 
 45 H        4.0430     6.5130    -1.5990 H     1 <1>   0.0800 
 46 H        2.9580     9.3320    -1.0160 H     1 <1>   0.0800 
 47 H        4.4990     8.8880    -1.6980 H     1 <1>   0.0800 
 48 H        5.5190     6.7510     1.2450 H     1 <1>   0.0800 
 49 H        6.0410     7.2350    -0.3340 H     1 <1>   0.0800 
 50 H        4.1490    10.4150     0.7930 H     1 <1>   0.4500 
 51 H        7.2220     8.5740     1.2680 H     1 <1>   0.0800 
 52 H        5.7700     9.0350     2.0840 H     1 <1>   0.0800 
 53 H        6.5980     9.8160    -0.7210 H     1 <1>   0.0800 
 54 H        6.5060    10.8680     0.6730 H     1 <1>   0.0800 
 55 H        4.9680    11.3940    -1.8820 H     1 <1>   0.0800 
 56 H        4.9060    12.3570    -0.4210 H     1 <1>   0.0800 
 57 H        3.4300    11.7180    -1.1090 H     1 <1>   0.0800 
@<TRIPOS>BOND
  1   1   2  2   
  2   2   3  am  
  3   2   4  1   
  4   3   5  1   
  5   3  28  1   
  6   4   6  1   
  7   4  29  1   
  8   4  30  1   
  9   5   7  1   
 10   5   8  1   
 11   5  31  1   
 12   6   8  1   
 13   7   9  ar  
 14   7  10  ar  
 15   8  11  1   
 16   8  32  1   
 17   9  12  ar  
 18   9  33  1   
 19  10  13  ar  
 20  10  34  1   
 21  11  14  2   
 22  11  15  am  
 23  12  16  ar  
 24  12  35  1   
 25  13  16  ar  
 26  13  36  1   
 27  15  17  1   
 28  15  18  1   
 29  16  37  1   
 30  17  19  1   
 31  17  38  1   
 32  17  39  1   
 33  18  20  1   
 34  18  40  1   
 35  18  41  1   
 36  19  21  1   
 37  19  42  1   
 38  19  43  1   
 39  20  21  1   
 40  20  44  1   
 41  20  45  1   
 42  21  22  1   
 43  21  23  1   
 44  22  24  1   
 45  22  46  1   
 46  22  47  1   
 47  23  25  1   
 48  23  48  1   
 49  23  49  1   
 50  24  26  1   
 51  24  27  1   
 52  24  50  1   
 53  25  26  1   
 54  25  51  1   
 55  25  52  1   
 56  26  53  1   
 57  26  54  1   
 58  27  55  1   
 59  27  56  1   
 60  27  57  1   
@<TRIPOS>SUBSTRUCTURE
  1 ****  15 GROUP 4 **** **** 0

# MOE 2024.06 (io_trps.svl 2023.06)
