@<TRIPOS>MOLECULE
NONAME
52 55 1 0 0 
SMALL
USER_CHARGES


@<TRIPOS>ATOM
  1 O        2.5870     1.9090     0.1560 O.3   1 <1>  -0.0190 
  2 N        2.9920     0.8700    -0.5070 N.2   1 <1>  -0.4100 
  3 C        1.3410     1.7960     0.5300 C.2   1 <1>  -0.0400 
  4 C        1.9950     0.0590    -0.5430 C.2   1 <1>   0.1080 
  5 C        0.8930     0.6030     0.1120 C.2   1 <1>  -0.1500 
  6 C        0.6810     2.9280     1.2940 C.3   1 <1>   0.0200 
  7 C        2.0260    -1.2990    -1.2090 C.3   1 <1>  -0.0590 
  8 C        0.5150     4.1680     0.3910 C.3   1 <1>  -0.0800 
  9 C       -0.0670     5.4090     1.0660 C.3   1 <1>   0.2000 
 10 C        1.8190     4.6730    -0.2330 C.3   1 <1>   0.3430 
 11 O        0.5150     5.6040     2.3140 O.3   1 <1>  -0.6800 
 12 C        0.3420     6.5570     0.1370 C.3   1 <1>   0.3430 
 13 N        1.5930     6.1100    -0.5690 N.4   1 <1>  -0.9590 
 14 C        2.7630     6.9710    -0.2560 C.3   1 <1>   0.5240 
 15 C        2.4980     8.3380    -0.8400 C.2   1 <1>  -0.1810 
 16 C        2.7180     8.7210    -2.1570 C.2   1 <1>   0.1390 
 17 C        2.0070     9.4470    -0.2460 C.2   1 <1>  -0.3020 
 18 N        2.3780     9.9490    -2.3670 N.2   1 <1>  -0.7070 
 19 N        1.9500    10.4400    -1.1720 N.pl3 1 <1>   0.5930 
 20 C        1.4210    11.7530    -1.0100 C.ar  1 <1>  -0.0230 
 21 C        1.7120    12.5280     0.1180 C.ar  1 <1>   0.0820 
 22 C        0.5920    12.2850    -1.9940 C.ar  1 <1>  -0.1500 
 23 O        2.5460    12.0060     1.0600 O.3   1 <1>  -0.3630 
 24 C        1.1570    13.7990     0.2450 C.ar  1 <1>  -0.1500 
 25 C        0.0490    13.5490    -1.8620 C.ar  1 <1>  -0.1500 
 26 C        3.0830    12.8030     2.0950 C.3   1 <1>   0.0400 
 27 C        0.3290    14.3060    -0.7400 C.ar  1 <1>  -0.1500 
 28 H       -0.0700     0.1400     0.2290 H     1 <1>   0.1500 
 29 H       -0.2850     2.6040     1.6410 H     1 <1>   0.0800 
 30 H        1.2820     3.1460     2.1590 H     1 <1>   0.0800 
 31 H        1.2800    -1.3470    -1.9810 H     1 <1>   0.0800 
 32 H        1.8330    -2.0670    -0.4820 H     1 <1>   0.0800 
 33 H        2.9920    -1.4730    -1.6480 H     1 <1>   0.0800 
 34 H       -0.1370     3.8940    -0.4210 H     1 <1>   0.0800 
 35 H       -1.1350     5.3600     1.2020 H     1 <1>   0.0800 
 36 H        2.0800     4.0950    -1.1070 H     1 <1>   0.0800 
 37 H        2.6140     4.5820     0.4900 H     1 <1>   0.0800 
 38 H        1.4730     5.4230     2.3300 H     1 <1>   0.4000 
 39 H        0.4880     7.4660     0.6980 H     1 <1>   0.0800 
 40 H       -0.4370     6.7180    -0.5890 H     1 <1>   0.0800 
 41 H        1.4260     6.2020    -1.5800 H     1 <1>   0.4500 
 42 H        2.8960     7.0500     0.8110 H     1 <1>   0.0800 
 43 H        3.6610     6.5620    -0.6890 H     1 <1>   0.0800 
 44 H        3.1190     8.0900    -2.9350 H     1 <1>   0.1500 
 45 H        1.6960     9.6190     0.7690 H     1 <1>   0.1500 
 46 H        0.3740    11.7060    -2.8760 H     1 <1>   0.1500 
 47 H        1.3540    14.4130     1.1030 H     1 <1>   0.1500 
 48 H       -0.5900    13.9440    -2.6340 H     1 <1>   0.1500 
 49 H        3.7870    12.2060     2.6460 H     1 <1>   0.0800 
 50 H        2.2860    13.1190     2.7440 H     1 <1>   0.0800 
 51 H        3.5850    13.6490     1.6600 H     1 <1>   0.0800 
 52 H       -0.0960    15.2900    -0.6360 H     1 <1>   0.1500 
@<TRIPOS>BOND
  1   1   2  1   
  2   1   3  1   
  3   2   4  2   
  4   3   5  2   
  5   3   6  1   
  6   4   5  1   
  7   4   7  1   
  8   5  28  1   
  9   6   8  1   
 10   6  29  1   
 11   6  30  1   
 12   7  31  1   
 13   7  32  1   
 14   7  33  1   
 15   8   9  1   
 16   8  10  1   
 17   8  34  1   
 18   9  11  1   
 19   9  12  1   
 20   9  35  1   
 21  10  13  1   
 22  10  36  1   
 23  10  37  1   
 24  11  38  1   
 25  12  13  1   
 26  12  39  1   
 27  12  40  1   
 28  13  14  1   
 29  13  41  1   
 30  14  15  1   
 31  14  42  1   
 32  14  43  1   
 33  15  16  1   
 34  15  17  2   
 35  16  18  2   
 36  16  44  1   
 37  17  19  1   
 38  17  45  1   
 39  18  19  1   
 40  19  20  1   
 41  20  21  ar  
 42  20  22  ar  
 43  21  23  1   
 44  21  24  ar  
 45  22  25  ar  
 46  22  46  1   
 47  23  26  1   
 48  24  27  ar  
 49  24  47  1   
 50  25  27  ar  
 51  25  48  1   
 52  26  49  1   
 53  26  50  1   
 54  26  51  1   
 55  27  52  1   
@<TRIPOS>SUBSTRUCTURE
  1 ****  13 GROUP 4 **** **** 0

# MOE 2024.06 (io_trps.svl 2023.06)
