@<TRIPOS>MOLECULE
NONAME
38 40 1 0 0 
SMALL
USER_CHARGES


@<TRIPOS>ATOM
  1 O       -0.4280     0.1300     0.4070 O.2   1 <1>  -0.5700 
  2 C       -1.4740     0.7590     0.3740 C.2   1 <1>   0.7160 
  3 N       -2.6300     0.0320     0.1480 N.am  1 <1>  -0.6600 
  4 C       -1.4610     2.2140     0.5560 C.2   1 <1>   0.1410 
  5 C       -3.9920     0.5950    -0.0200 C.3   1 <1>   0.1400 
  6 C       -2.6460    -1.4410    -0.0120 C.3   1 <1>   0.1400 
  7 N       -2.5170     2.9290     1.0650 N.2   1 <1>  -0.5650 
  8 C       -0.4450     3.0970     0.2890 C.2   1 <1>  -0.3320 
  9 C       -4.8660    -0.5990    -0.4050 C.3   1 <1>   0.2000 
 10 C       -4.1200    -1.8310     0.1020 C.3   1 <1>  -0.0800 
 11 C       -2.1190     4.1540     1.0940 C.2   1 <1>   0.0360 
 12 N       -0.8650     4.3200     0.6360 N.pl3 1 <1>   0.0330 
 13 C        0.9430     2.8650    -0.2910 C.3   1 <1>  -0.0600 
 14 O       -6.1190    -0.5310     0.1850 O.3   1 <1>  -0.6800 
 15 C       -4.4960    -3.1090    -0.6650 C.3   1 <1>  -0.0170 
 16 C       -3.7560    -4.3220    -0.1260 C.ar  1 <1>   0.1670 
 17 N       -2.5580    -4.5600    -0.6360 N.ar  1 <1>  -0.6200 
 18 C       -4.3430    -5.1130     0.8590 C.ar  1 <1>   0.1600 
 19 C       -1.9920    -5.6270    -0.0980 C.ar  1 <1>   0.1600 
 20 N       -3.7790    -6.1810     1.3990 N.ar  1 <1>  -0.6200 
 21 C       -2.5820    -6.4110     0.8860 C.ar  1 <1>   0.1600 
 22 H       -4.3150     1.0210     0.9140 H     1 <1>   0.0800 
 23 H       -3.9960     1.3450    -0.7910 H     1 <1>   0.0800 
 24 H       -2.2520    -1.6920    -0.9830 H     1 <1>   0.0800 
 25 H       -2.0490    -1.9190     0.7460 H     1 <1>   0.0800 
 26 H       -4.9930    -0.6290    -1.4740 H     1 <1>   0.0800 
 27 H       -4.3290    -1.9670     1.1490 H     1 <1>   0.0800 
 28 H       -2.7120     4.9790     1.4470 H     1 <1>   0.1500 
 29 H       -0.3490     5.2020     0.5730 H     1 <1>   0.2700 
 30 H        1.0500     1.8580    -0.6510 H     1 <1>   0.0800 
 31 H        1.6900     3.0330     0.4640 H     1 <1>   0.0800 
 32 H        1.1200     3.5330    -1.1140 H     1 <1>   0.0800 
 33 H       -6.0300    -0.3910     1.1480 H     1 <1>   0.4000 
 34 H       -4.2670    -2.9930    -1.7100 H     1 <1>   0.0800 
 35 H       -5.5560    -3.2710    -0.5830 H     1 <1>   0.0800 
 36 H       -5.3220    -4.8500     1.2190 H     1 <1>   0.1500 
 37 H       -1.0120    -5.8950    -0.4530 H     1 <1>   0.1500 
 38 H       -2.0410    -7.2610     1.2620 H     1 <1>   0.1500 
@<TRIPOS>BOND
  1   1   2  2   
  2   2   3  am  
  3   2   4  1   
  4   3   5  1   
  5   3   6  1   
  6   4   7  1   
  7   4   8  2   
  8   5   9  1   
  9   5  22  1   
 10   5  23  1   
 11   6  10  1   
 12   6  24  1   
 13   6  25  1   
 14   7  11  2   
 15   8  12  1   
 16   8  13  1   
 17   9  10  1   
 18   9  14  1   
 19   9  26  1   
 20  10  15  1   
 21  10  27  1   
 22  11  12  1   
 23  11  28  1   
 24  12  29  1   
 25  13  30  1   
 26  13  31  1   
 27  13  32  1   
 28  14  33  1   
 29  15  16  1   
 30  15  34  1   
 31  15  35  1   
 32  16  17  ar  
 33  16  18  ar  
 34  17  19  ar  
 35  18  20  ar  
 36  18  36  1   
 37  19  21  ar  
 38  19  37  1   
 39  20  21  ar  
 40  21  38  1   
@<TRIPOS>SUBSTRUCTURE
  1 ****   6 GROUP 4 **** **** 0

# MOE 2024.06 (io_trps.svl 2023.06)
