@<TRIPOS>MOLECULE
NONAME
52 55 1 0 0 
SMALL
USER_CHARGES


@<TRIPOS>ATOM
  1 O       -3.2640    -0.9510    -1.3590 O.co2 1 <1>  -0.9000 
  2 C       -2.2360    -1.3400    -0.7890 C.2   1 <1>   0.9060 
  3 O       -1.3810    -0.5530    -0.3630 O.co2 1 <1>  -0.9000 
  4 C       -1.9680    -2.8350    -0.7000 C.3   1 <1>   0.0140 
  5 O       -2.5390    -3.4460     0.4580 O.3   1 <1>  -0.3630 
  6 C       -2.5530    -4.7900     0.6090 C.ar  1 <1>   0.0820 
  7 C       -3.2780    -5.2870     1.6770 C.ar  1 <1>  -0.1500 
  8 C       -1.8940    -5.6710    -0.2410 C.ar  1 <1>  -0.1500 
  9 C       -3.3720    -6.6500     1.8890 C.ar  1 <1>  -0.1500 
 10 C       -1.9870    -7.0350    -0.0320 C.ar  1 <1>  -0.1500 
 11 C       -2.7380    -7.5320     1.0240 C.ar  1 <1>  -0.1440 
 12 C       -2.8880    -9.0250     1.2170 C.3   1 <1>   0.4870 
 13 N       -3.8580    -9.5100     0.1980 N.4   1 <1>  -0.9590 
 14 C       -3.9370   -11.0180     0.1600 C.3   1 <1>   0.3430 
 15 C       -5.2310    -8.9090     0.4070 C.3   1 <1>   0.3430 
 16 C       -5.0810   -11.5470    -0.7370 C.3   1 <1>   0.3430 
 17 C       -6.3070    -9.5380    -0.5070 C.3   1 <1>   0.2950 
 18 O       -6.2880   -10.9290    -0.3810 O.3   1 <1>  -0.5600 
 19 C       -5.2030   -13.0530    -0.5580 C.ar  1 <1>  -0.1430 
 20 C       -7.7050    -9.0600    -0.1140 C.3   1 <1>  -0.1950 
 21 C       -4.5440   -13.9050    -1.4350 C.ar  1 <1>  -0.1500 
 22 C       -5.9460   -13.5970     0.4810 C.ar  1 <1>  -0.1500 
 23 C       -8.8340    -9.0860    -1.0960 C.3   1 <1>  -0.2000 
 24 C       -8.2590    -7.7730    -0.6430 C.3   1 <1>  -0.2000 
 25 C       -4.6200   -15.2770    -1.2680 C.ar  1 <1>  -0.1500 
 26 C       -6.0210   -14.9690     0.6470 C.ar  1 <1>  -0.1500 
 27 C       -5.3560   -15.8090    -0.2260 C.ar  1 <1>  -0.1500 
 28 H       -0.9070    -2.9870    -0.6730 H     1 <1>   0.0800 
 29 H       -2.3910    -3.2940    -1.5710 H     1 <1>   0.0800 
 30 H       -3.7670    -4.5870     2.3330 H     1 <1>   0.1500 
 31 H       -1.3070    -5.3010    -1.0620 H     1 <1>   0.1500 
 32 H       -3.9450    -7.0020     2.7300 H     1 <1>   0.1500 
 33 H       -1.4640    -7.6940    -0.7040 H     1 <1>   0.1500 
 34 H       -3.2450    -9.2390     2.2110 H     1 <1>   0.0800 
 35 H       -1.9310    -9.5020     1.0830 H     1 <1>   0.0800 
 36 H       -3.5170    -9.1620    -0.7070 H     1 <1>   0.4500 
 37 H       -3.0040   -11.4310    -0.1880 H     1 <1>   0.0800 
 38 H       -4.1080   -11.3970     1.1540 H     1 <1>   0.0800 
 39 H       -5.5400    -9.0570     1.4280 H     1 <1>   0.0800 
 40 H       -5.1990    -7.8450     0.2280 H     1 <1>   0.0800 
 41 H       -4.8850   -11.3250    -1.7720 H     1 <1>   0.0800 
 42 H       -6.1190    -9.2860    -1.5370 H     1 <1>   0.0800 
 43 H       -7.9510    -9.3140     0.9030 H     1 <1>   0.1000 
 44 H       -3.9690   -13.5180    -2.2580 H     1 <1>   0.1500 
 45 H       -6.4800   -12.9600     1.1660 H     1 <1>   0.1500 
 46 H       -8.6470    -9.4200    -2.1020 H     1 <1>   0.1000 
 47 H       -9.8120    -9.3730    -0.7470 H     1 <1>   0.1000 
 48 H       -8.8600    -7.1540     0.0020 H     1 <1>   0.1000 
 49 H       -7.7110    -7.1940    -1.3670 H     1 <1>   0.1000 
 50 H       -4.1090   -15.9340    -1.9510 H     1 <1>   0.1500 
 51 H       -6.6020   -15.3840     1.4540 H     1 <1>   0.1500 
 52 H       -5.4160   -16.8770    -0.0980 H     1 <1>   0.1500 
@<TRIPOS>BOND
  1   1   2  ar  
  2   2   3  ar  
  3   2   4  1   
  4   4   5  1   
  5   4  28  1   
  6   4  29  1   
  7   5   6  1   
  8   6   7  ar  
  9   6   8  ar  
 10   7   9  ar  
 11   7  30  1   
 12   8  10  ar  
 13   8  31  1   
 14   9  11  ar  
 15   9  32  1   
 16  10  11  ar  
 17  10  33  1   
 18  11  12  1   
 19  12  13  1   
 20  12  34  1   
 21  12  35  1   
 22  13  14  1   
 23  13  15  1   
 24  13  36  1   
 25  14  16  1   
 26  14  37  1   
 27  14  38  1   
 28  15  17  1   
 29  15  39  1   
 30  15  40  1   
 31  16  18  1   
 32  16  19  1   
 33  16  41  1   
 34  17  18  1   
 35  17  20  1   
 36  17  42  1   
 37  19  21  ar  
 38  19  22  ar  
 39  20  23  1   
 40  20  24  1   
 41  20  43  1   
 42  21  25  ar  
 43  21  44  1   
 44  22  26  ar  
 45  22  45  1   
 46  23  24  1   
 47  23  46  1   
 48  23  47  1   
 49  24  48  1   
 50  24  49  1   
 51  25  27  ar  
 52  25  50  1   
 53  26  27  ar  
 54  26  51  1   
 55  27  52  1   
@<TRIPOS>SUBSTRUCTURE
  1 ****  15 GROUP 4 **** **** 0

# MOE 2024.06 (io_trps.svl 2023.06)
