@<TRIPOS>MOLECULE
NONAME
53 55 1 0 0 
SMALL
USER_CHARGES


@<TRIPOS>ATOM
  1 O       -3.0530     1.1200    -1.3530 O.2   1 <1>  -0.5700 
  2 C       -2.6260     0.8930    -0.2450 C.2   1 <1>   0.5690 
  3 N       -2.1830    -0.3500     0.0760 N.am  1 <1>  -0.7300 
  4 C       -2.6210     2.0190     0.8190 C.3   1 <1>   0.0610 
  5 C       -2.1500    -1.5150    -0.8380 C.3   1 <1>   0.2200 
  6 C       -1.8480     3.2570     0.2960 C.3   1 <1>  -0.1600 
  7 C       -4.0760     2.4460     1.0980 C.3   1 <1>  -0.2400 
  8 C       -2.0180     1.5630     2.1710 C.3   1 <1>  -0.2400 
  9 C       -3.3320    -2.4460    -0.5940 C.3   1 <1>  -0.0800 
 10 C       -0.9980    -2.4190    -0.4260 C.3   1 <1>   0.1200 
 11 C       -0.3750     2.9950    -0.0690 C.3   1 <1>  -0.1600 
 12 C       -2.8600    -3.2690     0.6120 C.3   1 <1>   0.1200 
 13 C       -4.6910    -1.7400    -0.4010 C.3   1 <1>  -0.0170 
 14 O       -1.4690    -3.1250     0.6820 O.3   1 <1>  -0.5600 
 15 C        0.2770     4.2580    -0.6370 C.3   1 <1>  -0.2400 
 16 C       -5.9260    -2.6370    -0.2660 C.ar  1 <1>  -0.1440 
 17 C       -7.1720    -2.0570     0.0810 C.ar  1 <1>   0.0000 
 18 C       -5.9080    -3.9890    -0.4680 C.ar  1 <1>  -0.1500 
 19 C       -8.2890    -2.9160     0.2280 C.ar  1 <1>   0.3100 
 20 C       -7.3770    -0.6710     0.2830 C.ar  1 <1>  -0.1500 
 21 C       -7.0750    -4.7470    -0.3060 C.ar  1 <1>   0.1600 
 22 N       -8.2230    -4.2560     0.0320 N.ar  1 <1>  -0.6200 
 23 C       -9.5290    -2.3670     0.5880 C.ar  1 <1>  -0.1500 
 24 C       -8.6010    -0.1670     0.6310 C.ar  1 <1>  -0.1500 
 25 C       -9.6920    -1.0230     0.7890 C.ar  1 <1>  -0.1500 
 26 H       -1.8650    -0.5530     1.0250 H     1 <1>   0.3700 
 27 H       -2.0760    -1.1920    -1.8630 H     1 <1>   0.0800 
 28 H       -2.3510     3.6220    -0.5840 H     1 <1>   0.0800 
 29 H       -1.8900     4.0400     1.0330 H     1 <1>   0.0800 
 30 H       -4.1120     3.2330     1.8300 H     1 <1>   0.0800 
 31 H       -4.6490     1.6110     1.4610 H     1 <1>   0.0800 
 32 H       -4.5400     2.8010     0.1940 H     1 <1>   0.0800 
 33 H       -1.9910     2.3840     2.8650 H     1 <1>   0.0800 
 34 H       -1.0160     1.1950     2.0470 H     1 <1>   0.0800 
 35 H       -2.6140     0.7790     2.6050 H     1 <1>   0.0800 
 36 H       -3.4010    -3.1000    -1.4450 H     1 <1>   0.0800 
 37 H       -0.1100    -1.8720    -0.1600 H     1 <1>   0.0800 
 38 H       -0.7730    -3.1300    -1.2020 H     1 <1>   0.0800 
 39 H        0.1770     2.6850     0.8000 H     1 <1>   0.0800 
 40 H       -0.3120     2.2120    -0.8060 H     1 <1>   0.0800 
 41 H       -3.0930    -4.3140     0.5090 H     1 <1>   0.0800 
 42 H       -3.2730    -2.8940     1.5320 H     1 <1>   0.0800 
 43 H       -4.8480    -1.0780    -1.2360 H     1 <1>   0.0800 
 44 H       -4.6300    -1.1340     0.4850 H     1 <1>   0.0800 
 45 H        0.2470     5.0560     0.0840 H     1 <1>   0.0800 
 46 H       -0.2350     4.5770    -1.5290 H     1 <1>   0.0800 
 47 H        1.3050     4.0610    -0.8870 H     1 <1>   0.0800 
 48 H       -5.0240    -4.5230    -0.7540 H     1 <1>   0.1500 
 49 H       -6.5570     0.0120     0.1580 H     1 <1>   0.1500 
 50 H       -7.0100    -5.8080    -0.4730 H     1 <1>   0.1500 
 51 H      -10.3550    -3.0450     0.7000 H     1 <1>   0.1500 
 52 H       -8.7390     0.8900     0.7830 H     1 <1>   0.1500 
 53 H      -10.6500    -0.6160     1.0640 H     1 <1>   0.1500 
@<TRIPOS>BOND
  1   1   2  2   
  2   2   3  am  
  3   2   4  1   
  4   3   5  1   
  5   3  26  1   
  6   4   6  1   
  7   4   7  1   
  8   4   8  1   
  9   5   9  1   
 10   5  10  1   
 11   5  27  1   
 12   6  11  1   
 13   6  28  1   
 14   6  29  1   
 15   7  30  1   
 16   7  31  1   
 17   7  32  1   
 18   8  33  1   
 19   8  34  1   
 20   8  35  1   
 21   9  12  1   
 22   9  13  1   
 23   9  36  1   
 24  10  14  1   
 25  10  37  1   
 26  10  38  1   
 27  11  15  1   
 28  11  39  1   
 29  11  40  1   
 30  12  14  1   
 31  12  41  1   
 32  12  42  1   
 33  13  16  1   
 34  13  43  1   
 35  13  44  1   
 36  15  45  1   
 37  15  46  1   
 38  15  47  1   
 39  16  17  ar  
 40  16  18  ar  
 41  17  19  ar  
 42  17  20  ar  
 43  18  21  ar  
 44  18  48  1   
 45  19  22  ar  
 46  19  23  ar  
 47  20  24  ar  
 48  20  49  1   
 49  21  22  ar  
 50  21  50  1   
 51  23  25  ar  
 52  23  51  1   
 53  24  25  ar  
 54  24  52  1   
 55  25  53  1   
@<TRIPOS>SUBSTRUCTURE
  1 ****  13 GROUP 4 **** **** 0

# MOE 2024.06 (io_trps.svl 2023.06)
