@<TRIPOS>MOLECULE
NONAME
33 34 1 0 0 
SMALL
USER_CHARGES


@<TRIPOS>ATOM
  1 S        0.5220     0.3950    -0.6410 S.3   1 <1>  -0.0800 
  2 C        0.8400    -1.0770     0.2600 C.2   1 <1>   0.1980 
  3 C        1.0380     1.3230     0.7360 C.2   1 <1>  -0.1100 
  4 N        1.2880    -0.8760     1.4370 N.2   1 <1>  -0.5650 
  5 C        0.5860    -2.4020    -0.4580 C.3   1 <1>   0.2900 
  6 C        1.3950     0.4770     1.7130 C.2   1 <1>   0.0770 
  7 N       -0.7360    -3.0240    -0.1860 N.3   1 <1>  -0.8100 
  8 C       -0.8290    -4.3410    -0.8380 C.3   1 <1>   0.2900 
  9 C       -1.8650    -2.1260    -0.5270 C.3   1 <1>   0.1100 
 10 C       -1.5800    -5.3060     0.0560 C.2   1 <1>  -0.3320 
 11 C       -3.2310    -2.6690    -0.0830 C.3   1 <1>   0.1200 
 12 N       -2.2220    -6.4020    -0.3900 N.pl3 1 <1>   0.0330 
 13 C       -1.7560    -5.2900     1.3950 C.2   1 <1>   0.0770 
 14 O       -4.2010    -1.7090    -0.3360 O.3   1 <1>  -0.6800 
 15 C       -2.7540    -6.9780     0.7100 C.2   1 <1>   0.0060 
 16 N       -2.4960    -6.3400     1.8020 N.2   1 <1>  -0.5650 
 17 C       -3.5730    -8.2490     0.6560 C.3   1 <1>  -0.0600 
 18 H        1.0170     2.3950     0.6660 H     1 <1>   0.1500 
 19 H        1.3540    -3.0820    -0.1330 H     1 <1>   0.0800 
 20 H        0.7050    -2.2520    -1.5170 H     1 <1>   0.0800 
 21 H        1.7570     0.7590     2.6880 H     1 <1>   0.1500 
 22 H        0.1530    -4.7500    -1.0070 H     1 <1>   0.0800 
 23 H       -1.3200    -4.2460    -1.7920 H     1 <1>   0.0800 
 24 H       -1.8820    -1.9470    -1.5890 H     1 <1>   0.0800 
 25 H       -1.7250    -1.1880    -0.0220 H     1 <1>   0.0800 
 26 H       -3.2340    -2.8870     0.9710 H     1 <1>   0.0800 
 27 H       -3.4970    -3.5500    -0.6370 H     1 <1>   0.0800 
 28 H       -2.3050    -6.7390    -1.3520 H     1 <1>   0.2700 
 29 H       -1.3800    -4.5580     2.0930 H     1 <1>   0.1500 
 30 H       -4.1150    -0.9690     0.2970 H     1 <1>   0.4000 
 31 H       -4.4450    -8.1020     0.0460 H     1 <1>   0.0800 
 32 H       -3.8890    -8.5170     1.6490 H     1 <1>   0.0800 
 33 H       -2.9840    -9.0530     0.2550 H     1 <1>   0.0800 
@<TRIPOS>BOND
  1   1   2  1   
  2   1   3  1   
  3   2   4  2   
  4   2   5  1   
  5   3   6  2   
  6   3  18  1   
  7   4   6  1   
  8   5   7  1   
  9   5  19  1   
 10   5  20  1   
 11   6  21  1   
 12   7   8  1   
 13   7   9  1   
 14   8  10  1   
 15   8  22  1   
 16   8  23  1   
 17   9  11  1   
 18   9  24  1   
 19   9  25  1   
 20  10  12  1   
 21  10  13  2   
 22  11  14  1   
 23  11  26  1   
 24  11  27  1   
 25  12  15  1   
 26  12  28  1   
 27  13  16  1   
 28  13  29  1   
 29  14  30  1   
 30  15  16  2   
 31  15  17  1   
 32  17  31  1   
 33  17  32  1   
 34  17  33  1   
@<TRIPOS>SUBSTRUCTURE
  1 ****   7 GROUP 4 **** **** 0

# MOE 2024.06 (io_trps.svl 2023.06)
