@<TRIPOS>MOLECULE
NONAME
54 56 1 0 0 
SMALL
USER_CHARGES


@<TRIPOS>ATOM
  1 O       -1.6210    -1.2700     0.1060 O.3   1 <1>  -0.5600 
  2 C       -2.6760    -0.4080    -0.1730 C.3   1 <1>   0.1200 
  3 C       -0.5510    -1.1570    -0.7760 C.3   1 <1>   0.0400 
  4 C       -3.7390    -0.5980     0.9060 C.3   1 <1>   0.0960 
  5 N       -4.9240     0.2240     0.5880 N.pl3 1 <1>   0.0480 
  6 C       -6.0400    -0.1140    -0.1040 C.2   1 <1>   0.0060 
  7 C       -5.1110     1.5120     0.9280 C.2   1 <1>  -0.3020 
  8 N       -6.8950     0.8540    -0.2190 N.2   1 <1>  -0.5650 
  9 C       -6.2830    -1.4970    -0.6930 C.3   1 <1>   0.2900 
 10 C       -6.3120     1.8770     0.4310 C.2   1 <1>   0.0770 
 11 N       -6.3800    -2.5610     0.3410 N.3   1 <1>  -0.8100 
 12 C       -6.5030    -3.9170    -0.2440 C.3   1 <1>   0.1100 
 13 C       -7.3560    -2.2620     1.4100 C.3   1 <1>   0.1100 
 14 C       -7.6980    -4.7200     0.3270 C.3   1 <1>   0.4230 
 15 C       -8.7990    -2.5240     0.9520 C.3   1 <1>  -0.1600 
 16 N       -7.7540    -6.1710    -0.1280 N.4   1 <1>  -0.9590 
 17 C       -9.0280    -3.9050     0.2450 C.3   1 <1>   0.0000 
 18 C       -9.1090    -6.7900     0.0270 C.3   1 <1>   0.3430 
 19 C       -7.2690    -6.4130    -1.5240 C.3   1 <1>   0.2630 
 20 C      -10.1700    -4.6860     0.9720 C.3   1 <1>  -0.1600 
 21 C       -9.4580    -3.5550    -1.2110 C.3   1 <1>   0.1200 
 22 C       -9.8610    -6.1770     1.2050 C.3   1 <1>  -0.1600 
 23 O       -9.7660    -4.6690    -1.9790 O.3   1 <1>  -0.6800 
 24 H       -2.3100     0.6040    -0.1640 H     1 <1>   0.0800 
 25 H       -3.0720    -0.6560    -1.1430 H     1 <1>   0.0800 
 26 H        0.2050    -1.8620    -0.4770 H     1 <1>   0.0800 
 27 H       -0.1520    -0.1590    -0.7280 H     1 <1>   0.0800 
 28 H       -0.8850    -1.3850    -1.7740 H     1 <1>   0.0800 
 29 H       -3.3500    -0.2930     1.8590 H     1 <1>   0.0800 
 30 H       -4.0260    -1.6310     0.9600 H     1 <1>   0.0800 
 31 H       -4.4000     2.0880     1.4920 H     1 <1>   0.1500 
 32 H       -5.4750    -1.7250    -1.3660 H     1 <1>   0.0800 
 33 H       -7.1910    -1.4600    -1.2660 H     1 <1>   0.0800 
 34 H       -6.7950     2.8370     0.5070 H     1 <1>   0.1500 
 35 H       -6.6040    -3.8380    -1.3120 H     1 <1>   0.0800 
 36 H       -5.5920    -4.4480    -0.0300 H     1 <1>   0.0800 
 37 H       -7.1320    -2.8800     2.2630 H     1 <1>   0.0800 
 38 H       -7.2610    -1.2410     1.7450 H     1 <1>   0.0800 
 39 H       -7.4980    -4.7780     1.3830 H     1 <1>   0.0800 
 40 H       -9.4200    -2.4120     1.8220 H     1 <1>   0.0800 
 41 H       -9.0790    -1.7060     0.3100 H     1 <1>   0.0800 
 42 H       -7.1270    -6.6810     0.5070 H     1 <1>   0.4500 
 43 H       -9.6890    -6.6330    -0.8670 H     1 <1>   0.0800 
 44 H       -9.0100    -7.8540     0.1710 H     1 <1>   0.0800 
 45 H       -7.8590    -5.8550    -2.2310 H     1 <1>   0.0800 
 46 H       -7.3430    -7.4590    -1.7690 H     1 <1>   0.0800 
 47 H       -6.2390    -6.1130    -1.6240 H     1 <1>   0.0800 
 48 H      -10.3960    -4.2660     1.9360 H     1 <1>   0.0800 
 49 H      -11.0770    -4.6090     0.3960 H     1 <1>   0.0800 
 50 H       -8.6890    -3.0060    -1.7250 H     1 <1>   0.0800 
 51 H      -10.3420    -2.9380    -1.1830 H     1 <1>   0.0800 
 52 H      -10.7880    -6.7060     1.3430 H     1 <1>   0.0800 
 53 H       -9.2830    -6.3060     2.1040 H     1 <1>   0.0800 
 54 H      -10.2500    -4.3950    -2.7880 H     1 <1>   0.4000 
@<TRIPOS>BOND
  1   1   2  1   
  2   1   3  1   
  3   2   4  1   
  4   2  24  1   
  5   2  25  1   
  6   3  26  1   
  7   3  27  1   
  8   3  28  1   
  9   4   5  1   
 10   4  29  1   
 11   4  30  1   
 12   5   6  1   
 13   5   7  1   
 14   6   8  2   
 15   6   9  1   
 16   7  10  2   
 17   7  31  1   
 18   8  10  1   
 19   9  11  1   
 20   9  32  1   
 21   9  33  1   
 22  10  34  1   
 23  11  12  1   
 24  11  13  1   
 25  12  14  1   
 26  12  35  1   
 27  12  36  1   
 28  13  15  1   
 29  13  37  1   
 30  13  38  1   
 31  14  16  1   
 32  14  17  1   
 33  14  39  1   
 34  15  17  1   
 35  15  40  1   
 36  15  41  1   
 37  16  18  1   
 38  16  19  1   
 39  16  42  1   
 40  17  20  1   
 41  17  21  1   
 42  18  22  1   
 43  18  43  1   
 44  18  44  1   
 45  19  45  1   
 46  19  46  1   
 47  19  47  1   
 48  20  22  1   
 49  20  48  1   
 50  20  49  1   
 51  21  23  1   
 52  21  50  1   
 53  21  51  1   
 54  22  52  1   
 55  22  53  1   
 56  23  54  1   
@<TRIPOS>SUBSTRUCTURE
  1 ****  11 GROUP 4 **** **** 0

# MOE 2024.06 (io_trps.svl 2023.06)
