@<TRIPOS>MOLECULE
NONAME
49 51 1 0 0 
SMALL
USER_CHARGES


@<TRIPOS>ATOM
  1 N        0.5710    -0.0630     0.2060 N.ar  1 <1>  -0.6200 
  2 C        1.8370    -0.3970     0.0340 C.ar  1 <1>   0.4100 
  3 C        0.3200     1.2280     0.1490 C.ar  1 <1>   0.4700 
  4 N        2.1650    -1.7370     0.0770 N.pl3 1 <1>  -0.8380 
  5 C        2.7990     0.5600    -0.1840 C.ar  1 <1>  -0.1500 
  6 N        1.1560     2.2240    -0.0590 N.ar  1 <1>  -0.6200 
  7 C        2.7710    -2.3690    -1.1200 C.3   1 <1>   0.2090 
  8 C        1.3600    -2.6640     0.9150 C.3   1 <1>   0.2090 
  9 C        2.4210     1.8830    -0.2340 C.ar  1 <1>   0.4100 
 10 C        3.6710    -3.5290    -0.6830 C.3   1 <1>  -0.1600 
 11 C        2.2380    -3.8360     1.3680 C.3   1 <1>  -0.1600 
 12 N        3.3260     2.9060    -0.4630 N.pl3 1 <1>  -0.8380 
 13 C        2.9060    -4.5430     0.1800 C.3   1 <1>  -0.1600 
 14 C        4.5350     2.7180    -1.3060 C.3   1 <1>   0.3900 
 15 C        3.1400     4.2490     0.1460 C.3   1 <1>   0.2090 
 16 C        5.7920     2.7670    -0.4570 C.2   1 <1>  -0.1810 
 17 C        2.5700     5.2130    -0.8900 C.3   1 <1>  -0.2400 
 18 C        5.9530     2.2130     0.8070 C.2   1 <1>   0.1390 
 19 C        6.9860     3.3360    -0.7310 C.2   1 <1>  -0.3020 
 20 N        7.1450     2.4110     1.2830 N.2   1 <1>  -0.7070 
 21 N        7.7870     3.1090     0.3300 N.pl3 1 <1>   0.3140 
 22 C        9.1880     3.5440     0.4910 C.3   1 <1>   0.0960 
 23 C       10.1450     2.6290    -0.2840 C.3   1 <1>  -0.2400 
 24 H       -0.7100     1.5080     0.2910 H     1 <1>   0.1500 
 25 H        3.8190     0.2640    -0.2910 H     1 <1>   0.1500 
 26 H        3.3470    -1.6470    -1.6740 H     1 <1>   0.0800 
 27 H        1.9850    -2.7350    -1.7590 H     1 <1>   0.0800 
 28 H        0.5230    -3.0240     0.3400 H     1 <1>   0.0800 
 29 H        0.9800    -2.1410     1.7770 H     1 <1>   0.0800 
 30 H        4.4990    -3.1290    -0.1240 H     1 <1>   0.0800 
 31 H        4.0670    -4.0200    -1.5540 H     1 <1>   0.0800 
 32 H        1.6360    -4.5370     1.9180 H     1 <1>   0.0800 
 33 H        2.9930    -3.4560     2.0340 H     1 <1>   0.0800 
 34 H        3.5810    -5.3000     0.5390 H     1 <1>   0.0800 
 35 H        2.1510    -5.0240    -0.4190 H     1 <1>   0.0800 
 36 H        4.5750     3.4920    -2.0520 H     1 <1>   0.0800 
 37 H        4.4860     1.7760    -1.8230 H     1 <1>   0.0800 
 38 H        4.0810     4.6170     0.5190 H     1 <1>   0.0800 
 39 H        2.4640     4.1770     0.9820 H     1 <1>   0.0800 
 40 H        3.2620     5.3590    -1.6980 H     1 <1>   0.0800 
 41 H        2.3780     6.1640    -0.4290 H     1 <1>   0.0800 
 42 H        1.6430     4.8260    -1.2750 H     1 <1>   0.0800 
 43 H        5.1800     1.6840     1.3410 H     1 <1>   0.1500 
 44 H        7.3090     3.8780    -1.6000 H     1 <1>   0.1500 
 45 H        9.4270     3.5200     1.5400 H     1 <1>   0.0800 
 46 H        9.2730     4.5570     0.1430 H     1 <1>   0.0800 
 47 H       10.0530     1.6170     0.0720 H     1 <1>   0.0800 
 48 H       11.1590     2.9530    -0.1350 H     1 <1>   0.0800 
 49 H        9.9250     2.6580    -1.3360 H     1 <1>   0.0800 
@<TRIPOS>BOND
  1   1   2  ar  
  2   1   3  ar  
  3   2   4  1   
  4   2   5  ar  
  5   3   6  ar  
  6   3  24  1   
  7   4   7  1   
  8   4   8  1   
  9   5   9  ar  
 10   5  25  1   
 11   6   9  ar  
 12   7  10  1   
 13   7  26  1   
 14   7  27  1   
 15   8  11  1   
 16   8  28  1   
 17   8  29  1   
 18   9  12  1   
 19  10  13  1   
 20  10  30  1   
 21  10  31  1   
 22  11  13  1   
 23  11  32  1   
 24  11  33  1   
 25  12  14  1   
 26  12  15  1   
 27  13  34  1   
 28  13  35  1   
 29  14  16  1   
 30  14  36  1   
 31  14  37  1   
 32  15  17  1   
 33  15  38  1   
 34  15  39  1   
 35  16  18  1   
 36  16  19  2   
 37  17  40  1   
 38  17  41  1   
 39  17  42  1   
 40  18  20  2   
 41  18  43  1   
 42  19  21  1   
 43  19  44  1   
 44  20  21  1   
 45  21  22  1   
 46  22  23  1   
 47  22  45  1   
 48  22  46  1   
 49  23  47  1   
 50  23  48  1   
 51  23  49  1   
@<TRIPOS>SUBSTRUCTURE
  1 ****   5 GROUP 4 **** **** 0

# MOE 2024.06 (io_trps.svl 2023.06)
