@<TRIPOS>MOLECULE
NONAME
43 44 1 0 0 
SMALL
USER_CHARGES


@<TRIPOS>ATOM
  1 S        0.8510    -0.1230     0.7510 S.o2  1 <1>   1.3330 
  2 O        1.9420    -0.1000     1.6940 O.2   1 <1>  -0.6500 
  3 O        0.5430    -1.2950    -0.0280 O.2   1 <1>  -0.6500 
  4 N        1.1210     1.1040    -0.3640 N.am  1 <1>  -0.9140 
  5 C       -0.6380     0.3770     1.5930 C.3   1 <1>  -0.1350 
  6 C        1.3290     2.4360     0.1810 C.3   1 <1>   0.1960 
  7 C        1.8320     3.3520    -0.9320 C.3   1 <1>  -0.0990 
  8 C        2.0280     4.7630    -0.4210 C.2   1 <1>   0.5690 
  9 O        1.1750     5.2290     0.2960 O.2   1 <1>  -0.5700 
 10 N        3.1520     5.4400    -0.8040 N.am  1 <1>  -0.4940 
 11 C        3.4930     6.7990    -0.5780 C.2   1 <1>  -0.0880 
 12 N        4.7350     7.2470    -0.2340 N.pl3 1 <1>   0.3140 
 13 C        2.7070     7.9000    -0.6740 C.2   1 <1>  -0.1810 
 14 N        4.7580     8.6000    -0.1280 N.2   1 <1>  -0.7070 
 15 C        5.9410     6.4040     0.0140 C.3   1 <1>   0.1760 
 16 C        3.5430     8.9710    -0.3820 C.2   1 <1>   0.1390 
 17 C        1.2360     8.0160    -1.0270 C.3   1 <1>  -0.0590 
 18 C        6.7340     6.7990     1.2620 C.3   1 <1>  -0.1600 
 19 C        6.9680     6.4990    -1.1150 C.3   1 <1>  -0.1600 
 20 C        8.1240     6.1990     1.0370 C.3   1 <1>  -0.1600 
 21 C        8.3090     6.1050    -0.4830 C.3   1 <1>  -0.1600 
 22 H        0.3690     1.0670    -1.0480 H     1 <1>   0.4200 
 23 H       -0.9280    -0.3820     2.2930 H     1 <1>   0.0800 
 24 H       -1.4370     0.5160     0.8920 H     1 <1>   0.0800 
 25 H       -0.4790     1.2890     2.1340 H     1 <1>   0.0800 
 26 H        2.0650     2.3980     0.9690 H     1 <1>   0.0800 
 27 H        0.4080     2.8200     0.5900 H     1 <1>   0.0800 
 28 H        1.1120     3.3850    -1.7280 H     1 <1>   0.0800 
 29 H        2.7600     2.9670    -1.3120 H     1 <1>   0.0800 
 30 H        3.8200     4.9100    -1.3620 H     1 <1>   0.3700 
 31 H        5.6340     5.3810     0.1240 H     1 <1>   0.0800 
 32 H        3.2280    10.0000    -0.3700 H     1 <1>   0.1500 
 33 H        0.9300     7.1830    -1.6330 H     1 <1>   0.0800 
 34 H        1.0530     8.9230    -1.5740 H     1 <1>   0.0800 
 35 H        0.6480     8.0220    -0.1270 H     1 <1>   0.0800 
 36 H        6.2760     6.4300     2.1620 H     1 <1>   0.0800 
 37 H        6.8250     7.8710     1.3180 H     1 <1>   0.0800 
 38 H        7.0300     7.5200    -1.4550 H     1 <1>   0.0800 
 39 H        6.7140     5.8610    -1.9430 H     1 <1>   0.0800 
 40 H        8.1640     5.2120     1.4650 H     1 <1>   0.0800 
 41 H        8.8870     6.8070     1.4930 H     1 <1>   0.0800 
 42 H        9.0880     6.7700    -0.8170 H     1 <1>   0.0800 
 43 H        8.5730     5.0980    -0.7570 H     1 <1>   0.0800 
@<TRIPOS>BOND
  1   1   2  2   
  2   1   3  2   
  3   1   4  am  
  4   1   5  1   
  5   4   6  1   
  6   4  22  1   
  7   5  23  1   
  8   5  24  1   
  9   5  25  1   
 10   6   7  1   
 11   6  26  1   
 12   6  27  1   
 13   7   8  1   
 14   7  28  1   
 15   7  29  1   
 16   8   9  2   
 17   8  10  am  
 18  10  11  1   
 19  10  30  1   
 20  11  12  1   
 21  11  13  2   
 22  12  14  1   
 23  12  15  1   
 24  13  16  1   
 25  13  17  1   
 26  14  16  2   
 27  15  18  1   
 28  15  19  1   
 29  15  31  1   
 30  16  32  1   
 31  17  33  1   
 32  17  34  1   
 33  17  35  1   
 34  18  20  1   
 35  18  36  1   
 36  18  37  1   
 37  19  21  1   
 38  19  38  1   
 39  19  39  1   
 40  20  21  1   
 41  20  40  1   
 42  20  41  1   
 43  21  42  1   
 44  21  43  1   
@<TRIPOS>SUBSTRUCTURE
  1 ****  10 GROUP 4 **** **** 0

# MOE 2024.06 (io_trps.svl 2023.06)
