@<TRIPOS>MOLECULE
NONAME
54 57 1 0 0 
SMALL
USER_CHARGES


@<TRIPOS>ATOM
  1 O        0.9330     0.1320    -0.1030 O.2   1 <1>  -0.5700 
  2 C        1.9450    -0.5280    -0.0790 C.2   1 <1>   0.5690 
  3 N        3.1880     0.0520    -0.0810 N.am  1 <1>  -0.6600 
  4 C        1.7980    -2.0390    -0.0420 C.3   1 <1>  -0.0990 
  5 C        4.4840    -0.6950     0.0460 C.3   1 <1>   0.1400 
  6 C        3.3220     1.5340    -0.2100 C.3   1 <1>   0.1400 
  7 C        0.3370    -2.4910    -0.1740 C.3   1 <1>   0.0960 
  8 C        5.2860    -0.2610     1.2810 C.3   1 <1>   0.1400 
  9 C        3.5600     2.1610     1.1690 C.3   1 <1>  -0.1600 
 10 N        0.2580    -3.9620    -0.1390 N.pl3 1 <1>   0.0480 
 11 N        5.8590     1.1030     1.0870 N.am  1 <1>  -0.6600 
 12 C        5.0340     2.2400     1.5960 C.3   1 <1>   0.1400 
 13 C        0.0480    -4.7620     0.9080 C.2   1 <1>   0.0360 
 14 C        0.4160    -4.8280    -1.1400 C.2   1 <1>   0.0360 
 15 C        7.0540     1.2410     0.4250 C.2   1 <1>   0.5690 
 16 N        0.0790    -6.0050     0.5740 N.2   1 <1>  -0.3380 
 17 N        0.3140    -6.0480    -0.7390 N.2   1 <1>  -0.3380 
 18 O        7.6120     0.2830    -0.0610 O.2   1 <1>  -0.5700 
 19 C        7.7030     2.6080     0.2760 C.3   1 <1>  -0.0990 
 20 C        9.1190     2.5610    -0.3190 C.3   1 <1>   0.0200 
 21 C        9.7460     3.9420    -0.4400 C.2   1 <1>   0.0070 
 22 N        9.1800     5.0490    -0.1000 N.2   1 <1>  -0.5650 
 23 N       11.0000     4.1030    -0.9360 N.pl3 1 <1>   0.0330 
 24 C       10.1060     6.0080    -0.3840 C.ar  1 <1>   0.2270 
 25 C       11.2490     5.4350    -0.9070 C.ar  1 <1>  -0.1520 
 26 C       10.0340     7.3900    -0.2190 C.ar  1 <1>  -0.1500 
 27 C       12.3470     6.2140    -1.2800 C.ar  1 <1>  -0.1500 
 28 C       11.1120     8.1690    -0.5830 C.ar  1 <1>  -0.1500 
 29 C       12.2670     7.5790    -1.1130 C.ar  1 <1>  -0.1500 
 30 H        2.1950    -2.3940     0.8910 H     1 <1>   0.0800 
 31 H        2.3660    -2.4550    -0.8540 H     1 <1>   0.0800 
 32 H        5.0790    -0.5340    -0.8370 H     1 <1>   0.0800 
 33 H        4.3090    -1.7500     0.1220 H     1 <1>   0.0800 
 34 H        2.4170     1.9420    -0.6280 H     1 <1>   0.0800 
 35 H        4.1240     1.7770    -0.8860 H     1 <1>   0.0800 
 36 H       -0.0780    -2.1400    -1.1020 H     1 <1>   0.0800 
 37 H       -0.2510    -2.0890     0.6330 H     1 <1>   0.0800 
 38 H        6.0910    -0.9590     1.4330 H     1 <1>   0.0800 
 39 H        4.6640    -0.2890     2.1590 H     1 <1>   0.0800 
 40 H        2.9890     1.6270     1.9080 H     1 <1>   0.0800 
 41 H        3.1750     3.1640     1.1550 H     1 <1>   0.0800 
 42 H        5.0940     2.2650     2.6710 H     1 <1>   0.0800 
 43 H        5.4290     3.1710     1.2330 H     1 <1>   0.0800 
 44 H       -0.1220    -4.3980     1.9050 H     1 <1>   0.1500 
 45 H        0.6070    -4.5300    -2.1550 H     1 <1>   0.1500 
 46 H        7.7550     3.0720     1.2430 H     1 <1>   0.0800 
 47 H        7.0830     3.2130    -0.3600 H     1 <1>   0.0800 
 48 H        9.0770     2.1110    -1.2960 H     1 <1>   0.0800 
 49 H        9.7430     1.9460     0.3070 H     1 <1>   0.0800 
 50 H       11.6340     3.3730    -1.2670 H     1 <1>   0.2700 
 51 H        9.1370     7.8140     0.1900 H     1 <1>   0.1500 
 52 H       13.2290     5.7530    -1.6860 H     1 <1>   0.1500 
 53 H       11.0740     9.2370    -0.4620 H     1 <1>   0.1500 
 54 H       13.0950     8.2090    -1.3890 H     1 <1>   0.1500 
@<TRIPOS>BOND
  1   1   2  2   
  2   2   3  am  
  3   2   4  1   
  4   3   5  1   
  5   3   6  1   
  6   4   7  1   
  7   4  30  1   
  8   4  31  1   
  9   5   8  1   
 10   5  32  1   
 11   5  33  1   
 12   6   9  1   
 13   6  34  1   
 14   6  35  1   
 15   7  10  1   
 16   7  36  1   
 17   7  37  1   
 18   8  11  1   
 19   8  38  1   
 20   8  39  1   
 21   9  12  1   
 22   9  40  1   
 23   9  41  1   
 24  10  13  1   
 25  10  14  1   
 26  11  12  1   
 27  11  15  am  
 28  12  42  1   
 29  12  43  1   
 30  13  16  2   
 31  13  44  1   
 32  14  17  2   
 33  14  45  1   
 34  15  18  2   
 35  15  19  1   
 36  16  17  1   
 37  19  20  1   
 38  19  46  1   
 39  19  47  1   
 40  20  21  1   
 41  20  48  1   
 42  20  49  1   
 43  21  22  2   
 44  21  23  1   
 45  22  24  1   
 46  23  25  1   
 47  23  50  1   
 48  24  25  ar  
 49  24  26  ar  
 50  25  27  ar  
 51  26  28  ar  
 52  26  51  1   
 53  27  29  ar  
 54  27  52  1   
 55  28  29  ar  
 56  28  53  1   
 57  29  54  1   
@<TRIPOS>SUBSTRUCTURE
  1 ****  11 GROUP 4 **** **** 0

# MOE 2024.06 (io_trps.svl 2023.06)
