@<TRIPOS>MOLECULE
NONAME
50 52 1 0 0 
SMALL
USER_CHARGES


@<TRIPOS>ATOM
  1 O        2.6050    -0.4560    -2.0950 O.2   1 <1>  -0.5700 
  2 C        2.3610    -0.8770    -0.9920 C.2   1 <1>   0.5690 
  3 N        2.4440    -0.1160     0.1380 N.am  1 <1>  -0.4940 
  4 C        1.8880    -2.3100    -0.8470 C.3   1 <1>  -0.0990 
  5 C        2.2360     1.2750     0.1890 C.2   1 <1>  -0.0880 
  6 C        0.3860    -2.3480    -0.5170 C.3   1 <1>  -0.1600 
  7 N        3.1680     2.2680     0.2810 N.pl3 1 <1>   0.3140 
  8 C        1.0100     1.8640     0.1520 C.2   1 <1>  -0.0540 
  9 C       -0.1790    -3.7720    -0.4790 C.3   1 <1>   0.0960 
 10 N        2.5480     3.4840     0.3270 N.2   1 <1>  -0.7070 
 11 C        4.6800     2.1330     0.3430 C.3   1 <1>   0.2560 
 12 C       -0.2730     1.2240     0.0300 C.ar  1 <1>   0.0540 
 13 C        1.2830     3.2260     0.2420 C.2   1 <1>   0.1390 
 14 N       -1.5950    -3.7420    -0.0660 N.pl3 1 <1>   0.3140 
 15 C        5.3570     3.5140     0.4720 C.3   1 <1>  -0.2400 
 16 C        5.2100     1.4700    -0.9390 C.3   1 <1>  -0.2400 
 17 C        5.0870     1.2960     1.5690 C.3   1 <1>  -0.2400 
 18 C       -0.8910     1.1060    -1.2100 C.ar  1 <1>  -0.1500 
 19 C       -0.9110     0.6750     1.1380 C.ar  1 <1>  -0.1500 
 20 N       -1.9850    -3.9690     1.1800 N.2   1 <1>  -0.7070 
 21 C       -2.6740    -3.4770    -0.8090 C.2   1 <1>   0.0360 
 22 C       -2.1040     0.4560    -1.3440 C.ar  1 <1>  -0.1500 
 23 C       -2.1200     0.0160     1.0090 C.ar  1 <1>  -0.1500 
 24 C       -3.2670    -3.8290     1.0990 C.2   1 <1>   0.3660 
 25 N       -3.7510    -3.5200    -0.1110 N.2   1 <1>  -0.5650 
 26 C       -2.7190    -0.0940    -0.2330 C.ar  1 <1>  -0.1500 
 27 H        2.2130    -0.6070     1.0010 H     1 <1>   0.3700 
 28 H        2.4580    -2.7980    -0.0770 H     1 <1>   0.0800 
 29 H        2.0710    -2.8230    -1.7750 H     1 <1>   0.0800 
 30 H       -0.1460    -1.7780    -1.2610 H     1 <1>   0.0800 
 31 H        0.2210    -1.8840     0.4400 H     1 <1>   0.0800 
 32 H        0.3640    -4.3710     0.2300 H     1 <1>   0.0800 
 33 H       -0.1100    -4.2330    -1.4480 H     1 <1>   0.0800 
 34 H        0.5210     3.9870     0.2410 H     1 <1>   0.1500 
 35 H        5.1130     4.1290    -0.3770 H     1 <1>   0.0800 
 36 H        6.4260     3.4140     0.5180 H     1 <1>   0.0800 
 37 H        5.0250     4.0130     1.3650 H     1 <1>   0.0800 
 38 H        4.8700     2.0130    -1.8040 H     1 <1>   0.0800 
 39 H        4.8740     0.4540    -1.0170 H     1 <1>   0.0800 
 40 H        6.2840     1.4610    -0.9440 H     1 <1>   0.0800 
 41 H        4.6960     1.7400     2.4670 H     1 <1>   0.0800 
 42 H        6.1590     1.2530     1.6510 H     1 <1>   0.0800 
 43 H        4.7250     0.2890     1.4870 H     1 <1>   0.0800 
 44 H       -0.4040     1.5240    -2.0750 H     1 <1>   0.1500 
 45 H       -0.4500     0.7640     2.1060 H     1 <1>   0.1500 
 46 H       -2.6220    -3.2520    -1.8580 H     1 <1>   0.1500 
 47 H       -2.5690     0.3750    -2.3110 H     1 <1>   0.1500 
 48 H       -2.5990    -0.4140     1.8720 H     1 <1>   0.1500 
 49 H       -3.9300    -3.9480     1.9420 H     1 <1>   0.1500 
 50 H       -3.6610    -0.6080    -0.3320 H     1 <1>   0.1500 
@<TRIPOS>BOND
  1   1   2  2   
  2   2   3  am  
  3   2   4  1   
  4   3   5  1   
  5   3  27  1   
  6   4   6  1   
  7   4  28  1   
  8   4  29  1   
  9   5   7  1   
 10   5   8  2   
 11   6   9  1   
 12   6  30  1   
 13   6  31  1   
 14   7  10  1   
 15   7  11  1   
 16   8  12  1   
 17   8  13  1   
 18   9  14  1   
 19   9  32  1   
 20   9  33  1   
 21  10  13  2   
 22  11  15  1   
 23  11  16  1   
 24  11  17  1   
 25  12  18  ar  
 26  12  19  ar  
 27  13  34  1   
 28  14  20  1   
 29  14  21  1   
 30  15  35  1   
 31  15  36  1   
 32  15  37  1   
 33  16  38  1   
 34  16  39  1   
 35  16  40  1   
 36  17  41  1   
 37  17  42  1   
 38  17  43  1   
 39  18  22  ar  
 40  18  44  1   
 41  19  23  ar  
 42  19  45  1   
 43  20  24  2   
 44  21  25  2   
 45  21  46  1   
 46  22  26  ar  
 47  22  47  1   
 48  23  26  ar  
 49  23  48  1   
 50  24  25  1   
 51  24  49  1   
 52  26  50  1   
@<TRIPOS>SUBSTRUCTURE
  1 ****  12 GROUP 4 **** **** 0

# MOE 2024.06 (io_trps.svl 2023.06)
