@<TRIPOS>MOLECULE
NONAME
48 51 1 0 0 
SMALL
USER_CHARGES


@<TRIPOS>ATOM
  1 O       -2.0280     0.2610     0.4620 O.co2 1 <1>  -0.9000 
  2 C       -1.3360    -0.6770     0.9240 C.2   1 <1>   0.9790 
  3 O       -0.2280    -0.3700     1.4080 O.co2 1 <1>  -0.9000 
  4 C       -1.8590    -2.0630     0.9010 C.ar  1 <1>   0.1310 
  5 N       -1.0710    -3.1490     1.0840 N.ar  1 <1>  -0.6200 
  6 C       -3.2250    -2.2270     0.6720 C.ar  1 <1>  -0.1500 
  7 C       -1.6560    -4.3300     1.0340 C.ar  1 <1>   0.1600 
  8 C       -3.8400    -3.4650     0.5910 C.ar  1 <1>   0.1000 
  9 C       -2.9980    -4.5420     0.7980 C.ar  1 <1>  -0.1500 
 10 N       -5.2040    -3.6230     0.3210 N.pl3 1 <1>  -0.8380 
 11 C       -6.2100    -2.5590     0.6500 C.3   1 <1>   0.2090 
 12 C       -5.7270    -4.7320    -0.5240 C.3   1 <1>   0.2090 
 13 C       -6.8480    -1.9650    -0.6230 C.3   1 <1>   0.1430 
 14 C       -6.4000    -4.1770    -1.7870 C.3   1 <1>  -0.1600 
 15 C       -7.8600    -0.9190    -0.1920 C.ar  1 <1>   0.1670 
 16 C       -7.4580    -3.1030    -1.4680 C.3   1 <1>  -0.1600 
 17 C       -5.8490    -1.1090    -1.4480 C.3   1 <1>  -0.1600 
 18 N       -9.0590    -1.1590     0.2800 N.ar  1 <1>  -0.6200 
 19 C       -7.3570     0.3400    -0.3390 C.ar  1 <1>  -0.1430 
 20 C       -5.9580     0.3250    -0.9080 C.3   1 <1>  -0.0170 
 21 C       -9.7700    -0.0750     0.6050 C.ar  1 <1>   0.7200 
 22 C       -8.1540     1.3910     0.0320 C.ar  1 <1>   0.1600 
 23 N       -9.3630     1.1950     0.5040 N.ar  1 <1>  -0.6200 
 24 N      -11.0450    -0.2880     1.0940 N.pl3 1 <1>  -0.8380 
 25 C      -12.0410     0.8130     1.2110 C.3   1 <1>   0.1290 
 26 C      -11.5120    -1.6340     1.5280 C.3   1 <1>   0.1290 
 27 H       -3.8060    -1.3400     0.5450 H     1 <1>   0.1500 
 28 H       -1.0200    -5.1820     1.1920 H     1 <1>   0.1500 
 29 H       -3.3860    -5.5390     0.7860 H     1 <1>   0.1500 
 30 H       -5.7640    -1.7810     1.2420 H     1 <1>   0.0800 
 31 H       -6.9860    -3.0010     1.2500 H     1 <1>   0.0800 
 32 H       -6.4400    -5.2980     0.0510 H     1 <1>   0.0800 
 33 H       -4.9280    -5.3900    -0.8150 H     1 <1>   0.0800 
 34 H       -6.8620    -4.9860    -2.3220 H     1 <1>   0.0800 
 35 H       -5.6380    -3.7620    -2.4230 H     1 <1>   0.0800 
 36 H       -7.8750    -2.7070    -2.3770 H     1 <1>   0.0800 
 37 H       -8.2610    -3.5560    -0.9130 H     1 <1>   0.0800 
 38 H       -6.1640    -1.0950    -2.4760 H     1 <1>   0.0800 
 39 H       -4.8430    -1.4850    -1.4210 H     1 <1>   0.0800 
 40 H       -5.8260     1.0540    -1.6880 H     1 <1>   0.0800 
 41 H       -5.2360     0.4960    -0.1260 H     1 <1>   0.0800 
 42 H       -7.7950     2.4020    -0.0590 H     1 <1>   0.1500 
 43 H      -11.8590     1.5670     0.4640 H     1 <1>   0.0800 
 44 H      -11.9670     1.2610     2.1850 H     1 <1>   0.0800 
 45 H      -13.0360     0.4300     1.0680 H     1 <1>   0.0800 
 46 H      -10.6860    -2.2220     1.8880 H     1 <1>   0.0800 
 47 H      -11.9660    -2.1420     0.6950 H     1 <1>   0.0800 
 48 H      -12.2310    -1.5380     2.3230 H     1 <1>   0.0800 
@<TRIPOS>BOND
  1   1   2  ar  
  2   2   3  ar  
  3   2   4  1   
  4   4   5  ar  
  5   4   6  ar  
  6   5   7  ar  
  7   6   8  ar  
  8   6  27  1   
  9   7   9  ar  
 10   7  28  1   
 11   8   9  ar  
 12   8  10  1   
 13   9  29  1   
 14  10  11  1   
 15  10  12  1   
 16  11  13  1   
 17  11  30  1   
 18  11  31  1   
 19  12  14  1   
 20  12  32  1   
 21  12  33  1   
 22  13  15  1   
 23  13  16  1   
 24  13  17  1   
 25  14  16  1   
 26  14  34  1   
 27  14  35  1   
 28  15  18  ar  
 29  15  19  ar  
 30  16  36  1   
 31  16  37  1   
 32  17  20  1   
 33  17  38  1   
 34  17  39  1   
 35  18  21  ar  
 36  19  20  1   
 37  19  22  ar  
 38  20  40  1   
 39  20  41  1   
 40  21  23  ar  
 41  21  24  1   
 42  22  23  ar  
 43  22  42  1   
 44  24  25  1   
 45  24  26  1   
 46  25  43  1   
 47  25  44  1   
 48  25  45  1   
 49  26  46  1   
 50  26  47  1   
 51  26  48  1   
@<TRIPOS>SUBSTRUCTURE
  1 ****  11 GROUP 4 **** **** 0

# MOE 2024.06 (io_trps.svl 2023.06)
