@<TRIPOS>MOLECULE
NONAME
41 44 1 0 0 
SMALL
USER_CHARGES


@<TRIPOS>ATOM
  1 CL      -0.9970     0.9790     2.5970 Cl    1 <1>  -0.1770 
  2 C       -2.5300     1.1180     1.7660 C.ar  1 <1>   0.1770 
  3 C       -3.6690     1.4820     2.4610 C.ar  1 <1>   0.1600 
  4 C       -2.5960     0.8620     0.4140 C.ar  1 <1>  -0.1500 
  5 N       -4.8700     1.6110     1.9140 N.ar  1 <1>  -0.6200 
  6 C       -3.8390     0.9940    -0.1630 C.ar  1 <1>  -0.1500 
  7 C       -4.9410     1.3640     0.6090 C.ar  1 <1>   0.4100 
  8 N       -6.1780     1.4780     0.0080 N.pl3 1 <1>  -0.8380 
  9 C       -7.1350     2.4960     0.5510 C.3   1 <1>   0.2090 
 10 C       -6.8490     0.2170    -0.3940 C.3   1 <1>   0.2090 
 11 C       -8.2050     2.8580    -0.4970 C.3   1 <1>   0.1440 
 12 C       -7.9110     0.5160    -1.4600 C.3   1 <1>  -0.1600 
 13 C       -9.1630     3.8620     0.1160 C.ar  1 <1>   0.1670 
 14 C       -8.9190     1.5760    -0.9790 C.3   1 <1>  -0.1600 
 15 C       -7.5900     3.6610    -1.6760 C.3   1 <1>  -0.1600 
 16 N      -10.0810     3.5920     1.0190 N.ar  1 <1>  -0.6200 
 17 C       -8.9560     5.1170    -0.3730 C.ar  1 <1>  -0.1430 
 18 C       -7.8350     5.1510    -1.3810 C.3   1 <1>  -0.0170 
 19 C      -10.7920     4.6400     1.4080 C.ar  1 <1>   0.4770 
 20 C       -9.7530     6.1300     0.1000 C.ar  1 <1>   0.1600 
 21 N      -10.6860     5.8980     1.0010 N.ar  1 <1>  -0.6200 
 22 C      -11.8570     4.3620     2.4410 C.3   1 <1>  -0.0970 
 23 H       -3.5850     1.6760     3.5150 H     1 <1>   0.1500 
 24 H       -1.7230     0.5800    -0.1460 H     1 <1>   0.1500 
 25 H       -3.9820     0.8210    -1.2130 H     1 <1>   0.1500 
 26 H       -6.5960     3.3810     0.8420 H     1 <1>   0.0800 
 27 H       -7.6130     2.0970     1.4300 H     1 <1>   0.0800 
 28 H       -7.3120    -0.2250     0.4730 H     1 <1>   0.0800 
 29 H       -6.1260    -0.4790    -0.7820 H     1 <1>   0.0800 
 30 H       -8.4330    -0.3930    -1.7000 H     1 <1>   0.0800 
 31 H       -7.4170     0.8540    -2.3540 H     1 <1>   0.0800 
 32 H       -9.6180     1.8110    -1.7620 H     1 <1>   0.0800 
 33 H       -9.4820     1.1660    -0.1570 H     1 <1>   0.0800 
 34 H       -8.1050     3.4120    -2.5870 H     1 <1>   0.0800 
 35 H       -6.5440     3.4500    -1.8120 H     1 <1>   0.0800 
 36 H       -8.1120     5.6910    -2.2700 H     1 <1>   0.0800 
 37 H       -6.9620     5.5970    -0.9360 H     1 <1>   0.0800 
 38 H       -9.6270     7.1370    -0.2570 H     1 <1>   0.1500 
 39 H      -11.4930     3.6500     3.1580 H     1 <1>   0.0800 
 40 H      -12.7260     3.9620     1.9540 H     1 <1>   0.0800 
 41 H      -12.1250     5.2680     2.9540 H     1 <1>   0.0800 
@<TRIPOS>BOND
  1   1   2  1   
  2   2   3  ar  
  3   2   4  ar  
  4   3   5  ar  
  5   3  23  1   
  6   4   6  ar  
  7   4  24  1   
  8   5   7  ar  
  9   6   7  ar  
 10   6  25  1   
 11   7   8  1   
 12   8   9  1   
 13   8  10  1   
 14   9  11  1   
 15   9  26  1   
 16   9  27  1   
 17  10  12  1   
 18  10  28  1   
 19  10  29  1   
 20  11  13  1   
 21  11  14  1   
 22  11  15  1   
 23  12  14  1   
 24  12  30  1   
 25  12  31  1   
 26  13  16  ar  
 27  13  17  ar  
 28  14  32  1   
 29  14  33  1   
 30  15  18  1   
 31  15  34  1   
 32  15  35  1   
 33  16  19  ar  
 34  17  18  1   
 35  17  20  ar  
 36  18  36  1   
 37  18  37  1   
 38  19  21  ar  
 39  19  22  1   
 40  20  21  ar  
 41  20  38  1   
 42  22  39  1   
 43  22  40  1   
 44  22  41  1   
@<TRIPOS>SUBSTRUCTURE
  1 ****   9 GROUP 4 **** **** 0

# MOE 2024.06 (io_trps.svl 2023.06)
