@<TRIPOS>MOLECULE
NONAME
47 48 1 0 0 
SMALL
USER_CHARGES


@<TRIPOS>ATOM
  1 S       -1.1240    -0.7820     0.7470 S.o2  1 <1>   1.3330 
  2 O       -2.5390    -0.9060     0.4930 O.2   1 <1>  -0.6500 
  3 O       -0.6420    -0.4400     2.0610 O.2   1 <1>  -0.6500 
  4 N       -0.4370    -2.3150     0.3380 N.am  1 <1>  -0.6930 
  5 C       -0.4250     0.3120    -0.4720 C.3   1 <1>  -0.1350 
  6 C        0.9190    -2.4560     0.0620 C.ar  1 <1>   0.1990 
  7 C       -1.0870    -3.4790     1.0230 C.3   1 <1>   0.2570 
  8 C        1.8980    -1.9870     0.9320 C.ar  1 <1>  -0.1500 
  9 C        1.3170    -3.0840    -1.1160 C.ar  1 <1>  -0.1500 
 10 C       -1.3420    -4.6940     0.1230 C.2   1 <1>   0.5690 
 11 C        3.2260    -2.1420     0.5930 C.ar  1 <1>   0.1900 
 12 C        2.6570    -3.2340    -1.4390 C.ar  1 <1>  -0.1500 
 13 O       -0.5360    -5.5960     0.1680 O.2   1 <1>  -0.5700 
 14 N       -2.4500    -4.7690    -0.6880 N.am  1 <1>  -0.6600 
 15 F        4.1390    -1.6920     1.4100 F     1 <1>  -0.1900 
 16 C        3.6290    -2.7560    -0.5780 C.ar  1 <1>  -0.1500 
 17 C       -2.8690    -6.0950    -1.2070 C.3   1 <1>   0.3200 
 18 C       -3.1840    -3.5710    -1.2070 C.3   1 <1>   0.1400 
 19 C       -3.5120    -6.8840    -0.0860 C.2   1 <1>  -0.3320 
 20 C       -4.4380    -3.2160    -0.3910 C.3   1 <1>   0.1200 
 21 N       -4.6570    -6.5190     0.5120 N.pl3 1 <1>   0.0330 
 22 C       -3.1180    -8.0240     0.5230 C.2   1 <1>   0.0770 
 23 O       -5.4890    -4.0830    -0.6840 O.3   1 <1>  -0.6800 
 24 C       -4.8950    -7.4650     1.4440 C.2   1 <1>   0.0060 
 25 N       -3.9940    -8.3910     1.4800 N.2   1 <1>  -0.5650 
 26 C       -6.1030    -7.4270     2.3530 C.3   1 <1>  -0.0600 
 27 H       -0.8210     1.3000    -0.3470 H     1 <1>   0.0800 
 28 H       -0.6620    -0.0320    -1.4590 H     1 <1>   0.0800 
 29 H        0.6410     0.3560    -0.3680 H     1 <1>   0.0800 
 30 H       -2.0240    -3.1800     1.4550 H     1 <1>   0.0800 
 31 H       -0.4560    -3.7950     1.8340 H     1 <1>   0.0800 
 32 H        1.6380    -1.5140     1.8610 H     1 <1>   0.1500 
 33 H        0.5650    -3.4660    -1.7820 H     1 <1>   0.1500 
 34 H        2.9410    -3.7250    -2.3540 H     1 <1>   0.1500 
 35 H        4.6760    -2.8580    -0.8030 H     1 <1>   0.1500 
 36 H       -2.0080    -6.6270    -1.5770 H     1 <1>   0.0800 
 37 H       -3.5660    -5.9810    -2.0180 H     1 <1>   0.0800 
 38 H       -3.4540    -3.7250    -2.2370 H     1 <1>   0.0800 
 39 H       -2.5190    -2.7290    -1.1950 H     1 <1>   0.0800 
 40 H       -4.7610    -2.2150    -0.6210 H     1 <1>   0.0800 
 41 H       -4.2300    -3.2730     0.6630 H     1 <1>   0.0800 
 42 H       -5.2110    -5.6770     0.2980 H     1 <1>   0.2700 
 43 H       -2.2330    -8.6060     0.3240 H     1 <1>   0.1500 
 44 H       -5.8900    -3.8530    -1.5470 H     1 <1>   0.4000 
 45 H       -6.1010    -6.5200     2.9290 H     1 <1>   0.0800 
 46 H       -6.0780    -8.2650     3.0250 H     1 <1>   0.0800 
 47 H       -7.0040    -7.4770     1.7690 H     1 <1>   0.0800 
@<TRIPOS>BOND
  1   1   2  2   
  2   1   3  2   
  3   1   4  am  
  4   1   5  1   
  5   4   6  1   
  6   4   7  1   
  7   5  27  1   
  8   5  28  1   
  9   5  29  1   
 10   6   8  ar  
 11   6   9  ar  
 12   7  10  1   
 13   7  30  1   
 14   7  31  1   
 15   8  11  ar  
 16   8  32  1   
 17   9  12  ar  
 18   9  33  1   
 19  10  13  2   
 20  10  14  am  
 21  11  15  1   
 22  11  16  ar  
 23  12  16  ar  
 24  12  34  1   
 25  14  17  1   
 26  14  18  1   
 27  16  35  1   
 28  17  19  1   
 29  17  36  1   
 30  17  37  1   
 31  18  20  1   
 32  18  38  1   
 33  18  39  1   
 34  19  21  1   
 35  19  22  2   
 36  20  23  1   
 37  20  40  1   
 38  20  41  1   
 39  21  24  1   
 40  21  42  1   
 41  22  25  1   
 42  22  43  1   
 43  23  44  1   
 44  24  25  2   
 45  24  26  1   
 46  26  45  1   
 47  26  46  1   
 48  26  47  1   
@<TRIPOS>SUBSTRUCTURE
  1 ****  10 GROUP 4 **** **** 0

# MOE 2024.06 (io_trps.svl 2023.06)
