@<TRIPOS>MOLECULE
NONAME
48 51 1 0 0 
SMALL
USER_CHARGES


@<TRIPOS>ATOM
  1 F       -0.9090    -0.1910     0.9860 F     1 <1>  -0.3400 
  2 C       -1.4660     0.3320    -0.0970 C.3   1 <1>   1.1640 
  3 F       -0.8210    -0.1690    -1.1400 F     1 <1>  -0.3400 
  4 F       -2.7030    -0.1450    -0.1530 F     1 <1>  -0.3400 
  5 C       -1.4280     1.8730    -0.0790 C.ar  1 <1>  -0.1440 
  6 C       -2.5670     2.6510    -0.0400 C.ar  1 <1>  -0.1500 
  7 C       -0.1910     2.5290    -0.0880 C.ar  1 <1>  -0.1500 
  8 C       -2.5030     4.0540    -0.0230 C.ar  1 <1>   0.3610 
  9 C       -0.1180     3.8980    -0.0920 C.ar  1 <1>  -0.1500 
 10 N       -3.6510     4.7990     0.1230 N.ar  1 <1>  -0.1790 
 11 C       -1.2620     4.7140    -0.1130 C.ar  1 <1>   0.0000 
 12 C       -3.6330     6.1400     0.1820 C.ar  1 <1>   0.2180 
 13 C       -1.2300     6.1480    -0.1600 C.ar  1 <1>   0.1000 
 14 C       -2.4450     6.8100     0.0450 C.ar  1 <1>  -0.1500 
 15 C       -4.9480     6.8750     0.3840 C.3   1 <1>  -0.0970 
 16 N       -0.1150     6.8810    -0.4290 N.pl3 1 <1>  -0.8380 
 17 C        0.1360     8.1960     0.2750 C.3   1 <1>   0.2090 
 18 C        0.7610     6.5770    -1.6210 C.3   1 <1>   0.2090 
 19 C        1.5860     8.5370     0.6990 C.3   1 <1>   0.2200 
 20 C        2.2860     6.7380    -1.4630 C.3   1 <1>  -0.0190 
 21 N        2.3900     9.0140    -0.4620 N.am  1 <1>  -0.6600 
 22 C        2.3230     7.4410     1.5050 C.3   1 <1>   0.1200 
 23 C        2.6830     8.1940    -1.5110 C.2   1 <1>   0.5690 
 24 C        2.9840     6.0230    -0.2930 C.3   1 <1>   0.1200 
 25 C        2.8080    10.4450    -0.4370 C.3   1 <1>   0.0600 
 26 O        2.3140     6.1700     0.9190 O.3   1 <1>  -0.5600 
 27 O        3.2640     8.5890    -2.4940 O.2   1 <1>  -0.5700 
 28 H       -3.5350     2.1780    -0.0120 H     1 <1>   0.1500 
 29 H        0.7190     1.9480    -0.0840 H     1 <1>   0.1500 
 30 H        0.8460     4.3680    -0.0620 H     1 <1>   0.1500 
 31 H       -4.5360     4.2970     0.2120 H     1 <1>   0.4570 
 32 H       -2.4500     7.8840     0.0600 H     1 <1>   0.1500 
 33 H       -4.7900     7.9390     0.4050 H     1 <1>   0.0800 
 34 H       -5.4010     6.5870     1.3170 H     1 <1>   0.0800 
 35 H       -5.6290     6.6560    -0.4190 H     1 <1>   0.0800 
 36 H       -0.2280     8.9950    -0.3470 H     1 <1>   0.0800 
 37 H       -0.4490     8.2010     1.1770 H     1 <1>   0.0800 
 38 H        0.5640     5.5750    -1.9560 H     1 <1>   0.0800 
 39 H        0.4500     7.2230    -2.4240 H     1 <1>   0.0800 
 40 H        1.5000     9.3730     1.3700 H     1 <1>   0.0800 
 41 H        2.7120     6.3070    -2.3500 H     1 <1>   0.0800 
 42 H        1.8400     7.3330     2.4600 H     1 <1>   0.0800 
 43 H        3.3450     7.7300     1.6810 H     1 <1>   0.0800 
 44 H        3.9940     6.3770    -0.1740 H     1 <1>   0.0800 
 45 H        3.0250     4.9680    -0.4960 H     1 <1>   0.0800 
 46 H        3.3990    10.6380     0.4410 H     1 <1>   0.0800 
 47 H        1.9400    11.0800    -0.4310 H     1 <1>   0.0800 
 48 H        3.4010    10.6860    -1.3040 H     1 <1>   0.0800 
@<TRIPOS>BOND
  1   1   2  1   
  2   2   3  1   
  3   2   4  1   
  4   2   5  1   
  5   5   6  ar  
  6   5   7  ar  
  7   6   8  ar  
  8   6  28  1   
  9   7   9  ar  
 10   7  29  1   
 11   8  10  ar  
 12   8  11  ar  
 13   9  11  ar  
 14   9  30  1   
 15  10  12  ar  
 16  10  31  1   
 17  11  13  ar  
 18  12  14  ar  
 19  12  15  1   
 20  13  14  ar  
 21  13  16  1   
 22  14  32  1   
 23  15  33  1   
 24  15  34  1   
 25  15  35  1   
 26  16  17  1   
 27  16  18  1   
 28  17  19  1   
 29  17  36  1   
 30  17  37  1   
 31  18  20  1   
 32  18  38  1   
 33  18  39  1   
 34  19  21  1   
 35  19  22  1   
 36  19  40  1   
 37  20  23  1   
 38  20  24  1   
 39  20  41  1   
 40  21  23  am  
 41  21  25  1   
 42  22  26  1   
 43  22  42  1   
 44  22  43  1   
 45  23  27  2   
 46  24  26  1   
 47  24  44  1   
 48  24  45  1   
 49  25  46  1   
 50  25  47  1   
 51  25  48  1   
@<TRIPOS>SUBSTRUCTURE
  1 ****  11 GROUP 4 **** **** 0

# MOE 2024.06 (io_trps.svl 2023.06)
