@<TRIPOS>MOLECULE
NONAME
49 51 1 0 0 
SMALL
USER_CHARGES


@<TRIPOS>ATOM
  1 O        2.5660     0.2930    -0.0450 O.2   1 <1>  -0.5700 
  2 C        3.2050    -0.7340     0.1230 C.2   1 <1>   0.5440 
  3 N        4.5630    -0.6060     0.3790 N.am  1 <1>  -0.6600 
  4 C        2.5020    -2.0130    -0.0110 C.ar  1 <1>   0.3960 
  5 C        5.5570    -1.7260     0.3780 C.3   1 <1>   0.1400 
  6 C        5.1720     0.7250     0.6490 C.3   1 <1>   0.1400 
  7 N        2.6980    -3.0220     0.8410 N.ar  1 <1>  -0.6200 
  8 C        1.5960    -2.1730    -1.0430 C.ar  1 <1>  -0.1500 
  9 C        6.4110    -1.7410    -0.8970 C.3   1 <1>   0.1400 
 10 C        5.5290     1.4540    -0.6510 C.3   1 <1>  -0.1600 
 11 C        2.0070    -4.1220     0.6290 C.ar  1 <1>   0.4770 
 12 C        0.9340    -3.3670    -1.1710 C.ar  1 <1>   0.1660 
 13 N        7.1210    -0.4430    -1.1290 N.am  1 <1>  -0.6600 
 14 C        6.2600     0.6250    -1.7180 C.3   1 <1>   0.1400 
 15 N        1.1380    -4.3560    -0.3360 N.ar  1 <1>  -0.6200 
 16 C        2.2290    -5.2570     1.5980 C.3   1 <1>  -0.0970 
 17 C       -0.0690    -3.6000    -2.2810 C.3   1 <1>  -0.0970 
 18 C        8.4420    -0.2980    -0.7820 C.2   1 <1>   0.5690 
 19 O        9.0250    -1.1630    -0.1690 O.2   1 <1>  -0.5700 
 20 C        9.2390     0.9400    -1.1490 C.3   1 <1>   0.0440 
 21 C        8.8970     2.1260    -0.2670 C.ar  1 <1>   0.1670 
 22 N        8.6570     3.2700    -0.8930 N.ar  1 <1>  -0.6200 
 23 C        8.8550     1.9750     1.1120 C.ar  1 <1>  -0.1500 
 24 C        8.3610     4.3000    -0.1150 C.ar  1 <1>   0.1600 
 25 C        8.5390     3.0540     1.9090 C.ar  1 <1>  -0.1500 
 26 C        8.2870     4.2470     1.2660 C.ar  1 <1>  -0.1500 
 27 H        5.0700    -2.6770     0.4640 H     1 <1>   0.0800 
 28 H        6.2060    -1.6300     1.2310 H     1 <1>   0.0800 
 29 H        6.0610     0.6010     1.2440 H     1 <1>   0.0800 
 30 H        4.4850     1.3270     1.2200 H     1 <1>   0.0800 
 31 H        1.4190    -1.3620    -1.7250 H     1 <1>   0.1500 
 32 H        5.7840    -1.9660    -1.7410 H     1 <1>   0.0800 
 33 H        7.1310    -2.5380    -0.8180 H     1 <1>   0.0800 
 34 H        6.1280     2.3070    -0.3980 H     1 <1>   0.0800 
 35 H        4.6250     1.8430    -1.0850 H     1 <1>   0.0800 
 36 H        6.8410     1.2810    -2.3420 H     1 <1>   0.0800 
 37 H        5.5230     0.1610    -2.3520 H     1 <1>   0.0800 
 38 H        2.9330    -4.9750     2.3600 H     1 <1>   0.0800 
 39 H        2.6080    -6.1100     1.0680 H     1 <1>   0.0800 
 40 H        1.2970    -5.5170     2.0620 H     1 <1>   0.0800 
 41 H       -0.1680    -2.7310    -2.9040 H     1 <1>   0.0800 
 42 H       -1.0280    -3.8330    -1.8540 H     1 <1>   0.0800 
 43 H        0.2500    -4.4290    -2.8860 H     1 <1>   0.0800 
 44 H        9.0680     1.1770    -2.1810 H     1 <1>   0.0800 
 45 H       10.2850     0.7270    -1.0400 H     1 <1>   0.0800 
 46 H        9.0680     1.0210     1.5620 H     1 <1>   0.1500 
 47 H        8.1670     5.2380    -0.6050 H     1 <1>   0.1500 
 48 H        8.4950     2.9690     2.9810 H     1 <1>   0.1500 
 49 H        8.0370     5.1290     1.8280 H     1 <1>   0.1500 
@<TRIPOS>BOND
  1   1   2  2   
  2   2   3  am  
  3   2   4  1   
  4   3   5  1   
  5   3   6  1   
  6   4   7  ar  
  7   4   8  ar  
  8   5   9  1   
  9   5  27  1   
 10   5  28  1   
 11   6  10  1   
 12   6  29  1   
 13   6  30  1   
 14   7  11  ar  
 15   8  12  ar  
 16   8  31  1   
 17   9  13  1   
 18   9  32  1   
 19   9  33  1   
 20  10  14  1   
 21  10  34  1   
 22  10  35  1   
 23  11  15  ar  
 24  11  16  1   
 25  12  15  ar  
 26  12  17  1   
 27  13  14  1   
 28  13  18  am  
 29  14  36  1   
 30  14  37  1   
 31  16  38  1   
 32  16  39  1   
 33  16  40  1   
 34  17  41  1   
 35  17  42  1   
 36  17  43  1   
 37  18  19  2   
 38  18  20  1   
 39  20  21  1   
 40  20  44  1   
 41  20  45  1   
 42  21  22  ar  
 43  21  23  ar  
 44  22  24  ar  
 45  23  25  ar  
 46  23  46  1   
 47  24  26  ar  
 48  24  47  1   
 49  25  26  ar  
 50  25  48  1   
 51  26  49  1   
@<TRIPOS>SUBSTRUCTURE
  1 ****   3 GROUP 4 **** **** 0

# MOE 2024.06 (io_trps.svl 2023.06)
