@<TRIPOS>MOLECULE
NONAME
37 38 1 0 0 
SMALL
USER_CHARGES


@<TRIPOS>ATOM
  1 S       -0.0110     0.1980     0.4770 S.o2  1 <1>   1.5760 
  2 O       -0.8240     0.9470     1.4090 O.2   1 <1>  -0.6500 
  3 O        0.4970    -1.1060     0.8400 O.2   1 <1>  -0.6500 
  4 N        1.3040     1.1430     0.0210 N.am  1 <1>  -0.8490 
  5 N       -0.8460     0.0880    -0.9900 N.am  1 <1>  -0.8490 
  6 C        1.9870     1.6080     1.2320 C.3   1 <1>   0.3770 
  7 C        2.2110     0.4390    -0.8940 C.3   1 <1>   0.1160 
  8 C       -1.9080    -0.9150    -0.9270 C.3   1 <1>   0.1160 
  9 C       -1.3900     1.3800    -1.4170 C.3   1 <1>   0.1160 
 10 C        3.2270     2.4560     0.9460 C.2   1 <1>   0.0460 
 11 N        3.0650     3.7060     0.3720 N.2   1 <1>  -0.5650 
 12 C        4.4880     2.0840     1.2140 C.2   1 <1>  -0.1100 
 13 C        4.1840     4.3150     0.1800 C.2   1 <1>   0.3250 
 14 S        5.5590     3.3540     0.7200 S.3   1 <1>  -0.0800 
 15 C        4.4040     5.6240    -0.4010 C.ar  1 <1>   0.0530 
 16 C        3.3190     6.3630    -0.8780 C.ar  1 <1>  -0.1500 
 17 C        5.6680     6.2120    -0.5190 C.ar  1 <1>  -0.1500 
 18 C        3.4790     7.6150    -1.4420 C.ar  1 <1>  -0.1500 
 19 C        5.8350     7.4640    -1.0820 C.ar  1 <1>  -0.1500 
 20 C        4.7410     8.1700    -1.5460 C.ar  1 <1>  -0.1500 
 21 H        2.2750     0.7590     1.8290 H     1 <1>   0.0800 
 22 H        1.3080     2.2080     1.8160 H     1 <1>   0.0800 
 23 H        1.6630     0.0720    -1.7450 H     1 <1>   0.0800 
 24 H        2.6790    -0.3960    -0.3990 H     1 <1>   0.0800 
 25 H        2.9700     1.1100    -1.2570 H     1 <1>   0.0800 
 26 H       -1.4890    -1.8760    -0.6800 H     1 <1>   0.0800 
 27 H       -2.3990    -0.9950    -1.8820 H     1 <1>   0.0800 
 28 H       -2.6330    -0.6480    -0.1760 H     1 <1>   0.0800 
 29 H       -0.5970     2.1040    -1.5050 H     1 <1>   0.0800 
 30 H       -2.1100     1.7430    -0.7020 H     1 <1>   0.0800 
 31 H       -1.8650     1.2820    -2.3780 H     1 <1>   0.0800 
 32 H        4.9160     1.1990     1.6470 H     1 <1>   0.1500 
 33 H        2.3310     5.9430    -0.8040 H     1 <1>   0.1500 
 34 H        6.5430     5.6960    -0.1690 H     1 <1>   0.1500 
 35 H        2.6210     8.1590    -1.8000 H     1 <1>   0.1500 
 36 H        6.8200     7.8920    -1.1600 H     1 <1>   0.1500 
 37 H        4.8690     9.1450    -1.9840 H     1 <1>   0.1500 
@<TRIPOS>BOND
  1   1   2  2   
  2   1   3  2   
  3   1   4  am  
  4   1   5  am  
  5   4   6  1   
  6   4   7  1   
  7   5   8  1   
  8   5   9  1   
  9   6  10  1   
 10   6  21  1   
 11   6  22  1   
 12   7  23  1   
 13   7  24  1   
 14   7  25  1   
 15   8  26  1   
 16   8  27  1   
 17   8  28  1   
 18   9  29  1   
 19   9  30  1   
 20   9  31  1   
 21  10  11  1   
 22  10  12  2   
 23  11  13  2   
 24  12  14  1   
 25  12  32  1   
 26  13  14  1   
 27  13  15  1   
 28  15  16  ar  
 29  15  17  ar  
 30  16  18  ar  
 31  16  33  1   
 32  17  19  ar  
 33  17  34  1   
 34  18  20  ar  
 35  18  35  1   
 36  19  20  ar  
 37  19  36  1   
 38  20  37  1   
@<TRIPOS>SUBSTRUCTURE
  1 ****  11 GROUP 4 **** **** 0

# MOE 2024.06 (io_trps.svl 2023.06)
