@<TRIPOS>MOLECULE
NONAME
53 55 1 0 0 
SMALL
USER_CHARGES


@<TRIPOS>ATOM
  1 O        0.3770    -0.3350    -1.0920 O.2   1 <1>  -0.5700 
  2 C       -0.4780     0.5160    -1.0920 C.2   1 <1>   0.5690 
  3 N       -1.8080     0.2170    -0.9980 N.am  1 <1>  -0.6600 
  4 C       -0.0290     1.9560    -1.1520 C.3   1 <1>  -0.0990 
  5 C       -2.9290     1.1930    -0.9070 C.3   1 <1>   0.1400 
  6 C       -2.3100    -1.1650    -0.8060 C.3   1 <1>   0.1400 
  7 C        0.1270     2.4890     0.2760 C.3   1 <1>   0.0960 
  8 C       -4.1730     0.3490    -0.6210 C.3   1 <1>   0.2000 
  9 C       -3.6560    -0.9920    -0.1020 C.3   1 <1>  -0.0800 
 10 N       -0.1920     3.9280     0.3270 N.pl3 1 <1>   0.3140 
 11 O       -4.9870     0.9440     0.3300 O.3   1 <1>  -0.6800 
 12 C       -4.6470    -2.1420    -0.3440 C.3   1 <1>  -0.0160 
 13 N       -1.4740     4.3120     0.3840 N.2   1 <1>  -0.7070 
 14 C        0.6410     4.9860     0.3140 C.2   1 <1>  -0.3320 
 15 C       -4.1160    -3.4620     0.1880 C.ar  1 <1>   0.1670 
 16 C       -1.4380     5.6010     0.4110 C.2   1 <1>   0.1080 
 17 C       -0.1330     6.1180     0.3560 C.2   1 <1>  -0.0860 
 18 C        2.1580     4.8340     0.2850 C.3   1 <1>  -0.0600 
 19 N       -3.3270    -4.1490    -0.6240 N.ar  1 <1>  -0.6200 
 20 C       -4.4650    -3.8770     1.4650 C.ar  1 <1>  -0.1500 
 21 C       -2.7120     6.4180     0.4860 C.3   1 <1>  -0.0590 
 22 C        0.1920     7.5230     0.3410 C.2   1 <1>   0.5950 
 23 C       -2.8670    -5.2940    -0.1440 C.ar  1 <1>   0.1600 
 24 C       -3.9790    -5.0710     1.9520 C.ar  1 <1>  -0.1500 
 25 O       -0.4870     8.3760     0.8550 O.2   1 <1>  -0.5700 
 26 C        1.4310     8.0050    -0.3810 C.3   1 <1>  -0.1790 
 27 C       -3.1560    -5.7930     1.1140 C.ar  1 <1>  -0.1500 
 28 H        0.9110     2.0140    -1.6680 H     1 <1>   0.0800 
 29 H       -0.7490     2.5310    -1.7040 H     1 <1>   0.0800 
 30 H       -2.7440     1.8900    -0.1080 H     1 <1>   0.0800 
 31 H       -3.0390     1.7210    -1.8380 H     1 <1>   0.0800 
 32 H       -2.4360    -1.6310    -1.7690 H     1 <1>   0.0800 
 33 H       -1.6260    -1.7530    -0.2170 H     1 <1>   0.0800 
 34 H        1.1220     2.3130     0.6380 H     1 <1>   0.0800 
 35 H       -0.5600     1.9890     0.9340 H     1 <1>   0.0800 
 36 H       -4.7440     0.2230    -1.5250 H     1 <1>   0.0800 
 37 H       -3.4530    -0.9140     0.9520 H     1 <1>   0.0800 
 38 H       -4.4660     1.1820     1.1220 H     1 <1>   0.4000 
 39 H       -4.8440    -2.2440    -1.3970 H     1 <1>   0.0800 
 40 H       -5.5800    -1.9120     0.1370 H     1 <1>   0.0800 
 41 H        2.6520     5.7660     0.4840 H     1 <1>   0.0800 
 42 H        2.4760     4.4720    -0.6760 H     1 <1>   0.0800 
 43 H        2.4770     4.1390     1.0410 H     1 <1>   0.0800 
 44 H       -5.1110    -3.2710     2.0740 H     1 <1>   0.1500 
 45 H       -2.7330     7.1410    -0.3080 H     1 <1>   0.0800 
 46 H       -2.7590     6.9290     1.4300 H     1 <1>   0.0800 
 47 H       -3.5680     5.7760     0.3950 H     1 <1>   0.0800 
 48 H       -2.2220    -5.8660    -0.7900 H     1 <1>   0.1500 
 49 H       -4.2300    -5.4230     2.9370 H     1 <1>   0.1500 
 50 H        1.7030     7.3180    -1.1590 H     1 <1>   0.0800 
 51 H        2.2380     8.1060     0.3190 H     1 <1>   0.0800 
 52 H        1.2360     8.9640    -0.8230 H     1 <1>   0.0800 
 53 H       -2.7410    -6.7320     1.4300 H     1 <1>   0.1500 
@<TRIPOS>BOND
  1   1   2  2   
  2   2   3  am  
  3   2   4  1   
  4   3   5  1   
  5   3   6  1   
  6   4   7  1   
  7   4  28  1   
  8   4  29  1   
  9   5   8  1   
 10   5  30  1   
 11   5  31  1   
 12   6   9  1   
 13   6  32  1   
 14   6  33  1   
 15   7  10  1   
 16   7  34  1   
 17   7  35  1   
 18   8   9  1   
 19   8  11  1   
 20   8  36  1   
 21   9  12  1   
 22   9  37  1   
 23  10  13  1   
 24  10  14  1   
 25  11  38  1   
 26  12  15  1   
 27  12  39  1   
 28  12  40  1   
 29  13  16  2   
 30  14  17  2   
 31  14  18  1   
 32  15  19  ar  
 33  15  20  ar  
 34  16  17  1   
 35  16  21  1   
 36  17  22  1   
 37  18  41  1   
 38  18  42  1   
 39  18  43  1   
 40  19  23  ar  
 41  20  24  ar  
 42  20  44  1   
 43  21  45  1   
 44  21  46  1   
 45  21  47  1   
 46  22  25  2   
 47  22  26  1   
 48  23  27  ar  
 49  23  48  1   
 50  24  27  ar  
 51  24  49  1   
 52  26  50  1   
 53  26  51  1   
 54  26  52  1   
 55  27  53  1   
@<TRIPOS>SUBSTRUCTURE
  1 ****   5 GROUP 4 **** **** 0

# MOE 2024.06 (io_trps.svl 2023.06)
