@<TRIPOS>MOLECULE
NONAME
50 52 1 0 0 
SMALL
USER_CHARGES


@<TRIPOS>ATOM
  1 O       -1.4500    -0.6300    -0.3990 O.3   1 <1>  -0.3630 
  2 C       -1.7400     0.4670     0.3650 C.ar  1 <1>   0.0830 
  3 C       -0.1330    -0.8480    -0.8670 C.3   1 <1>   0.0400 
  4 C       -1.2010     1.7440     0.1360 C.ar  1 <1>   0.0830 
  5 C       -2.6380     0.2710     1.4130 C.ar  1 <1>  -0.1440 
  6 O       -0.3850     1.9470    -0.9380 O.3   1 <1>  -0.3620 
  7 C       -1.5340     2.7840     1.0000 C.ar  1 <1>  -0.1500 
  8 C       -2.9540     1.3230     2.2600 C.ar  1 <1>  -0.1500 
  9 C       -3.2800    -1.0840     1.6560 C.3   1 <1>   0.4860 
 10 C        0.1270     3.2210    -1.2670 C.3   1 <1>   0.0400 
 11 C       -2.4010     2.5720     2.0560 C.ar  1 <1>  -0.1500 
 12 N       -3.9280    -1.5870     0.4120 N.4   1 <1>  -0.9590 
 13 C       -5.3100    -1.0660     0.2010 C.3   1 <1>   0.4230 
 14 C       -3.8600    -3.0770     0.3790 C.3   1 <1>   0.2630 
 15 C       -5.9520    -1.6410    -1.0560 C.3   1 <1>  -0.1600 
 16 C       -5.3580     0.4400    -0.0450 C.3   1 <1>  -0.1600 
 17 C       -7.0740    -0.6610    -1.4160 C.3   1 <1>  -0.0800 
 18 C       -6.6410     0.7020    -0.8510 C.3   1 <1>  -0.0800 
 19 C       -8.4140    -1.0070    -0.7390 C.3   1 <1>  -0.1600 
 20 C       -7.8130     1.1960     0.0130 C.3   1 <1>  -0.1600 
 21 C       -8.5900    -0.0450     0.4300 C.3   1 <1>   0.2000 
 22 O       -7.9900    -0.5860     1.5540 O.3   1 <1>  -0.6800 
 23 H        0.0000    -1.9010    -1.0350 H     1 <1>   0.0800 
 24 H        0.5700    -0.5020    -0.1290 H     1 <1>   0.0800 
 25 H        0.0010    -0.3170    -1.7930 H     1 <1>   0.0800 
 26 H       -1.1340     3.7710     0.8710 H     1 <1>   0.1500 
 27 H       -3.6330     1.1850     3.0850 H     1 <1>   0.1500 
 28 H       -4.0050    -1.0190     2.4510 H     1 <1>   0.0800 
 29 H       -2.5030    -1.7660     1.9610 H     1 <1>   0.0800 
 30 H        0.7130     3.1250    -2.1630 H     1 <1>   0.0800 
 31 H        0.7500     3.5680    -0.4610 H     1 <1>   0.0800 
 32 H       -0.6930     3.8950    -1.4400 H     1 <1>   0.0800 
 33 H       -2.6460     3.3860     2.7180 H     1 <1>   0.1500 
 34 H       -3.3250    -1.2090    -0.3410 H     1 <1>   0.4500 
 35 H       -5.9300    -1.3110     1.0470 H     1 <1>   0.0800 
 36 H       -4.4810    -3.4980     1.1530 H     1 <1>   0.0800 
 37 H       -2.8440    -3.4070     0.5280 H     1 <1>   0.0800 
 38 H       -4.1980    -3.4470    -0.5750 H     1 <1>   0.0800 
 39 H       -5.2360    -1.6460    -1.8600 H     1 <1>   0.0800 
 40 H       -6.3300    -2.6350    -0.9030 H     1 <1>   0.0800 
 41 H       -5.3540     0.9910     0.8770 H     1 <1>   0.0800 
 42 H       -4.5180     0.7400    -0.6460 H     1 <1>   0.0800 
 43 H       -7.2060    -0.6200    -2.4850 H     1 <1>   0.0800 
 44 H       -6.4390     1.4090    -1.6390 H     1 <1>   0.0800 
 45 H       -8.4970    -2.0340    -0.4290 H     1 <1>   0.0800 
 46 H       -9.2020    -0.8130    -1.4440 H     1 <1>   0.0800 
 47 H       -8.4570     1.7930    -0.6090 H     1 <1>   0.0800 
 48 H       -7.5120     1.8010     0.8500 H     1 <1>   0.0800 
 49 H       -9.6260     0.1520     0.6510 H     1 <1>   0.0800 
 50 H       -8.2680    -0.0790     2.3420 H     1 <1>   0.4000 
@<TRIPOS>BOND
  1   1   2  1   
  2   1   3  1   
  3   2   4  ar  
  4   2   5  ar  
  5   3  23  1   
  6   3  24  1   
  7   3  25  1   
  8   4   6  1   
  9   4   7  ar  
 10   5   8  ar  
 11   5   9  1   
 12   6  10  1   
 13   7  11  ar  
 14   7  26  1   
 15   8  11  ar  
 16   8  27  1   
 17   9  12  1   
 18   9  28  1   
 19   9  29  1   
 20  10  30  1   
 21  10  31  1   
 22  10  32  1   
 23  11  33  1   
 24  12  13  1   
 25  12  14  1   
 26  12  34  1   
 27  13  15  1   
 28  13  16  1   
 29  13  35  1   
 30  14  36  1   
 31  14  37  1   
 32  14  38  1   
 33  15  17  1   
 34  15  39  1   
 35  15  40  1   
 36  16  18  1   
 37  16  41  1   
 38  16  42  1   
 39  17  18  1   
 40  17  19  1   
 41  17  43  1   
 42  18  20  1   
 43  18  44  1   
 44  19  21  1   
 45  19  45  1   
 46  19  46  1   
 47  20  21  1   
 48  20  47  1   
 49  20  48  1   
 50  21  22  1   
 51  21  49  1   
 52  22  50  1   
@<TRIPOS>SUBSTRUCTURE
  1 ****  16 GROUP 4 **** **** 0

# MOE 2024.06 (io_trps.svl 2023.06)
