@<TRIPOS>MOLECULE
NONAME
51 53 1 0 0 
SMALL
USER_CHARGES


@<TRIPOS>ATOM
  1 O       -2.5470     0.4640    -2.0230 O.2   1 <1>  -0.5700 
  2 C       -1.7790     0.9480    -1.2260 C.2   1 <1>   0.5690 
  3 N       -2.0870     1.3440     0.0290 N.am  1 <1>  -0.6600 
  4 C       -0.3160     1.1510    -1.5040 C.3   1 <1>  -0.0990 
  5 C       -0.9200     1.8090     0.7920 C.3   1 <1>   0.1400 
  6 C       -3.4240     1.2260     0.6440 C.3   1 <1>   0.1400 
  7 C        0.1930     1.9060    -0.2610 C.3   1 <1>  -0.1600 
  8 C       -3.6250    -0.2090     1.1320 C.3   1 <1>  -0.1600 
  9 C       -5.1160    -0.5540     1.2870 C.3   1 <1>  -0.0990 
 10 C       -5.3340    -2.0580     1.2830 C.2   1 <1>   0.5690 
 11 O       -5.5090    -2.5920     2.3520 O.2   1 <1>  -0.5700 
 12 N       -5.3110    -2.7580     0.1060 N.am  1 <1>  -0.6600 
 13 C       -5.3600    -4.2600     0.1300 C.3   1 <1>   0.3640 
 14 C       -5.2600    -2.1100    -1.2490 C.3   1 <1>   0.1400 
 15 C       -3.9530    -4.8780     0.1730 C.ar  1 <1>  -0.1440 
 16 C       -6.1860    -4.8690    -1.0480 C.3   1 <1>   0.2000 
 17 C       -5.3150    -3.1290    -2.3940 C.3   1 <1>   0.1200 
 18 C       -2.8020    -4.2190    -0.2480 C.ar  1 <1>  -0.1500 
 19 C       -3.8310    -6.1710     0.6650 C.ar  1 <1>  -0.1500 
 20 O       -6.3590    -4.0200    -2.1610 O.3   1 <1>  -0.5600 
 21 C       -7.5910    -5.2810    -0.5910 C.3   1 <1>   0.1200 
 22 C       -1.5680    -4.8430    -0.1930 C.ar  1 <1>  -0.1500 
 23 C       -2.5980    -6.7980     0.7220 C.ar  1 <1>  -0.1500 
 24 O       -7.5210    -6.4020     0.2320 O.3   1 <1>  -0.6800 
 25 C       -1.4650    -6.1350     0.2900 C.ar  1 <1>  -0.1500 
 26 H        0.1580     0.1920    -1.5980 H     1 <1>   0.0800 
 27 H       -0.1790     1.7210    -2.4040 H     1 <1>   0.0800 
 28 H       -1.1170     2.7650     1.2470 H     1 <1>   0.0800 
 29 H       -0.6740     1.0830     1.5490 H     1 <1>   0.0800 
 30 H       -3.5300     1.9280     1.4540 H     1 <1>   0.0800 
 31 H       -4.1570     1.4630    -0.1100 H     1 <1>   0.0800 
 32 H        0.3510     2.9420    -0.5060 H     1 <1>   0.0800 
 33 H        1.1170     1.4960     0.1080 H     1 <1>   0.0800 
 34 H       -3.1850    -0.8820     0.4180 H     1 <1>   0.0800 
 35 H       -3.1190    -0.3560     2.0700 H     1 <1>   0.0800 
 36 H       -5.6960    -0.1180     0.4960 H     1 <1>   0.0800 
 37 H       -5.4840    -0.1500     2.2130 H     1 <1>   0.0800 
 38 H       -5.8400    -4.5660     1.0450 H     1 <1>   0.0800 
 39 H       -6.1000    -1.4470    -1.3510 H     1 <1>   0.0800 
 40 H       -4.3630    -1.5250    -1.3490 H     1 <1>   0.0800 
 41 H       -5.6830    -5.7450    -1.4150 H     1 <1>   0.0800 
 42 H       -4.3940    -3.6790    -2.4820 H     1 <1>   0.0800 
 43 H       -5.5070    -2.6280    -3.3260 H     1 <1>   0.0800 
 44 H       -2.8460    -3.2130    -0.6180 H     1 <1>   0.1500 
 45 H       -4.7020    -6.6990     1.0140 H     1 <1>   0.1500 
 46 H       -8.2080    -5.5280    -1.4380 H     1 <1>   0.0800 
 47 H       -8.0480    -4.4830    -0.0310 H     1 <1>   0.0800 
 48 H       -0.6880    -4.3210    -0.5240 H     1 <1>   0.1500 
 49 H       -2.5220    -7.8000     1.1060 H     1 <1>   0.1500 
 50 H       -7.3780    -7.2110    -0.2980 H     1 <1>   0.4000 
 51 H       -0.5050    -6.6200     0.3330 H     1 <1>   0.1500 
@<TRIPOS>BOND
  1   1   2  2   
  2   2   3  am  
  3   2   4  1   
  4   3   5  1   
  5   3   6  1   
  6   4   7  1   
  7   4  26  1   
  8   4  27  1   
  9   5   7  1   
 10   5  28  1   
 11   5  29  1   
 12   6   8  1   
 13   6  30  1   
 14   6  31  1   
 15   7  32  1   
 16   7  33  1   
 17   8   9  1   
 18   8  34  1   
 19   8  35  1   
 20   9  10  1   
 21   9  36  1   
 22   9  37  1   
 23  10  11  2   
 24  10  12  am  
 25  12  13  1   
 26  12  14  1   
 27  13  15  1   
 28  13  16  1   
 29  13  38  1   
 30  14  17  1   
 31  14  39  1   
 32  14  40  1   
 33  15  18  ar  
 34  15  19  ar  
 35  16  20  1   
 36  16  21  1   
 37  16  41  1   
 38  17  20  1   
 39  17  42  1   
 40  17  43  1   
 41  18  22  ar  
 42  18  44  1   
 43  19  23  ar  
 44  19  45  1   
 45  21  24  1   
 46  21  46  1   
 47  21  47  1   
 48  22  25  ar  
 49  22  48  1   
 50  23  25  ar  
 51  23  49  1   
 52  24  50  1   
 53  25  51  1   
@<TRIPOS>SUBSTRUCTURE
  1 ****  12 GROUP 4 **** **** 0

# MOE 2024.06 (io_trps.svl 2023.06)
