@<TRIPOS>MOLECULE
NONAME
43 46 1 0 0 
SMALL
USER_CHARGES


@<TRIPOS>ATOM
  1 S        0.2420     0.0860    -0.4130 S.3   1 <1>  -0.0800 
  2 C        0.3780     1.6570     0.2970 C.2   1 <1>   0.4620 
  3 C       -1.2900    -0.0950     0.3970 C.2   1 <1>   0.3250 
  4 N       -0.6340     1.9390     1.0380 N.2   1 <1>  -0.3380 
  5 N        1.4800     2.4310     0.0330 N.pl3 1 <1>  -0.8220 
  6 N       -1.5670     0.9530     1.0930 N.2   1 <1>  -0.3380 
  7 C       -2.0610    -1.3070     0.2370 C.ar  1 <1>   0.0530 
  8 C        1.6070     3.8110     0.5790 C.3   1 <1>   0.4690 
  9 C        2.7400     1.9590    -0.5710 C.3   1 <1>   0.2090 
 10 C       -3.2780    -1.4510     0.9080 C.ar  1 <1>  -0.1500 
 11 C       -1.6560    -2.3760    -0.5710 C.ar  1 <1>  -0.1500 
 12 C        0.5720     4.8010     0.0350 C.2   1 <1>   0.2980 
 13 C        3.0370     4.2220     0.2130 C.3   1 <1>  -0.1600 
 14 C        3.7920     2.9140    -0.0240 C.3   1 <1>  -0.1600 
 15 C       -4.0490    -2.5920     0.7860 C.ar  1 <1>  -0.1500 
 16 C       -2.4220    -3.5200    -0.6970 C.ar  1 <1>  -0.1500 
 17 O        0.2960     4.7820    -1.2460 O.3   1 <1>  -0.0190 
 18 N       -0.0520     5.6820     0.7140 N.2   1 <1>  -0.5650 
 19 C       -3.6210    -3.6320    -0.0180 C.ar  1 <1>  -0.1500 
 20 N       -0.5830     5.7260    -1.3930 N.2   1 <1>  -0.4100 
 21 C       -0.7860     6.2360    -0.2430 C.2   1 <1>   0.3350 
 22 C       -1.7530     7.3770     0.0790 C.3   1 <1>   0.1010 
 23 C       -2.9410     7.4320    -0.8950 C.3   1 <1>  -0.2400 
 24 C       -1.0160     8.7230     0.0880 C.3   1 <1>  -0.2400 
 25 H        1.5110     3.7620     1.6500 H     1 <1>   0.0800 
 26 H        2.9550     0.9400    -0.2960 H     1 <1>   0.0800 
 27 H        2.6710     2.0440    -1.6430 H     1 <1>   0.0800 
 28 H       -3.6270    -0.6510     1.5390 H     1 <1>   0.1500 
 29 H       -0.7310    -2.3260    -1.1150 H     1 <1>   0.1500 
 30 H        3.0220     4.7970    -0.6970 H     1 <1>   0.0800 
 31 H        3.4820     4.8190     0.9890 H     1 <1>   0.0800 
 32 H        4.1600     2.5280     0.9110 H     1 <1>   0.0800 
 33 H        4.6170     3.0320    -0.7040 H     1 <1>   0.0800 
 34 H       -4.9810    -2.6720     1.3180 H     1 <1>   0.1500 
 35 H       -2.0860    -4.3280    -1.3250 H     1 <1>   0.1500 
 36 H       -4.2180    -4.5230    -0.1160 H     1 <1>   0.1500 
 37 H       -2.1430     7.1960     1.0660 H     1 <1>   0.0800 
 38 H       -2.5990     7.6330    -1.8950 H     1 <1>   0.0800 
 39 H       -3.6320     8.2020    -0.6020 H     1 <1>   0.0800 
 40 H       -3.4570     6.4880    -0.8940 H     1 <1>   0.0800 
 41 H       -0.6040     8.9280    -0.8840 H     1 <1>   0.0800 
 42 H       -0.2120     8.6950     0.8020 H     1 <1>   0.0800 
 43 H       -1.6870     9.5180     0.3590 H     1 <1>   0.0800 
@<TRIPOS>BOND
  1   1   2  1   
  2   1   3  1   
  3   2   4  2   
  4   2   5  1   
  5   3   6  2   
  6   3   7  1   
  7   4   6  1   
  8   5   8  1   
  9   5   9  1   
 10   7  10  ar  
 11   7  11  ar  
 12   8  12  1   
 13   8  13  1   
 14   8  25  1   
 15   9  14  1   
 16   9  26  1   
 17   9  27  1   
 18  10  15  ar  
 19  10  28  1   
 20  11  16  ar  
 21  11  29  1   
 22  12  17  1   
 23  12  18  2   
 24  13  14  1   
 25  13  30  1   
 26  13  31  1   
 27  14  32  1   
 28  14  33  1   
 29  15  19  ar  
 30  15  34  1   
 31  16  19  ar  
 32  16  35  1   
 33  17  20  1   
 34  18  21  1   
 35  19  36  1   
 36  20  21  2   
 37  21  22  1   
 38  22  23  1   
 39  22  24  1   
 40  22  37  1   
 41  23  38  1   
 42  23  39  1   
 43  23  40  1   
 44  24  41  1   
 45  24  42  1   
 46  24  43  1   
@<TRIPOS>SUBSTRUCTURE
  1 ****   4 GROUP 4 **** **** 0

# MOE 2024.06 (io_trps.svl 2023.06)
