@<TRIPOS>MOLECULE
NONAME
49 51 1 0 0 
SMALL
USER_CHARGES


@<TRIPOS>ATOM
  1 O        2.0010     0.1940     1.4590 O.2   1 <1>  -0.5700 
  2 C        2.6700    -0.7920     1.2030 C.2   1 <1>   0.5440 
  3 N        4.0360    -0.6300     1.2240 N.am  1 <1>  -0.6600 
  4 C        2.0660    -2.0610     0.8340 C.ar  1 <1>   0.0860 
  5 C        4.6730     0.3830     2.1470 C.3   1 <1>   0.1400 
  6 C        4.8760    -1.1270     0.0930 C.3   1 <1>   0.1400 
  7 C        1.0160    -2.1870    -0.0900 C.ar  1 <1>  -0.1440 
  8 C        2.5610    -3.2330     1.4120 C.ar  1 <1>  -0.1500 
  9 C        4.9630     1.7390     1.4530 C.3   1 <1>   0.4230 
 10 C        5.3810    -0.0120    -0.8600 C.3   1 <1>  -0.0800 
 11 C        0.5030    -3.4350    -0.4060 C.ar  1 <1>  -0.1500 
 12 C        0.4100    -0.9650    -0.7710 C.3   1 <1>  -0.0960 
 13 C        2.0500    -4.4740     1.0910 C.ar  1 <1>  -0.1500 
 14 N        4.0300     1.8650     0.2740 N.4   1 <1>  -0.9590 
 15 C        6.4750     1.8980     1.1460 C.3   1 <1>   0.1200 
 16 C        6.8480     0.3690    -0.6050 C.3   1 <1>   0.1200 
 17 C        4.5130     1.2550    -1.0030 C.3   1 <1>   0.3430 
 18 C        1.0170    -4.5880     0.1790 C.ar  1 <1>   0.0830 
 19 C        3.6260     3.3150     0.0480 C.3   1 <1>   0.2370 
 20 O        7.0590     0.6960     0.7250 O.3   1 <1>  -0.5600 
 21 O        0.5690    -5.8360    -0.0850 O.3   1 <1>  -0.3630 
 22 C        4.7880     4.2580    -0.2660 C.2   1 <1>   0.9060 
 23 C       -0.5100    -6.0700    -0.9620 C.3   1 <1>   0.0400 
 24 O        5.3380     4.8250     0.6820 O.co2 1 <1>  -0.9000 
 25 O        5.2250     4.2740    -1.4210 O.co2 1 <1>  -0.9000 
 26 H        4.0050     0.5690     2.9700 H     1 <1>   0.0800 
 27 H        5.5730    -0.0270     2.5700 H     1 <1>   0.0800 
 28 H        5.7150    -1.6700     0.4960 H     1 <1>   0.0800 
 29 H        4.3000    -1.8270    -0.4870 H     1 <1>   0.0800 
 30 H        3.3610    -3.1650     2.1280 H     1 <1>   0.1500 
 31 H        4.7170     2.5230     2.1500 H     1 <1>   0.0800 
 32 H        5.3970    -0.4500    -1.8410 H     1 <1>   0.0800 
 33 H       -0.3020    -3.5060    -1.1120 H     1 <1>   0.1500 
 34 H       -0.2610    -1.2500    -1.5620 H     1 <1>   0.0800 
 35 H        1.1820    -0.3480    -1.1940 H     1 <1>   0.0800 
 36 H       -0.1440    -0.3850    -0.0530 H     1 <1>   0.0800 
 37 H        2.4430    -5.3650     1.5470 H     1 <1>   0.1500 
 38 H        3.1970     1.3230     0.5780 H     1 <1>   0.4500 
 39 H        6.9750     2.1740     2.0570 H     1 <1>   0.0800 
 40 H        6.6760     2.6710     0.4250 H     1 <1>   0.0800 
 41 H        7.1590     1.1970    -1.2230 H     1 <1>   0.0800 
 42 H        7.4860    -0.4700    -0.8220 H     1 <1>   0.0800 
 43 H        3.6550     1.0190    -1.6080 H     1 <1>   0.0800 
 44 H        5.0880     1.9900    -1.5460 H     1 <1>   0.0800 
 45 H        2.9330     3.3770    -0.7700 H     1 <1>   0.0800 
 46 H        3.1430     3.6970     0.9290 H     1 <1>   0.0800 
 47 H       -0.6890    -7.1300    -0.9950 H     1 <1>   0.0800 
 48 H       -0.2480    -5.7130    -1.9410 H     1 <1>   0.0800 
 49 H       -1.3820    -5.5650    -0.5860 H     1 <1>   0.0800 
@<TRIPOS>BOND
  1   1   2  2   
  2   2   3  am  
  3   2   4  1   
  4   3   5  1   
  5   3   6  1   
  6   4   7  ar  
  7   4   8  ar  
  8   5   9  1   
  9   5  26  1   
 10   5  27  1   
 11   6  10  1   
 12   6  28  1   
 13   6  29  1   
 14   7  11  ar  
 15   7  12  1   
 16   8  13  ar  
 17   8  30  1   
 18   9  14  1   
 19   9  15  1   
 20   9  31  1   
 21  10  16  1   
 22  10  17  1   
 23  10  32  1   
 24  11  18  ar  
 25  11  33  1   
 26  12  34  1   
 27  12  35  1   
 28  12  36  1   
 29  13  18  ar  
 30  13  37  1   
 31  14  17  1   
 32  14  19  1   
 33  14  38  1   
 34  15  20  1   
 35  15  39  1   
 36  15  40  1   
 37  16  20  1   
 38  16  41  1   
 39  16  42  1   
 40  17  43  1   
 41  17  44  1   
 42  18  21  1   
 43  19  22  1   
 44  19  45  1   
 45  19  46  1   
 46  21  23  1   
 47  22  24  ar  
 48  22  25  ar  
 49  23  47  1   
 50  23  48  1   
 51  23  49  1   
@<TRIPOS>SUBSTRUCTURE
  1 ****   3 GROUP 4 **** **** 0

# MOE 2024.06 (io_trps.svl 2023.06)
