@<TRIPOS>MOLECULE
NONAME
54 58 1 0 0 
SMALL
USER_CHARGES


@<TRIPOS>ATOM
  1 O       -0.7990     0.6290     1.6100 O.2   1 <1>  -0.5700 
  2 C       -1.8120     1.1840     1.2230 C.2   1 <1>   0.7150 
  3 N       -3.0270     0.5750     1.4470 N.am  1 <1>  -0.6600 
  4 C       -1.7210     2.4410     0.5370 C.2   1 <1>  -0.2370 
  5 C       -4.2250     0.7860     0.5900 C.3   1 <1>   0.1400 
  6 C       -3.1940    -0.4970     2.4680 C.3   1 <1>   0.1400 
  7 N       -0.7410     2.7720    -0.3470 N.pl3 1 <1>   0.3140 
  8 C       -2.5240     3.5390     0.6110 C.2   1 <1>  -0.1500 
  9 C       -4.5610    -0.5220    -0.1280 C.3   1 <1>  -0.1600 
 10 C       -3.5210    -1.8160     1.7670 C.3   1 <1>  -0.1600 
 11 N       -0.9080     4.0170    -0.8320 N.2   1 <1>  -0.7070 
 12 C        0.4120     1.9150    -0.7470 C.3   1 <1>   0.0960 
 13 C       -1.9740     4.4660    -0.2520 C.2   1 <1>   0.1080 
 14 C       -4.7470    -1.6810     0.8600 C.3   1 <1>   0.4600 
 15 C        0.9910     2.2710    -2.1260 C.3   1 <1>  -0.2400 
 16 C       -2.5090     5.8520    -0.5190 C.3   1 <1>  -0.0590 
 17 O       -5.8390    -1.3940     1.7080 O.3   1 <1>  -0.5600 
 18 C       -5.0090    -2.9920     0.1280 C.2   1 <1>  -0.3320 
 19 C       -7.1380    -1.6550     1.2310 C.3   1 <1>   0.1200 
 20 N       -4.1250    -3.6690    -0.6670 N.pl3 1 <1>   0.0330 
 21 C       -6.1730    -3.6680     0.1740 C.2   1 <1>  -0.1810 
 22 C       -7.3450    -3.1570     0.9740 C.3   1 <1>   0.0210 
 23 C       -4.7520    -4.8010    -1.1280 C.ar  1 <1>  -0.1520 
 24 C       -6.0450    -4.8310    -0.6130 C.ar  1 <1>   0.0000 
 25 C       -4.2920    -5.8220    -1.9650 C.ar  1 <1>  -0.1500 
 26 C       -6.8950    -5.8940    -0.9340 C.ar  1 <1>  -0.1500 
 27 C       -5.1380    -6.8620    -2.2730 C.ar  1 <1>  -0.1500 
 28 C       -6.4400    -6.8980    -1.7580 C.ar  1 <1>  -0.1500 
 29 H       -4.0480     1.5520    -0.1430 H     1 <1>   0.0800 
 30 H       -5.0530     1.0910     1.2090 H     1 <1>   0.0800 
 31 H       -3.9960    -0.2270     3.1330 H     1 <1>   0.0800 
 32 H       -2.2980    -0.6060     3.0560 H     1 <1>   0.0800 
 33 H       -3.4020     3.6740     1.2160 H     1 <1>   0.1500 
 34 H       -3.7560    -0.7570    -0.7990 H     1 <1>   0.0800 
 35 H       -5.4440    -0.4010    -0.7260 H     1 <1>   0.0800 
 36 H       -3.7040    -2.5830     2.4960 H     1 <1>   0.0800 
 37 H       -2.6660    -2.1120     1.1880 H     1 <1>   0.0800 
 38 H        0.0850     0.8920    -0.7620 H     1 <1>   0.0800 
 39 H        1.1720     2.0150     0.0060 H     1 <1>   0.0800 
 40 H        0.2270     2.1990    -2.8790 H     1 <1>   0.0800 
 41 H        1.7880     1.5950    -2.3740 H     1 <1>   0.0800 
 42 H        1.3840     3.2730    -2.1160 H     1 <1>   0.0800 
 43 H       -3.3900     6.0370     0.0670 H     1 <1>   0.0800 
 44 H       -2.7510     5.9480    -1.5610 H     1 <1>   0.0800 
 45 H       -1.7590     6.5790    -0.2680 H     1 <1>   0.0800 
 46 H       -7.2890    -1.0980     0.3250 H     1 <1>   0.0800 
 47 H       -7.8360    -1.3070     1.9720 H     1 <1>   0.0800 
 48 H       -3.1590    -3.4030    -0.8790 H     1 <1>   0.2700 
 49 H       -8.2600    -3.3100     0.4310 H     1 <1>   0.0800 
 50 H       -7.4050    -3.6860     1.9080 H     1 <1>   0.0800 
 51 H       -3.2910    -5.7880    -2.3550 H     1 <1>   0.1500 
 52 H       -7.8900    -5.9090    -0.5300 H     1 <1>   0.1500 
 53 H       -4.8080    -7.6590    -2.9150 H     1 <1>   0.1500 
 54 H       -7.0820    -7.7220    -2.0140 H     1 <1>   0.1500 
@<TRIPOS>BOND
  1   1   2  2   
  2   2   3  am  
  3   2   4  1   
  4   3   5  1   
  5   3   6  1   
  6   4   7  1   
  7   4   8  2   
  8   5   9  1   
  9   5  29  1   
 10   5  30  1   
 11   6  10  1   
 12   6  31  1   
 13   6  32  1   
 14   7  11  1   
 15   7  12  1   
 16   8  13  1   
 17   8  33  1   
 18   9  14  1   
 19   9  34  1   
 20   9  35  1   
 21  10  14  1   
 22  10  36  1   
 23  10  37  1   
 24  11  13  2   
 25  12  15  1   
 26  12  38  1   
 27  12  39  1   
 28  13  16  1   
 29  14  17  1   
 30  14  18  1   
 31  15  40  1   
 32  15  41  1   
 33  15  42  1   
 34  16  43  1   
 35  16  44  1   
 36  16  45  1   
 37  17  19  1   
 38  18  20  1   
 39  18  21  2   
 40  19  22  1   
 41  19  46  1   
 42  19  47  1   
 43  20  23  1   
 44  20  48  1   
 45  21  22  1   
 46  21  24  1   
 47  22  49  1   
 48  22  50  1   
 49  23  24  ar  
 50  23  25  ar  
 51  24  26  ar  
 52  25  27  ar  
 53  25  51  1   
 54  26  28  ar  
 55  26  52  1   
 56  27  28  ar  
 57  27  53  1   
 58  28  54  1   
@<TRIPOS>SUBSTRUCTURE
  1 ****   9 GROUP 4 **** **** 0

# MOE 2024.06 (io_trps.svl 2023.06)
