@<TRIPOS>MOLECULE
NONAME
49 51 1 0 0 
SMALL
USER_CHARGES


@<TRIPOS>ATOM
  1 F        0.2790    -2.1930     1.1880 F     1 <1>  -0.1900 
  2 C       -0.7110    -1.5880     0.5820 C.ar  1 <1>   0.1900 
  3 C       -0.5210    -0.4160    -0.1570 C.ar  1 <1>   0.0830 
  4 C       -1.9540    -2.1820     0.7090 C.ar  1 <1>  -0.1500 
  5 O        0.6480     0.2540    -0.3540 O.3   1 <1>  -0.3630 
  6 C       -1.6340     0.1430    -0.7650 C.ar  1 <1>  -0.1500 
  7 C       -3.0540    -1.6100     0.0830 C.ar  1 <1>  -0.1430 
  8 C        1.8610    -0.1120     0.2680 C.3   1 <1>   0.0400 
  9 C       -2.8850    -0.4410    -0.6480 C.ar  1 <1>  -0.1500 
 10 C       -4.4230    -2.2530     0.1930 C.3   1 <1>   0.4870 
 11 N       -4.7250    -2.9370    -1.1010 N.4   1 <1>  -0.9590 
 12 C       -6.1550    -3.2900    -1.3290 C.3   1 <1>   0.4230 
 13 C       -3.8420    -4.1310    -1.2940 C.3   1 <1>   0.2630 
 14 C       -6.7950    -4.1190    -0.2160 C.3   1 <1>  -0.1600 
 15 C       -7.0580    -2.0680    -1.4570 C.3   1 <1>  -0.1600 
 16 C       -8.3030    -3.9510    -0.4470 C.3   1 <1>  -0.0800 
 17 C       -8.4710    -2.6110    -1.2020 C.3   1 <1>  -0.0800 
 18 C       -9.1370    -4.0870     0.8450 C.3   1 <1>   0.1400 
 19 C       -9.3900    -1.6070    -0.4830 C.3   1 <1>  -0.0990 
 20 N      -10.4850    -3.5060     0.6430 N.am  1 <1>  -0.6600 
 21 C      -10.6410    -2.3020     0.0140 C.2   1 <1>   0.5690 
 22 C      -11.6350    -4.2630     1.2100 C.3   1 <1>   0.0600 
 23 O      -11.7110    -1.7720    -0.1610 O.2   1 <1>  -0.5700 
 24 H       -2.0380    -3.0800     1.2960 H     1 <1>   0.1500 
 25 H       -1.5090     1.0490    -1.3330 H     1 <1>   0.1500 
 26 H        2.6100     0.6070    -0.0120 H     1 <1>   0.0800 
 27 H        2.1510    -1.0890    -0.0730 H     1 <1>   0.0800 
 28 H        1.7260    -0.0990     1.3360 H     1 <1>   0.0800 
 29 H       -3.7210     0.0370    -1.1320 H     1 <1>   0.1500 
 30 H       -5.1510    -1.4870     0.3970 H     1 <1>   0.0800 
 31 H       -4.4380    -2.9620     1.0050 H     1 <1>   0.0800 
 32 H       -4.4640    -2.2580    -1.8290 H     1 <1>   0.4500 
 33 H       -6.2390    -3.8500    -2.2480 H     1 <1>   0.0800 
 34 H       -4.0350    -4.8700    -0.5320 H     1 <1>   0.0800 
 35 H       -2.8040    -3.8440    -1.2410 H     1 <1>   0.0800 
 36 H       -4.0210    -4.5770    -2.2590 H     1 <1>   0.0800 
 37 H       -6.5110    -5.1550    -0.2740 H     1 <1>   0.0800 
 38 H       -6.5430    -3.7270     0.7520 H     1 <1>   0.0800 
 39 H       -6.8230    -1.3280    -0.7140 H     1 <1>   0.0800 
 40 H       -6.9890    -1.6270    -2.4360 H     1 <1>   0.0800 
 41 H       -8.6280    -4.7360    -1.1120 H     1 <1>   0.0800 
 42 H       -8.9290    -2.8380    -2.1530 H     1 <1>   0.0800 
 43 H       -8.6660    -3.5610     1.6580 H     1 <1>   0.0800 
 44 H       -9.2190    -5.1260     1.1180 H     1 <1>   0.0800 
 45 H       -9.6680    -0.8120    -1.1520 H     1 <1>   0.0800 
 46 H       -8.9010    -1.1750     0.3700 H     1 <1>   0.0800 
 47 H      -11.6970    -5.2320     0.7470 H     1 <1>   0.0800 
 48 H      -12.5580    -3.7390     1.0320 H     1 <1>   0.0800 
 49 H      -11.5070    -4.3820     2.2710 H     1 <1>   0.0800 
@<TRIPOS>BOND
  1   1   2  1   
  2   2   3  ar  
  3   2   4  ar  
  4   3   5  1   
  5   3   6  ar  
  6   4   7  ar  
  7   4  24  1   
  8   5   8  1   
  9   6   9  ar  
 10   6  25  1   
 11   7   9  ar  
 12   7  10  1   
 13   8  26  1   
 14   8  27  1   
 15   8  28  1   
 16   9  29  1   
 17  10  11  1   
 18  10  30  1   
 19  10  31  1   
 20  11  12  1   
 21  11  13  1   
 22  11  32  1   
 23  12  14  1   
 24  12  15  1   
 25  12  33  1   
 26  13  34  1   
 27  13  35  1   
 28  13  36  1   
 29  14  16  1   
 30  14  37  1   
 31  14  38  1   
 32  15  17  1   
 33  15  39  1   
 34  15  40  1   
 35  16  17  1   
 36  16  18  1   
 37  16  41  1   
 38  17  19  1   
 39  17  42  1   
 40  18  20  1   
 41  18  43  1   
 42  18  44  1   
 43  19  21  1   
 44  19  45  1   
 45  19  46  1   
 46  20  21  am  
 47  20  22  1   
 48  21  23  2   
 49  22  47  1   
 50  22  48  1   
 51  22  49  1   
@<TRIPOS>SUBSTRUCTURE
  1 ****  10 GROUP 4 **** **** 0

# MOE 2024.06 (io_trps.svl 2023.06)
