@<TRIPOS>MOLECULE
NONAME
44 46 1 0 0 
SMALL
USER_CHARGES


@<TRIPOS>ATOM
  1 O        2.7920    -1.4960     2.7220 O.2   1 <1>  -0.5700 
  2 C        2.3140    -1.8360     1.6520 C.2   1 <1>   0.5440 
  3 N        1.8010    -0.8300     0.8510 N.am  1 <1>  -0.6600 
  4 C        2.3370    -3.2550     1.2840 C.ar  1 <1>   0.3960 
  5 C        1.2720    -0.9840    -0.5230 C.3   1 <1>   0.1400 
  6 C        1.7640     0.5880     1.2740 C.3   1 <1>   0.1400 
  7 N        1.4170    -3.7780     0.4530 N.ar  1 <1>  -0.6200 
  8 C        3.3470    -4.0520     1.8370 C.ar  1 <1>   0.1600 
  9 C        1.1540     0.4380    -1.0570 C.3   1 <1>  -0.1600 
 10 C        0.9670     1.3010     0.1870 C.3   1 <1>  -0.1600 
 11 C        1.5750    -5.0640     0.2270 C.ar  1 <1>   0.4100 
 12 N        3.5250    -5.3480     1.6130 N.ar  1 <1>  -0.6200 
 13 N        0.6320    -5.5930    -0.6110 N.pl3 1 <1>  -0.8690 
 14 C        2.6130    -5.8210     0.7900 C.ar  1 <1>   0.1600 
 15 C       -0.1350    -6.8020    -0.2030 C.3   1 <1>   0.2090 
 16 C       -1.4340    -6.9550    -1.0190 C.3   1 <1>   0.3430 
 17 O       -2.1500    -5.7650    -1.0140 O.3   1 <1>  -0.6800 
 18 C       -2.3290    -8.0530    -0.4600 C.ar  1 <1>  -0.1430 
 19 C       -2.4570    -9.2530    -1.1450 C.ar  1 <1>  -0.1500 
 20 C       -3.0220    -7.8810     0.7320 C.ar  1 <1>  -0.1500 
 21 C       -3.2620   -10.2590    -0.6430 C.ar  1 <1>   0.0820 
 22 C       -3.8290    -8.8910     1.2330 C.ar  1 <1>  -0.1500 
 23 O       -3.3660   -11.4090    -1.3230 O.3   1 <1>  -0.5330 
 24 C       -3.9520   -10.0850     0.5450 C.ar  1 <1>  -0.1500 
 25 H        0.3010    -1.4480    -0.4750 H     1 <1>   0.0800 
 26 H        1.9310    -1.5820    -1.1300 H     1 <1>   0.0800 
 27 H        2.7710     0.9660     1.3170 H     1 <1>   0.0800 
 28 H        1.2990     0.6870     2.2400 H     1 <1>   0.0800 
 29 H        4.0490    -3.5830     2.5040 H     1 <1>   0.1500 
 30 H        0.3410     0.5370    -1.7540 H     1 <1>   0.0800 
 31 H        2.0730     0.7030    -1.5510 H     1 <1>   0.0800 
 32 H        1.3040     2.3120     0.0420 H     1 <1>   0.0800 
 33 H       -0.0720     1.3140     0.4700 H     1 <1>   0.0800 
 34 H       -0.0370    -4.8620    -0.8900 H     1 <1>   0.4000 
 35 H        2.6690    -6.8610     0.5300 H     1 <1>   0.1500 
 36 H       -0.3840    -6.7320     0.8420 H     1 <1>   0.0800 
 37 H        0.4720    -7.6790    -0.3440 H     1 <1>   0.0800 
 38 H       -1.1810    -7.1730    -2.0420 H     1 <1>   0.0800 
 39 H       -3.0570    -5.9480    -1.3270 H     1 <1>   0.4000 
 40 H       -1.9370    -9.4250    -2.0710 H     1 <1>   0.1500 
 41 H       -2.9370    -6.9560     1.2780 H     1 <1>   0.1500 
 42 H       -4.3610    -8.7430     2.1570 H     1 <1>   0.1500 
 43 H       -3.9600   -12.0540    -0.9010 H     1 <1>   0.4500 
 44 H       -4.5790   -10.8660     0.9350 H     1 <1>   0.1500 
@<TRIPOS>BOND
  1   1   2  2   
  2   2   3  am  
  3   2   4  1   
  4   3   5  1   
  5   3   6  1   
  6   4   7  ar  
  7   4   8  ar  
  8   5   9  1   
  9   5  25  1   
 10   5  26  1   
 11   6  10  1   
 12   6  27  1   
 13   6  28  1   
 14   7  11  ar  
 15   8  12  ar  
 16   8  29  1   
 17   9  10  1   
 18   9  30  1   
 19   9  31  1   
 20  10  32  1   
 21  10  33  1   
 22  11  13  1   
 23  11  14  ar  
 24  12  14  ar  
 25  13  15  1   
 26  13  34  1   
 27  14  35  1   
 28  15  16  1   
 29  15  36  1   
 30  15  37  1   
 31  16  17  1   
 32  16  18  1   
 33  16  38  1   
 34  17  39  1   
 35  18  19  ar  
 36  18  20  ar  
 37  19  21  ar  
 38  19  40  1   
 39  20  22  ar  
 40  20  41  1   
 41  21  23  1   
 42  21  24  ar  
 43  22  24  ar  
 44  22  42  1   
 45  23  43  1   
 46  24  44  1   
@<TRIPOS>SUBSTRUCTURE
  1 ****  13 GROUP 4 **** **** 0

# MOE 2024.06 (io_trps.svl 2023.06)
