@<TRIPOS>MOLECULE
NONAME
42 42 1 0 0 
SMALL
USER_CHARGES


@<TRIPOS>ATOM
  1 S       -0.8310     0.3470     0.9820 S.3   1 <1>  -0.4600 
  2 C        0.7990     0.6470     0.2590 C.3   1 <1>   0.0700 
  3 C       -0.9340    -1.4620     1.0440 C.3   1 <1>  -0.0100 
  4 C        0.9690     2.1640     0.1440 C.3   1 <1>  -0.1600 
  5 C        2.3380     2.5630    -0.4190 C.3   1 <1>   0.2810 
  6 N        3.4020     2.0570     0.5040 N.am  1 <1>  -0.7300 
  7 C        2.4270     4.0880    -0.6290 C.2   1 <1>   0.5690 
  8 C        4.7300     2.1490     0.2880 C.2   1 <1>   0.5690 
  9 O        1.9150     4.5610    -1.6150 O.2   1 <1>  -0.5700 
 10 N        3.1180     4.8220     0.3020 N.am  1 <1>  -0.4940 
 11 O        5.4640     2.3330     1.2200 O.2   1 <1>  -0.5700 
 12 C        5.2900     2.0960    -1.1120 C.3   1 <1>  -0.1790 
 13 C        3.3950     6.2070     0.3800 C.2   1 <1>  -0.0880 
 14 N        4.5600     6.7160     0.8680 N.pl3 1 <1>   0.3140 
 15 C        2.6340     7.2750     0.0340 C.2   1 <1>  -0.1810 
 16 N        4.5650     8.0660     0.8410 N.2   1 <1>  -0.7070 
 17 C        5.7350     5.9610     1.3580 C.3   1 <1>   0.0960 
 18 C        3.4140     8.3860     0.3370 C.2   1 <1>   0.1390 
 19 C        1.2340     7.3230    -0.5480 C.3   1 <1>  -0.0590 
 20 C        6.6620     5.5710     0.2000 C.3   1 <1>  -0.2400 
 21 H        1.5240     0.2010     0.9170 H     1 <1>   0.0800 
 22 H        0.8200     0.1670    -0.7040 H     1 <1>   0.0800 
 23 H       -1.8870    -1.7190     1.4710 H     1 <1>   0.0800 
 24 H       -0.1290    -1.8220     1.6590 H     1 <1>   0.0800 
 25 H       -0.8530    -1.8350     0.0390 H     1 <1>   0.0800 
 26 H        0.2050     2.5430    -0.5130 H     1 <1>   0.0800 
 27 H        0.8260     2.6230     1.1070 H     1 <1>   0.0800 
 28 H        2.4630     2.0980    -1.3820 H     1 <1>   0.0800 
 29 H        3.1210     1.9810     1.4860 H     1 <1>   0.3700 
 30 H        3.6070     4.2420     0.9890 H     1 <1>   0.3700 
 31 H        4.8930     1.2460    -1.6330 H     1 <1>   0.0800 
 32 H        6.3600     2.0060    -1.0680 H     1 <1>   0.0800 
 33 H        5.0400     2.9940    -1.6460 H     1 <1>   0.0800 
 34 H        6.2650     6.5830     2.0560 H     1 <1>   0.0800 
 35 H        5.3960     5.0830     1.8760 H     1 <1>   0.0800 
 36 H        3.1050     9.4050     0.1780 H     1 <1>   0.1500 
 37 H        0.7320     8.2230    -0.2430 H     1 <1>   0.0800 
 38 H        0.6620     6.4800    -0.2090 H     1 <1>   0.0800 
 39 H        1.2870     7.2960    -1.6220 H     1 <1>   0.0800 
 40 H        7.0390     6.4560    -0.2820 H     1 <1>   0.0800 
 41 H        6.1340     4.9730    -0.5190 H     1 <1>   0.0800 
 42 H        7.4940     5.0030     0.5760 H     1 <1>   0.0800 
@<TRIPOS>BOND
  1   1   2  1   
  2   1   3  1   
  3   2   4  1   
  4   2  21  1   
  5   2  22  1   
  6   3  23  1   
  7   3  24  1   
  8   3  25  1   
  9   4   5  1   
 10   4  26  1   
 11   4  27  1   
 12   5   6  1   
 13   5   7  1   
 14   5  28  1   
 15   6   8  am  
 16   6  29  1   
 17   7   9  2   
 18   7  10  am  
 19   8  11  2   
 20   8  12  1   
 21  10  13  1   
 22  10  30  1   
 23  12  31  1   
 24  12  32  1   
 25  12  33  1   
 26  13  14  1   
 27  13  15  2   
 28  14  16  1   
 29  14  17  1   
 30  15  18  1   
 31  15  19  1   
 32  16  18  2   
 33  17  20  1   
 34  17  34  1   
 35  17  35  1   
 36  18  36  1   
 37  19  37  1   
 38  19  38  1   
 39  19  39  1   
 40  20  40  1   
 41  20  41  1   
 42  20  42  1   
@<TRIPOS>SUBSTRUCTURE
  1 ****  10 GROUP 4 **** **** 0

# MOE 2024.06 (io_trps.svl 2023.06)
