@<TRIPOS>MOLECULE
NONAME
46 48 1 0 0 
SMALL
USER_CHARGES


@<TRIPOS>ATOM
  1 F        0.0100    -0.8160    -0.9990 F     1 <1>  -0.1900 
  2 C       -1.0800    -0.9640    -0.2940 C.ar  1 <1>   0.1900 
  3 C       -1.9940     0.0840    -0.2430 C.ar  1 <1>   0.0860 
  4 C       -1.2500    -2.1540     0.3870 C.ar  1 <1>  -0.1500 
  5 C       -3.1170    -0.1080     0.5660 C.ar  1 <1>   0.0820 
  6 C       -1.7680     1.3020    -0.9750 C.2   1 <1>   0.5440 
  7 C       -2.3790    -2.3190     1.1740 C.ar  1 <1>  -0.1500 
  8 O       -4.0230     0.8740     0.7170 O.3   1 <1>  -0.3630 
  9 C       -3.3050    -1.2930     1.2650 C.ar  1 <1>  -0.1500 
 10 O       -2.2200     1.4120    -2.0990 O.2   1 <1>  -0.5700 
 11 N       -1.0140     2.3400    -0.4620 N.am  1 <1>  -0.6600 
 12 C       -5.0640     0.9320    -0.2340 C.3   1 <1>   0.0400 
 13 C       -0.4400     2.2920     0.9360 C.3   1 <1>   0.2200 
 14 C       -0.6780     3.5060    -1.3440 C.3   1 <1>   0.1400 
 15 C       -0.6710     3.6010     1.7080 C.3   1 <1>   0.1200 
 16 C        1.0580     1.9000     0.9120 C.3   1 <1>   0.3430 
 17 C        0.5680     4.3140    -0.9310 C.3   1 <1>  -0.0800 
 18 O        0.3510     4.5200     1.4720 O.3   1 <1>  -0.5600 
 19 N        1.6630     2.0610    -0.4540 N.4   1 <1>  -0.9590 
 20 C        0.2920     5.2210     0.2780 C.3   1 <1>   0.1200 
 21 C        1.8750     3.5060    -0.7760 C.3   1 <1>   0.3430 
 22 C        3.0010     1.3400    -0.4860 C.3   1 <1>   0.2370 
 23 C        4.0130     1.8400     0.5500 C.2   1 <1>   0.9060 
 24 O        4.7370     2.7890     0.2370 O.co2 1 <1>  -0.9000 
 25 O        3.9590     1.3570     1.6840 O.co2 1 <1>  -0.9000 
 26 H       -0.5150    -2.9360     0.3070 H     1 <1>   0.1500 
 27 H       -2.5340    -3.2390     1.7140 H     1 <1>   0.1500 
 28 H       -4.1790    -1.4070     1.8820 H     1 <1>   0.1500 
 29 H       -5.7120     1.7500     0.0240 H     1 <1>   0.0800 
 30 H       -5.6120     0.0060    -0.2110 H     1 <1>   0.0800 
 31 H       -4.6450     1.0930    -1.2120 H     1 <1>   0.0800 
 32 H       -0.9580     1.5400     1.5020 H     1 <1>   0.0800 
 33 H       -0.5220     3.1440    -2.3480 H     1 <1>   0.0800 
 34 H       -1.5330     4.1590    -1.3800 H     1 <1>   0.0800 
 35 H       -0.6480     3.3920     2.7630 H     1 <1>   0.0800 
 36 H       -1.6260     4.0390     1.4720 H     1 <1>   0.0800 
 37 H        1.1460     0.8700     1.2150 H     1 <1>   0.0800 
 38 H        1.6080     2.4860     1.6330 H     1 <1>   0.0800 
 39 H        0.7470     4.9980    -1.7400 H     1 <1>   0.0800 
 40 H        0.9990     1.6570    -1.1280 H     1 <1>   0.4500 
 41 H       -0.6670     5.7050     0.2030 H     1 <1>   0.0800 
 42 H        1.0500     5.9850     0.3340 H     1 <1>   0.0800 
 43 H        2.4900     3.9580    -0.0120 H     1 <1>   0.0800 
 44 H        2.4260     3.5690    -1.7000 H     1 <1>   0.0800 
 45 H        2.8530     0.2920    -0.3010 H     1 <1>   0.0800 
 46 H        3.4550     1.4530    -1.4530 H     1 <1>   0.0800 
@<TRIPOS>BOND
  1   1   2  1   
  2   2   3  ar  
  3   2   4  ar  
  4   3   5  ar  
  5   3   6  1   
  6   4   7  ar  
  7   4  26  1   
  8   5   8  1   
  9   5   9  ar  
 10   6  10  2   
 11   6  11  am  
 12   7   9  ar  
 13   7  27  1   
 14   8  12  1   
 15   9  28  1   
 16  11  13  1   
 17  11  14  1   
 18  12  29  1   
 19  12  30  1   
 20  12  31  1   
 21  13  15  1   
 22  13  16  1   
 23  13  32  1   
 24  14  17  1   
 25  14  33  1   
 26  14  34  1   
 27  15  18  1   
 28  15  35  1   
 29  15  36  1   
 30  16  19  1   
 31  16  37  1   
 32  16  38  1   
 33  17  20  1   
 34  17  21  1   
 35  17  39  1   
 36  18  20  1   
 37  19  21  1   
 38  19  22  1   
 39  19  40  1   
 40  20  41  1   
 41  20  42  1   
 42  21  43  1   
 43  21  44  1   
 44  22  23  1   
 45  22  45  1   
 46  22  46  1   
 47  23  24  ar  
 48  23  25  ar  
@<TRIPOS>SUBSTRUCTURE
  1 ****  13 GROUP 4 **** **** 0

# MOE 2024.06 (io_trps.svl 2023.06)
