@<TRIPOS>MOLECULE
NONAME
48 49 1 0 0 
SMALL
USER_CHARGES


@<TRIPOS>ATOM
  1 S       -0.6460     0.4730     1.4700 S.o2  1 <1>   1.4470 
  2 O       -0.3650    -0.5280     2.4780 O.2   1 <1>  -0.6500 
  3 O       -1.4480     1.6240     1.8290 O.2   1 <1>  -0.6500 
  4 N       -1.3930    -0.2830     0.1480 N.am  1 <1>  -0.8490 
  5 C        0.9210     1.0620     0.7660 C.ar  1 <1>  -0.0090 
  6 C       -0.8010    -1.5730    -0.2720 C.3   1 <1>   0.1960 
  7 C       -2.8540    -0.3060     0.1690 C.3   1 <1>   0.1960 
  8 C        0.9820     1.5920    -0.5170 C.ar  1 <1>  -0.1500 
  9 C        2.1010     1.0120     1.5000 C.ar  1 <1>  -0.1500 
 10 C       -1.6520    -2.8380     0.0350 C.3   1 <1>  -0.1060 
 11 C       -3.3810    -1.3080     1.2000 C.3   1 <1>  -0.1600 
 12 C        2.1740     2.0470    -1.0530 C.ar  1 <1>  -0.1500 
 13 C        3.2970     1.4670     0.9720 C.ar  1 <1>  -0.1500 
 14 C       -2.5310    -3.1330    -1.1960 C.2   1 <1>   0.9060 
 15 C       -2.5170    -2.5740     1.2960 C.3   1 <1>   0.2000 
 16 C       -0.7120    -4.0680     0.2310 C.3   1 <1>  -0.1600 
 17 C        3.3410     1.9850    -0.3110 C.ar  1 <1>  -0.1440 
 18 O       -3.7200    -3.4580    -1.0540 O.co2 1 <1>  -0.9000 
 19 O       -2.0260    -3.0740    -2.3240 O.co2 1 <1>  -0.9000 
 20 O       -3.3600    -3.6440     1.5210 O.3   1 <1>  -0.6800 
 21 C        0.1490    -4.0810     1.5090 C.3   1 <1>  -0.1600 
 22 C        4.6530     2.4840    -0.8960 C.3   1 <1>  -0.0170 
 23 C        1.1290    -5.2560     1.4930 C.3   1 <1>  -0.2400 
 24 C        4.8500     3.9680    -0.5830 C.3   1 <1>  -0.2400 
 25 H       -0.6030    -1.5160    -1.3290 H     1 <1>   0.0800 
 26 H        0.1640    -1.6700     0.1880 H     1 <1>   0.0800 
 27 H       -3.2440     0.6770     0.3740 H     1 <1>   0.0800 
 28 H       -3.2070    -0.5900    -0.8090 H     1 <1>   0.0800 
 29 H        0.0810     1.6460    -1.1050 H     1 <1>   0.1500 
 30 H        2.0810     0.6100     2.5000 H     1 <1>   0.1500 
 31 H       -4.3880    -1.5620     0.9200 H     1 <1>   0.0800 
 32 H       -3.4150    -0.8380     2.1660 H     1 <1>   0.0800 
 33 H        2.1870     2.4490    -2.0500 H     1 <1>   0.1500 
 34 H        4.1930     1.4160     1.5660 H     1 <1>   0.1500 
 35 H       -1.8850    -2.4820     2.1610 H     1 <1>   0.0800 
 36 H       -1.3220    -4.9560     0.2320 H     1 <1>   0.0800 
 37 H       -0.0710    -4.1380    -0.6320 H     1 <1>   0.0800 
 38 H       -3.7790    -3.8220     0.6280 H     1 <1>   0.4000 
 39 H        0.7030    -3.1660     1.6130 H     1 <1>   0.0800 
 40 H       -0.4890    -4.1800     2.3710 H     1 <1>   0.0800 
 41 H        5.4710     1.9160    -0.4880 H     1 <1>   0.0800 
 42 H        4.6530     2.3360    -1.9620 H     1 <1>   0.0800 
 43 H        1.7980    -5.1740     0.6550 H     1 <1>   0.0800 
 44 H        0.5920    -6.1860     1.4190 H     1 <1>   0.0800 
 45 H        1.7080    -5.2650     2.3980 H     1 <1>   0.0800 
 46 H        4.8670     4.1240     0.4820 H     1 <1>   0.0800 
 47 H        4.0450     4.5460    -1.0020 H     1 <1>   0.0800 
 48 H        5.7790     4.3150    -0.9990 H     1 <1>   0.0800 
@<TRIPOS>BOND
  1   1   2  2   
  2   1   3  2   
  3   1   4  am  
  4   1   5  1   
  5   4   6  1   
  6   4   7  1   
  7   5   8  ar  
  8   5   9  ar  
  9   6  10  1   
 10   6  25  1   
 11   6  26  1   
 12   7  11  1   
 13   7  27  1   
 14   7  28  1   
 15   8  12  ar  
 16   8  29  1   
 17   9  13  ar  
 18   9  30  1   
 19  10  14  1   
 20  10  15  1   
 21  10  16  1   
 22  11  15  1   
 23  11  31  1   
 24  11  32  1   
 25  12  17  ar  
 26  12  33  1   
 27  13  17  ar  
 28  13  34  1   
 29  14  18  ar  
 30  14  19  ar  
 31  15  20  1   
 32  15  35  1   
 33  16  21  1   
 34  16  36  1   
 35  16  37  1   
 36  17  22  1   
 37  20  38  1   
 38  21  23  1   
 39  21  39  1   
 40  21  40  1   
 41  22  24  1   
 42  22  41  1   
 43  22  42  1   
 44  23  43  1   
 45  23  44  1   
 46  23  45  1   
 47  24  46  1   
 48  24  47  1   
 49  24  48  1   
@<TRIPOS>SUBSTRUCTURE
  1 ****   6 GROUP 4 **** **** 0

# MOE 2024.06 (io_trps.svl 2023.06)
