@<TRIPOS>MOLECULE
NONAME
59 61 1 0 0 
SMALL
USER_CHARGES


@<TRIPOS>ATOM
  1 O       -2.4530     0.1810    -1.5810 O.2   1 <1>  -0.5700 
  2 C       -1.8220     0.3570    -0.5560 C.2   1 <1>   0.7160 
  3 N       -1.1470    -0.7040    -0.0240 N.am  1 <1>  -0.7300 
  4 C       -1.8100     1.5980     0.1360 C.2   1 <1>  -0.0860 
  5 C       -1.2450    -2.1070    -0.5080 C.3   1 <1>   0.2200 
  6 C       -2.9320     2.2860     0.6020 C.2   1 <1>   0.3720 
  7 C       -0.7660     2.3320     0.5960 C.2   1 <1>   0.0870 
  8 C       -2.7320    -2.5440    -0.6200 C.3   1 <1>   0.3430 
  9 C       -0.4280    -2.9830     0.4550 C.3   1 <1>  -0.1600 
 10 N       -2.5810     3.3240     1.2780 N.2   1 <1>  -0.4100 
 11 N       -4.2580     1.8770     0.3840 N.pl3 1 <1>  -0.8210 
 12 O       -1.2730     3.3380     1.2610 O.3   1 <1>  -0.0190 
 13 C        0.6540     2.1410     0.4850 C.ar  1 <1>   0.0530 
 14 N       -3.5290    -2.1030     0.5780 N.4   1 <1>  -0.9590 
 15 C       -0.3800    -4.4600     0.0370 C.3   1 <1>  -0.2400 
 16 C       -4.7480     2.2260    -0.9840 C.3   1 <1>   0.2090 
 17 C       -5.2710     2.3570     1.3700 C.3   1 <1>   0.2090 
 18 C        1.2330     1.6480    -0.6860 C.ar  1 <1>  -0.1500 
 19 C        1.5010     2.4260     1.5550 C.ar  1 <1>  -0.1500 
 20 C       -3.8510    -3.2240     1.5080 C.3   1 <1>   0.2630 
 21 C       -4.7520    -1.3520     0.1580 C.3   1 <1>   0.2630 
 22 C       -6.0960     2.9140    -0.8010 C.3   1 <1>  -0.1600 
 23 C       -6.5630     2.4870     0.5810 C.3   1 <1>  -0.1600 
 24 C        2.5950     1.4270    -0.7790 C.ar  1 <1>  -0.1500 
 25 C        2.8620     2.2050     1.4680 C.ar  1 <1>  -0.1500 
 26 C        3.4220     1.7020     0.3050 C.ar  1 <1>   0.0830 
 27 O        4.7610     1.5110     0.3020 O.3   1 <1>  -0.3630 
 28 C        5.4480     1.0840    -0.8540 C.3   1 <1>   0.0400 
 29 H       -0.3700    -0.4980     0.6120 H     1 <1>   0.3700 
 30 H       -0.7980    -2.1660    -1.4870 H     1 <1>   0.0800 
 31 H       -2.7990    -3.6100    -0.7520 H     1 <1>   0.0800 
 32 H       -3.1380    -2.0840    -1.5060 H     1 <1>   0.0800 
 33 H       -0.8250    -2.9130     1.4530 H     1 <1>   0.0800 
 34 H        0.5850    -2.6160     0.4770 H     1 <1>   0.0800 
 35 H       -2.9210    -1.4170     1.0580 H     1 <1>   0.4500 
 36 H       -1.3490    -4.9230     0.0890 H     1 <1>   0.0800 
 37 H        0.2790    -5.0000     0.6950 H     1 <1>   0.0800 
 38 H        0.0010    -4.5590    -0.9660 H     1 <1>   0.0800 
 39 H       -4.8690     1.3240    -1.5580 H     1 <1>   0.0800 
 40 H       -4.0570     2.8740    -1.4990 H     1 <1>   0.0800 
 41 H       -5.0000     3.3230     1.7620 H     1 <1>   0.0800 
 42 H       -5.3740     1.6620     2.1850 H     1 <1>   0.0800 
 43 H        0.6120     1.4430    -1.5400 H     1 <1>   0.1500 
 44 H        1.0880     2.8220     2.4670 H     1 <1>   0.1500 
 45 H       -4.4880    -3.9440     1.0180 H     1 <1>   0.0800 
 46 H       -4.3620    -2.8490     2.3800 H     1 <1>   0.0800 
 47 H       -2.9490    -3.7200     1.8250 H     1 <1>   0.0800 
 48 H       -5.4320    -2.0000    -0.3700 H     1 <1>   0.0800 
 49 H       -4.4800    -0.5330    -0.4900 H     1 <1>   0.0800 
 50 H       -5.2550    -0.9420     1.0190 H     1 <1>   0.0800 
 51 H       -6.7920     2.6450    -1.5750 H     1 <1>   0.0800 
 52 H       -5.9450     3.9800    -0.8220 H     1 <1>   0.0800 
 53 H       -7.2330     3.2020     1.0260 H     1 <1>   0.0800 
 54 H       -7.0490     1.5290     0.5310 H     1 <1>   0.0800 
 55 H        2.9970     1.0460    -1.6990 H     1 <1>   0.1500 
 56 H        3.5060     2.4250     2.3020 H     1 <1>   0.1500 
 57 H        6.4970     1.0380    -0.6210 H     1 <1>   0.0800 
 58 H        5.2800     1.7960    -1.6430 H     1 <1>   0.0800 
 59 H        5.0930     0.1080    -1.1320 H     1 <1>   0.0800 
@<TRIPOS>BOND
  1   1   2  2   
  2   2   3  am  
  3   2   4  1   
  4   3   5  1   
  5   3  29  1   
  6   4   6  1   
  7   4   7  2   
  8   5   8  1   
  9   5   9  1   
 10   5  30  1   
 11   6  10  2   
 12   6  11  1   
 13   7  12  1   
 14   7  13  1   
 15   8  14  1   
 16   8  31  1   
 17   8  32  1   
 18   9  15  1   
 19   9  33  1   
 20   9  34  1   
 21  10  12  1   
 22  11  16  1   
 23  11  17  1   
 24  13  18  ar  
 25  13  19  ar  
 26  14  20  1   
 27  14  21  1   
 28  14  35  1   
 29  15  36  1   
 30  15  37  1   
 31  15  38  1   
 32  16  22  1   
 33  16  39  1   
 34  16  40  1   
 35  17  23  1   
 36  17  41  1   
 37  17  42  1   
 38  18  24  ar  
 39  18  43  1   
 40  19  25  ar  
 41  19  44  1   
 42  20  45  1   
 43  20  46  1   
 44  20  47  1   
 45  21  48  1   
 46  21  49  1   
 47  21  50  1   
 48  22  23  1   
 49  22  51  1   
 50  22  52  1   
 51  23  53  1   
 52  23  54  1   
 53  24  26  ar  
 54  24  55  1   
 55  25  26  ar  
 56  25  56  1   
 57  26  27  1   
 58  27  28  1   
 59  28  57  1   
 60  28  58  1   
 61  28  59  1   
@<TRIPOS>SUBSTRUCTURE
  1 ****   2 GROUP 4 **** **** 0

# MOE 2024.06 (io_trps.svl 2023.06)
