@<TRIPOS>MOLECULE
NONAME
49 52 1 0 0 
SMALL
USER_CHARGES


@<TRIPOS>ATOM
  1 S       -0.5200     0.4000     0.3210 S.o2  1 <1>   1.0900 
  2 O       -0.8300     1.6020     1.0580 O.2   1 <1>  -0.6500 
  3 O        0.8390     0.0120     0.0260 O.2   1 <1>  -0.6500 
  4 C       -1.3270    -1.0010     1.0400 C.3   1 <1>  -0.0550 
  5 C       -1.4530     0.3360    -1.2020 C.3   1 <1>  -0.0550 
  6 C       -1.6050    -1.9190    -0.1480 C.3   1 <1>   0.1760 
  7 C       -2.1490    -1.0350    -1.2900 C.3   1 <1>  -0.1600 
  8 N       -2.5590    -3.0010     0.2040 N.pl3 1 <1>   0.3140 
  9 N       -3.7000    -2.7310     0.8620 N.2   1 <1>  -0.7070 
 10 C       -2.4630    -4.3200    -0.1040 C.2   1 <1>  -0.3320 
 11 C       -4.3130    -3.8690     0.9540 C.2   1 <1>   0.1080 
 12 C       -3.5870    -4.9080     0.3630 C.2   1 <1>   0.0630 
 13 C       -1.2960    -4.9480    -0.8530 C.3   1 <1>  -0.0600 
 14 C       -5.6530    -3.9910     1.6470 C.3   1 <1>  -0.0590 
 15 N       -3.9060    -6.2860     0.2690 N.am  1 <1>  -0.4930 
 16 C       -5.0760    -6.8830    -0.1190 C.2   1 <1>   0.6160 
 17 O       -6.0400    -6.1990    -0.4060 O.2   1 <1>  -0.5700 
 18 C       -5.1540    -8.3290    -0.1770 C.2   1 <1>   0.0140 
 19 C       -6.3160    -8.9870     0.0750 C.2   1 <1>  -0.1780 
 20 C       -3.9530    -9.0500    -0.5400 C.2   1 <1>  -0.1500 
 21 C       -6.5750   -10.4040     0.0610 C.ar  1 <1>   0.0280 
 22 C       -3.6080   -10.2890    -0.1490 C.2   1 <1>  -0.0730 
 23 C       -5.6130   -11.3850     0.3510 C.ar  1 <1>   0.0820 
 24 C       -7.8620   -10.8440    -0.2380 C.ar  1 <1>  -0.1500 
 25 O       -4.3320   -11.0660     0.6890 O.3   1 <1>  -0.1590 
 26 C       -5.9370   -12.7290     0.3430 C.ar  1 <1>  -0.1500 
 27 C       -8.1870   -12.1910    -0.2530 C.ar  1 <1>  -0.1500 
 28 C       -7.2250   -13.1380     0.0380 C.ar  1 <1>  -0.1500 
 29 H       -2.2510    -0.6900     1.4900 H     1 <1>   0.0800 
 30 H       -0.7080    -1.4800     1.7730 H     1 <1>   0.0800 
 31 H       -0.7950     0.4790    -2.0390 H     1 <1>   0.0800 
 32 H       -2.1930     1.1140    -1.2150 H     1 <1>   0.0800 
 33 H       -0.6750    -2.3600    -0.4580 H     1 <1>   0.0800 
 34 H       -1.9770    -1.4960    -2.2460 H     1 <1>   0.0800 
 35 H       -3.2090    -0.8910    -1.1590 H     1 <1>   0.0800 
 36 H       -1.1740    -4.4770    -1.8130 H     1 <1>   0.0800 
 37 H       -1.4690    -5.9960    -1.0160 H     1 <1>   0.0800 
 38 H       -0.3870    -4.8370    -0.2890 H     1 <1>   0.0800 
 39 H       -5.7450    -3.2300     2.4000 H     1 <1>   0.0800 
 40 H       -5.7470    -4.9550     2.1100 H     1 <1>   0.0800 
 41 H       -6.4390    -3.8670     0.9260 H     1 <1>   0.0800 
 42 H       -3.1440    -6.9160     0.5070 H     1 <1>   0.3700 
 43 H       -7.1870    -8.3950     0.3030 H     1 <1>   0.1500 
 44 H       -3.2930    -8.5110    -1.1980 H     1 <1>   0.1500 
 45 H       -2.7000   -10.7760    -0.4590 H     1 <1>   0.1500 
 46 H       -8.6260   -10.1220    -0.4670 H     1 <1>   0.1500 
 47 H       -5.1830   -13.4590     0.5760 H     1 <1>   0.1500 
 48 H       -9.1910   -12.4990    -0.4910 H     1 <1>   0.1500 
 49 H       -7.4720   -14.1850     0.0290 H     1 <1>   0.1500 
@<TRIPOS>BOND
  1   1   2  2   
  2   1   3  2   
  3   1   4  1   
  4   1   5  1   
  5   4   6  1   
  6   4  29  1   
  7   4  30  1   
  8   5   7  1   
  9   5  31  1   
 10   5  32  1   
 11   6   7  1   
 12   6   8  1   
 13   6  33  1   
 14   7  34  1   
 15   7  35  1   
 16   8   9  1   
 17   8  10  1   
 18   9  11  2   
 19  10  12  2   
 20  10  13  1   
 21  11  12  1   
 22  11  14  1   
 23  12  15  1   
 24  13  36  1   
 25  13  37  1   
 26  13  38  1   
 27  14  39  1   
 28  14  40  1   
 29  14  41  1   
 30  15  16  am  
 31  15  42  1   
 32  16  17  2   
 33  16  18  1   
 34  18  19  2   
 35  18  20  1   
 36  19  21  1   
 37  19  43  1   
 38  20  22  2   
 39  20  44  1   
 40  21  23  ar  
 41  21  24  ar  
 42  22  25  1   
 43  22  45  1   
 44  23  25  1   
 45  23  26  ar  
 46  24  27  ar  
 47  24  46  1   
 48  26  28  ar  
 49  26  47  1   
 50  27  28  ar  
 51  27  48  1   
 52  28  49  1   
@<TRIPOS>SUBSTRUCTURE
  1 ****  15 GROUP 4 **** **** 0

# MOE 2024.06 (io_trps.svl 2023.06)
