@<TRIPOS>MOLECULE
NONAME
48 50 1 0 0 
SMALL
USER_CHARGES


@<TRIPOS>ATOM
  1 O       -2.7720     0.5710    -1.3190 O.2   1 <1>  -0.5700 
  2 C       -2.1870     0.7480    -0.2780 C.2   1 <1>   0.5690 
  3 N       -1.7920    -0.2960     0.4970 N.am  1 <1>  -0.7300 
  4 C       -1.8740     2.1680     0.2000 C.3   1 <1>  -0.0190 
  5 C       -1.9580    -1.7230     0.1220 C.3   1 <1>   0.1400 
  6 C       -2.8160     3.2310    -0.4040 C.3   1 <1>  -0.1600 
  7 C       -0.3960     2.5300    -0.0780 C.3   1 <1>  -0.1600 
  8 C       -3.3620    -2.2120     0.4890 C.3   1 <1>   0.0210 
  9 C       -2.5830     4.6330     0.1990 C.3   1 <1>   0.2000 
 10 C       -0.1140     4.0460    -0.0820 C.3   1 <1>  -0.1600 
 11 C       -3.5500    -3.6920     0.2110 C.2   1 <1>   0.3350 
 12 O       -2.8190     5.5940    -0.8010 O.3   1 <1>  -0.5600 
 13 C       -1.1430     4.8170     0.7490 C.3   1 <1>   0.2000 
 14 N       -2.6450    -4.4940    -0.2030 N.2   1 <1>  -0.4100 
 15 N       -4.7430    -4.2620     0.4060 N.2   1 <1>  -0.5650 
 16 C       -4.1610     5.8510    -1.0760 C.3   1 <1>   0.0400 
 17 O       -0.8090     6.1550     0.7100 O.3   1 <1>  -0.6800 
 18 O       -3.2560    -5.6170    -0.2890 O.3   1 <1>  -0.0190 
 19 C       -4.5040    -5.4830     0.0710 C.2   1 <1>   0.4250 
 20 C       -5.4130    -6.6090     0.0630 C.ar  1 <1>   0.0530 
 21 C       -5.0010    -7.8870    -0.3250 C.ar  1 <1>  -0.1500 
 22 C       -6.7470    -6.4570     0.4450 C.ar  1 <1>  -0.1500 
 23 C       -5.8770    -8.9570    -0.3290 C.ar  1 <1>  -0.1500 
 24 C       -7.6270    -7.5230     0.4420 C.ar  1 <1>  -0.1500 
 25 C       -7.1930    -8.7780     0.0550 C.ar  1 <1>  -0.1500 
 26 H       -1.2850    -0.1180     1.3650 H     1 <1>   0.3700 
 27 H       -2.0290     2.1770     1.2640 H     1 <1>   0.0800 
 28 H       -1.8080    -1.8350    -0.9400 H     1 <1>   0.0800 
 29 H       -1.2140    -2.3130     0.6310 H     1 <1>   0.0800 
 30 H       -3.8380     2.9390    -0.2390 H     1 <1>   0.0800 
 31 H       -2.6450     3.2650    -1.4670 H     1 <1>   0.0800 
 32 H        0.2210     2.0540     0.6640 H     1 <1>   0.0800 
 33 H       -0.1050     2.1330    -1.0370 H     1 <1>   0.0800 
 34 H       -4.0870    -1.6650    -0.0850 H     1 <1>   0.0800 
 35 H       -3.5440    -2.0400     1.5330 H     1 <1>   0.0800 
 36 H       -3.2680     4.8070     1.0110 H     1 <1>   0.0800 
 37 H       -0.1630     4.4050    -1.0970 H     1 <1>   0.0800 
 38 H        0.8760     4.2330     0.2940 H     1 <1>   0.0800 
 39 H       -1.0890     4.4940     1.7740 H     1 <1>   0.0800 
 40 H       -4.2070     6.6170    -1.8290 H     1 <1>   0.0800 
 41 H       -4.6490     6.1950    -0.1800 H     1 <1>   0.0800 
 42 H       -4.6310     4.9560    -1.4460 H     1 <1>   0.0800 
 43 H       -1.2930     6.5260    -0.0630 H     1 <1>   0.4000 
 44 H       -3.9810    -8.0490    -0.6270 H     1 <1>   0.1500 
 45 H       -7.0980    -5.4850     0.7480 H     1 <1>   0.1500 
 46 H       -5.5360    -9.9330    -0.6320 H     1 <1>   0.1500 
 47 H       -8.6510    -7.3780     0.7420 H     1 <1>   0.1500 
 48 H       -7.8760    -9.6100     0.0520 H     1 <1>   0.1500 
@<TRIPOS>BOND
  1   1   2  2   
  2   2   3  am  
  3   2   4  1   
  4   3   5  1   
  5   3  26  1   
  6   4   6  1   
  7   4   7  1   
  8   4  27  1   
  9   5   8  1   
 10   5  28  1   
 11   5  29  1   
 12   6   9  1   
 13   6  30  1   
 14   6  31  1   
 15   7  10  1   
 16   7  32  1   
 17   7  33  1   
 18   8  11  1   
 19   8  34  1   
 20   8  35  1   
 21   9  12  1   
 22   9  13  1   
 23   9  36  1   
 24  10  13  1   
 25  10  37  1   
 26  10  38  1   
 27  11  14  2   
 28  11  15  1   
 29  12  16  1   
 30  13  17  1   
 31  13  39  1   
 32  14  18  1   
 33  15  19  2   
 34  16  40  1   
 35  16  41  1   
 36  16  42  1   
 37  17  43  1   
 38  18  19  1   
 39  19  20  1   
 40  20  21  ar  
 41  20  22  ar  
 42  21  23  ar  
 43  21  44  1   
 44  22  24  ar  
 45  22  45  1   
 46  23  25  ar  
 47  23  46  1   
 48  24  25  ar  
 49  24  47  1   
 50  25  48  1   
@<TRIPOS>SUBSTRUCTURE
  1 ****   8 GROUP 4 **** **** 0

# MOE 2024.06 (io_trps.svl 2023.06)
