@<TRIPOS>MOLECULE
NONAME
50 52 1 0 0 
SMALL
USER_CHARGES


@<TRIPOS>ATOM
  1 O        2.9710     1.3530     1.9330 O.co2 1 <1>  -0.9000 
  2 C        2.2780     0.6040     1.2320 C.2   1 <1>   0.9060 
  3 O        1.9070    -0.4950     1.6450 O.co2 1 <1>  -0.9000 
  4 C        2.1310     0.8940    -0.2690 C.3   1 <1>  -0.1060 
  5 C        3.1040    -0.1200    -0.9060 C.3   1 <1>   0.2000 
  6 C        2.5980     2.3380    -0.6480 C.3   1 <1>  -0.1600 
  7 C        0.6640     0.6540    -0.7130 C.3   1 <1>  -0.0170 
  8 O        3.1440     0.0520    -2.2930 O.3   1 <1>  -0.6800 
  9 C        4.5330     0.0830    -0.3350 C.3   1 <1>   0.3430 
 10 C        4.1160     2.4920    -0.8470 C.3   1 <1>   0.3430 
 11 C       -0.2980     1.7300    -0.2180 C.ar  1 <1>  -0.1440 
 12 N        4.8380     1.5180     0.0100 N.4   1 <1>  -0.9590 
 13 C       -0.7170     1.7370     1.1030 C.ar  1 <1>  -0.1500 
 14 C       -0.7650     2.7110    -1.0800 C.ar  1 <1>  -0.1500 
 15 C        6.2930     1.7710     0.2130 C.3   1 <1>   0.5240 
 16 C       -1.5830     2.7150     1.5600 C.ar  1 <1>  -0.1500 
 17 C       -1.6320     3.6900    -0.6260 C.ar  1 <1>  -0.1500 
 18 C        6.6870     3.2470     0.1270 C.2   1 <1>   0.1080 
 19 C       -2.0410     3.6940     0.6960 C.ar  1 <1>  -0.1500 
 20 N        6.2160     4.1730     0.9080 N.2   1 <1>  -0.7070 
 21 C        7.5880     3.7640    -0.7990 C.2   1 <1>  -0.1500 
 22 N        6.8050     5.3130     0.5040 N.pl3 1 <1>   0.3140 
 23 C        7.6380     5.0850    -0.5290 C.2   1 <1>  -0.3020 
 24 C        6.5320     6.6100     1.1570 C.3   1 <1>   0.0960 
 25 C        5.5740     7.4650     0.3170 C.3   1 <1>  -0.2400 
 26 H        2.7850    -1.1310    -0.7120 H     1 <1>   0.0800 
 27 H        2.2720     3.0290     0.1110 H     1 <1>   0.0800 
 28 H        2.1300     2.6470    -1.5650 H     1 <1>   0.0800 
 29 H        0.6070     0.6200    -1.7850 H     1 <1>   0.0800 
 30 H        0.3260    -0.3030    -0.3520 H     1 <1>   0.0800 
 31 H        2.2670    -0.1510    -2.6740 H     1 <1>   0.4000 
 32 H        5.2410    -0.2960    -1.0510 H     1 <1>   0.0800 
 33 H        4.6140    -0.5020     0.5670 H     1 <1>   0.0800 
 34 H        4.3970     3.5030    -0.5990 H     1 <1>   0.0800 
 35 H        4.3640     2.3070    -1.8790 H     1 <1>   0.0800 
 36 H        4.3720     1.6690     0.9460 H     1 <1>   0.4500 
 37 H       -0.3670     0.9790     1.7870 H     1 <1>   0.1500 
 38 H       -0.4550     2.7200    -2.1100 H     1 <1>   0.1500 
 39 H        6.5820     1.3960     1.1810 H     1 <1>   0.0800 
 40 H        6.8510     1.2350    -0.5340 H     1 <1>   0.0800 
 41 H       -1.8930     2.7110     2.5900 H     1 <1>   0.1500 
 42 H       -1.9880     4.4490    -1.3000 H     1 <1>   0.1500 
 43 H       -2.7110     4.4550     1.0530 H     1 <1>   0.1500 
 44 H        8.1210     3.2200    -1.5590 H     1 <1>   0.1500 
 45 H        8.2100     5.8620    -1.0030 H     1 <1>   0.1500 
 46 H        6.0980     6.4150     2.1220 H     1 <1>   0.0800 
 47 H        7.4650     7.1240     1.2990 H     1 <1>   0.0800 
 48 H        4.6380     6.9500     0.1880 H     1 <1>   0.0800 
 49 H        6.0030     7.6770    -0.6460 H     1 <1>   0.0800 
 50 H        5.3830     8.3970     0.8190 H     1 <1>   0.0800 
@<TRIPOS>BOND
  1   1   2  ar  
  2   2   3  ar  
  3   2   4  1   
  4   4   5  1   
  5   4   6  1   
  6   4   7  1   
  7   5   8  1   
  8   5   9  1   
  9   5  26  1   
 10   6  10  1   
 11   6  27  1   
 12   6  28  1   
 13   7  11  1   
 14   7  29  1   
 15   7  30  1   
 16   8  31  1   
 17   9  12  1   
 18   9  32  1   
 19   9  33  1   
 20  10  12  1   
 21  10  34  1   
 22  10  35  1   
 23  11  13  ar  
 24  11  14  ar  
 25  12  15  1   
 26  12  36  1   
 27  13  16  ar  
 28  13  37  1   
 29  14  17  ar  
 30  14  38  1   
 31  15  18  1   
 32  15  39  1   
 33  15  40  1   
 34  16  19  ar  
 35  16  41  1   
 36  17  19  ar  
 37  17  42  1   
 38  18  20  2   
 39  18  21  1   
 40  19  43  1   
 41  20  22  1   
 42  21  23  2   
 43  21  44  1   
 44  22  23  1   
 45  22  24  1   
 46  23  45  1   
 47  24  25  1   
 48  24  46  1   
 49  24  47  1   
 50  25  48  1   
 51  25  49  1   
 52  25  50  1   
@<TRIPOS>SUBSTRUCTURE
  1 ****   6 GROUP 4 **** **** 0

# MOE 2024.06 (io_trps.svl 2023.06)
