@<TRIPOS>MOLECULE
NONAME
62 65 1 0 0 
SMALL
USER_CHARGES


@<TRIPOS>ATOM
  1 O        0.8530    -0.8820    -2.2790 O.2   1 <1>  -0.5700 
  2 C        1.5070    -1.5060    -1.4650 C.2   1 <1>   0.5440 
  3 N        2.5780    -0.8920    -0.8480 N.am  1 <1>  -0.6600 
  4 C        1.1210    -2.8730    -1.1720 C.ar  1 <1>   0.0860 
  5 C        3.1380    -1.3130     0.4670 C.3   1 <1>   0.1400 
  6 C        3.1310     0.3960    -1.3580 C.3   1 <1>   0.1400 
  7 C       -0.1970    -3.2290    -0.9630 C.ar  1 <1>  -0.1500 
  8 C        2.0260    -3.9230    -1.1070 C.ar  1 <1>  -0.1500 
  9 C        2.9010    -0.2130     1.5080 C.3   1 <1>  -0.1600 
 10 C        2.8870     1.5080    -0.3330 C.3   1 <1>  -0.1600 
 11 C       -0.5510    -4.5430    -0.6860 C.ar  1 <1>   0.4100 
 12 C        1.5870    -5.2000    -0.8290 C.ar  1 <1>   0.1600 
 13 C        3.4560     1.1410     1.0440 C.3   1 <1>  -0.1600 
 14 N        0.3250    -5.5380    -0.6100 N.ar  1 <1>  -0.6200 
 15 N       -1.8760    -4.8770    -0.4700 N.pl3 1 <1>  -0.8380 
 16 C       -2.4390    -6.1700    -0.9520 C.3   1 <1>   0.2090 
 17 C       -2.7230    -4.1180     0.4950 C.3   1 <1>   0.2090 
 18 C       -2.8620    -7.1080     0.2280 C.3   1 <1>   0.5030 
 19 C       -3.2440    -5.0390     1.6230 C.3   1 <1>   0.3430 
 20 N       -3.8310    -6.3520     1.1280 N.4   1 <1>  -0.9590 
 21 C       -3.5550    -8.3580    -0.3480 C.3   1 <1>  -0.1600 
 22 C       -1.6350    -7.5780     1.0380 C.3   1 <1>  -0.1600 
 23 C       -4.3950    -7.1040     2.3000 C.3   1 <1>   0.2630 
 24 C       -2.5980    -9.2040    -1.1960 C.3   1 <1>   0.3430 
 25 C       -0.6750    -8.3990     0.1800 C.3   1 <1>   0.3430 
 26 N       -1.3900    -9.5740    -0.4010 N.4   1 <1>  -0.9590 
 27 C       -0.4420   -10.3720    -1.2450 C.3   1 <1>   0.2630 
 28 H        4.1940    -1.4890     0.3570 H     1 <1>   0.0800 
 29 H        2.6770    -2.2210     0.8110 H     1 <1>   0.0800 
 30 H        2.6760     0.6630    -2.2970 H     1 <1>   0.0800 
 31 H        4.1880     0.2800    -1.5260 H     1 <1>   0.0800 
 32 H       -0.9560    -2.4740    -1.0340 H     1 <1>   0.1500 
 33 H        3.0700    -3.7320    -1.2830 H     1 <1>   0.1500 
 34 H        3.3670    -0.4940     2.4360 H     1 <1>   0.0800 
 35 H        1.8430    -0.1250     1.6850 H     1 <1>   0.0800 
 36 H        1.8270     1.6790    -0.2580 H     1 <1>   0.0800 
 37 H        3.3410     2.4190    -0.6830 H     1 <1>   0.0800 
 38 H        2.3210    -5.9880    -0.7850 H     1 <1>   0.1500 
 39 H        4.5300     1.0860     0.9840 H     1 <1>   0.0800 
 40 H        3.2010     1.9040     1.7590 H     1 <1>   0.0800 
 41 H       -1.7240    -6.6500    -1.5960 H     1 <1>   0.0800 
 42 H       -3.2990    -5.9530    -1.5620 H     1 <1>   0.0800 
 43 H       -3.5530    -3.6790    -0.0320 H     1 <1>   0.0800 
 44 H       -2.1550    -3.3150     0.9340 H     1 <1>   0.0800 
 45 H       -3.9850    -4.4980     2.1890 H     1 <1>   0.0800 
 46 H       -2.4210    -5.2430     2.2880 H     1 <1>   0.0800 
 47 H       -4.6230    -6.0840     0.5270 H     1 <1>   0.4500 
 48 H       -4.3860    -8.0660    -0.9660 H     1 <1>   0.0800 
 49 H       -3.9320    -8.9890     0.4350 H     1 <1>   0.0800 
 50 H       -1.9280    -8.1780     1.8790 H     1 <1>   0.0800 
 51 H       -1.0880    -6.7320     1.4140 H     1 <1>   0.0800 
 52 H       -3.6100    -7.3950     2.9790 H     1 <1>   0.0800 
 53 H       -4.9190    -7.9880     1.9740 H     1 <1>   0.0800 
 54 H       -5.0940    -6.4840     2.8390 H     1 <1>   0.0800 
 55 H       -2.2980    -8.6530    -2.0740 H     1 <1>   0.0800 
 56 H       -3.1040   -10.0980    -1.5280 H     1 <1>   0.0800 
 57 H        0.1540    -8.7320     0.7850 H     1 <1>   0.0800 
 58 H       -0.2750    -7.7890    -0.6140 H     1 <1>   0.0800 
 59 H       -1.6810   -10.1900     0.3760 H     1 <1>   0.4500 
 60 H       -0.0880    -9.7830    -2.0760 H     1 <1>   0.0800 
 61 H       -0.9300   -11.2530    -1.6320 H     1 <1>   0.0800 
 62 H        0.4090   -10.6860    -0.6610 H     1 <1>   0.0800 
@<TRIPOS>BOND
  1   1   2  2   
  2   2   3  am  
  3   2   4  1   
  4   3   5  1   
  5   3   6  1   
  6   4   7  ar  
  7   4   8  ar  
  8   5   9  1   
  9   5  28  1   
 10   5  29  1   
 11   6  10  1   
 12   6  30  1   
 13   6  31  1   
 14   7  11  ar  
 15   7  32  1   
 16   8  12  ar  
 17   8  33  1   
 18   9  13  1   
 19   9  34  1   
 20   9  35  1   
 21  10  13  1   
 22  10  36  1   
 23  10  37  1   
 24  11  14  ar  
 25  11  15  1   
 26  12  14  ar  
 27  12  38  1   
 28  13  39  1   
 29  13  40  1   
 30  15  16  1   
 31  15  17  1   
 32  16  18  1   
 33  16  41  1   
 34  16  42  1   
 35  17  19  1   
 36  17  43  1   
 37  17  44  1   
 38  18  20  1   
 39  18  21  1   
 40  18  22  1   
 41  19  20  1   
 42  19  45  1   
 43  19  46  1   
 44  20  23  1   
 45  20  47  1   
 46  21  24  1   
 47  21  48  1   
 48  21  49  1   
 49  22  25  1   
 50  22  50  1   
 51  22  51  1   
 52  23  52  1   
 53  23  53  1   
 54  23  54  1   
 55  24  26  1   
 56  24  55  1   
 57  24  56  1   
 58  25  26  1   
 59  25  57  1   
 60  25  58  1   
 61  26  27  1   
 62  26  59  1   
 63  27  60  1   
 64  27  61  1   
 65  27  62  1   
@<TRIPOS>SUBSTRUCTURE
  1 ****  11 GROUP 4 **** **** 0

# MOE 2024.06 (io_trps.svl 2023.06)
