@<TRIPOS>MOLECULE
NONAME
47 49 1 0 0 
SMALL
USER_CHARGES


@<TRIPOS>ATOM
  1 CL      -1.9800     2.0820    -2.3180 Cl    1 <1>  -0.1770 
  2 C       -1.0820     2.9630    -1.1070 C.ar  1 <1>   0.1770 
  3 C       -1.4810     2.9440     0.2270 C.ar  1 <1>   0.0860 
  4 C        0.0340     3.6620    -1.5220 C.ar  1 <1>  -0.1500 
  5 C       -2.6460     2.2160     0.6780 C.2   1 <1>   0.5440 
  6 C       -0.6930     3.6490     1.1380 C.ar  1 <1>  -0.1500 
  7 C        0.7920     4.3600    -0.5980 C.ar  1 <1>  -0.1500 
  8 O       -2.4890     1.2900     1.4510 O.2   1 <1>  -0.5700 
  9 N       -3.9270     2.5580     0.2990 N.am  1 <1>  -0.6600 
 10 C        0.4380     4.3610     0.7480 C.ar  1 <1>  -0.1430 
 11 C       -5.0640     1.6390     0.5960 C.3   1 <1>   0.1400 
 12 C       -4.2560     3.8210    -0.4250 C.3   1 <1>   0.1400 
 13 C        1.2910     5.1230     1.7800 C.3   1 <1>   1.1640 
 14 C       -6.1890     1.8410    -0.4210 C.3   1 <1>  -0.1600 
 15 C       -5.6520     4.2950    -0.0150 C.3   1 <1>  -0.1600 
 16 F        0.5900     5.5100     2.8390 F     1 <1>  -0.3400 
 17 F        1.8360     6.2230     1.2760 F     1 <1>  -0.3400 
 18 F        2.2910     4.3850     2.2400 F     1 <1>  -0.3400 
 19 C       -6.7560     3.2810    -0.4140 C.3   1 <1>   0.2800 
 20 O       -7.1450     3.5120    -1.7420 O.3   1 <1>  -0.5600 
 21 C       -7.9980     3.3540     0.5090 C.3   1 <1>  -0.1600 
 22 C       -7.9080     4.6400    -2.0660 C.3   1 <1>   0.1200 
 23 C       -8.9230     4.5450     0.2470 C.3   1 <1>   0.2800 
 24 C       -9.2010     4.6630    -1.2500 C.3   1 <1>  -0.1600 
 25 O       -8.2990     5.6940     0.6630 O.3   1 <1>  -0.6800 
 26 C      -10.2160     4.4470     1.0540 C.3   1 <1>  -0.2400 
 27 H        0.3100     3.6540    -2.5620 H     1 <1>   0.1500 
 28 H       -0.9860     3.6190     2.1760 H     1 <1>   0.1500 
 29 H        1.6640     4.8980    -0.9360 H     1 <1>   0.1500 
 30 H       -5.4210     1.8310     1.5930 H     1 <1>   0.0800 
 31 H       -4.7210     0.6180     0.5520 H     1 <1>   0.0800 
 32 H       -4.2330     3.6420    -1.4870 H     1 <1>   0.0800 
 33 H       -3.5340     4.5820    -0.1860 H     1 <1>   0.0800 
 34 H       -6.9620     1.1200    -0.2320 H     1 <1>   0.0800 
 35 H       -5.7850     1.6160    -1.3930 H     1 <1>   0.0800 
 36 H       -5.8240     5.2620    -0.4410 H     1 <1>   0.0800 
 37 H       -5.6450     4.4200     1.0530 H     1 <1>   0.0800 
 38 H       -7.7000     3.3400     1.5420 H     1 <1>   0.0800 
 39 H       -8.5840     2.4680     0.3490 H     1 <1>   0.0800 
 40 H       -8.1390     4.5790    -3.1160 H     1 <1>   0.0800 
 41 H       -7.3250     5.5280    -1.9060 H     1 <1>   0.0800 
 42 H       -9.8100     3.8350    -1.5660 H     1 <1>   0.0800 
 43 H       -9.7510     5.5640    -1.4530 H     1 <1>   0.0800 
 44 H       -7.4480     5.7760     0.2000 H     1 <1>   0.4000 
 45 H      -10.7670     3.5690     0.7720 H     1 <1>   0.0800 
 46 H      -10.8340     5.3080     0.8720 H     1 <1>   0.0800 
 47 H       -9.9950     4.3890     2.1040 H     1 <1>   0.0800 
@<TRIPOS>BOND
  1   1   2  1   
  2   2   3  ar  
  3   2   4  ar  
  4   3   5  1   
  5   3   6  ar  
  6   4   7  ar  
  7   4  27  1   
  8   5   8  2   
  9   5   9  am  
 10   6  10  ar  
 11   6  28  1   
 12   7  10  ar  
 13   7  29  1   
 14   9  11  1   
 15   9  12  1   
 16  10  13  1   
 17  11  14  1   
 18  11  30  1   
 19  11  31  1   
 20  12  15  1   
 21  12  32  1   
 22  12  33  1   
 23  13  16  1   
 24  13  17  1   
 25  13  18  1   
 26  14  19  1   
 27  14  34  1   
 28  14  35  1   
 29  15  19  1   
 30  15  36  1   
 31  15  37  1   
 32  19  20  1   
 33  19  21  1   
 34  20  22  1   
 35  21  23  1   
 36  21  38  1   
 37  21  39  1   
 38  22  24  1   
 39  22  40  1   
 40  22  41  1   
 41  23  24  1   
 42  23  25  1   
 43  23  26  1   
 44  24  42  1   
 45  24  43  1   
 46  25  44  1   
 47  26  45  1   
 48  26  46  1   
 49  26  47  1   
@<TRIPOS>SUBSTRUCTURE
  1 ****  12 GROUP 4 **** **** 0

# MOE 2024.06 (io_trps.svl 2023.06)
