@<TRIPOS>MOLECULE
NONAME
45 46 1 0 0 
SMALL
USER_CHARGES


@<TRIPOS>ATOM
  1 O       -0.7050     0.0210    -2.2590 O.2   1 <1>  -0.5700 
  2 C       -1.6550     0.7120    -1.9820 C.2   1 <1>   0.5690 
  3 N       -2.9400     0.2880    -2.1680 N.am  1 <1>  -0.6600 
  4 C       -1.3860     2.0320    -1.3020 C.3   1 <1>  -0.0990 
  5 C       -3.2270    -1.1420    -1.9140 C.3   1 <1>   0.3200 
  6 C       -4.0480     1.1590    -2.6650 C.3   1 <1>   0.1400 
  7 C       -1.5050     1.8080     0.2090 C.3   1 <1>   0.0960 
  8 C       -3.0700    -1.3600    -0.4230 C.2   1 <1>  -0.3320 
  9 C       -5.0050     1.6420    -1.5590 C.3   1 <1>   0.1200 
 10 N       -1.1930     3.0480     0.9470 N.pl3 1 <1>   0.0480 
 11 N       -3.9640    -0.9320     0.4830 N.pl3 1 <1>   0.0330 
 12 C       -2.0670    -1.9330     0.2770 C.2   1 <1>   0.0770 
 13 O       -5.7920     0.6010    -1.0720 O.3   1 <1>  -0.6800 
 14 C       -0.1360     3.3280     1.7520 C.2   1 <1>   0.0060 
 15 C       -1.9380     4.1700     0.9580 C.2   1 <1>  -0.3020 
 16 C       -3.4450    -1.2640     1.6830 C.2   1 <1>   0.0060 
 17 N       -2.3050    -1.8680     1.6010 N.2   1 <1>  -0.5650 
 18 N       -0.1680     4.5240     2.2490 N.2   1 <1>  -0.5650 
 19 C        0.9820     2.3450     2.0640 C.3   1 <1>   0.0200 
 20 C       -1.2980     5.0540     1.7510 C.2   1 <1>   0.0770 
 21 C       -4.1380    -0.9450     2.9890 C.3   1 <1>  -0.0600 
 22 C        1.9510     2.1910     0.8870 C.3   1 <1>  -0.2400 
 23 H       -2.0780     2.7810    -1.6310 H     1 <1>   0.0800 
 24 H       -0.3890     2.3510    -1.5460 H     1 <1>   0.0800 
 25 H       -2.5230    -1.7540    -2.4530 H     1 <1>   0.0800 
 26 H       -4.2220    -1.3990    -2.2330 H     1 <1>   0.0800 
 27 H       -4.6040     0.6370    -3.4240 H     1 <1>   0.0800 
 28 H       -3.6150     2.0230    -3.1380 H     1 <1>   0.0800 
 29 H       -0.8350     1.0260     0.5170 H     1 <1>   0.0800 
 30 H       -2.5020     1.5020     0.4650 H     1 <1>   0.0800 
 31 H       -5.6660     2.4000    -1.9430 H     1 <1>   0.0800 
 32 H       -4.4480     2.0570    -0.7370 H     1 <1>   0.0800 
 33 H       -4.8370    -0.4250     0.2780 H     1 <1>   0.2700 
 34 H       -1.1660    -2.3810    -0.1100 H     1 <1>   0.1500 
 35 H       -6.4790     0.3530    -1.7250 H     1 <1>   0.4000 
 36 H       -2.8580     4.2810     0.4180 H     1 <1>   0.1500 
 37 H        0.5660     1.3900     2.3330 H     1 <1>   0.0800 
 38 H        1.5270     2.7100     2.9180 H     1 <1>   0.0800 
 39 H       -1.5940     6.0600     1.9970 H     1 <1>   0.1500 
 40 H       -5.0990    -1.4240     3.0230 H     1 <1>   0.0800 
 41 H       -4.2640     0.1180     3.0900 H     1 <1>   0.0800 
 42 H       -3.5450    -1.3020     3.8120 H     1 <1>   0.0800 
 43 H        1.4540     1.7650     0.0350 H     1 <1>   0.0800 
 44 H        2.7660     1.5480     1.1640 H     1 <1>   0.0800 
 45 H        2.3460     3.1530     0.6130 H     1 <1>   0.0800 
@<TRIPOS>BOND
  1   1   2  2   
  2   2   3  am  
  3   2   4  1   
  4   3   5  1   
  5   3   6  1   
  6   4   7  1   
  7   4  23  1   
  8   4  24  1   
  9   5   8  1   
 10   5  25  1   
 11   5  26  1   
 12   6   9  1   
 13   6  27  1   
 14   6  28  1   
 15   7  10  1   
 16   7  29  1   
 17   7  30  1   
 18   8  11  1   
 19   8  12  2   
 20   9  13  1   
 21   9  31  1   
 22   9  32  1   
 23  10  14  1   
 24  10  15  1   
 25  11  16  1   
 26  11  33  1   
 27  12  17  1   
 28  12  34  1   
 29  13  35  1   
 30  14  18  2   
 31  14  19  1   
 32  15  20  2   
 33  15  36  1   
 34  16  17  2   
 35  16  21  1   
 36  18  20  1   
 37  19  22  1   
 38  19  37  1   
 39  19  38  1   
 40  20  39  1   
 41  21  40  1   
 42  21  41  1   
 43  21  42  1   
 44  22  43  1   
 45  22  44  1   
 46  22  45  1   
@<TRIPOS>SUBSTRUCTURE
  1 ****   7 GROUP 4 **** **** 0

# MOE 2024.06 (io_trps.svl 2023.06)
