@<TRIPOS>MOLECULE
NONAME
45 48 1 0 0 
SMALL
USER_CHARGES


@<TRIPOS>ATOM
  1 O       -1.8520     0.2050    -1.1640 O.co2 1 <1>  -0.9000 
  2 C       -2.5690     0.0500    -0.1710 C.2   1 <1>   0.9060 
  3 O       -2.2470     0.4020     0.9670 O.co2 1 <1>  -0.9000 
  4 C       -3.8190    -0.8180    -0.3160 C.3   1 <1>   0.2370 
  5 N       -3.5520    -2.3080    -0.1990 N.4   1 <1>  -0.9590 
  6 C       -2.9420    -2.6460     1.1380 C.3   1 <1>   0.4230 
  7 C       -2.8090    -2.8010    -1.3900 C.3   1 <1>   0.3430 
  8 C       -1.3930    -2.6450     1.1910 C.3   1 <1>   0.1200 
  9 C       -3.5200    -4.0140     1.5860 C.3   1 <1>   0.2090 
 10 C       -2.1710    -4.1910    -1.2260 C.3   1 <1>  -0.0800 
 11 O       -0.8530    -3.8730     0.7840 O.3   1 <1>  -0.5600 
 12 N       -4.0380    -4.8370     0.4270 N.pl3 1 <1>  -0.8380 
 13 C       -0.7780    -4.0710    -0.5860 C.3   1 <1>   0.1200 
 14 C       -3.0480    -5.3030    -0.5950 C.3   1 <1>   0.2090 
 15 C       -5.3890    -4.9250     0.1850 C.ar  1 <1>   0.4100 
 16 N       -6.0760    -3.8010     0.2380 N.ar  1 <1>  -0.6200 
 17 C       -5.9950    -6.1250    -0.1200 C.ar  1 <1>  -0.1500 
 18 C       -7.3680    -3.9200    -0.0120 C.ar  1 <1>   0.4700 
 19 C       -7.3410    -6.1210    -0.3640 C.ar  1 <1>   0.2780 
 20 N       -8.0470    -5.0090    -0.3180 N.ar  1 <1>  -0.6200 
 21 C       -8.0860    -7.4010    -0.7070 C.3   1 <1>  -0.0680 
 22 C       -9.0050    -8.0200     0.3010 C.3   1 <1>  -0.2000 
 23 C       -7.7410    -8.7240    -0.0880 C.3   1 <1>  -0.2000 
 24 H       -4.2580    -0.5970    -1.2720 H     1 <1>   0.0800 
 25 H       -4.5060    -0.5120     0.4520 H     1 <1>   0.0800 
 26 H       -4.4420    -2.8490    -0.1750 H     1 <1>   0.4500 
 27 H       -3.2670    -1.9030     1.8480 H     1 <1>   0.0800 
 28 H       -3.4900    -2.8290    -2.2240 H     1 <1>   0.0800 
 29 H       -2.0310    -2.0940    -1.6380 H     1 <1>   0.0800 
 30 H       -1.0910    -2.5060     2.2140 H     1 <1>   0.0800 
 31 H       -0.9600    -1.8450     0.6170 H     1 <1>   0.0800 
 32 H       -4.3310    -3.8250     2.2680 H     1 <1>   0.0800 
 33 H       -2.7860    -4.5790     2.1340 H     1 <1>   0.0800 
 34 H       -1.9630    -4.5200    -2.2280 H     1 <1>   0.0800 
 35 H       -0.2110    -3.2630    -1.0200 H     1 <1>   0.0800 
 36 H       -0.2280    -4.9840    -0.7360 H     1 <1>   0.0800 
 37 H       -2.4140    -6.0490    -0.1460 H     1 <1>   0.0800 
 38 H       -3.5890    -5.7880    -1.3910 H     1 <1>   0.0800 
 39 H       -5.4180    -7.0260    -0.1540 H     1 <1>   0.1500 
 40 H       -7.9460    -3.0120     0.0370 H     1 <1>   0.1500 
 41 H       -8.4260    -7.3980    -1.7280 H     1 <1>   0.1000 
 42 H       -9.0740    -7.5630     1.2740 H     1 <1>   0.1000 
 43 H       -9.9500    -8.4050    -0.0400 H     1 <1>   0.1000 
 44 H       -7.8120    -9.6100    -0.6940 H     1 <1>   0.1000 
 45 H       -6.9620    -8.7900     0.6510 H     1 <1>   0.1000 
@<TRIPOS>BOND
  1   1   2  ar  
  2   2   3  ar  
  3   2   4  1   
  4   4   5  1   
  5   4  24  1   
  6   4  25  1   
  7   5   6  1   
  8   5   7  1   
  9   5  26  1   
 10   6   8  1   
 11   6   9  1   
 12   6  27  1   
 13   7  10  1   
 14   7  28  1   
 15   7  29  1   
 16   8  11  1   
 17   8  30  1   
 18   8  31  1   
 19   9  12  1   
 20   9  32  1   
 21   9  33  1   
 22  10  13  1   
 23  10  14  1   
 24  10  34  1   
 25  11  13  1   
 26  12  14  1   
 27  12  15  1   
 28  13  35  1   
 29  13  36  1   
 30  14  37  1   
 31  14  38  1   
 32  15  16  ar  
 33  15  17  ar  
 34  16  18  ar  
 35  17  19  ar  
 36  17  39  1   
 37  18  20  ar  
 38  18  40  1   
 39  19  20  ar  
 40  19  21  1   
 41  21  22  1   
 42  21  23  1   
 43  21  41  1   
 44  22  23  1   
 45  22  42  1   
 46  22  43  1   
 47  23  44  1   
 48  23  45  1   
@<TRIPOS>SUBSTRUCTURE
  1 ****  12 GROUP 4 **** **** 0

# MOE 2024.06 (io_trps.svl 2023.06)
