@<TRIPOS>MOLECULE
NONAME
52 55 1 0 0 
SMALL
USER_CHARGES


@<TRIPOS>ATOM
  1 O        1.2540    -0.6970     1.4910 O.3   1 <1>  -0.5600 
  2 C        2.1500    -1.2480     0.5530 C.3   1 <1>   0.4240 
  3 C       -0.1090    -0.8680     1.2580 C.3   1 <1>   0.1200 
  4 C        1.6750    -2.6360     0.0670 C.ar  1 <1>  -0.1440 
  5 C        3.4900    -1.3650     1.2910 C.3   1 <1>  -0.1600 
  6 C        2.2880    -0.2660    -0.6220 C.3   1 <1>  -0.1600 
  7 C       -0.4440    -2.3510     1.3820 C.3   1 <1>  -0.0160 
  8 C        0.4490    -3.1590     0.4600 C.ar  1 <1>  -0.1440 
  9 C        2.4670    -3.3930    -0.7860 C.ar  1 <1>  -0.1500 
 10 C        4.0130     0.0020     1.7320 C.3   1 <1>   0.2090 
 11 C        2.8230     1.0920    -0.1700 C.3   1 <1>   0.2090 
 12 C        0.0360    -4.4050     0.0150 C.ar  1 <1>  -0.1500 
 13 C        2.0740    -4.6430    -1.2350 C.ar  1 <1>   0.0830 
 14 N        4.1160     0.8950     0.5440 N.pl3 1 <1>  -0.8380 
 15 C        0.8320    -5.1620    -0.8410 C.ar  1 <1>   0.0830 
 16 O        2.9670    -5.2680    -2.0540 O.3   1 <1>  -0.3630 
 17 C        5.2180     1.6960     0.3160 C.ar  1 <1>   0.7200 
 18 O        0.4180    -6.3760    -1.3110 O.3   1 <1>  -0.3630 
 19 C        3.1350    -6.6680    -2.0050 C.3   1 <1>   0.0400 
 20 N        5.0300     2.7960    -0.4040 N.ar  1 <1>  -0.6200 
 21 N        6.3750     1.2930     0.8410 N.ar  1 <1>  -0.6200 
 22 C       -0.8860    -6.8640    -1.0870 C.3   1 <1>   0.0400 
 23 C        6.0830     3.5440    -0.6120 C.ar  1 <1>   0.3930 
 24 C        7.4140     2.0580     0.6170 C.ar  1 <1>   0.1600 
 25 O        5.8590     4.6510    -1.3460 O.3   1 <1>  -0.3630 
 26 C        7.3260     3.2130    -0.1120 C.ar  1 <1>  -0.1500 
 27 C        6.8710     5.5820    -1.6620 C.3   1 <1>   0.0400 
 28 H       -0.3520    -0.4940     0.2800 H     1 <1>   0.0800 
 29 H       -0.6440    -0.2980     1.9970 H     1 <1>   0.0800 
 30 H        4.2300    -1.8110     0.6550 H     1 <1>   0.0800 
 31 H        3.3680    -2.0020     2.1460 H     1 <1>   0.0800 
 32 H        1.3450    -0.1430    -1.1190 H     1 <1>   0.0800 
 33 H        2.9750    -0.6660    -1.3440 H     1 <1>   0.0800 
 34 H       -1.4770    -2.5020     1.1270 H     1 <1>   0.0800 
 35 H       -0.2940    -2.6670     2.3990 H     1 <1>   0.0800 
 36 H        3.4190    -3.0210    -1.1200 H     1 <1>   0.1500 
 37 H        4.9650    -0.1230     2.2170 H     1 <1>   0.0800 
 38 H        3.3370     0.4430     2.4440 H     1 <1>   0.0800 
 39 H        2.1230     1.5690     0.4950 H     1 <1>   0.0800 
 40 H        2.9470     1.7200    -1.0350 H     1 <1>   0.0800 
 41 H       -0.9150    -4.7700     0.3480 H     1 <1>   0.1500 
 42 H        4.1040    -6.9030    -2.4050 H     1 <1>   0.0800 
 43 H        2.3720    -7.1290    -2.6060 H     1 <1>   0.0800 
 44 H        3.0660    -6.9960    -0.9830 H     1 <1>   0.0800 
 45 H       -0.9880    -7.7950    -1.6140 H     1 <1>   0.0800 
 46 H       -1.5960    -6.1500    -1.4660 H     1 <1>   0.0800 
 47 H       -1.0220    -7.0250    -0.0330 H     1 <1>   0.0800 
 48 H        8.3600     1.7510     1.0310 H     1 <1>   0.1500 
 49 H        8.1940     3.8160    -0.2770 H     1 <1>   0.1500 
 50 H        6.4290     6.3670    -2.2480 H     1 <1>   0.0800 
 51 H        7.6360     5.0870    -2.2340 H     1 <1>   0.0800 
 52 H        7.2700     5.9880    -0.7490 H     1 <1>   0.0800 
@<TRIPOS>BOND
  1   1   2  1   
  2   1   3  1   
  3   2   4  1   
  4   2   5  1   
  5   2   6  1   
  6   3   7  1   
  7   3  28  1   
  8   3  29  1   
  9   4   8  ar  
 10   4   9  ar  
 11   5  10  1   
 12   5  30  1   
 13   5  31  1   
 14   6  11  1   
 15   6  32  1   
 16   6  33  1   
 17   7   8  1   
 18   7  34  1   
 19   7  35  1   
 20   8  12  ar  
 21   9  13  ar  
 22   9  36  1   
 23  10  14  1   
 24  10  37  1   
 25  10  38  1   
 26  11  14  1   
 27  11  39  1   
 28  11  40  1   
 29  12  15  ar  
 30  12  41  1   
 31  13  15  ar  
 32  13  16  1   
 33  14  17  1   
 34  15  18  1   
 35  16  19  1   
 36  17  20  ar  
 37  17  21  ar  
 38  18  22  1   
 39  19  42  1   
 40  19  43  1   
 41  19  44  1   
 42  20  23  ar  
 43  21  24  ar  
 44  22  45  1   
 45  22  46  1   
 46  22  47  1   
 47  23  25  1   
 48  23  26  ar  
 49  24  26  ar  
 50  24  48  1   
 51  25  27  1   
 52  26  49  1   
 53  27  50  1   
 54  27  51  1   
 55  27  52  1   
@<TRIPOS>SUBSTRUCTURE
  1 ****   2 GROUP 4 **** **** 0

# MOE 2024.06 (io_trps.svl 2023.06)
