@<TRIPOS>MOLECULE
NONAME
54 56 1 0 0 
SMALL
USER_CHARGES


@<TRIPOS>ATOM
  1 S        1.9020     1.2230    -1.2640 S.o2  1 <1>   1.3330 
  2 O        3.3350     1.0330    -1.3450 O.2   1 <1>  -0.6500 
  3 O        1.2160     1.7380    -2.4250 O.2   1 <1>  -0.6500 
  4 N        1.1880    -0.2630    -0.8620 N.am  1 <1>  -0.8490 
  5 C        1.5310     2.3040     0.1290 C.3   1 <1>  -0.0550 
  6 C       -0.2610    -0.2920    -1.0940 C.3   1 <1>   0.1160 
  7 C        1.8150    -1.3880    -1.5630 C.3   1 <1>   0.1160 
  8 C        2.0630     1.9500     1.5390 C.3   1 <1>  -0.0800 
  9 C        3.5570     1.7250     1.6860 C.3   1 <1>   0.2890 
 10 C        1.5090     0.7050     2.2170 C.3   1 <1>   0.1200 
 11 N        4.2790     3.0240     1.6720 N.pl3 1 <1>  -0.8690 
 12 C        3.6460     0.9890     3.0240 C.3   1 <1>   0.1200 
 13 O        2.3630     0.4940     3.2970 O.3   1 <1>  -0.5600 
 14 C        5.1010     3.5290     0.7380 C.ar  1 <1>   0.4100 
 15 N        5.3410     4.8150     0.8510 N.ar  1 <1>  -0.6200 
 16 C        5.6550     2.7570    -0.2980 C.ar  1 <1>  -0.1500 
 17 C        6.0910     5.3980    -0.0770 C.ar  1 <1>   0.7710 
 18 C        6.4030     3.3660    -1.2450 C.ar  1 <1>   0.2180 
 19 N        6.6010     4.6980    -1.1100 N.ar  1 <1>  -0.1790 
 20 N        6.3590     6.7300     0.0190 N.pl3 1 <1>  -0.8380 
 21 C        7.0210     2.6340    -2.4240 C.3   1 <1>  -0.0970 
 22 C        5.9380     7.5410     1.2240 C.3   1 <1>   0.2090 
 23 C        7.0900     7.5960    -0.9750 C.3   1 <1>   0.2090 
 24 C        5.2320     8.8440     0.8080 C.3   1 <1>   0.1200 
 25 C        6.3090     8.8910    -1.2710 C.3   1 <1>   0.1200 
 26 O        6.0240     9.5700    -0.0870 O.3   1 <1>  -0.5600 
 27 H        1.9140     3.2760    -0.1140 H     1 <1>   0.0800 
 28 H        0.4660     2.4100     0.1970 H     1 <1>   0.0800 
 29 H       -0.6730    -1.2250    -0.7480 H     1 <1>   0.0800 
 30 H       -0.4780    -0.1840    -2.1450 H     1 <1>   0.0800 
 31 H       -0.7420     0.5080    -0.5600 H     1 <1>   0.0800 
 32 H        1.3530    -2.3150    -1.2690 H     1 <1>   0.0800 
 33 H        2.8620    -1.4430    -1.3150 H     1 <1>   0.0800 
 34 H        1.7180    -1.2670    -2.6290 H     1 <1>   0.0800 
 35 H        1.7890     2.7690     2.1820 H     1 <1>   0.0800 
 36 H        3.9280     1.0570     0.9350 H     1 <1>   0.0800 
 37 H        1.5630    -0.1670     1.5920 H     1 <1>   0.0800 
 38 H        0.5060     0.8390     2.5830 H     1 <1>   0.0800 
 39 H        4.0020     3.6660     2.4210 H     1 <1>   0.4000 
 40 H        3.9200     1.6510     3.8260 H     1 <1>   0.0800 
 41 H        4.3280     0.1590     2.9720 H     1 <1>   0.0800 
 42 H        5.4780     1.7000    -0.3270 H     1 <1>   0.1500 
 43 H        7.1640     5.2200    -1.7650 H     1 <1>   0.4570 
 44 H        6.7530     1.5920    -2.3980 H     1 <1>   0.0800 
 45 H        8.0940     2.7060    -2.3940 H     1 <1>   0.0800 
 46 H        6.6630     3.0450    -3.3510 H     1 <1>   0.0800 
 47 H        5.2750     6.9920     1.8690 H     1 <1>   0.0800 
 48 H        6.8100     7.7930     1.8020 H     1 <1>   0.0800 
 49 H        8.0520     7.8660    -0.5690 H     1 <1>   0.0800 
 50 H        7.2540     7.0840    -1.9040 H     1 <1>   0.0800 
 51 H        5.0610     9.4630     1.6710 H     1 <1>   0.0800 
 52 H        4.2840     8.6330     0.3430 H     1 <1>   0.0800 
 53 H        5.3840     8.6770    -1.7780 H     1 <1>   0.0800 
 54 H        6.8960     9.5480    -1.8880 H     1 <1>   0.0800 
@<TRIPOS>BOND
  1   1   2  2   
  2   1   3  2   
  3   1   4  am  
  4   1   5  1   
  5   4   6  1   
  6   4   7  1   
  7   5   8  1   
  8   5  27  1   
  9   5  28  1   
 10   6  29  1   
 11   6  30  1   
 12   6  31  1   
 13   7  32  1   
 14   7  33  1   
 15   7  34  1   
 16   8   9  1   
 17   8  10  1   
 18   8  35  1   
 19   9  11  1   
 20   9  12  1   
 21   9  36  1   
 22  10  13  1   
 23  10  37  1   
 24  10  38  1   
 25  11  14  1   
 26  11  39  1   
 27  12  13  1   
 28  12  40  1   
 29  12  41  1   
 30  14  15  ar  
 31  14  16  ar  
 32  15  17  ar  
 33  16  18  ar  
 34  16  42  1   
 35  17  19  ar  
 36  17  20  1   
 37  18  19  ar  
 38  18  21  1   
 39  19  43  1   
 40  20  22  1   
 41  20  23  1   
 42  21  44  1   
 43  21  45  1   
 44  21  46  1   
 45  22  24  1   
 46  22  47  1   
 47  22  48  1   
 48  23  25  1   
 49  23  49  1   
 50  23  50  1   
 51  24  26  1   
 52  24  51  1   
 53  24  52  1   
 54  25  26  1   
 55  25  53  1   
 56  25  54  1   
@<TRIPOS>SUBSTRUCTURE
  1 ****  14 GROUP 4 **** **** 0

# MOE 2024.06 (io_trps.svl 2023.06)
