@<TRIPOS>MOLECULE
NONAME
46 48 1 0 0 
SMALL
USER_CHARGES


@<TRIPOS>ATOM
  1 S       -0.3700     1.1450     0.8440 S.o2  1 <1>   1.4470 
  2 O        0.1880     0.4840     2.0080 O.2   1 <1>  -0.6500 
  3 O       -1.1180     2.3660     1.0680 O.2   1 <1>  -0.6500 
  4 N       -1.4290     0.0270     0.1370 N.am  1 <1>  -0.8490 
  5 C        0.9490     1.4560    -0.3770 C.ar  1 <1>  -0.0090 
  6 C       -0.7820    -1.2770    -0.1040 C.3   1 <1>   0.1960 
  7 C       -2.6630    -0.1020     0.9040 C.3   1 <1>   0.1960 
  8 C        0.7070     1.8220    -1.7050 C.ar  1 <1>  -0.1440 
  9 C        2.2760     1.3380     0.0290 C.ar  1 <1>  -0.1500 
 10 C       -1.6850    -2.2890    -0.8370 C.3   1 <1>  -0.1060 
 11 C       -3.6500    -0.9980     0.1630 C.3   1 <1>  -0.1600 
 12 C        1.7650     2.0390    -2.5750 C.ar  1 <1>  -0.1500 
 13 C       -0.7070     1.9820    -2.2530 C.3   1 <1>  -0.0970 
 14 C        3.3290     1.5620    -0.8380 C.ar  1 <1>  -0.1500 
 15 C       -1.8580    -1.8270    -2.2900 C.2   1 <1>   0.9060 
 16 C       -3.0290    -2.3710    -0.0730 C.3   1 <1>   0.2000 
 17 C       -0.9890    -3.6780    -0.8990 C.3   1 <1>  -0.0650 
 18 C        3.0730     1.9130    -2.1470 C.ar  1 <1>  -0.1500 
 19 O       -2.9710    -1.8840    -2.8380 O.co2 1 <1>  -0.9000 
 20 O       -0.8540    -1.4910    -2.9300 O.co2 1 <1>  -0.9000 
 21 O       -3.9390    -3.1280    -0.7780 O.3   1 <1>  -0.6800 
 22 C       -0.6270    -4.3180     0.4530 C.3   1 <1>  -0.1950 
 23 C        0.6760    -4.0400     1.1350 C.3   1 <1>  -0.2000 
 24 C        0.4250    -5.3790     0.5050 C.3   1 <1>  -0.2000 
 25 H        0.1160    -1.1310    -0.6830 H     1 <1>   0.0800 
 26 H       -0.4920    -1.6860     0.8480 H     1 <1>   0.0800 
 27 H       -2.4480    -0.5090     1.8780 H     1 <1>   0.0800 
 28 H       -3.1120     0.8690     1.0330 H     1 <1>   0.0800 
 29 H        2.4910     1.0630     1.0480 H     1 <1>   0.1500 
 30 H       -3.9070    -0.5340    -0.7740 H     1 <1>   0.0800 
 31 H       -4.5430    -1.1040     0.7500 H     1 <1>   0.0800 
 32 H        1.5720     2.3020    -3.6000 H     1 <1>   0.1500 
 33 H       -0.7000     2.4840    -3.2030 H     1 <1>   0.0800 
 34 H       -1.3210     2.5520    -1.5810 H     1 <1>   0.0800 
 35 H       -1.1560     1.0160    -2.3980 H     1 <1>   0.0800 
 36 H        4.3440     1.4610    -0.4940 H     1 <1>   0.1500 
 37 H       -2.8900    -2.8470     0.8800 H     1 <1>   0.0800 
 38 H       -1.6330    -4.3560    -1.4320 H     1 <1>   0.0800 
 39 H       -0.0920    -3.5830    -1.4890 H     1 <1>   0.0800 
 40 H        3.8830     2.0830    -2.8340 H     1 <1>   0.1500 
 41 H       -3.8670    -2.7920    -1.7220 H     1 <1>   0.4000 
 42 H       -1.4920    -4.5070     1.0660 H     1 <1>   0.1000 
 43 H        1.3840    -3.3800     0.6640 H     1 <1>   0.1000 
 44 H        0.6860    -3.9590     2.2080 H     1 <1>   0.1000 
 45 H        0.2650    -6.2320     1.1420 H     1 <1>   0.1000 
 46 H        0.9540    -5.6320    -0.3980 H     1 <1>   0.1000 
@<TRIPOS>BOND
  1   1   2  2   
  2   1   3  2   
  3   1   4  am  
  4   1   5  1   
  5   4   6  1   
  6   4   7  1   
  7   5   8  ar  
  8   5   9  ar  
  9   6  10  1   
 10   6  25  1   
 11   6  26  1   
 12   7  11  1   
 13   7  27  1   
 14   7  28  1   
 15   8  12  ar  
 16   8  13  1   
 17   9  14  ar  
 18   9  29  1   
 19  10  15  1   
 20  10  16  1   
 21  10  17  1   
 22  11  16  1   
 23  11  30  1   
 24  11  31  1   
 25  12  18  ar  
 26  12  32  1   
 27  13  33  1   
 28  13  34  1   
 29  13  35  1   
 30  14  18  ar  
 31  14  36  1   
 32  15  19  ar  
 33  15  20  ar  
 34  16  21  1   
 35  16  37  1   
 36  17  22  1   
 37  17  38  1   
 38  17  39  1   
 39  18  40  1   
 40  21  41  1   
 41  22  23  1   
 42  22  24  1   
 43  22  42  1   
 44  23  24  1   
 45  23  43  1   
 46  23  44  1   
 47  24  45  1   
 48  24  46  1   
@<TRIPOS>SUBSTRUCTURE
  1 ****   6 GROUP 4 **** **** 0

# MOE 2024.06 (io_trps.svl 2023.06)
