@<TRIPOS>MOLECULE
NONAME
44 46 1 0 0 
SMALL
USER_CHARGES


@<TRIPOS>ATOM
  1 O       -0.6410    -0.0030    -0.2860 O.3   1 <1>  -0.3400 
  2 C       -0.5440     1.3490    -0.2480 C.ar  1 <1>   0.0830 
  3 C       -1.8880    -0.6530    -0.1240 C.3   1 <1>   0.2580 
  4 C        0.7340     1.8830    -0.2450 C.ar  1 <1>  -0.1500 
  5 C       -1.6410     2.2060    -0.2100 C.ar  1 <1>  -0.1500 
  6 C       -2.3530    -0.6930     1.3510 C.3   1 <1>   0.2100 
  7 C       -1.7220    -2.1830     0.0040 C.3   1 <1>   0.2100 
  8 C        0.9220     3.2530    -0.2000 C.ar  1 <1>  -0.1500 
  9 C       -1.4490     3.5760    -0.1650 C.ar  1 <1>  -0.1500 
 10 N       -2.6070    -2.1580     1.2110 N.3   1 <1>  -0.6890 
 11 C       -0.1680     4.1070    -0.1610 C.ar  1 <1>  -0.1430 
 12 C       -4.0200    -2.4510     0.8790 C.3   1 <1>   0.2480 
 13 C        0.0380     5.6100    -0.1100 C.3   1 <1>  -0.0970 
 14 C       -4.2350    -3.9410     0.5880 C.2   1 <1>  -0.0380 
 15 N       -3.3730    -4.7940     1.2340 N.pl3 1 <1>  -0.6000 
 16 C       -5.1960    -4.4560    -0.2370 C.2   1 <1>  -0.1240 
 17 C       -3.4290    -6.1550     1.0830 C.2   1 <1>  -0.0500 
 18 C       -5.2810    -5.8730    -0.4330 C.2   1 <1>   0.5410 
 19 C       -6.2210    -3.5970    -0.9810 C.3   1 <1>  -0.1020 
 20 C       -4.3610    -6.7110     0.2670 C.2   1 <1>  -0.1240 
 21 O       -6.1250    -6.3610    -1.1880 O.2   1 <1>  -0.5700 
 22 C       -4.4430    -8.2210     0.0810 C.3   1 <1>  -0.1020 
 23 H       -2.6170    -0.3390    -0.8500 H     1 <1>   0.0000 
 24 H        1.5790     1.2200    -0.2750 H     1 <1>   0.1500 
 25 H       -2.6470     1.8320    -0.2170 H     1 <1>   0.1500 
 26 H       -3.2530    -0.1370     1.5480 H     1 <1>   0.0000 
 27 H       -1.5600    -0.5100     2.0550 H     1 <1>   0.0000 
 28 H       -0.7240    -2.4840     0.2700 H     1 <1>   0.0000 
 29 H       -2.1460    -2.7420    -0.8110 H     1 <1>   0.0000 
 30 H        1.9220     3.6510    -0.1960 H     1 <1>   0.1500 
 31 H       -2.3010     4.2320    -0.1340 H     1 <1>   0.1500 
 32 H       -4.3310    -1.8580     0.0380 H     1 <1>   0.0800 
 33 H       -4.6290    -2.1840     1.7250 H     1 <1>   0.0800 
 34 H        0.9520     5.8810    -0.6070 H     1 <1>   0.0800 
 35 H        0.0880     5.9340     0.9140 H     1 <1>   0.0800 
 36 H       -0.7760     6.1170    -0.5970 H     1 <1>   0.0800 
 37 H       -2.6380    -4.3430     1.8040 H     1 <1>   0.4000 
 38 H       -2.7110    -6.7450     1.6290 H     1 <1>   0.1500 
 39 H       -7.2080    -3.9990    -0.8290 H     1 <1>   0.0800 
 40 H       -6.0090    -3.6170    -2.0350 H     1 <1>   0.0800 
 41 H       -6.2340    -2.5780    -0.6480 H     1 <1>   0.0800 
 42 H       -5.4140    -8.5730     0.3830 H     1 <1>   0.0800 
 43 H       -3.6960    -8.7260     0.6660 H     1 <1>   0.0800 
 44 H       -4.2980    -8.4690    -0.9550 H     1 <1>   0.0800 
@<TRIPOS>BOND
  1   1   2  1   
  2   1   3  1   
  3   2   4  ar  
  4   2   5  ar  
  5   3   6  1   
  6   3   7  1   
  7   3  23  1   
  8   4   8  ar  
  9   4  24  1   
 10   5   9  ar  
 11   5  25  1   
 12   6  10  1   
 13   6  26  1   
 14   6  27  1   
 15   7  10  1   
 16   7  28  1   
 17   7  29  1   
 18   8  11  ar  
 19   8  30  1   
 20   9  11  ar  
 21   9  31  1   
 22  10  12  1   
 23  11  13  1   
 24  12  14  1   
 25  12  32  1   
 26  12  33  1   
 27  13  34  1   
 28  13  35  1   
 29  13  36  1   
 30  14  15  1   
 31  14  16  2   
 32  15  17  1   
 33  15  37  1   
 34  16  18  1   
 35  16  19  1   
 36  17  20  2   
 37  17  38  1   
 38  18  20  1   
 39  18  21  2   
 40  19  39  1   
 41  19  40  1   
 42  19  41  1   
 43  20  22  1   
 44  22  42  1   
 45  22  43  1   
 46  22  44  1   
@<TRIPOS>SUBSTRUCTURE
  1 ****   7 GROUP 4 **** **** 0

# MOE 2024.06 (io_trps.svl 2023.06)
