@<TRIPOS>MOLECULE
NONAME
40 42 1 0 0 
SMALL
USER_CHARGES


@<TRIPOS>ATOM
  1 O       -0.2190     0.1700     0.1480 O.2   1 <1>  -0.5700 
  2 C       -1.2480     0.7660     0.3950 C.2   1 <1>   0.5440 
  3 N       -2.4330     0.0650     0.4070 N.am  1 <1>  -0.6600 
  4 C       -1.2090     2.1880     0.6530 C.ar  1 <1>   0.0860 
  5 C       -3.7820     0.6730     0.2730 C.3   1 <1>   0.1400 
  6 C       -2.4890    -1.3930     0.1320 C.3   1 <1>   0.1400 
  7 C       -1.8150     2.7290     1.7840 C.ar  1 <1>   0.1600 
  8 C       -0.5690     3.0720    -0.2040 C.ar  1 <1>  -0.1500 
  9 C       -4.6720    -0.4560    -0.2480 C.3   1 <1>   0.2000 
 10 C       -3.9760    -1.7500     0.1660 C.3   1 <1>  -0.0800 
 11 N       -1.8670     4.0130     2.0980 N.ar  1 <1>  -0.6200 
 12 C       -0.5940     4.4160     0.1020 C.ar  1 <1>  -0.1430 
 13 O       -5.9430    -0.4030     0.3030 O.3   1 <1>  -0.6800 
 14 C       -4.3630    -2.9400    -0.7310 C.3   1 <1>  -0.0170 
 15 C       -1.2550     4.8260     1.2510 C.ar  1 <1>   0.1600 
 16 C        0.0870     5.4260    -0.8060 C.3   1 <1>  -0.0970 
 17 C       -3.7210    -4.2360    -0.2600 C.ar  1 <1>   0.1670 
 18 N       -2.4700    -4.4470    -0.6370 N.ar  1 <1>  -0.6200 
 19 C       -4.4470    -5.1270     0.5280 C.ar  1 <1>   0.1600 
 20 C       -1.9980    -5.5940    -0.1770 C.ar  1 <1>   0.1600 
 21 N       -3.9760    -6.2730     0.9920 N.ar  1 <1>  -0.6200 
 22 C       -2.7270    -6.4760     0.6110 C.ar  1 <1>   0.1600 
 23 H       -4.1190     1.0090     1.2370 H     1 <1>   0.0800 
 24 H       -3.7620     1.4950    -0.4230 H     1 <1>   0.0800 
 25 H       -2.0670    -1.5840    -0.8420 H     1 <1>   0.0800 
 26 H       -1.9290    -1.9440     0.8690 H     1 <1>   0.0800 
 27 H       -2.2880     2.0470     2.4690 H     1 <1>   0.1500 
 28 H       -0.0690     2.6980    -1.0810 H     1 <1>   0.1500 
 29 H       -4.7610    -0.3840    -1.3190 H     1 <1>   0.0800 
 30 H       -4.2240    -1.9780     1.1880 H     1 <1>   0.0800 
 31 H       -5.8970    -0.4560     1.2770 H     1 <1>   0.4000 
 32 H       -4.0620    -2.7490    -1.7460 H     1 <1>   0.0800 
 33 H       -5.4330    -3.0500    -0.7280 H     1 <1>   0.0800 
 34 H       -1.2810     5.8760     1.4880 H     1 <1>   0.1500 
 35 H        0.9010     4.9650    -1.3390 H     1 <1>   0.0800 
 36 H        0.4820     6.2440    -0.2300 H     1 <1>   0.0800 
 37 H       -0.6190     5.8110    -1.5200 H     1 <1>   0.0800 
 38 H       -5.4610    -4.8820     0.7890 H     1 <1>   0.1500 
 39 H       -0.9860    -5.8480    -0.4360 H     1 <1>   0.1500 
 40 H       -2.2550    -7.3860     0.9380 H     1 <1>   0.1500 
@<TRIPOS>BOND
  1   1   2  2   
  2   2   3  am  
  3   2   4  1   
  4   3   5  1   
  5   3   6  1   
  6   4   7  ar  
  7   4   8  ar  
  8   5   9  1   
  9   5  23  1   
 10   5  24  1   
 11   6  10  1   
 12   6  25  1   
 13   6  26  1   
 14   7  11  ar  
 15   7  27  1   
 16   8  12  ar  
 17   8  28  1   
 18   9  10  1   
 19   9  13  1   
 20   9  29  1   
 21  10  14  1   
 22  10  30  1   
 23  11  15  ar  
 24  12  15  ar  
 25  12  16  1   
 26  13  31  1   
 27  14  17  1   
 28  14  32  1   
 29  14  33  1   
 30  15  34  1   
 31  16  35  1   
 32  16  36  1   
 33  16  37  1   
 34  17  18  ar  
 35  17  19  ar  
 36  18  20  ar  
 37  19  21  ar  
 38  19  38  1   
 39  20  22  ar  
 40  20  39  1   
 41  21  22  ar  
 42  22  40  1   
@<TRIPOS>SUBSTRUCTURE
  1 ****   3 GROUP 4 **** **** 0

# MOE 2024.06 (io_trps.svl 2023.06)
