@<TRIPOS>MOLECULE
NONAME
48 50 1 0 0 
SMALL
USER_CHARGES


@<TRIPOS>ATOM
  1 S        0.3760     0.1680     1.6680 S.o2  1 <1>   1.4470 
  2 O       -0.1530     1.3260     2.3590 O.2   1 <1>  -0.6500 
  3 O        1.0220    -0.8570     2.4560 O.2   1 <1>  -0.6500 
  4 N        1.5950     0.8220     0.6770 N.am  1 <1>  -0.8490 
  5 C       -0.9010    -0.4400     0.5290 C.ar  1 <1>  -0.0090 
  6 C        2.5990     1.5090     1.5260 C.3   1 <1>   0.1960 
  7 C        2.2450    -0.1940    -0.1650 C.3   1 <1>   0.1960 
  8 C       -0.8760    -1.7280    -0.0030 C.ar  1 <1>   0.0830 
  9 C       -1.9430     0.4000     0.1470 C.ar  1 <1>  -0.1500 
 10 C        3.6040     2.4290     0.7750 C.3   1 <1>   0.4230 
 11 C        3.1290     0.4320    -1.2640 C.3   1 <1>  -0.0800 
 12 O        0.1420    -2.5500     0.3420 O.3   1 <1>  -0.3630 
 13 C       -1.8690    -2.1500    -0.8830 C.ar  1 <1>  -0.1500 
 14 C       -2.9330    -0.0120    -0.7290 C.ar  1 <1>  -0.1430 
 15 N        3.1240     2.9320    -0.5760 N.4   1 <1>  -0.9590 
 16 C        5.0120     1.8010     0.6940 C.3   1 <1>   0.1200 
 17 C        4.6360     0.2310    -1.0450 C.3   1 <1>   0.1200 
 18 C        2.7370     1.8810    -1.5850 C.3   1 <1>   0.3430 
 19 C       -0.0560    -3.9450     0.4410 C.3   1 <1>   0.0400 
 20 C       -2.8920    -1.2950    -1.2420 C.ar  1 <1>  -0.1500 
 21 C       -4.0600     0.9310    -1.1130 C.3   1 <1>  -0.0970 
 22 C        1.9570     3.8470    -0.3770 C.3   1 <1>   0.2630 
 23 O        4.9870     0.4740     0.2750 O.3   1 <1>  -0.5600 
 24 H        2.0890     2.1420     2.2310 H     1 <1>   0.0800 
 25 H        3.1350     0.7810     2.1160 H     1 <1>   0.0800 
 26 H        2.8040    -0.8910     0.4410 H     1 <1>   0.0800 
 27 H        1.4840    -0.7580    -0.6720 H     1 <1>   0.0800 
 28 H       -1.9840     1.3970     0.5520 H     1 <1>   0.1500 
 29 H        3.7310     3.2950     1.4020 H     1 <1>   0.0800 
 30 H        2.9090    -0.1230    -2.1590 H     1 <1>   0.0800 
 31 H       -1.8530    -3.1390    -1.3020 H     1 <1>   0.1500 
 32 H        3.8930     3.4780    -0.9840 H     1 <1>   0.4500 
 33 H        5.4430     1.7940     1.6800 H     1 <1>   0.0800 
 34 H        5.6640     2.3640     0.0510 H     1 <1>   0.0800 
 35 H        5.2320     0.8500    -1.6950 H     1 <1>   0.0800 
 36 H        4.8890    -0.7980    -1.2400 H     1 <1>   0.0800 
 37 H        1.6650     1.8940    -1.7040 H     1 <1>   0.0800 
 38 H        3.1610     2.1470    -2.5400 H     1 <1>   0.0800 
 39 H        0.7850    -4.3650     0.9630 H     1 <1>   0.0800 
 40 H       -0.1180    -4.3640    -0.5470 H     1 <1>   0.0800 
 41 H       -0.9590    -4.1320     0.9960 H     1 <1>   0.0800 
 42 H       -3.6560    -1.6310    -1.9210 H     1 <1>   0.1500 
 43 H       -4.4070     0.7180    -2.1090 H     1 <1>   0.0800 
 44 H       -3.7280     1.9530    -1.0820 H     1 <1>   0.0800 
 45 H       -4.8810     0.8130    -0.4290 H     1 <1>   0.0800 
 46 H        1.1280     3.3020     0.0470 H     1 <1>   0.0800 
 47 H        1.6440     4.2690    -1.3180 H     1 <1>   0.0800 
 48 H        2.2160     4.6520     0.2920 H     1 <1>   0.0800 
@<TRIPOS>BOND
  1   1   2  2   
  2   1   3  2   
  3   1   4  am  
  4   1   5  1   
  5   4   6  1   
  6   4   7  1   
  7   5   8  ar  
  8   5   9  ar  
  9   6  10  1   
 10   6  24  1   
 11   6  25  1   
 12   7  11  1   
 13   7  26  1   
 14   7  27  1   
 15   8  12  1   
 16   8  13  ar  
 17   9  14  ar  
 18   9  28  1   
 19  10  15  1   
 20  10  16  1   
 21  10  29  1   
 22  11  17  1   
 23  11  18  1   
 24  11  30  1   
 25  12  19  1   
 26  13  20  ar  
 27  13  31  1   
 28  14  20  ar  
 29  14  21  1   
 30  15  18  1   
 31  15  22  1   
 32  15  32  1   
 33  16  23  1   
 34  16  33  1   
 35  16  34  1   
 36  17  23  1   
 37  17  35  1   
 38  17  36  1   
 39  18  37  1   
 40  18  38  1   
 41  19  39  1   
 42  19  40  1   
 43  19  41  1   
 44  20  42  1   
 45  21  43  1   
 46  21  44  1   
 47  21  45  1   
 48  22  46  1   
 49  22  47  1   
 50  22  48  1   
@<TRIPOS>SUBSTRUCTURE
  1 ****   4 GROUP 4 **** **** 0

# MOE 2024.06 (io_trps.svl 2023.06)
