@<TRIPOS>MOLECULE
NONAME
54 57 1 0 0 
SMALL
USER_CHARGES


@<TRIPOS>ATOM
  1 O        0.3870    -0.6630    -1.0850 O.2   1 <1>  -0.5700 
  2 C       -0.4930     0.1580    -0.9890 C.2   1 <1>   0.5690 
  3 N       -1.8130    -0.1900    -1.0330 N.am  1 <1>  -0.6600 
  4 C       -0.0930     1.6000    -0.7850 C.3   1 <1>  -0.0990 
  5 C       -2.9780     0.7280    -0.8980 C.3   1 <1>   0.1400 
  6 C       -2.2640    -1.5970    -1.1360 C.3   1 <1>   0.1400 
  7 C       -0.1460     1.9410     0.7090 C.3   1 <1>   0.0960 
  8 C       -4.2040    -0.1680    -1.0740 C.3   1 <1>   0.2000 
  9 C       -3.7330    -1.5750    -0.7130 C.3   1 <1>  -0.0800 
 10 N       -0.7060     3.2890     0.9080 N.pl3 1 <1>   0.3140 
 11 O       -5.2440     0.2140    -0.2410 O.3   1 <1>  -0.6800 
 12 C       -4.5800    -2.6770    -1.3710 C.3   1 <1>  -0.0160 
 13 N       -2.0390     3.4830     0.9010 N.2   1 <1>  -0.7070 
 14 C       -0.0400     4.4540     1.0770 C.2   1 <1>  -0.3320 
 15 C       -4.0970    -4.0630    -0.9570 C.ar  1 <1>  -0.1440 
 16 C       -2.1910     4.7570     1.0710 C.2   1 <1>   0.1080 
 17 C       -0.9760     5.4200     1.1880 C.2   1 <1>  -0.1500 
 18 C        1.4710     4.6010     1.1220 C.3   1 <1>  -0.0600 
 19 C       -4.4060    -4.6250     0.3050 C.ar  1 <1>   0.0000 
 20 C       -3.3340    -4.8070    -1.8080 C.ar  1 <1>  -0.1500 
 21 C       -3.5510     5.4100     1.1300 C.3   1 <1>  -0.0590 
 22 C       -3.8880    -5.9100     0.5970 C.ar  1 <1>   0.3100 
 23 C       -5.1980    -3.9910     1.2910 C.ar  1 <1>  -0.1500 
 24 C       -2.8770    -6.0730    -1.4230 C.ar  1 <1>   0.1600 
 25 N       -3.1280    -6.6190    -0.2760 N.ar  1 <1>  -0.6200 
 26 C       -4.1660    -6.4880     1.8460 C.ar  1 <1>  -0.1500 
 27 C       -5.4520    -4.5820     2.4990 C.ar  1 <1>  -0.1500 
 28 C       -4.9290    -5.8460     2.7830 C.ar  1 <1>  -0.1500 
 29 H        0.9060     1.7440    -1.1520 H     1 <1>   0.0800 
 30 H       -0.7490     2.2330    -1.3530 H     1 <1>   0.0800 
 31 H       -2.9700     1.1720     0.0820 H     1 <1>   0.0800 
 32 H       -2.9520     1.4930    -1.6530 H     1 <1>   0.0800 
 33 H       -2.1580    -1.9200    -2.1570 H     1 <1>   0.0800 
 34 H       -1.6790    -2.2380    -0.4980 H     1 <1>   0.0800 
 35 H        0.8330     1.8850     1.1460 H     1 <1>   0.0800 
 36 H       -0.7850     1.2510     1.2290 H     1 <1>   0.0800 
 37 H       -4.5490    -0.1210    -2.0930 H     1 <1>   0.0800 
 38 H       -3.7530    -1.6890     0.3560 H     1 <1>   0.0800 
 39 H       -4.9180     0.3460     0.6710 H     1 <1>   0.4000 
 40 H       -4.5220    -2.5780    -2.4410 H     1 <1>   0.0800 
 41 H       -5.6150    -2.5550    -1.1050 H     1 <1>   0.0800 
 42 H       -0.8420     6.4770     1.3330 H     1 <1>   0.1500 
 43 H        1.7390     5.6350     1.2470 H     1 <1>   0.0800 
 44 H        1.9080     4.2430     0.2070 H     1 <1>   0.0800 
 45 H        1.8750     4.0430     1.9490 H     1 <1>   0.0800 
 46 H       -3.0620    -4.4480    -2.7840 H     1 <1>   0.1500 
 47 H       -3.4530     6.4720     1.2570 H     1 <1>   0.0800 
 48 H       -4.1070     5.0050     1.9550 H     1 <1>   0.0800 
 49 H       -4.0840     5.2110     0.2190 H     1 <1>   0.0800 
 50 H       -5.6140    -3.0210     1.0930 H     1 <1>   0.1500 
 51 H       -2.2760    -6.6250    -2.1250 H     1 <1>   0.1500 
 52 H       -3.7550    -7.4610     2.0410 H     1 <1>   0.1500 
 53 H       -6.0550    -4.0870     3.2400 H     1 <1>   0.1500 
 54 H       -5.1350    -6.3010     3.7370 H     1 <1>   0.1500 
@<TRIPOS>BOND
  1   1   2  2   
  2   2   3  am  
  3   2   4  1   
  4   3   5  1   
  5   3   6  1   
  6   4   7  1   
  7   4  29  1   
  8   4  30  1   
  9   5   8  1   
 10   5  31  1   
 11   5  32  1   
 12   6   9  1   
 13   6  33  1   
 14   6  34  1   
 15   7  10  1   
 16   7  35  1   
 17   7  36  1   
 18   8   9  1   
 19   8  11  1   
 20   8  37  1   
 21   9  12  1   
 22   9  38  1   
 23  10  13  1   
 24  10  14  1   
 25  11  39  1   
 26  12  15  1   
 27  12  40  1   
 28  12  41  1   
 29  13  16  2   
 30  14  17  2   
 31  14  18  1   
 32  15  19  ar  
 33  15  20  ar  
 34  16  17  1   
 35  16  21  1   
 36  17  42  1   
 37  18  43  1   
 38  18  44  1   
 39  18  45  1   
 40  19  22  ar  
 41  19  23  ar  
 42  20  24  ar  
 43  20  46  1   
 44  21  47  1   
 45  21  48  1   
 46  21  49  1   
 47  22  25  ar  
 48  22  26  ar  
 49  23  27  ar  
 50  23  50  1   
 51  24  25  ar  
 52  24  51  1   
 53  26  28  ar  
 54  26  52  1   
 55  27  28  ar  
 56  27  53  1   
 57  28  54  1   
@<TRIPOS>SUBSTRUCTURE
  1 ****   6 GROUP 4 **** **** 0

# MOE 2024.06 (io_trps.svl 2023.06)
