@<TRIPOS>MOLECULE
NONAME
52 54 1 0 0 
SMALL
USER_CHARGES


@<TRIPOS>ATOM
  1 O       -1.3030     0.5830    -0.1760 O.3   1 <1>  -0.2800 
  2 C       -1.5390     1.7990    -0.5510 C.2   1 <1>   0.2980 
  3 C       -1.3780    -0.1010    -1.2740 C.2   1 <1>   0.2980 
  4 N       -1.7410     1.8830    -1.8120 N.2   1 <1>  -0.3380 
  5 C       -1.5500     2.9160     0.4930 C.3   1 <1>   0.1000 
  6 N       -1.6320     0.6410    -2.2860 N.2   1 <1>  -0.3380 
  7 C       -1.1340    -1.6090    -1.2750 C.3   1 <1>   0.2900 
  8 C       -2.1070     4.2340    -0.0670 C.3   1 <1>  -0.2400 
  9 C       -0.1400     3.1440     1.0570 C.3   1 <1>  -0.2400 
 10 N       -2.2660    -2.4270    -0.7630 N.3   1 <1>  -0.8100 
 11 C       -2.0940    -3.8510    -1.1430 C.3   1 <1>   0.1100 
 12 C       -2.5380    -2.2380     0.6650 C.3   1 <1>   0.1100 
 13 C       -3.0690    -4.8400    -0.4370 C.3   1 <1>   0.0000 
 14 C       -3.8850    -2.8780     1.0270 C.3   1 <1>  -0.1600 
 15 C       -4.2790    -4.0100     0.0660 C.3   1 <1>   0.2000 
 16 C       -3.6020    -5.8520    -1.4800 C.3   1 <1>   0.1200 
 17 C       -2.3890    -5.5830     0.7590 C.3   1 <1>  -0.0160 
 18 O       -5.2230    -4.8110     0.6940 O.3   1 <1>  -0.6800 
 19 O       -2.5680    -6.4370    -2.2030 O.3   1 <1>  -0.6800 
 20 C       -1.2250    -6.5100     0.4170 C.ar  1 <1>  -0.1440 
 21 C        0.0770    -6.0320     0.3820 C.ar  1 <1>  -0.1500 
 22 C       -1.4570    -7.8530     0.1580 C.ar  1 <1>  -0.1500 
 23 C        1.1270    -6.8760     0.0660 C.ar  1 <1>  -0.1500 
 24 C       -0.4080    -8.6980    -0.1600 C.ar  1 <1>  -0.1500 
 25 C        0.8850    -8.2090    -0.2090 C.ar  1 <1>  -0.1500 
 26 H       -2.1920     2.5990     1.2960 H     1 <1>   0.0800 
 27 H       -0.2480    -1.8190    -0.7030 H     1 <1>   0.0800 
 28 H       -0.9420    -1.8930    -2.2950 H     1 <1>   0.0800 
 29 H       -1.4880     4.5910    -0.8720 H     1 <1>   0.0800 
 30 H       -2.1450     4.9850     0.7010 H     1 <1>   0.0800 
 31 H       -3.1020     4.0810    -0.4470 H     1 <1>   0.0800 
 32 H        0.5290     3.4490     0.2720 H     1 <1>   0.0800 
 33 H        0.2360     2.2370     1.4940 H     1 <1>   0.0800 
 34 H       -0.1570     3.9070     1.8150 H     1 <1>   0.0800 
 35 H       -2.2560    -3.9070    -2.2080 H     1 <1>   0.0800 
 36 H       -1.0790    -4.1550    -0.9750 H     1 <1>   0.0800 
 37 H       -1.7400    -2.6720     1.2430 H     1 <1>   0.0800 
 38 H       -2.5900    -1.1910     0.9060 H     1 <1>   0.0800 
 39 H       -4.6460    -2.1200     0.9790 H     1 <1>   0.0800 
 40 H       -3.8310    -3.2280     2.0410 H     1 <1>   0.0800 
 41 H       -4.7620    -3.5700    -0.7910 H     1 <1>   0.0800 
 42 H       -4.2430    -5.3580    -2.1910 H     1 <1>   0.0800 
 43 H       -4.1660    -6.6350    -1.0030 H     1 <1>   0.0800 
 44 H       -2.0350    -4.8720     1.4810 H     1 <1>   0.0800 
 45 H       -3.1270    -6.1790     1.2650 H     1 <1>   0.0800 
 46 H       -4.9380    -5.0240     1.6020 H     1 <1>   0.4000 
 47 H       -1.9060    -6.8250    -1.5860 H     1 <1>   0.4000 
 48 H        0.2840    -5.0000     0.6040 H     1 <1>   0.1500 
 49 H       -2.4560    -8.2520     0.1980 H     1 <1>   0.1500 
 50 H        2.1340    -6.4960     0.0360 H     1 <1>   0.1500 
 51 H       -0.5980    -9.7380    -0.3670 H     1 <1>   0.1500 
 52 H        1.7000    -8.8660    -0.4560 H     1 <1>   0.1500 
@<TRIPOS>BOND
  1   1   2  1   
  2   1   3  1   
  3   2   4  2   
  4   2   5  1   
  5   3   6  2   
  6   3   7  1   
  7   4   6  1   
  8   5   8  1   
  9   5   9  1   
 10   5  26  1   
 11   7  10  1   
 12   7  27  1   
 13   7  28  1   
 14   8  29  1   
 15   8  30  1   
 16   8  31  1   
 17   9  32  1   
 18   9  33  1   
 19   9  34  1   
 20  10  11  1   
 21  10  12  1   
 22  11  13  1   
 23  11  35  1   
 24  11  36  1   
 25  12  14  1   
 26  12  37  1   
 27  12  38  1   
 28  13  15  1   
 29  13  16  1   
 30  13  17  1   
 31  14  15  1   
 32  14  39  1   
 33  14  40  1   
 34  15  18  1   
 35  15  41  1   
 36  16  19  1   
 37  16  42  1   
 38  16  43  1   
 39  17  20  1   
 40  17  44  1   
 41  17  45  1   
 42  18  46  1   
 43  19  47  1   
 44  20  21  ar  
 45  20  22  ar  
 46  21  23  ar  
 47  21  48  1   
 48  22  24  ar  
 49  22  49  1   
 50  23  25  ar  
 51  23  50  1   
 52  24  25  ar  
 53  24  51  1   
 54  25  52  1   
@<TRIPOS>SUBSTRUCTURE
  1 ****  10 GROUP 4 **** **** 0

# MOE 2024.06 (io_trps.svl 2023.06)
