@<TRIPOS>MOLECULE
NONAME
42 44 1 0 0 
SMALL
USER_CHARGES


@<TRIPOS>ATOM
  1 O        0.4650    -0.2060    -0.9020 O.2   1 <1>  -0.5700 
  2 C        1.2290    -0.6650    -0.0780 C.2   1 <1>   0.7160 
  3 N        2.2400     0.1200     0.3850 N.am  1 <1>  -0.7300 
  4 C        1.0880    -2.0180     0.4060 C.2   1 <1>  -0.0860 
  5 C        2.4750     1.5410     0.0060 C.3   1 <1>   0.2200 
  6 C        0.0140    -2.8580     0.3420 C.2   1 <1>  -0.0400 
  7 C        2.0800    -2.7790     1.0630 C.2   1 <1>  -0.1500 
  8 C        3.7270     1.6610    -0.8520 C.3   1 <1>   0.2000 
  9 C        2.8960     2.3280     1.2470 C.3   1 <1>   0.1200 
 10 O        0.2940    -4.0200     0.8850 O.3   1 <1>  -0.2800 
 11 C       -1.3740    -2.6410    -0.2430 C.3   1 <1>   0.3000 
 12 C        1.5310    -3.9810     1.3250 C.2   1 <1>  -0.0100 
 13 O        3.7560     2.9060    -1.4770 O.3   1 <1>  -0.6800 
 14 C        4.8320     1.6220     0.2010 C.3   1 <1>   0.1200 
 15 O        4.2830     2.1610     1.3750 O.3   1 <1>  -0.5600 
 16 O       -2.3340    -2.7170     0.7910 O.3   1 <1>  -0.3630 
 17 C       -3.6580    -2.5990     0.5240 C.ar  1 <1>   0.0820 
 18 C       -4.5300    -2.8480     1.5710 C.ar  1 <1>  -0.1500 
 19 C       -4.1720    -2.2470    -0.7220 C.ar  1 <1>  -0.1500 
 20 C       -5.8980    -2.7530     1.3850 C.ar  1 <1>  -0.1500 
 21 C       -5.5410    -2.1540    -0.9040 C.ar  1 <1>  -0.1500 
 22 C       -6.4110    -2.4070     0.1450 C.ar  1 <1>  -0.1440 
 23 C       -7.9110    -2.3010    -0.0600 C.3   1 <1>  -0.0970 
 24 H        2.8250    -0.2280     1.1440 H     1 <1>   0.3700 
 25 H        1.6060     1.9560    -0.4760 H     1 <1>   0.0800 
 26 H        3.0760    -2.4490     1.2960 H     1 <1>   0.1500 
 27 H        3.8040     0.8980    -1.6060 H     1 <1>   0.0800 
 28 H        2.4050     1.9880     2.1420 H     1 <1>   0.0800 
 29 H        2.7060     3.3780     1.1080 H     1 <1>   0.0800 
 30 H       -1.5920    -3.4080    -0.9640 H     1 <1>   0.0800 
 31 H       -1.4550    -1.6730    -0.7010 H     1 <1>   0.0800 
 32 H        1.9360    -4.8530     1.8080 H     1 <1>   0.1500 
 33 H        3.9390     3.6020    -0.8150 H     1 <1>   0.4000 
 34 H        5.7030     2.1850    -0.0880 H     1 <1>   0.0800 
 35 H        5.1130     0.6050     0.4130 H     1 <1>   0.0800 
 36 H       -4.1290    -3.1170     2.5310 H     1 <1>   0.1500 
 37 H       -3.5310    -2.0400    -1.5570 H     1 <1>   0.1500 
 38 H       -6.5590    -2.9500     2.2100 H     1 <1>   0.1500 
 39 H       -5.9290    -1.8790    -1.8690 H     1 <1>   0.1500 
 40 H       -8.4300    -2.9750     0.5980 H     1 <1>   0.0800 
 41 H       -8.1700    -2.5510    -1.0730 H     1 <1>   0.0800 
 42 H       -8.2350    -1.2970     0.1440 H     1 <1>   0.0800 
@<TRIPOS>BOND
  1   1   2  2   
  2   2   3  am  
  3   2   4  1   
  4   3   5  1   
  5   3  24  1   
  6   4   6  2   
  7   4   7  1   
  8   5   8  1   
  9   5   9  1   
 10   5  25  1   
 11   6  10  1   
 12   6  11  1   
 13   7  12  2   
 14   7  26  1   
 15   8  13  1   
 16   8  14  1   
 17   8  27  1   
 18   9  15  1   
 19   9  28  1   
 20   9  29  1   
 21  10  12  1   
 22  11  16  1   
 23  11  30  1   
 24  11  31  1   
 25  12  32  1   
 26  13  33  1   
 27  14  15  1   
 28  14  34  1   
 29  14  35  1   
 30  16  17  1   
 31  17  18  ar  
 32  17  19  ar  
 33  18  20  ar  
 34  18  36  1   
 35  19  21  ar  
 36  19  37  1   
 37  20  22  ar  
 38  20  38  1   
 39  21  22  ar  
 40  21  39  1   
 41  22  23  1   
 42  23  40  1   
 43  23  41  1   
 44  23  42  1   
@<TRIPOS>SUBSTRUCTURE
  1 ****   6 GROUP 4 **** **** 0

# MOE 2024.06 (io_trps.svl 2023.06)
