@<TRIPOS>MOLECULE
NONAME
46 48 1 0 0 
SMALL
USER_CHARGES


@<TRIPOS>ATOM
  1 O        5.8390     0.7770     2.5030 O.2   1 <1>  -0.5700 
  2 C        5.1780     0.5090     1.5250 C.2   1 <1>   0.5440 
  3 N        4.7570     1.4610     0.6650 N.am  1 <1>  -0.7300 
  4 C        4.7030    -0.7710     1.0900 C.ar  1 <1>   0.0860 
  5 C        3.9210     0.8930    -0.4160 C.3   1 <1>   0.3640 
  6 C        3.9430    -0.5880    -0.0520 C.ar  1 <1>  -0.1440 
  7 C        4.8740    -2.0480     1.6100 C.ar  1 <1>  -0.1500 
  8 C        4.5700     1.1430    -1.7730 C.3   1 <1>  -0.0990 
  9 C        3.3400    -1.6580    -0.6890 C.ar  1 <1>  -0.1500 
 10 C        4.2770    -3.1250     0.9760 C.ar  1 <1>  -0.1500 
 11 C        4.7080     2.6220    -2.0220 C.2   1 <1>   0.5690 
 12 C        3.5130    -2.9310    -0.1670 C.ar  1 <1>  -0.1500 
 13 O        3.8230     3.1820    -2.6200 O.2   1 <1>  -0.5700 
 14 N        5.8190     3.2470    -1.5280 N.am  1 <1>  -0.4940 
 15 C        6.1810     4.6150    -1.5660 C.2   1 <1>  -0.0880 
 16 N        7.2170     5.1760    -0.8760 N.pl3 1 <1>   0.3140 
 17 C        5.5990     5.6210    -2.2590 C.2   1 <1>  -0.1500 
 18 N        7.3020     6.5060    -1.1210 N.2   1 <1>  -0.7070 
 19 C        8.1930     4.5130     0.0390 C.3   1 <1>   0.1760 
 20 C        6.3320     6.7560    -1.9440 C.2   1 <1>   0.1390 
 21 C        9.1540     3.6290    -0.7890 C.3   1 <1>  -0.1600 
 22 C        7.4630     3.7620     1.1790 C.3   1 <1>  -0.1600 
 23 C       10.2970     3.0080     0.0250 C.3   1 <1>  -0.2400 
 24 C        8.1370     3.9430     2.5460 C.3   1 <1>  -0.2400 
 25 H        4.6390     2.4270     0.9790 H     1 <1>   0.3700 
 26 H        2.9210     1.2940    -0.3700 H     1 <1>   0.0800 
 27 H        5.4660    -2.1820     2.4990 H     1 <1>   0.1500 
 28 H        3.9540     0.7180    -2.5440 H     1 <1>   0.0800 
 29 H        5.5320     0.6670    -1.8200 H     1 <1>   0.0800 
 30 H        2.7450    -1.5130    -1.5740 H     1 <1>   0.1500 
 31 H        4.4040    -4.1180     1.3730 H     1 <1>   0.1500 
 32 H        3.0520    -3.7760    -0.6500 H     1 <1>   0.1500 
 33 H        6.4240     2.6460    -0.9650 H     1 <1>   0.3700 
 34 H        4.7500     5.5730    -2.9160 H     1 <1>   0.1500 
 35 H        8.7700     5.3080     0.4780 H     1 <1>   0.0800 
 36 H        6.1260     7.7380    -2.3360 H     1 <1>   0.1500 
 37 H        9.5900     4.2430    -1.5590 H     1 <1>   0.0800 
 38 H        8.6060     2.8390    -1.2700 H     1 <1>   0.0800 
 39 H        7.4040     2.7110     0.9570 H     1 <1>   0.0800 
 40 H        6.4580     4.1370     1.2710 H     1 <1>   0.0800 
 41 H       10.8390     3.7710     0.5570 H     1 <1>   0.0800 
 42 H       10.9820     2.5040    -0.6330 H     1 <1>   0.0800 
 43 H        9.9210     2.2880     0.7300 H     1 <1>   0.0800 
 44 H        9.1470     3.5770     2.5390 H     1 <1>   0.0800 
 45 H        7.5880     3.3970     3.2940 H     1 <1>   0.0800 
 46 H        8.1480     4.9830     2.8240 H     1 <1>   0.0800 
@<TRIPOS>BOND
  1   1   2  2   
  2   2   3  am  
  3   2   4  1   
  4   3   5  1   
  5   3  25  1   
  6   4   6  ar  
  7   4   7  ar  
  8   5   6  1   
  9   5   8  1   
 10   5  26  1   
 11   6   9  ar  
 12   7  10  ar  
 13   7  27  1   
 14   8  11  1   
 15   8  28  1   
 16   8  29  1   
 17   9  12  ar  
 18   9  30  1   
 19  10  12  ar  
 20  10  31  1   
 21  11  13  2   
 22  11  14  am  
 23  12  32  1   
 24  14  15  1   
 25  14  33  1   
 26  15  16  1   
 27  15  17  2   
 28  16  18  1   
 29  16  19  1   
 30  17  20  1   
 31  17  34  1   
 32  18  20  2   
 33  19  21  1   
 34  19  22  1   
 35  19  35  1   
 36  20  36  1   
 37  21  23  1   
 38  21  37  1   
 39  21  38  1   
 40  22  24  1   
 41  22  39  1   
 42  22  40  1   
 43  23  41  1   
 44  23  42  1   
 45  23  43  1   
 46  24  44  1   
 47  24  45  1   
 48  24  46  1   
@<TRIPOS>SUBSTRUCTURE
  1 ****   3 GROUP 4 **** **** 0

# MOE 2024.06 (io_trps.svl 2023.06)
