@<TRIPOS>MOLECULE
NONAME
37 39 1 0 0 
SMALL
USER_CHARGES


@<TRIPOS>ATOM
  1 CL      -0.4970     0.1720    -0.8000 Cl    1 <1>  -0.1770 
  2 C       -1.9160    -0.7930    -0.4600 C.ar  1 <1>   0.1770 
  3 C       -3.1600    -0.3860    -0.9070 C.ar  1 <1>   0.1600 
  4 C       -1.7890    -1.9620     0.2570 C.ar  1 <1>  -0.1500 
  5 N       -4.2850    -1.0540    -0.6970 N.ar  1 <1>  -0.6200 
  6 C       -2.9530    -2.6620     0.4800 C.ar  1 <1>  -0.1500 
  7 C       -4.1740    -2.1900    -0.0110 C.ar  1 <1>   0.4100 
  8 N       -5.3360    -2.9090     0.2220 N.pl3 1 <1>  -0.8380 
  9 C       -6.6520    -2.3790    -0.2450 C.3   1 <1>   0.2090 
 10 C       -5.3400    -4.3910     0.0420 C.3   1 <1>   0.2090 
 11 C       -7.6090    -3.5590    -0.1020 C.3   1 <1>   0.2000 
 12 C       -6.7320    -4.7500    -0.4870 C.3   1 <1>  -0.0800 
 13 O       -7.9610    -3.6580     1.2370 O.3   1 <1>  -0.6800 
 14 C       -7.2360    -6.1290    -0.0190 C.3   1 <1>   0.0210 
 15 C       -6.2520    -7.2310    -0.3680 C.2   1 <1>   0.1080 
 16 N       -5.7140    -7.3600    -1.5420 N.2   1 <1>  -0.7070 
 17 C       -5.8180    -8.2120     0.5170 C.2   1 <1>  -0.1500 
 18 N       -4.9190    -8.4420    -1.4360 N.pl3 1 <1>   0.3000 
 19 C       -4.9630    -8.9740    -0.1970 C.2   1 <1>  -0.3320 
 20 C       -4.1760   -10.1980     0.2340 C.3   1 <1>  -0.0600 
 21 H       -3.2270     0.5330    -1.4620 H     1 <1>   0.1500 
 22 H       -0.8330    -2.2950     0.6180 H     1 <1>   0.1500 
 23 H       -2.9340    -3.5750     1.0420 H     1 <1>   0.1500 
 24 H       -6.9650    -1.5300     0.3380 H     1 <1>   0.0800 
 25 H       -6.5800    -2.0950    -1.2810 H     1 <1>   0.0800 
 26 H       -4.5790    -4.7040    -0.6550 H     1 <1>   0.0800 
 27 H       -5.1650    -4.8600     0.9940 H     1 <1>   0.0800 
 28 H       -8.5020    -3.4660    -0.6950 H     1 <1>   0.0800 
 29 H       -6.6630    -4.7710    -1.5610 H     1 <1>   0.0800 
 30 H       -7.1540    -3.4630     1.7600 H     1 <1>   0.4000 
 31 H       -8.1770    -6.3440    -0.4910 H     1 <1>   0.0800 
 32 H       -7.3920    -6.1320     1.0450 H     1 <1>   0.0800 
 33 H       -6.1190    -8.3170     1.5440 H     1 <1>   0.1500 
 34 H       -4.3650    -8.7920    -2.2270 H     1 <1>   0.2700 
 35 H       -4.3830   -10.4270     1.2640 H     1 <1>   0.0800 
 36 H       -3.1210   -10.0200     0.1280 H     1 <1>   0.0800 
 37 H       -4.4520   -11.0470    -0.3660 H     1 <1>   0.0800 
@<TRIPOS>BOND
  1   1   2  1   
  2   2   3  ar  
  3   2   4  ar  
  4   3   5  ar  
  5   3  21  1   
  6   4   6  ar  
  7   4  22  1   
  8   5   7  ar  
  9   6   7  ar  
 10   6  23  1   
 11   7   8  1   
 12   8   9  1   
 13   8  10  1   
 14   9  11  1   
 15   9  24  1   
 16   9  25  1   
 17  10  12  1   
 18  10  26  1   
 19  10  27  1   
 20  11  12  1   
 21  11  13  1   
 22  11  28  1   
 23  12  14  1   
 24  12  29  1   
 25  13  30  1   
 26  14  15  1   
 27  14  31  1   
 28  14  32  1   
 29  15  16  2   
 30  15  17  1   
 31  16  18  1   
 32  17  19  2   
 33  17  33  1   
 34  18  19  1   
 35  18  34  1   
 36  19  20  1   
 37  20  35  1   
 38  20  36  1   
 39  20  37  1   
@<TRIPOS>SUBSTRUCTURE
  1 ****  10 GROUP 4 **** **** 0

# MOE 2024.06 (io_trps.svl 2023.06)
