@<TRIPOS>MOLECULE
NONAME
56 58 1 0 0 
SMALL
USER_CHARGES


@<TRIPOS>ATOM
  1 O        3.5880    -1.5160    -1.0840 O.2   1 <1>  -0.5700 
  2 C        2.7460    -1.3060    -0.2350 C.2   1 <1>   0.5690 
  3 N        3.0590    -0.3830     0.7460 N.am  1 <1>  -0.6600 
  4 C        1.3700    -2.0810    -0.3090 C.3   1 <1>   0.3310 
  5 C        4.4720    -0.2940     1.2320 C.3   1 <1>   0.1400 
  6 C        2.1770     0.7500     1.1230 C.3   1 <1>   0.1400 
  7 N        1.5610    -3.5020    -0.7660 N.3   1 <1>  -0.8100 
  8 C        0.6280    -2.1060     1.0470 C.3   1 <1>  -0.2400 
  9 C        0.4870    -1.3680    -1.3490 C.3   1 <1>  -0.2400 
 10 C        5.4110     0.3530     0.1940 C.3   1 <1>   0.3430 
 11 C        2.8080     2.1010     0.7620 C.3   1 <1>  -0.1600 
 12 C        0.3630    -4.3190    -1.0920 C.3   1 <1>   0.1100 
 13 C        2.4920    -4.3000     0.0680 C.3   1 <1>   0.1100 
 14 N        5.0920     1.7850    -0.1540 N.4   1 <1>  -0.9590 
 15 C        3.6700     2.0600    -0.5050 C.3   1 <1>   0.3430 
 16 C        0.7630    -5.6750    -1.7020 C.3   1 <1>   0.1200 
 17 C        2.8080    -5.6560    -0.5880 C.3   1 <1>   0.1200 
 18 C        6.0260     2.2530    -1.2170 C.3   1 <1>   0.5230 
 19 O        1.6290    -6.3620    -0.8470 O.3   1 <1>  -0.5600 
 20 C        7.3860     2.5130    -0.5860 C.2   1 <1>   0.0060 
 21 N        8.5400     2.6290    -1.2530 N.pl3 1 <1>   0.0330 
 22 N        7.5660     2.6510     0.6840 N.2   1 <1>  -0.3380 
 23 C        9.4290     2.8410    -0.2830 C.2   1 <1>   0.0060 
 24 N        8.8660     2.8540     0.8740 N.2   1 <1>  -0.3380 
 25 C       10.9120     3.0400    -0.5220 C.3   1 <1>  -0.0600 
 26 H        4.8250    -1.2940     1.4230 H     1 <1>   0.0800 
 27 H        4.5170     0.2440     2.1630 H     1 <1>   0.0800 
 28 H        1.9630     0.7090     2.1790 H     1 <1>   0.0800 
 29 H        1.2440     0.6700     0.5970 H     1 <1>   0.0800 
 30 H        1.2780    -2.4650     1.8240 H     1 <1>   0.0800 
 31 H       -0.2440    -2.7290     1.0080 H     1 <1>   0.0800 
 32 H        0.2900    -1.1290     1.3260 H     1 <1>   0.0800 
 33 H        0.8920    -1.5250    -2.3340 H     1 <1>   0.0800 
 34 H        0.4580    -0.3120    -1.1690 H     1 <1>   0.0800 
 35 H       -0.5250    -1.7250    -1.3180 H     1 <1>   0.0800 
 36 H        5.3870    -0.2480    -0.7000 H     1 <1>   0.0800 
 37 H        6.4160     0.3040     0.5810 H     1 <1>   0.0800 
 38 H        3.3740     2.4820     1.5940 H     1 <1>   0.0800 
 39 H        2.0020     2.7940     0.6000 H     1 <1>   0.0800 
 40 H       -0.2560    -3.8130    -1.8090 H     1 <1>   0.0800 
 41 H       -0.2200    -4.5060    -0.2090 H     1 <1>   0.0800 
 42 H        2.0600    -4.4820     1.0360 H     1 <1>   0.0800 
 43 H        3.4180    -3.7720     0.2030 H     1 <1>   0.0800 
 44 H        5.3610     2.3500     0.6690 H     1 <1>   0.4500 
 45 H        3.6060     3.0230    -0.9860 H     1 <1>   0.0800 
 46 H        3.2980     1.3140    -1.1900 H     1 <1>   0.0800 
 47 H        1.2540    -5.5300    -2.6480 H     1 <1>   0.0800 
 48 H       -0.1070    -6.2880    -1.8500 H     1 <1>   0.0800 
 49 H        3.4120    -6.2570     0.0680 H     1 <1>   0.0800 
 50 H        3.3360    -5.5120    -1.5140 H     1 <1>   0.0800 
 51 H        5.6650     3.1740    -1.6450 H     1 <1>   0.0800 
 52 H        6.1040     1.5130    -1.9960 H     1 <1>   0.0800 
 53 H        8.7350     2.5770    -2.2560 H     1 <1>   0.2700 
 54 H       11.3330     2.1730    -0.9980 H     1 <1>   0.0800 
 55 H       11.4150     3.1910     0.4170 H     1 <1>   0.0800 
 56 H       11.0790     3.9040    -1.1400 H     1 <1>   0.0800 
@<TRIPOS>BOND
  1   1   2  2   
  2   2   3  am  
  3   2   4  1   
  4   3   5  1   
  5   3   6  1   
  6   4   7  1   
  7   4   8  1   
  8   4   9  1   
  9   5  10  1   
 10   5  26  1   
 11   5  27  1   
 12   6  11  1   
 13   6  28  1   
 14   6  29  1   
 15   7  12  1   
 16   7  13  1   
 17   8  30  1   
 18   8  31  1   
 19   8  32  1   
 20   9  33  1   
 21   9  34  1   
 22   9  35  1   
 23  10  14  1   
 24  10  36  1   
 25  10  37  1   
 26  11  15  1   
 27  11  38  1   
 28  11  39  1   
 29  12  16  1   
 30  12  40  1   
 31  12  41  1   
 32  13  17  1   
 33  13  42  1   
 34  13  43  1   
 35  14  15  1   
 36  14  18  1   
 37  14  44  1   
 38  15  45  1   
 39  15  46  1   
 40  16  19  1   
 41  16  47  1   
 42  16  48  1   
 43  17  19  1   
 44  17  49  1   
 45  17  50  1   
 46  18  20  1   
 47  18  51  1   
 48  18  52  1   
 49  20  21  1   
 50  20  22  2   
 51  21  23  1   
 52  21  53  1   
 53  22  24  1   
 54  23  24  2   
 55  23  25  1   
 56  25  54  1   
 57  25  55  1   
 58  25  56  1   
@<TRIPOS>SUBSTRUCTURE
  1 ****   1 GROUP 4 **** **** 0

# MOE 2024.06 (io_trps.svl 2023.06)
