@<TRIPOS>MOLECULE
NONAME
48 49 1 0 0 
SMALL
USER_CHARGES


@<TRIPOS>ATOM
  1 S        1.3930     1.3070     1.0440 S.o2  1 <1>   1.3330 
  2 O        1.5750     2.4230     1.9460 O.2   1 <1>  -0.6500 
  3 O        1.2500    -0.0270     1.5840 O.2   1 <1>  -0.6500 
  4 N        0.0240     1.6260     0.0940 N.am  1 <1>  -0.8490 
  5 C        2.7370     1.3180    -0.1400 C.3   1 <1>  -0.0550 
  6 C       -1.0880     2.1480     0.8930 C.3   1 <1>   0.1160 
  7 C       -0.4280     0.4690    -0.6850 C.3   1 <1>   0.1160 
  8 C        4.1270     1.2510     0.5150 C.3   1 <1>  -0.0800 
  9 C        5.2420     1.1670    -0.5050 C.3   1 <1>   0.2200 
 10 C        4.3930     0.0110     1.3590 C.3   1 <1>   0.1200 
 11 N        5.5760     2.5140    -1.0050 N.am  1 <1>  -0.7300 
 12 C        6.3720     0.5040     0.2760 C.3   1 <1>   0.1200 
 13 O        5.7790    -0.1490     1.3620 O.3   1 <1>  -0.5600 
 14 C        5.1110     3.0330    -2.1700 C.2   1 <1>   0.5690 
 15 O        4.5300     2.3480    -2.9780 O.2   1 <1>  -0.5700 
 16 C        5.3020     4.5140    -2.4580 C.3   1 <1>   0.0440 
 17 C        5.7280     5.3170    -1.2260 C.ar  1 <1>  -0.1440 
 18 C        4.8430     5.5120    -0.1670 C.ar  1 <1>   0.0820 
 19 C        7.0070     5.8470    -1.1570 C.ar  1 <1>  -0.1500 
 20 O        3.6030     4.9660    -0.2760 O.3   1 <1>  -0.3620 
 21 C        5.2550     6.2340     0.9500 C.ar  1 <1>  -0.1500 
 22 C        7.4100     6.5640    -0.0440 C.ar  1 <1>  -0.1500 
 23 C        2.6270     5.1270     0.7310 C.3   1 <1>   0.0400 
 24 C        6.5340     6.7580     1.0090 C.ar  1 <1>  -0.1500 
 25 H        2.6230     0.4950    -0.8170 H     1 <1>   0.0800 
 26 H        2.6810     2.2210    -0.7170 H     1 <1>   0.0800 
 27 H       -1.9330     2.3620     0.2620 H     1 <1>   0.0800 
 28 H       -0.7940     3.0630     1.3810 H     1 <1>   0.0800 
 29 H       -1.3770     1.4330     1.6450 H     1 <1>   0.0800 
 30 H       -1.2540     0.7490    -1.3170 H     1 <1>   0.0800 
 31 H       -0.7420    -0.3290    -0.0310 H     1 <1>   0.0800 
 32 H        0.3680     0.1080    -1.3140 H     1 <1>   0.0800 
 33 H        4.2690     2.1120     1.1450 H     1 <1>   0.0800 
 34 H        4.9650     0.5240    -1.3240 H     1 <1>   0.0800 
 35 H        3.9610    -0.8710     0.9170 H     1 <1>   0.0800 
 36 H        4.0470     0.1180     2.3740 H     1 <1>   0.0800 
 37 H        5.9350     3.1760    -0.3110 H     1 <1>   0.3700 
 38 H        7.0610     1.2300     0.6680 H     1 <1>   0.0800 
 39 H        6.8930    -0.2230    -0.3220 H     1 <1>   0.0800 
 40 H        6.0310     4.6090    -3.2400 H     1 <1>   0.0800 
 41 H        4.3750     4.9070    -2.8320 H     1 <1>   0.0800 
 42 H        7.7010     5.7050    -1.9670 H     1 <1>   0.1500 
 43 H        4.5970     6.3990     1.7820 H     1 <1>   0.1500 
 44 H        8.4050     6.9730     0.0020 H     1 <1>   0.1500 
 45 H        1.7300     4.6290     0.4110 H     1 <1>   0.0800 
 46 H        2.4330     6.1760     0.8670 H     1 <1>   0.0800 
 47 H        2.9840     4.6790     1.6420 H     1 <1>   0.0800 
 48 H        6.8490     7.3170     1.8730 H     1 <1>   0.1500 
@<TRIPOS>BOND
  1   1   2  2   
  2   1   3  2   
  3   1   4  am  
  4   1   5  1   
  5   4   6  1   
  6   4   7  1   
  7   5   8  1   
  8   5  25  1   
  9   5  26  1   
 10   6  27  1   
 11   6  28  1   
 12   6  29  1   
 13   7  30  1   
 14   7  31  1   
 15   7  32  1   
 16   8   9  1   
 17   8  10  1   
 18   8  33  1   
 19   9  11  1   
 20   9  12  1   
 21   9  34  1   
 22  10  13  1   
 23  10  35  1   
 24  10  36  1   
 25  11  14  am  
 26  11  37  1   
 27  12  13  1   
 28  12  38  1   
 29  12  39  1   
 30  14  15  2   
 31  14  16  1   
 32  16  17  1   
 33  16  40  1   
 34  16  41  1   
 35  17  18  ar  
 36  17  19  ar  
 37  18  20  1   
 38  18  21  ar  
 39  19  22  ar  
 40  19  42  1   
 41  20  23  1   
 42  21  24  ar  
 43  21  43  1   
 44  22  24  ar  
 45  22  44  1   
 46  23  45  1   
 47  23  46  1   
 48  23  47  1   
 49  24  48  1   
@<TRIPOS>SUBSTRUCTURE
  1 ****   8 GROUP 4 **** **** 0

# MOE 2024.06 (io_trps.svl 2023.06)
