@<TRIPOS>MOLECULE
NONAME
34 35 1 0 0 
SMALL
USER_CHARGES


@<TRIPOS>ATOM
  1 CL      -0.2320     0.9180     1.2580 Cl    1 <1>  -0.1230 
  2 C        0.7840     2.2450     0.7240 C.2   1 <1>   0.1230 
  3 C        0.3680     3.3400    -0.0170 C.2   1 <1>   0.1390 
  4 C        2.1010     2.4090     0.9430 C.2   1 <1>  -0.3020 
  5 N        1.3620     4.1500    -0.2520 N.2   1 <1>  -0.7070 
  6 N        2.4320     3.5710     0.3420 N.pl3 1 <1>   0.3140 
  7 C        3.7710     4.1830     0.2970 C.3   1 <1>   0.0960 
  8 C        3.6540     5.6120    -0.2510 C.3   1 <1>   0.3430 
  9 N        4.9650     6.3400    -0.3100 N.4   1 <1>  -0.9590 
 10 C        4.7440     7.7900    -0.6010 C.3   1 <1>   0.5230 
 11 C        5.9200     5.7530    -1.3060 C.3   1 <1>   0.2630 
 12 C        5.8480     8.5930     0.0590 C.2   1 <1>  -0.0400 
 13 O        7.1040     8.3510    -0.2650 O.3   1 <1>  -0.2800 
 14 C        5.7820     9.5750     0.9850 C.2   1 <1>  -0.1500 
 15 C        7.8650     9.1670     0.4350 C.2   1 <1>  -0.0400 
 16 C        7.1080     9.9510     1.2310 C.2   1 <1>  -0.1500 
 17 C        9.3660     9.1110     0.2510 C.3   1 <1>  -0.0600 
 18 H       -0.6430     3.4980    -0.3520 H     1 <1>   0.1500 
 19 H        2.7870     1.7780     1.4770 H     1 <1>   0.1500 
 20 H        4.3880     3.5790    -0.3400 H     1 <1>   0.0800 
 21 H        4.1700     4.1930     1.2940 H     1 <1>   0.0800 
 22 H        2.9710     6.1550     0.3850 H     1 <1>   0.0800 
 23 H        3.2190     5.5700    -1.2370 H     1 <1>   0.0800 
 24 H        5.4230     6.3380     0.6140 H     1 <1>   0.4500 
 25 H        3.7980     8.1110    -0.1970 H     1 <1>   0.0800 
 26 H        4.7430     7.9680    -1.6640 H     1 <1>   0.0800 
 27 H        5.4930     5.7750    -2.2960 H     1 <1>   0.0800 
 28 H        6.1530     4.7330    -1.0520 H     1 <1>   0.0800 
 29 H        6.8420     6.3140    -1.3200 H     1 <1>   0.0800 
 30 H        4.9250    10.0170     1.4650 H     1 <1>   0.1500 
 31 H        7.4250    10.7170     1.9190 H     1 <1>   0.1500 
 32 H        9.7320     8.1330     0.5060 H     1 <1>   0.0800 
 33 H        9.8450     9.8370     0.8840 H     1 <1>   0.0800 
 34 H        9.6170     9.3240    -0.7720 H     1 <1>   0.0800 
@<TRIPOS>BOND
  1   1   2  1   
  2   2   3  1   
  3   2   4  2   
  4   3   5  2   
  5   3  18  1   
  6   4   6  1   
  7   4  19  1   
  8   5   6  1   
  9   6   7  1   
 10   7   8  1   
 11   7  20  1   
 12   7  21  1   
 13   8   9  1   
 14   8  22  1   
 15   8  23  1   
 16   9  10  1   
 17   9  11  1   
 18   9  24  1   
 19  10  12  1   
 20  10  25  1   
 21  10  26  1   
 22  11  27  1   
 23  11  28  1   
 24  11  29  1   
 25  12  13  1   
 26  12  14  2   
 27  13  15  1   
 28  14  16  1   
 29  14  30  1   
 30  15  16  2   
 31  15  17  1   
 32  16  31  1   
 33  17  32  1   
 34  17  33  1   
 35  17  34  1   
@<TRIPOS>SUBSTRUCTURE
  1 ****   8 GROUP 4 **** **** 0

# MOE 2024.06 (io_trps.svl 2023.06)
