@<TRIPOS>MOLECULE
NONAME
54 56 1 0 0 
SMALL
USER_CHARGES


@<TRIPOS>ATOM
  1 O       -2.7720    -1.6730     0.1640 O.3   1 <1>  -0.3630 
  2 C       -3.1850    -0.4140    -0.1280 C.ar  1 <1>   0.0820 
  3 C       -1.3760    -1.8860     0.1970 C.3   1 <1>   0.2000 
  4 C       -3.2130     0.0510    -1.4430 C.ar  1 <1>   0.0820 
  5 C       -3.6370     0.3970     0.8990 C.ar  1 <1>  -0.1500 
  6 C       -1.1330    -3.3760    -0.0350 C.3   1 <1>  -0.2400 
  7 C       -0.8430    -1.4480     1.5610 C.3   1 <1>  -0.2400 
  8 O       -2.8120    -0.7360    -2.4680 O.3   1 <1>  -0.3630 
  9 C       -3.6600     1.3350    -1.7140 C.ar  1 <1>  -0.1500 
 10 C       -4.0950     1.6740     0.6230 C.ar  1 <1>  -0.1500 
 11 C       -3.8200    -1.4050    -3.1940 C.3   1 <1>   0.1200 
 12 C       -4.1030     2.1440    -0.6810 C.ar  1 <1>  -0.1500 
 13 C       -4.0340    -2.7910    -2.5680 C.3   1 <1>   0.3430 
 14 N       -5.4450    -3.0660    -2.1240 N.4   1 <1>  -0.9590 
 15 C       -5.9100    -2.1590    -1.0140 C.3   1 <1>   0.3430 
 16 C       -5.5240    -4.4500    -1.5690 C.3   1 <1>   0.3430 
 17 C       -5.9200    -2.9940     0.2770 C.3   1 <1>   0.2000 
 18 C       -5.2380    -4.3080    -0.0770 C.3   1 <1>  -0.0800 
 19 O       -5.2280    -2.3810     1.3070 O.3   1 <1>  -0.6800 
 20 C       -5.7300    -5.4930     0.7730 C.3   1 <1>  -0.0170 
 21 C       -4.9950    -6.7770     0.4210 C.ar  1 <1>   0.1670 
 22 N       -5.2130    -7.2680    -0.7910 N.ar  1 <1>  -0.6200 
 23 C       -4.1460    -7.3740     1.3530 C.ar  1 <1>   0.1600 
 24 C       -4.5460    -8.3940    -0.9970 C.ar  1 <1>   0.1600 
 25 N       -3.4670    -8.4870     1.1380 N.ar  1 <1>  -0.6200 
 26 C       -3.7000    -8.9820    -0.0640 C.ar  1 <1>   0.1600 
 27 H       -0.9160    -1.3110    -0.5910 H     1 <1>   0.0800 
 28 H       -3.6310     0.0350     1.9130 H     1 <1>   0.1500 
 29 H       -1.6230    -3.9620     0.7230 H     1 <1>   0.0800 
 30 H       -0.0790    -3.5810     0.0100 H     1 <1>   0.0800 
 31 H       -1.4850    -3.6680    -1.0060 H     1 <1>   0.0800 
 32 H       -1.3440    -1.9750     2.3530 H     1 <1>   0.0800 
 33 H       -0.9760    -0.3890     1.6930 H     1 <1>   0.0800 
 34 H        0.2100    -1.6560     1.6260 H     1 <1>   0.0800 
 35 H       -3.6570     1.7030    -2.7250 H     1 <1>   0.1500 
 36 H       -4.4420     2.3060     1.4230 H     1 <1>   0.1500 
 37 H       -4.7140    -0.8070    -3.1970 H     1 <1>   0.0800 
 38 H       -3.4600    -1.5110    -4.2020 H     1 <1>   0.0800 
 39 H       -4.4500     3.1420    -0.8890 H     1 <1>   0.1500 
 40 H       -3.3690    -2.8890    -1.7270 H     1 <1>   0.0800 
 41 H       -3.7480    -3.5330    -3.2960 H     1 <1>   0.0800 
 42 H       -6.0770    -2.9890    -2.9330 H     1 <1>   0.4500 
 43 H       -5.2640    -1.3070    -0.9090 H     1 <1>   0.0800 
 44 H       -6.9110    -1.8140    -1.2150 H     1 <1>   0.0800 
 45 H       -6.5190    -4.8450    -1.7030 H     1 <1>   0.0800 
 46 H       -4.8210    -5.1190    -2.0420 H     1 <1>   0.0800 
 47 H       -6.9340    -3.1460     0.6050 H     1 <1>   0.0800 
 48 H       -4.1730    -4.2110     0.0440 H     1 <1>   0.0800 
 49 H       -4.3060    -2.1450     1.0380 H     1 <1>   0.4000 
 50 H       -6.7850    -5.6470     0.6260 H     1 <1>   0.0800 
 51 H       -5.5800    -5.2630     1.8140 H     1 <1>   0.0800 
 52 H       -4.0200    -6.9140     2.3170 H     1 <1>   0.1500 
 53 H       -4.6720    -8.8790    -1.9490 H     1 <1>   0.1500 
 54 H       -3.1980    -9.8980    -0.3230 H     1 <1>   0.1500 
@<TRIPOS>BOND
  1   1   2  1   
  2   1   3  1   
  3   2   4  ar  
  4   2   5  ar  
  5   3   6  1   
  6   3   7  1   
  7   3  27  1   
  8   4   8  1   
  9   4   9  ar  
 10   5  10  ar  
 11   5  28  1   
 12   6  29  1   
 13   6  30  1   
 14   6  31  1   
 15   7  32  1   
 16   7  33  1   
 17   7  34  1   
 18   8  11  1   
 19   9  12  ar  
 20   9  35  1   
 21  10  12  ar  
 22  10  36  1   
 23  11  13  1   
 24  11  37  1   
 25  11  38  1   
 26  12  39  1   
 27  13  14  1   
 28  13  40  1   
 29  13  41  1   
 30  14  15  1   
 31  14  16  1   
 32  14  42  1   
 33  15  17  1   
 34  15  43  1   
 35  15  44  1   
 36  16  18  1   
 37  16  45  1   
 38  16  46  1   
 39  17  18  1   
 40  17  19  1   
 41  17  47  1   
 42  18  20  1   
 43  18  48  1   
 44  19  49  1   
 45  20  21  1   
 46  20  50  1   
 47  20  51  1   
 48  21  22  ar  
 49  21  23  ar  
 50  22  24  ar  
 51  23  25  ar  
 52  23  52  1   
 53  24  26  ar  
 54  24  53  1   
 55  25  26  ar  
 56  26  54  1   
@<TRIPOS>SUBSTRUCTURE
  1 ****  18 GROUP 4 **** **** 0

# MOE 2024.06 (io_trps.svl 2023.06)
