@<TRIPOS>MOLECULE
NONAME
51 53 1 0 0 
SMALL
USER_CHARGES


@<TRIPOS>ATOM
  1 O       -0.1070     0.9840    -0.2280 O.2   1 <1>  -0.5700 
  2 C        0.0570     2.1530     0.0110 C.2   1 <1>   0.5690 
  3 N       -0.9670     2.9140     0.4540 N.am  1 <1>  -0.7300 
  4 C        1.4250     2.8000    -0.2230 C.3   1 <1>   0.1810 
  5 C       -0.8470     4.3590     0.7640 C.3   1 <1>   0.3640 
  6 O        1.5680     4.0470     0.4250 O.3   1 <1>  -0.5600 
  7 C       -2.0330     5.0890     0.1410 C.ar  1 <1>  -0.1440 
  8 C        0.4900     4.9520     0.2410 C.3   1 <1>   0.2610 
  9 C       -2.6880     6.0820     0.8580 C.ar  1 <1>   0.1600 
 10 C       -2.4770     4.7990    -1.1380 C.ar  1 <1>  -0.1500 
 11 C        0.8110     6.3100     0.8930 C.2   1 <1>   0.5690 
 12 N       -3.7200     6.7830     0.4140 N.ar  1 <1>  -0.6200 
 13 C       -3.5510     5.5200    -1.6130 C.ar  1 <1>  -0.1500 
 14 O        0.1980     6.6230     1.8900 O.2   1 <1>  -0.5700 
 15 N        1.7520     7.1600     0.3540 N.am  1 <1>  -0.6600 
 16 C       -4.1280     6.4860    -0.8080 C.ar  1 <1>   0.1600 
 17 C        2.6720     6.8030    -0.7640 C.3   1 <1>   0.2840 
 18 C        1.9640     8.5180     0.9340 C.3   1 <1>   0.1400 
 19 C        4.1090     6.7180    -0.2760 C.ar  1 <1>  -0.1430 
 20 C        1.1080     9.5370     0.1790 C.3   1 <1>  -0.1600 
 21 C        4.4510     5.8590     0.7590 C.ar  1 <1>   0.1600 
 22 C        5.0980     7.4910    -0.8530 C.ar  1 <1>  -0.1500 
 23 C        1.2910    10.9480     0.7520 C.3   1 <1>  -0.1600 
 24 N        5.6740     5.7090     1.2460 N.ar  1 <1>  -0.6200 
 25 C        6.3750     7.3490    -0.3540 C.ar  1 <1>  -0.1500 
 26 C        0.4310    11.9640    -0.0040 C.3   1 <1>  -0.2400 
 27 C        6.6050     6.4570     0.6800 C.ar  1 <1>   0.1600 
 28 H       -1.8710     2.4700     0.6230 H     1 <1>   0.3700 
 29 H        1.5750     2.9460    -1.2770 H     1 <1>   0.0800 
 30 H        2.1940     2.1490     0.1490 H     1 <1>   0.0800 
 31 H       -0.8860     4.4630     1.8360 H     1 <1>   0.0800 
 32 H        0.3860     5.1150    -0.8150 H     1 <1>   0.0800 
 33 H       -2.3460     6.3220     1.8520 H     1 <1>   0.1500 
 34 H       -2.0140     4.0400    -1.7460 H     1 <1>   0.1500 
 35 H       -3.9420     5.3370    -2.5970 H     1 <1>   0.1500 
 36 H       -4.9670     7.0430    -1.1880 H     1 <1>   0.1500 
 37 H        2.4070     5.8600    -1.2040 H     1 <1>   0.0800 
 38 H        2.5910     7.5510    -1.5330 H     1 <1>   0.0800 
 39 H        1.6900     8.5200     1.9760 H     1 <1>   0.0800 
 40 H        3.0040     8.7910     0.8760 H     1 <1>   0.0800 
 41 H        1.3820     9.5400    -0.8610 H     1 <1>   0.0800 
 42 H        0.0730     9.2530     0.2630 H     1 <1>   0.0800 
 43 H        3.6790     5.2630     1.2150 H     1 <1>   0.1500 
 44 H        4.8920     8.1760    -1.6570 H     1 <1>   0.1500 
 45 H        1.0100    10.9520     1.7930 H     1 <1>   0.0800 
 46 H        2.3260    11.2380     0.6840 H     1 <1>   0.0800 
 47 H        7.1890     7.9220    -0.7600 H     1 <1>   0.1500 
 48 H       -0.6100    11.7020     0.0700 H     1 <1>   0.0800 
 49 H        0.7080    11.9950    -1.0420 H     1 <1>   0.0800 
 50 H        0.5660    12.9450     0.4160 H     1 <1>   0.0800 
 51 H        7.6070     6.3550     1.0600 H     1 <1>   0.1500 
@<TRIPOS>BOND
  1   1   2  2   
  2   2   3  am  
  3   2   4  1   
  4   3   5  1   
  5   3  28  1   
  6   4   6  1   
  7   4  29  1   
  8   4  30  1   
  9   5   7  1   
 10   5   8  1   
 11   5  31  1   
 12   6   8  1   
 13   7   9  ar  
 14   7  10  ar  
 15   8  11  1   
 16   8  32  1   
 17   9  12  ar  
 18   9  33  1   
 19  10  13  ar  
 20  10  34  1   
 21  11  14  2   
 22  11  15  am  
 23  12  16  ar  
 24  13  16  ar  
 25  13  35  1   
 26  15  17  1   
 27  15  18  1   
 28  16  36  1   
 29  17  19  1   
 30  17  37  1   
 31  17  38  1   
 32  18  20  1   
 33  18  39  1   
 34  18  40  1   
 35  19  21  ar  
 36  19  22  ar  
 37  20  23  1   
 38  20  41  1   
 39  20  42  1   
 40  21  24  ar  
 41  21  43  1   
 42  22  25  ar  
 43  22  44  1   
 44  23  26  1   
 45  23  45  1   
 46  23  46  1   
 47  24  27  ar  
 48  25  27  ar  
 49  25  47  1   
 50  26  48  1   
 51  26  49  1   
 52  26  50  1   
 53  27  51  1   
@<TRIPOS>SUBSTRUCTURE
  1 ****  11 GROUP 4 **** **** 0

# MOE 2024.06 (io_trps.svl 2023.06)
