@<TRIPOS>MOLECULE
NONAME
54 57 1 0 0 
SMALL
USER_CHARGES


@<TRIPOS>ATOM
  1 O       -1.2980    -0.0380     2.0780 O.2   1 <1>  -0.5700 
  2 C       -1.8760     0.2840     1.0670 C.2   1 <1>   0.5690 
  3 N       -2.8000    -0.5460     0.4900 N.am  1 <1>  -0.6600 
  4 C       -1.6500     1.6880     0.5270 C.3   1 <1>   0.0440 
  5 C       -3.3420    -0.4580    -0.8920 C.3   1 <1>   0.1400 
  6 C       -3.7870    -1.2310     1.3650 C.3   1 <1>   0.1400 
  7 C       -2.9640     2.4640     0.5860 C.ar  1 <1>  -0.1440 
  8 C       -4.8520    -0.6400    -0.7580 C.3   1 <1>   0.2000 
  9 C       -5.0450    -1.4720     0.5180 C.3   1 <1>   0.2200 
 10 C       -3.7070     2.4490     1.7590 C.ar  1 <1>  -0.1500 
 11 C       -3.4540     3.1390    -0.5230 C.ar  1 <1>  -0.1500 
 12 O       -5.4610     0.6050    -0.6260 O.3   1 <1>  -0.6800 
 13 N       -5.1480    -2.9200     0.1790 N.am  1 <1>  -0.7300 
 14 C       -4.9500     3.0480     1.8080 C.ar  1 <1>  -0.1500 
 15 C       -4.6960     3.7490    -0.4740 C.ar  1 <1>  -0.1500 
 16 C       -6.2300    -3.7280     0.2560 C.2   1 <1>   0.5690 
 17 C       -5.4540     3.6790     0.6870 C.ar  1 <1>   0.0830 
 18 O       -6.1270    -4.8890    -0.0430 O.2   1 <1>  -0.5700 
 19 C       -7.5820    -3.1970     0.6980 C.3   1 <1>  -0.0990 
 20 O       -6.6940     4.2010     0.7680 O.3   1 <1>  -0.3620 
 21 C       -8.3100    -2.4720    -0.4480 C.3   1 <1>  -0.1600 
 22 C       -7.6330     3.8830    -0.2360 C.3   1 <1>   0.1200 
 23 C       -9.5000    -1.6340     0.0400 C.3   1 <1>   0.0210 
 24 C       -8.8850     3.3100     0.4280 C.3   1 <1>   0.0960 
 25 C       -9.0760    -0.2440     0.4870 C.2   1 <1>   0.0460 
 26 N       -8.7780     1.8520     0.6380 N.pl3 1 <1>   0.3140 
 27 N       -8.3810    -0.0060     1.6060 N.2   1 <1>  -0.2270 
 28 C       -9.3320     0.9160    -0.1340 C.2   1 <1>  -0.3020 
 29 N       -8.2060     1.2690     1.6980 N.2   1 <1>  -0.4180 
 30 H       -0.9160     2.1870     1.1330 H     1 <1>   0.0800 
 31 H       -1.2740     1.6290    -0.4760 H     1 <1>   0.0800 
 32 H       -3.0990     0.4670    -1.3830 H     1 <1>   0.0800 
 33 H       -2.9360    -1.2740    -1.4640 H     1 <1>   0.0800 
 34 H       -3.3770    -2.1500     1.7450 H     1 <1>   0.0800 
 35 H       -4.0290    -0.5880     2.1940 H     1 <1>   0.0800 
 36 H       -5.2830    -1.1160    -1.6220 H     1 <1>   0.0800 
 37 H       -5.9210    -1.1460     1.0490 H     1 <1>   0.0800 
 38 H       -3.3300     1.9570     2.6410 H     1 <1>   0.1500 
 39 H       -2.8800     3.1840    -1.4330 H     1 <1>   0.1500 
 40 H       -5.0550     1.1220     0.1060 H     1 <1>   0.4000 
 41 H       -4.2810    -3.3750    -0.1160 H     1 <1>   0.3700 
 42 H       -5.5400     3.0190     2.7070 H     1 <1>   0.1500 
 43 H       -5.0730     4.2710    -1.3340 H     1 <1>   0.1500 
 44 H       -8.1820    -4.0260     1.0290 H     1 <1>   0.0800 
 45 H       -7.4500    -2.5520     1.5450 H     1 <1>   0.0800 
 46 H       -7.6280    -1.8270    -0.9760 H     1 <1>   0.0800 
 47 H       -8.6580    -3.2130    -1.1470 H     1 <1>   0.0800 
 48 H       -7.8670     4.7990    -0.7470 H     1 <1>   0.0800 
 49 H       -7.2140     3.1760    -0.9330 H     1 <1>   0.0800 
 50 H      -10.0160    -2.1330     0.8410 H     1 <1>   0.0800 
 51 H      -10.1950    -1.5210    -0.7740 H     1 <1>   0.0800 
 52 H       -9.7330     3.4860    -0.2060 H     1 <1>   0.0800 
 53 H       -9.0600     3.7910     1.3730 H     1 <1>   0.0800 
 54 H       -9.8620     1.1190    -1.0440 H     1 <1>   0.1500 
@<TRIPOS>BOND
  1   1   2  2   
  2   2   3  am  
  3   2   4  1   
  4   3   5  1   
  5   3   6  1   
  6   4   7  1   
  7   4  30  1   
  8   4  31  1   
  9   5   8  1   
 10   5  32  1   
 11   5  33  1   
 12   6   9  1   
 13   6  34  1   
 14   6  35  1   
 15   7  10  ar  
 16   7  11  ar  
 17   8   9  1   
 18   8  12  1   
 19   8  36  1   
 20   9  13  1   
 21   9  37  1   
 22  10  14  ar  
 23  10  38  1   
 24  11  15  ar  
 25  11  39  1   
 26  12  40  1   
 27  13  16  am  
 28  13  41  1   
 29  14  17  ar  
 30  14  42  1   
 31  15  17  ar  
 32  15  43  1   
 33  16  18  2   
 34  16  19  1   
 35  17  20  1   
 36  19  21  1   
 37  19  44  1   
 38  19  45  1   
 39  20  22  1   
 40  21  23  1   
 41  21  46  1   
 42  21  47  1   
 43  22  24  1   
 44  22  48  1   
 45  22  49  1   
 46  23  25  1   
 47  23  50  1   
 48  23  51  1   
 49  24  26  1   
 50  24  52  1   
 51  24  53  1   
 52  25  27  1   
 53  25  28  2   
 54  26  28  1   
 55  26  29  1   
 56  27  29  2   
 57  28  54  1   
@<TRIPOS>SUBSTRUCTURE
  1 ****  12 GROUP 4 **** **** 0

# MOE 2024.06 (io_trps.svl 2023.06)
