@<TRIPOS>MOLECULE
NONAME
49 52 1 0 0 
SMALL
USER_CHARGES


@<TRIPOS>ATOM
  1 CL       0.7150    -1.6650    -1.6480 Cl    1 <1>  -0.1770 
  2 C       -0.4330    -2.8200    -1.0220 C.ar  1 <1>   0.1770 
  3 C       -0.0380    -4.1290    -0.8180 C.ar  1 <1>  -0.1500 
  4 C       -1.7220    -2.4160    -0.7360 C.ar  1 <1>  -0.1500 
  5 C       -0.9520    -5.0400    -0.3190 C.ar  1 <1>  -0.1500 
  6 C       -2.6250    -3.3370    -0.2360 C.ar  1 <1>  -0.1500 
  7 C       -2.2660    -4.6680    -0.0180 C.ar  1 <1>   0.0530 
  8 C       -3.1910    -5.6360     0.5190 C.2   1 <1>   0.0870 
  9 O       -2.7420    -6.5230     1.3790 O.3   1 <1>  -0.0190 
 10 C       -4.5180    -5.8900     0.3490 C.2   1 <1>  -0.2330 
 11 N       -3.6700    -7.3370     1.8050 N.2   1 <1>  -0.4100 
 12 C       -4.7460    -6.9620     1.2110 C.2   1 <1>   0.3720 
 13 C       -5.5190    -5.3150    -0.5040 C.2   1 <1>   1.0330 
 14 N       -5.9790    -7.5630     1.4010 N.pl3 1 <1>  -0.8520 
 15 O       -5.2650    -4.3430    -1.2310 O.co2 1 <1>  -0.9000 
 16 O       -6.6690    -5.7950    -0.5460 O.co2 1 <1>  -0.9000 
 17 C       -6.0160    -8.9930     1.0660 C.3   1 <1>   0.2090 
 18 C       -7.4700    -9.4530     0.9490 C.3   1 <1>  -0.0800 
 19 C       -7.5740   -10.9690     0.7240 C.3   1 <1>   0.1400 
 20 C       -8.2450    -8.8010    -0.2140 C.3   1 <1>  -0.0990 
 21 N       -8.6730   -11.1200    -0.2480 N.am  1 <1>  -0.6600 
 22 C       -9.0660    -9.9330    -0.7670 C.2   1 <1>   0.5690 
 23 C       -9.2080   -12.4340    -0.6900 C.3   1 <1>   0.2200 
 24 O       -9.9510    -9.7810    -1.5750 O.2   1 <1>  -0.5700 
 25 C       -9.6110   -13.3070     0.5000 C.3   1 <1>  -0.1600 
 26 C       -8.1390   -13.2290    -1.4500 C.3   1 <1>  -0.1600 
 27 C       -8.4260   -14.2360     0.7630 C.3   1 <1>  -0.1600 
 28 C       -7.8090   -14.4720    -0.6130 C.3   1 <1>  -0.1600 
 29 H        0.9690    -4.4250    -1.0470 H     1 <1>   0.1500 
 30 H       -2.0190    -1.3970    -0.9060 H     1 <1>   0.1500 
 31 H       -0.6510    -6.0600    -0.1600 H     1 <1>   0.1500 
 32 H       -3.6310    -3.0240    -0.0140 H     1 <1>   0.1500 
 33 H       -6.6300    -7.0430     0.7700 H     1 <1>   0.4000 
 34 H       -5.5140    -9.5410     1.8450 H     1 <1>   0.0800 
 35 H       -5.4960    -9.1590     0.1370 H     1 <1>   0.0800 
 36 H       -7.9750    -9.2280     1.8730 H     1 <1>   0.0800 
 37 H       -7.8030   -11.4710     1.6480 H     1 <1>   0.0800 
 38 H       -6.6670   -11.3680     0.3040 H     1 <1>   0.0800 
 39 H       -7.5860    -8.4400    -0.9840 H     1 <1>   0.0800 
 40 H       -8.8710    -7.9960     0.1230 H     1 <1>   0.0800 
 41 H      -10.0650   -12.2670    -1.3220 H     1 <1>   0.0800 
 42 H      -10.4540   -13.9060     0.2050 H     1 <1>   0.0800 
 43 H       -9.8900   -12.7270     1.3620 H     1 <1>   0.0800 
 44 H       -7.2590   -12.6330    -1.6200 H     1 <1>   0.0800 
 45 H       -8.5280   -13.5320    -2.4060 H     1 <1>   0.0800 
 46 H       -8.7320   -15.1560     1.2300 H     1 <1>   0.0800 
 47 H       -7.7090   -13.7470     1.3990 H     1 <1>   0.0800 
 48 H       -6.7480   -14.6400    -0.5490 H     1 <1>   0.0800 
 49 H       -8.2710   -15.3340    -1.0640 H     1 <1>   0.0800 
@<TRIPOS>BOND
  1   1   2  1   
  2   2   3  ar  
  3   2   4  ar  
  4   3   5  ar  
  5   3  29  1   
  6   4   6  ar  
  7   4  30  1   
  8   5   7  ar  
  9   5  31  1   
 10   6   7  ar  
 11   6  32  1   
 12   7   8  1   
 13   8   9  1   
 14   8  10  2   
 15   9  11  1   
 16  10  12  1   
 17  10  13  1   
 18  11  12  2   
 19  12  14  1   
 20  13  15  ar  
 21  13  16  ar  
 22  14  17  1   
 23  14  33  1   
 24  17  18  1   
 25  17  34  1   
 26  17  35  1   
 27  18  19  1   
 28  18  20  1   
 29  18  36  1   
 30  19  21  1   
 31  19  37  1   
 32  19  38  1   
 33  20  22  1   
 34  20  39  1   
 35  20  40  1   
 36  21  22  am  
 37  21  23  1   
 38  22  24  2   
 39  23  25  1   
 40  23  26  1   
 41  23  41  1   
 42  25  27  1   
 43  25  42  1   
 44  25  43  1   
 45  26  28  1   
 46  26  44  1   
 47  26  45  1   
 48  27  28  1   
 49  27  46  1   
 50  27  47  1   
 51  28  48  1   
 52  28  49  1   
@<TRIPOS>SUBSTRUCTURE
  1 ****  12 GROUP 4 **** **** 0

# MOE 2024.06 (io_trps.svl 2023.06)
