@<TRIPOS>MOLECULE
NONAME
45 47 1 0 0 
SMALL
USER_CHARGES


@<TRIPOS>ATOM
  1 CL      -2.4540     0.8000     3.0060 Cl    1 <1>  -0.1230 
  2 C       -2.1680     1.0230     1.2890 C.2   1 <1>   0.1230 
  3 C       -2.7570     0.2750     0.2840 C.2   1 <1>   0.1080 
  4 C       -1.3650     1.9190     0.6860 C.2   1 <1>  -0.3320 
  5 N       -2.3600     0.6690    -0.8980 N.2   1 <1>  -0.7070 
  6 C       -3.7460    -0.8550     0.5220 C.3   1 <1>   0.5240 
  7 N       -1.4930     1.6870    -0.6420 N.pl3 1 <1>   0.3000 
  8 C       -0.4710     2.9930     1.2850 C.3   1 <1>  -0.0600 
  9 N       -4.1740    -1.3540    -0.8200 N.4   1 <1>  -0.9590 
 10 C       -5.6160    -1.2240    -1.1530 C.3   1 <1>   0.4230 
 11 C       -3.6220    -2.7070    -1.1140 C.3   1 <1>   0.2630 
 12 C       -6.5410    -1.9860    -0.2070 C.3   1 <1>  -0.1600 
 13 C       -6.1190     0.2160    -1.1000 C.3   1 <1>  -0.1600 
 14 C       -7.9170    -1.3400    -0.4220 C.3   1 <1>  -0.0800 
 15 C       -7.6420     0.0830    -0.9620 C.3   1 <1>  -0.0800 
 16 C       -8.8210    -1.4060     0.8270 C.3   1 <1>   0.1400 
 17 C       -8.2780     1.2010    -0.1140 C.3   1 <1>  -0.0990 
 18 N       -9.9340    -0.4350     0.6990 N.am  1 <1>  -0.6600 
 19 C       -9.7030     0.8380     0.2550 C.2   1 <1>   0.5690 
 20 C      -11.2830    -0.8970     1.1280 C.3   1 <1>   0.0600 
 21 O      -10.5660     1.6740     0.1460 O.2   1 <1>  -0.5700 
 22 H       -4.5870    -0.4810     1.0810 H     1 <1>   0.0800 
 23 H       -3.2720    -1.6390     1.0890 H     1 <1>   0.0800 
 24 H       -1.0040     2.2020    -1.3880 H     1 <1>   0.2700 
 25 H       -0.5390     2.9810     2.3590 H     1 <1>   0.0800 
 26 H       -0.7700     3.9670     0.9380 H     1 <1>   0.0800 
 27 H        0.5550     2.8240     1.0090 H     1 <1>   0.0800 
 28 H       -3.6650    -0.6790    -1.4310 H     1 <1>   0.4500 
 29 H       -5.7840    -1.5900    -2.1540 H     1 <1>   0.0800 
 30 H       -4.0650    -3.4440    -0.4650 H     1 <1>   0.0800 
 31 H       -2.5530    -2.7120    -0.9700 H     1 <1>   0.0800 
 32 H       -3.8280    -2.9790    -2.1370 H     1 <1>   0.0800 
 33 H       -6.5700    -3.0360    -0.4390 H     1 <1>   0.0800 
 34 H       -6.2400    -1.8500     0.8150 H     1 <1>   0.0800 
 35 H       -5.7270     0.7380    -0.2470 H     1 <1>   0.0800 
 36 H       -5.8580     0.7550    -1.9940 H     1 <1>   0.0800 
 37 H       -8.4220    -1.8860    -1.2030 H     1 <1>   0.0800 
 38 H       -8.0810     0.1400    -1.9460 H     1 <1>   0.0800 
 39 H       -8.2620    -1.1570     1.7130 H     1 <1>   0.0800 
 40 H       -9.2120    -2.4030     0.9430 H     1 <1>   0.0800 
 41 H       -8.2760     2.1270    -0.6600 H     1 <1>   0.0800 
 42 H       -7.7350     1.3480     0.8010 H     1 <1>   0.0800 
 43 H      -11.5930    -1.7300     0.5220 H     1 <1>   0.0800 
 44 H      -12.0060    -0.1060     1.0200 H     1 <1>   0.0800 
 45 H      -11.2550    -1.1960     2.1610 H     1 <1>   0.0800 
@<TRIPOS>BOND
  1   1   2  1   
  2   2   3  1   
  3   2   4  2   
  4   3   5  2   
  5   3   6  1   
  6   4   7  1   
  7   4   8  1   
  8   5   7  1   
  9   6   9  1   
 10   6  22  1   
 11   6  23  1   
 12   7  24  1   
 13   8  25  1   
 14   8  26  1   
 15   8  27  1   
 16   9  10  1   
 17   9  11  1   
 18   9  28  1   
 19  10  12  1   
 20  10  13  1   
 21  10  29  1   
 22  11  30  1   
 23  11  31  1   
 24  11  32  1   
 25  12  14  1   
 26  12  33  1   
 27  12  34  1   
 28  13  15  1   
 29  13  35  1   
 30  13  36  1   
 31  14  15  1   
 32  14  16  1   
 33  14  37  1   
 34  15  17  1   
 35  15  38  1   
 36  16  18  1   
 37  16  39  1   
 38  16  40  1   
 39  17  19  1   
 40  17  41  1   
 41  17  42  1   
 42  18  19  am  
 43  18  20  1   
 44  19  21  2   
 45  20  43  1   
 46  20  44  1   
 47  20  45  1   
@<TRIPOS>SUBSTRUCTURE
  1 ****  13 GROUP 4 **** **** 0

# MOE 2024.06 (io_trps.svl 2023.06)
