@<TRIPOS>MOLECULE
NONAME
49 51 1 0 0 
SMALL
USER_CHARGES


@<TRIPOS>ATOM
  1 O       -2.2660     0.2550     2.7550 O.2   1 <1>  -0.5700 
  2 C       -1.7440     0.7820     1.8030 C.2   1 <1>   0.5690 
  3 N       -2.3580     1.1140     0.6470 N.am  1 <1>  -0.6600 
  4 C       -0.2860     1.1440     1.7560 C.3   1 <1>  -0.0990 
  5 C       -1.4470     1.7210    -0.3370 C.3   1 <1>   0.1400 
  6 C       -3.7860     0.8890     0.3500 C.3   1 <1>   0.1400 
  7 C       -0.1520     1.9550     0.4540 C.3   1 <1>  -0.1600 
  8 C       -3.9380    -0.4060    -0.4490 C.3   1 <1>  -0.1600 
  9 C       -5.4190    -0.7640    -0.6500 C.3   1 <1>  -0.0990 
 10 C       -5.5940    -2.0400    -1.4460 C.2   1 <1>   0.5690 
 11 O       -6.0790    -1.9880    -2.5480 O.2   1 <1>  -0.5700 
 12 N       -5.2100    -3.2110    -0.8860 N.am  1 <1>  -0.7300 
 13 C       -5.2940    -4.5350    -1.5460 C.3   1 <1>   0.2200 
 14 C       -6.4040    -5.3840    -0.9410 C.3   1 <1>  -0.0800 
 15 C       -4.0720    -5.3570    -1.1620 C.3   1 <1>   0.1200 
 16 C       -5.7280    -6.0170     0.2800 C.3   1 <1>   0.1200 
 17 C       -7.7200    -4.6480    -0.6280 C.3   1 <1>  -0.0170 
 18 O       -4.3500    -5.8490     0.1140 O.3   1 <1>  -0.5600 
 19 C       -8.7720    -5.6140    -0.1070 C.ar  1 <1>  -0.1440 
 20 C       -9.5230    -6.3970    -0.9600 C.ar  1 <1>  -0.1500 
 21 C       -9.0300    -5.7610     1.2410 C.ar  1 <1>  -0.1500 
 22 C      -10.4650    -7.2680    -0.4390 C.ar  1 <1>   0.1600 
 23 C       -9.9950    -6.6630     1.6590 C.ar  1 <1>   0.1600 
 24 N      -10.7170    -7.4220     0.8510 N.ar  1 <1>  -0.6200 
 25 H       -0.0120     1.7210     2.6200 H     1 <1>   0.0800 
 26 H        0.2950     0.2410     1.7150 H     1 <1>   0.0800 
 27 H       -1.2840     1.0330    -1.1490 H     1 <1>   0.0800 
 28 H       -1.8510     2.6460    -0.7120 H     1 <1>   0.0800 
 29 H       -4.3260     0.8080     1.2790 H     1 <1>   0.0800 
 30 H       -4.1800     1.7260    -0.2000 H     1 <1>   0.0800 
 31 H        0.7130     1.6610    -0.1150 H     1 <1>   0.0800 
 32 H       -0.0710     3.0020     0.6870 H     1 <1>   0.0800 
 33 H       -3.4670    -0.2940    -1.4100 H     1 <1>   0.0800 
 34 H       -3.4490    -1.2020     0.0840 H     1 <1>   0.0800 
 35 H       -5.9160     0.0340    -1.1730 H     1 <1>   0.0800 
 36 H       -5.9010    -0.8870     0.3020 H     1 <1>   0.0800 
 37 H       -4.7940    -3.2360     0.0480 H     1 <1>   0.3700 
 38 H       -5.3910    -4.4220    -2.6130 H     1 <1>   0.0800 
 39 H       -6.6220    -6.1780    -1.6330 H     1 <1>   0.0800 
 40 H       -3.1670    -4.7750    -1.1400 H     1 <1>   0.0800 
 41 H       -3.9540    -6.1980    -1.8220 H     1 <1>   0.0800 
 42 H       -5.9470    -7.0680     0.3580 H     1 <1>   0.0800 
 43 H       -6.0060    -5.5190     1.1930 H     1 <1>   0.0800 
 44 H       -8.0830    -4.1710    -1.5220 H     1 <1>   0.0800 
 45 H       -7.5550    -3.8760     0.1030 H     1 <1>   0.0800 
 46 H       -9.3850    -6.3370    -2.0240 H     1 <1>   0.1500 
 47 H       -8.4920    -5.1850     1.9710 H     1 <1>   0.1500 
 48 H      -11.0410    -7.8710    -1.1200 H     1 <1>   0.1500 
 49 H      -10.1820    -6.7650     2.7140 H     1 <1>   0.1500 
@<TRIPOS>BOND
  1   1   2  2   
  2   2   3  am  
  3   2   4  1   
  4   3   5  1   
  5   3   6  1   
  6   4   7  1   
  7   4  25  1   
  8   4  26  1   
  9   5   7  1   
 10   5  27  1   
 11   5  28  1   
 12   6   8  1   
 13   6  29  1   
 14   6  30  1   
 15   7  31  1   
 16   7  32  1   
 17   8   9  1   
 18   8  33  1   
 19   8  34  1   
 20   9  10  1   
 21   9  35  1   
 22   9  36  1   
 23  10  11  2   
 24  10  12  am  
 25  12  13  1   
 26  12  37  1   
 27  13  14  1   
 28  13  15  1   
 29  13  38  1   
 30  14  16  1   
 31  14  17  1   
 32  14  39  1   
 33  15  18  1   
 34  15  40  1   
 35  15  41  1   
 36  16  18  1   
 37  16  42  1   
 38  16  43  1   
 39  17  19  1   
 40  17  44  1   
 41  17  45  1   
 42  19  20  ar  
 43  19  21  ar  
 44  20  22  ar  
 45  20  46  1   
 46  21  23  ar  
 47  21  47  1   
 48  22  24  ar  
 49  22  48  1   
 50  23  24  ar  
 51  23  49  1   
@<TRIPOS>SUBSTRUCTURE
  1 ****  12 GROUP 4 **** **** 0

# MOE 2024.06 (io_trps.svl 2023.06)
