@<TRIPOS>MOLECULE
NONAME
48 50 1 0 0 
SMALL
USER_CHARGES


@<TRIPOS>ATOM
  1 O       -0.5560    -0.0240     0.1980 O.3   1 <1>  -0.3630 
  2 C       -0.3740     1.3180     0.2740 C.ar  1 <1>   0.0830 
  3 C       -1.8410    -0.5910     0.2470 C.3   1 <1>   0.1200 
  4 C        0.9320     1.7740     0.1800 C.ar  1 <1>  -0.1500 
  5 C       -1.4100     2.2350     0.4380 C.ar  1 <1>  -0.1500 
  6 C       -1.6670    -2.1080     0.1220 C.3   1 <1>   0.3430 
  7 C        1.2080     3.1280     0.2460 C.ar  1 <1>  -0.1500 
  8 C       -1.1300     3.5890     0.5040 C.ar  1 <1>  -0.1500 
  9 N       -2.9690    -2.8550     0.1770 N.4   1 <1>  -0.9590 
 10 C        0.1760     4.0360     0.4080 C.ar  1 <1>  -0.1500 
 11 C       -2.7130    -4.3150     0.3450 C.3   1 <1>   0.3430 
 12 C       -3.8280    -2.5900    -1.0170 C.3   1 <1>   0.3430 
 13 C       -4.0330    -5.0520     0.5490 C.3   1 <1>  -0.1600 
 14 C       -5.1760    -3.2790    -0.8390 C.3   1 <1>  -0.1600 
 15 C       -5.0090    -4.7790    -0.6000 C.3   1 <1>   0.2000 
 16 O       -6.2550    -5.2540    -0.2340 O.3   1 <1>  -0.5600 
 17 C       -6.5120    -6.6020    -0.5470 C.3   1 <1>   0.2630 
 18 C       -7.8160    -7.0980     0.0710 C.ar  1 <1>   0.1670 
 19 N       -7.9500    -8.4180     0.1170 N.ar  1 <1>  -0.6200 
 20 C       -8.7780    -6.2120     0.5390 C.ar  1 <1>  -0.1500 
 21 C       -9.0760    -8.8660     0.6490 C.ar  1 <1>   0.1600 
 22 C       -9.9450    -6.6930     1.0900 C.ar  1 <1>  -0.1500 
 23 C      -10.0880    -8.0620     1.1420 C.ar  1 <1>  -0.1500 
 24 H       -2.4080    -0.1890    -0.5740 H     1 <1>   0.0800 
 25 H       -2.2840    -0.3290     1.1910 H     1 <1>   0.0800 
 26 H        1.7320     1.0680     0.0540 H     1 <1>   0.1500 
 27 H       -2.4340     1.9260     0.5180 H     1 <1>   0.1500 
 28 H       -1.0350    -2.4340     0.9310 H     1 <1>   0.0800 
 29 H       -1.1650    -2.3250    -0.8070 H     1 <1>   0.0800 
 30 H        2.2240     3.4750     0.1710 H     1 <1>   0.1500 
 31 H       -1.9280     4.3000     0.6310 H     1 <1>   0.1500 
 32 H       -3.4890    -2.5470     1.0120 H     1 <1>   0.4500 
 33 H        0.3900     5.0900     0.4590 H     1 <1>   0.1500 
 34 H       -2.0760    -4.4840     1.1990 H     1 <1>   0.0800 
 35 H       -2.2140    -4.7020    -0.5300 H     1 <1>   0.0800 
 36 H       -3.3440    -2.9620    -1.9070 H     1 <1>   0.0800 
 37 H       -3.9870    -1.5300    -1.1360 H     1 <1>   0.0800 
 38 H       -4.4720    -4.7430     1.4820 H     1 <1>   0.0800 
 39 H       -3.8310    -6.1060     0.6100 H     1 <1>   0.0800 
 40 H       -5.7670    -3.1290    -1.7250 H     1 <1>   0.0800 
 41 H       -5.6970    -2.8310    -0.0110 H     1 <1>   0.0800 
 42 H       -4.6900    -5.2630    -1.5100 H     1 <1>   0.0800 
 43 H       -5.7050    -7.2070    -0.1730 H     1 <1>   0.0800 
 44 H       -6.5660    -6.7030    -1.6160 H     1 <1>   0.0800 
 45 H       -8.6190    -5.1510     0.4740 H     1 <1>   0.1500 
 46 H       -9.2000    -9.9350     0.6940 H     1 <1>   0.1500 
 47 H      -10.7080    -6.0310     1.4620 H     1 <1>   0.1500 
 48 H      -10.9740    -8.5040     1.5600 H     1 <1>   0.1500 
@<TRIPOS>BOND
  1   1   2  1   
  2   1   3  1   
  3   2   4  ar  
  4   2   5  ar  
  5   3   6  1   
  6   3  24  1   
  7   3  25  1   
  8   4   7  ar  
  9   4  26  1   
 10   5   8  ar  
 11   5  27  1   
 12   6   9  1   
 13   6  28  1   
 14   6  29  1   
 15   7  10  ar  
 16   7  30  1   
 17   8  10  ar  
 18   8  31  1   
 19   9  11  1   
 20   9  12  1   
 21   9  32  1   
 22  10  33  1   
 23  11  13  1   
 24  11  34  1   
 25  11  35  1   
 26  12  14  1   
 27  12  36  1   
 28  12  37  1   
 29  13  15  1   
 30  13  38  1   
 31  13  39  1   
 32  14  15  1   
 33  14  40  1   
 34  14  41  1   
 35  15  16  1   
 36  15  42  1   
 37  16  17  1   
 38  17  18  1   
 39  17  43  1   
 40  17  44  1   
 41  18  19  ar  
 42  18  20  ar  
 43  19  21  ar  
 44  20  22  ar  
 45  20  45  1   
 46  21  23  ar  
 47  21  46  1   
 48  22  23  ar  
 49  22  47  1   
 50  23  48  1   
@<TRIPOS>SUBSTRUCTURE
  1 ****   9 GROUP 4 **** **** 0

# MOE 2024.06 (io_trps.svl 2023.06)
