@<TRIPOS>MOLECULE
NONAME
46 49 1 0 0 
SMALL
USER_CHARGES


@<TRIPOS>ATOM
  1 O       -2.3030     0.9610    -1.7150 O.2   1 <1>  -0.5700 
  2 C       -1.8780     0.8950    -0.5770 C.2   1 <1>   0.5440 
  3 N       -1.8430    -0.3340     0.0190 N.am  1 <1>  -0.7300 
  4 C       -1.4360     2.0680     0.1480 C.ar  1 <1>   0.0860 
  5 C       -2.2990    -1.5930    -0.6100 C.3   1 <1>   0.2200 
  6 C       -0.7360     3.1100    -0.4950 C.ar  1 <1>   0.0000 
  7 C       -1.6730     2.2170     1.5090 C.ar  1 <1>  -0.1500 
  8 C       -3.7260    -1.8740    -0.1740 C.3   1 <1>  -0.0800 
  9 C       -1.5480    -2.7760    -0.0070 C.3   1 <1>   0.1200 
 10 C       -0.2960     4.2230     0.2200 C.ar  1 <1>  -0.1520 
 11 C       -0.3200     3.3180    -1.8280 C.2   1 <1>  -0.1500 
 12 C       -1.2340     3.3340     2.2230 C.ar  1 <1>  -0.1500 
 13 C       -3.5190    -2.5710     1.1740 C.3   1 <1>   0.1200 
 14 C       -4.4610    -2.7680    -1.1900 C.3   1 <1>  -0.0160 
 15 O       -2.2310    -3.1190     1.1630 O.3   1 <1>  -0.5600 
 16 N        0.3590     5.0700    -0.6440 N.pl3 1 <1>   0.0480 
 17 C       -0.5440     4.3390     1.5880 C.ar  1 <1>  -0.1500 
 18 C        0.3340     4.5020    -1.8820 C.2   1 <1>  -0.3020 
 19 C       -5.9040    -3.0080    -0.7730 C.ar  1 <1>  -0.1440 
 20 C        0.9710     6.3620    -0.2970 C.3   1 <1>   0.0160 
 21 C       -6.3290    -4.2140    -0.2540 C.ar  1 <1>  -0.1500 
 22 C       -6.8640    -2.0240    -0.8950 C.ar  1 <1>  -0.1500 
 23 C       -7.6560    -4.3720     0.1130 C.ar  1 <1>   0.1600 
 24 C       -8.1660    -2.2850    -0.4980 C.ar  1 <1>   0.1600 
 25 N       -8.5840    -3.4350     0.0050 N.ar  1 <1>  -0.6200 
 26 H       -1.4790    -0.4350     0.9680 H     1 <1>   0.3700 
 27 H       -2.1830    -1.5380    -1.6800 H     1 <1>   0.0800 
 28 H       -2.2170     1.4570     2.0410 H     1 <1>   0.1500 
 29 H       -4.2810    -0.9600    -0.0550 H     1 <1>   0.0800 
 30 H       -0.5240    -2.5430     0.2240 H     1 <1>   0.0800 
 31 H       -1.5880    -3.6240    -0.6670 H     1 <1>   0.0800 
 32 H       -0.5150     2.6300    -2.6330 H     1 <1>   0.1500 
 33 H       -1.4410     3.4030     3.2770 H     1 <1>   0.1500 
 34 H       -4.2310    -3.3550     1.3610 H     1 <1>   0.0800 
 35 H       -3.5580    -1.8560     1.9780 H     1 <1>   0.0800 
 36 H       -3.9530    -3.7100    -1.2980 H     1 <1>   0.0800 
 37 H       -4.4590    -2.2860    -2.1530 H     1 <1>   0.0800 
 38 H       -0.2020     5.2030     2.1290 H     1 <1>   0.1500 
 39 H        0.7830     4.9740    -2.7390 H     1 <1>   0.1500 
 40 H        1.4080     6.8010    -1.1750 H     1 <1>   0.0800 
 41 H        1.7330     6.2060     0.4440 H     1 <1>   0.0800 
 42 H        0.2140     7.0170     0.0930 H     1 <1>   0.0800 
 43 H       -5.6440    -5.0330    -0.1300 H     1 <1>   0.1500 
 44 H       -6.6130    -1.0580    -1.2940 H     1 <1>   0.1500 
 45 H       -7.9690    -5.3190     0.5160 H     1 <1>   0.1500 
 46 H       -8.9010    -1.5050    -0.6000 H     1 <1>   0.1500 
@<TRIPOS>BOND
  1   1   2  2   
  2   2   3  am  
  3   2   4  1   
  4   3   5  1   
  5   3  26  1   
  6   4   6  ar  
  7   4   7  ar  
  8   5   8  1   
  9   5   9  1   
 10   5  27  1   
 11   6  10  ar  
 12   6  11  1   
 13   7  12  ar  
 14   7  28  1   
 15   8  13  1   
 16   8  14  1   
 17   8  29  1   
 18   9  15  1   
 19   9  30  1   
 20   9  31  1   
 21  10  16  1   
 22  10  17  ar  
 23  11  18  2   
 24  11  32  1   
 25  12  17  ar  
 26  12  33  1   
 27  13  15  1   
 28  13  34  1   
 29  13  35  1   
 30  14  19  1   
 31  14  36  1   
 32  14  37  1   
 33  16  18  1   
 34  16  20  1   
 35  17  38  1   
 36  18  39  1   
 37  19  21  ar  
 38  19  22  ar  
 39  20  40  1   
 40  20  41  1   
 41  20  42  1   
 42  21  23  ar  
 43  21  43  1   
 44  22  24  ar  
 45  22  44  1   
 46  23  25  ar  
 47  23  45  1   
 48  24  25  ar  
 49  24  46  1   
@<TRIPOS>SUBSTRUCTURE
  1 ****   3 GROUP 4 **** **** 0

# MOE 2024.06 (io_trps.svl 2023.06)
