@<TRIPOS>MOLECULE
NONAME
57 59 1 0 0 
SMALL
USER_CHARGES


@<TRIPOS>ATOM
  1 O       -1.4210     0.5490    -1.9540 O.2   1 <1>  -0.5700 
  2 C       -2.0750     0.9430    -1.0040 C.2   1 <1>   0.7160 
  3 N       -2.9490     0.0360    -0.4180 N.am  1 <1>  -0.6600 
  4 C       -1.9080     2.3270    -0.5570 C.2   1 <1>   0.2030 
  5 C       -3.0130    -1.3490    -1.0050 C.3   1 <1>   0.3210 
  6 C       -3.4910     0.2330     0.9700 C.3   1 <1>   0.1400 
  7 N       -2.7450     3.0570     0.1690 N.2   1 <1>  -0.7070 
  8 C       -0.7820     3.0890    -0.8820 C.2   1 <1>  -0.1500 
  9 C       -4.1680    -2.2130    -0.4900 C.2   1 <1>   0.0460 
 10 C       -4.8260     1.0150     1.0420 C.3   1 <1>   0.3430 
 11 N       -2.1390     4.2510     0.3010 N.pl3 1 <1>   0.3000 
 12 C       -0.9460     4.3120    -0.3270 C.2   1 <1>  -0.2050 
 13 N       -5.4500    -1.9650    -0.8420 N.2   1 <1>  -0.5650 
 14 C       -4.0970    -3.3000     0.3150 C.2   1 <1>  -0.3320 
 15 N       -5.7240     0.8070    -0.1370 N.4   1 <1>  -0.9590 
 16 C       -0.0910     5.4720    -0.3400 C.ar  1 <1>   0.0530 
 17 C       -6.1190    -2.9140    -0.2720 C.2   1 <1>   0.0360 
 18 N       -5.3560    -3.7570     0.4510 N.pl3 1 <1>   0.0330 
 19 C       -2.9130    -3.9900     0.9750 C.3   1 <1>  -0.0600 
 20 C       -5.4400     1.7860    -1.2280 C.3   1 <1>   0.2630 
 21 C       -7.1630     0.8180     0.2380 C.3   1 <1>   0.2630 
 22 C        1.2910     5.3310    -0.2720 C.ar  1 <1>  -0.1500 
 23 C       -0.6070     6.7640    -0.4170 C.ar  1 <1>  -0.1500 
 24 C        2.1270     6.4330    -0.2720 C.ar  1 <1>  -0.1500 
 25 C        0.2250     7.8690    -0.4160 C.ar  1 <1>  -0.1500 
 26 C        1.5990     7.7110    -0.3430 C.ar  1 <1>  -0.1440 
 27 C        2.5160     8.9240    -0.3430 C.3   1 <1>  -0.0170 
 28 C        2.7710     9.4060     1.0870 C.3   1 <1>  -0.2400 
 29 H       -2.0820    -1.8470    -0.8050 H     1 <1>   0.0800 
 30 H       -3.1100    -1.2770    -2.0750 H     1 <1>   0.0800 
 31 H       -2.7620     0.7560     1.5640 H     1 <1>   0.0800 
 32 H       -3.6270    -0.7210     1.4490 H     1 <1>   0.0800 
 33 H        0.0480     2.7410    -1.4740 H     1 <1>   0.1500 
 34 H       -4.6160     2.0650     1.1480 H     1 <1>   0.0800 
 35 H       -5.3340     0.7070     1.9400 H     1 <1>   0.0800 
 36 H       -2.5380     5.0310     0.8390 H     1 <1>   0.2700 
 37 H       -5.4990    -0.1470    -0.5050 H     1 <1>   0.4500 
 38 H       -7.1850    -3.0470    -0.3550 H     1 <1>   0.1500 
 39 H       -5.6680    -4.5840     0.9720 H     1 <1>   0.2700 
 40 H       -1.9980    -3.4620     0.7790 H     1 <1>   0.0800 
 41 H       -2.8120    -4.9920     0.5980 H     1 <1>   0.0800 
 42 H       -3.0540    -4.0340     2.0410 H     1 <1>   0.0800 
 43 H       -5.6050     2.7930    -0.8810 H     1 <1>   0.0800 
 44 H       -6.0790     1.5960    -2.0740 H     1 <1>   0.0800 
 45 H       -4.4170     1.7020    -1.5500 H     1 <1>   0.0800 
 46 H       -7.4400     1.7820     0.6330 H     1 <1>   0.0800 
 47 H       -7.3560     0.0640     0.9830 H     1 <1>   0.0800 
 48 H       -7.7710     0.6070    -0.6260 H     1 <1>   0.0800 
 49 H        1.7180     4.3460    -0.2140 H     1 <1>   0.1500 
 50 H       -1.6680     6.9150    -0.4890 H     1 <1>   0.1500 
 51 H        3.1920     6.2920    -0.2150 H     1 <1>   0.1500 
 52 H       -0.1990     8.8560    -0.4740 H     1 <1>   0.1500 
 53 H        2.0690     9.7170    -0.9170 H     1 <1>   0.0800 
 54 H        3.4520     8.6720    -0.8110 H     1 <1>   0.0800 
 55 H        1.8430     9.6790     1.5570 H     1 <1>   0.0800 
 56 H        3.4210    10.2620     1.0800 H     1 <1>   0.0800 
 57 H        3.2330     8.6250     1.6650 H     1 <1>   0.0800 
@<TRIPOS>BOND
  1   1   2  2   
  2   2   3  am  
  3   2   4  1   
  4   3   5  1   
  5   3   6  1   
  6   4   7  2   
  7   4   8  1   
  8   5   9  1   
  9   5  29  1   
 10   5  30  1   
 11   6  10  1   
 12   6  31  1   
 13   6  32  1   
 14   7  11  1   
 15   8  12  2   
 16   8  33  1   
 17   9  13  1   
 18   9  14  2   
 19  10  15  1   
 20  10  34  1   
 21  10  35  1   
 22  11  12  1   
 23  11  36  1   
 24  12  16  1   
 25  13  17  2   
 26  14  18  1   
 27  14  19  1   
 28  15  20  1   
 29  15  21  1   
 30  15  37  1   
 31  16  22  ar  
 32  16  23  ar  
 33  17  18  1   
 34  17  38  1   
 35  18  39  1   
 36  19  40  1   
 37  19  41  1   
 38  19  42  1   
 39  20  43  1   
 40  20  44  1   
 41  20  45  1   
 42  21  46  1   
 43  21  47  1   
 44  21  48  1   
 45  22  24  ar  
 46  22  49  1   
 47  23  25  ar  
 48  23  50  1   
 49  24  26  ar  
 50  24  51  1   
 51  25  26  ar  
 52  25  52  1   
 53  26  27  1   
 54  27  28  1   
 55  27  53  1   
 56  27  54  1   
 57  28  55  1   
 58  28  56  1   
 59  28  57  1   
@<TRIPOS>SUBSTRUCTURE
  1 ****   4 GROUP 4 **** **** 0

# MOE 2024.06 (io_trps.svl 2023.06)
