@<TRIPOS>MOLECULE
NONAME
43 46 1 0 0 
SMALL
USER_CHARGES


@<TRIPOS>ATOM
  1 S       -0.5030    -0.0730     0.7380 S.3   1 <1>  -0.0800 
  2 C        0.6150     1.1900     0.3500 C.2   1 <1>  -0.1400 
  3 C        0.7920    -1.2270     0.4010 C.2   1 <1>   0.1980 
  4 C        1.7800     0.6670     0.0250 C.2   1 <1>   0.0460 
  5 C        0.5220     2.6810     0.3160 C.3   1 <1>   0.0200 
  6 N        1.9030    -0.7070     0.0450 N.2   1 <1>  -0.5650 
  7 C        0.4700    -2.6960     0.5520 C.3   1 <1>   0.0200 
  8 C        2.7830     1.7290    -0.3180 C.3   1 <1>   0.0210 
  9 C        1.9650     3.0450    -0.1350 C.3   1 <1>  -0.1600 
 10 C       -0.2800    -3.1930    -0.6820 C.3   1 <1>   0.1400 
 11 N       -0.4830    -4.6610    -0.6030 N.am  1 <1>  -0.7300 
 12 C       -1.5740    -5.2540    -0.0570 C.2   1 <1>   0.5690 
 13 O       -2.4680    -4.6170     0.4390 O.2   1 <1>  -0.5700 
 14 C       -1.6700    -6.7630    -0.0700 C.3   1 <1>  -0.0990 
 15 C       -2.9440    -7.2280    -0.7890 C.3   1 <1>   0.0200 
 16 C       -3.0040    -8.7400    -0.8690 C.2   1 <1>   0.2980 
 17 O       -2.1650    -9.3580    -1.6590 O.3   1 <1>  -0.0190 
 18 N       -3.8010    -9.4860    -0.2260 N.2   1 <1>  -0.5650 
 19 N       -2.4520   -10.6120    -1.5050 N.2   1 <1>  -0.4100 
 20 C       -3.4190   -10.6940    -0.6590 C.2   1 <1>   0.5150 
 21 C       -4.0580   -11.9050    -0.1920 C.2   1 <1>   0.1410 
 22 O       -3.6690   -13.1020    -0.6240 O.3   1 <1>  -0.2800 
 23 C       -5.0790   -12.0760     0.6920 C.2   1 <1>  -0.1500 
 24 C       -4.4110   -14.0220    -0.0430 C.2   1 <1>  -0.0100 
 25 C       -5.3080   -13.4510     0.7880 C.2   1 <1>  -0.1500 
 26 H        0.2980     3.0710     1.2940 H     1 <1>   0.0800 
 27 H       -0.2150     3.0020    -0.3990 H     1 <1>   0.0800 
 28 H       -0.1280    -2.8440     1.4330 H     1 <1>   0.0800 
 29 H        1.3930    -3.2370     0.6590 H     1 <1>   0.0800 
 30 H        3.1200     1.6070    -1.3320 H     1 <1>   0.0800 
 31 H        3.6170     1.6820     0.3590 H     1 <1>   0.0800 
 32 H        2.4350     3.6670     0.6060 H     1 <1>   0.0800 
 33 H        1.9310     3.5840    -1.0650 H     1 <1>   0.0800 
 34 H        0.2820    -2.9570    -1.5700 H     1 <1>   0.0800 
 35 H       -1.2350    -2.6980    -0.7460 H     1 <1>   0.0800 
 36 H        0.2760    -5.2320    -0.9810 H     1 <1>   0.3700 
 37 H       -1.6850    -7.1110     0.9460 H     1 <1>   0.0800 
 38 H       -0.8060    -7.1770    -0.5560 H     1 <1>   0.0800 
 39 H       -2.9760    -6.8230    -1.7840 H     1 <1>   0.0800 
 40 H       -3.8090    -6.8700    -0.2560 H     1 <1>   0.0800 
 41 H       -5.6150   -11.3090     1.2220 H     1 <1>   0.1500 
 42 H       -4.2340   -15.0570    -0.2770 H     1 <1>   0.1500 
 43 H       -6.0510   -13.9240     1.4050 H     1 <1>   0.1500 
@<TRIPOS>BOND
  1   1   2  1   
  2   1   3  1   
  3   2   4  2   
  4   2   5  1   
  5   3   6  2   
  6   3   7  1   
  7   4   6  1   
  8   4   8  1   
  9   5   9  1   
 10   5  26  1   
 11   5  27  1   
 12   7  10  1   
 13   7  28  1   
 14   7  29  1   
 15   8   9  1   
 16   8  30  1   
 17   8  31  1   
 18   9  32  1   
 19   9  33  1   
 20  10  11  1   
 21  10  34  1   
 22  10  35  1   
 23  11  12  am  
 24  11  36  1   
 25  12  13  2   
 26  12  14  1   
 27  14  15  1   
 28  14  37  1   
 29  14  38  1   
 30  15  16  1   
 31  15  39  1   
 32  15  40  1   
 33  16  17  1   
 34  16  18  2   
 35  17  19  1   
 36  18  20  1   
 37  19  20  2   
 38  20  21  1   
 39  21  22  1   
 40  21  23  2   
 41  22  24  1   
 42  23  25  1   
 43  23  41  1   
 44  24  25  2   
 45  24  42  1   
 46  25  43  1   
@<TRIPOS>SUBSTRUCTURE
  1 ****  12 GROUP 4 **** **** 0

# MOE 2024.06 (io_trps.svl 2023.06)
