@<TRIPOS>MOLECULE
NONAME
50 53 1 0 0 
SMALL
USER_CHARGES


@<TRIPOS>ATOM
  1 CL      -1.6980     0.5400    -0.6910 Cl    1 <1>  -0.1770 
  2 C       -2.4330    -1.0210    -0.4340 C.ar  1 <1>   0.1770 
  3 C       -3.8080    -1.1160    -0.3330 C.ar  1 <1>  -0.1500 
  4 C       -1.6320    -2.1420    -0.3370 C.ar  1 <1>  -0.1500 
  5 C       -4.3880    -2.3560    -0.1290 C.ar  1 <1>  -0.1500 
  6 C       -2.2220    -3.3770    -0.1310 C.ar  1 <1>  -0.1500 
  7 C       -3.6050    -3.5060    -0.0200 C.ar  1 <1>   0.0530 
  8 C       -4.2000    -4.7990     0.1980 C.2   1 <1>  -0.2050 
  9 N       -5.2380    -5.0340     1.0290 N.pl3 1 <1>   0.3000 
 10 C       -3.8940    -6.0100    -0.3250 C.2   1 <1>  -0.1500 
 11 N       -5.6160    -6.3180     1.0450 N.2   1 <1>  -0.7070 
 12 C       -4.7950    -6.9360     0.2090 C.2   1 <1>   0.2030 
 13 C       -4.7630    -8.3540    -0.1560 C.2   1 <1>   0.7160 
 14 O       -3.6700    -8.8560    -0.3770 O.2   1 <1>  -0.5700 
 15 N       -5.8770    -9.1810    -0.3030 N.am  1 <1>  -0.6600 
 16 C       -7.2720    -8.7620    -0.6330 C.3   1 <1>   0.2200 
 17 C       -5.7090   -10.6630    -0.2530 C.3   1 <1>   0.0600 
 18 C       -8.0660    -8.4000     0.6170 C.3   1 <1>  -0.1600 
 19 C       -7.3900    -7.5970    -1.6200 C.3   1 <1>  -0.1600 
 20 C       -9.0450    -7.2880     0.2120 C.3   1 <1>  -0.0800 
 21 C       -8.6150    -6.7820    -1.1840 C.3   1 <1>  -0.0800 
 22 C       -9.1520    -6.1970     1.2940 C.3   1 <1>   0.1400 
 23 C       -8.3590    -5.2640    -1.2450 C.3   1 <1>  -0.0990 
 24 N       -9.7950    -4.9790     0.7410 N.am  1 <1>  -0.6600 
 25 C       -9.4140    -4.4930    -0.4780 C.2   1 <1>   0.5690 
 26 C      -10.8140    -4.3110     1.5930 C.3   1 <1>   0.0600 
 27 O       -9.8600    -3.4780    -0.9570 O.2   1 <1>  -0.5700 
 28 H       -4.4110    -0.2290    -0.4180 H     1 <1>   0.1500 
 29 H       -0.5640    -2.0460    -0.4200 H     1 <1>   0.1500 
 30 H       -5.4590    -2.4290    -0.0650 H     1 <1>   0.1500 
 31 H       -1.6060    -4.2560    -0.0520 H     1 <1>   0.1500 
 32 H       -5.6920    -4.3160     1.6060 H     1 <1>   0.2700 
 33 H       -3.1150    -6.2530    -1.0260 H     1 <1>   0.1500 
 34 H       -7.7780    -9.5940    -1.0950 H     1 <1>   0.0800 
 35 H       -6.5090   -11.1050     0.3130 H     1 <1>   0.0800 
 36 H       -4.7770   -10.9270     0.2190 H     1 <1>   0.0800 
 37 H       -5.7150   -11.0620    -1.2530 H     1 <1>   0.0800 
 38 H       -8.6000    -9.2590     0.9820 H     1 <1>   0.0800 
 39 H       -7.4050    -8.0660     1.3940 H     1 <1>   0.0800 
 40 H       -6.5170    -6.9790    -1.6270 H     1 <1>   0.0800 
 41 H       -7.5300    -7.9750    -2.6170 H     1 <1>   0.0800 
 42 H      -10.0210    -7.7300     0.1080 H     1 <1>   0.0800 
 43 H       -9.4250    -7.0000    -1.8620 H     1 <1>   0.0800 
 44 H       -8.1710    -5.9290     1.6470 H     1 <1>   0.0800 
 45 H       -9.7180    -6.5720     2.1290 H     1 <1>   0.0800 
 46 H       -8.3470    -4.9340    -2.2680 H     1 <1>   0.0800 
 47 H       -7.4090    -5.0260    -0.8080 H     1 <1>   0.0800 
 48 H      -11.6330    -4.9840     1.7740 H     1 <1>   0.0800 
 49 H      -11.1940    -3.4290     1.1060 H     1 <1>   0.0800 
 50 H      -10.3720    -4.0250     2.5310 H     1 <1>   0.0800 
@<TRIPOS>BOND
  1   1   2  1   
  2   2   3  ar  
  3   2   4  ar  
  4   3   5  ar  
  5   3  28  1   
  6   4   6  ar  
  7   4  29  1   
  8   5   7  ar  
  9   5  30  1   
 10   6   7  ar  
 11   6  31  1   
 12   7   8  1   
 13   8   9  1   
 14   8  10  2   
 15   9  11  1   
 16   9  32  1   
 17  10  12  1   
 18  10  33  1   
 19  11  12  2   
 20  12  13  1   
 21  13  14  2   
 22  13  15  am  
 23  15  16  1   
 24  15  17  1   
 25  16  18  1   
 26  16  19  1   
 27  16  34  1   
 28  17  35  1   
 29  17  36  1   
 30  17  37  1   
 31  18  20  1   
 32  18  38  1   
 33  18  39  1   
 34  19  21  1   
 35  19  40  1   
 36  19  41  1   
 37  20  21  1   
 38  20  22  1   
 39  20  42  1   
 40  21  23  1   
 41  21  43  1   
 42  22  24  1   
 43  22  44  1   
 44  22  45  1   
 45  23  25  1   
 46  23  46  1   
 47  23  47  1   
 48  24  25  am  
 49  24  26  1   
 50  25  27  2   
 51  26  48  1   
 52  26  49  1   
 53  26  50  1   
@<TRIPOS>SUBSTRUCTURE
  1 ****   9 GROUP 4 **** **** 0

# MOE 2024.06 (io_trps.svl 2023.06)
