@<TRIPOS>MOLECULE
NONAME
53 55 1 0 0 
SMALL
USER_CHARGES


@<TRIPOS>ATOM
  1 O       -1.3080     0.4480    -2.5190 O.2   1 <1>  -0.5700 
  2 C       -1.1450     0.5730    -1.3300 C.2   1 <1>   0.5690 
  3 N       -2.1480     0.2330    -0.4630 N.am  1 <1>  -0.6600 
  4 C        0.2130     1.0730    -0.8590 C.3   1 <1>  -0.0990 
  5 C       -3.1170    -0.8230    -0.9310 C.3   1 <1>   0.3210 
  6 C       -2.4040     0.9460     0.8370 C.3   1 <1>   0.1400 
  7 C        0.5640     2.4770    -1.3750 C.3   1 <1>  -0.0170 
  8 C       -4.1100    -1.3140     0.1240 C.2   1 <1>   0.0460 
  9 C       -3.2130     2.2530     0.6730 C.3   1 <1>   0.3430 
 10 C       -0.3780     3.5460    -0.8430 C.ar  1 <1>  -0.1440 
 11 N       -5.2290    -0.6130     0.4210 N.2   1 <1>  -0.5650 
 12 C       -4.0470    -2.4480     0.8620 C.2   1 <1>  -0.3320 
 13 N       -4.4620     2.1110    -0.1400 N.4   1 <1>  -0.9590 
 14 C       -0.3020     3.9390     0.4900 C.ar  1 <1>  -0.1500 
 15 C       -1.3020     4.1480    -1.6970 C.ar  1 <1>  -0.1500 
 16 C       -5.8220    -1.3400     1.3130 C.2   1 <1>   0.0360 
 17 N       -5.1540    -2.4680     1.6260 N.pl3 1 <1>   0.0330 
 18 C       -3.0070    -3.5570     0.9080 C.3   1 <1>  -0.0600 
 19 C       -4.2080     2.3380    -1.5940 C.3   1 <1>   0.2630 
 20 C       -5.5390     3.0120     0.3540 C.3   1 <1>   0.2630 
 21 C       -1.1750     4.9130     0.9320 C.ar  1 <1>   0.0820 
 22 C       -2.1650     5.1360    -1.2360 C.ar  1 <1>  -0.1500 
 23 O       -1.2960     5.4220     2.1610 O.3   1 <1>  -0.3630 
 24 C       -2.0830     5.4920     0.0950 C.ar  1 <1>   0.0820 
 25 C       -2.2670     6.4650     2.0770 C.3   1 <1>   0.4000 
 26 O       -2.8170     6.3870     0.7620 O.3   1 <1>  -0.3620 
 27 H        0.9460     0.3880    -1.2450 H     1 <1>   0.0800 
 28 H        0.2980     1.0400     0.2080 H     1 <1>   0.0800 
 29 H       -2.5500    -1.6650    -1.2860 H     1 <1>   0.0800 
 30 H       -3.6720    -0.4500    -1.7720 H     1 <1>   0.0800 
 31 H       -1.4720     1.1980     1.3060 H     1 <1>   0.0800 
 32 H       -2.9090     0.3000     1.5310 H     1 <1>   0.0800 
 33 H        0.5470     2.4720    -2.4510 H     1 <1>   0.0800 
 34 H        1.5690     2.7200    -1.0760 H     1 <1>   0.0800 
 35 H       -2.5850     2.9930     0.2170 H     1 <1>   0.0800 
 36 H       -3.4640     2.6090     1.6580 H     1 <1>   0.0800 
 37 H       -4.7810     1.1230    -0.0160 H     1 <1>   0.4500 
 38 H        0.4140     3.5120     1.1700 H     1 <1>   0.1500 
 39 H       -1.3430     3.8540    -2.7330 H     1 <1>   0.1500 
 40 H       -6.7630    -1.0940     1.7760 H     1 <1>   0.1500 
 41 H       -5.4380    -3.1910     2.2960 H     1 <1>   0.2700 
 42 H       -2.1790    -3.3350     0.2600 H     1 <1>   0.0800 
 43 H       -3.4440    -4.4880     0.5930 H     1 <1>   0.0800 
 44 H       -2.6300    -3.6720     1.9090 H     1 <1>   0.0800 
 45 H       -3.9330     3.3640    -1.7700 H     1 <1>   0.0800 
 46 H       -5.0940     2.1130    -2.1660 H     1 <1>   0.0800 
 47 H       -3.4080     1.7070    -1.9440 H     1 <1>   0.0800 
 48 H       -5.2340     4.0430     0.2640 H     1 <1>   0.0800 
 49 H       -5.7540     2.8000     1.3880 H     1 <1>   0.0800 
 50 H       -6.4390     2.8630    -0.2200 H     1 <1>   0.0800 
 51 H       -2.8700     5.6210    -1.8870 H     1 <1>   0.1500 
 52 H       -1.7830     7.4170     2.2080 H     1 <1>   0.0800 
 53 H       -3.0390     6.3080     2.8100 H     1 <1>   0.0800 
@<TRIPOS>BOND
  1   1   2  2   
  2   2   3  am  
  3   2   4  1   
  4   3   5  1   
  5   3   6  1   
  6   4   7  1   
  7   4  27  1   
  8   4  28  1   
  9   5   8  1   
 10   5  29  1   
 11   5  30  1   
 12   6   9  1   
 13   6  31  1   
 14   6  32  1   
 15   7  10  1   
 16   7  33  1   
 17   7  34  1   
 18   8  11  1   
 19   8  12  2   
 20   9  13  1   
 21   9  35  1   
 22   9  36  1   
 23  10  14  ar  
 24  10  15  ar  
 25  11  16  2   
 26  12  17  1   
 27  12  18  1   
 28  13  19  1   
 29  13  20  1   
 30  13  37  1   
 31  14  21  ar  
 32  14  38  1   
 33  15  22  ar  
 34  15  39  1   
 35  16  17  1   
 36  16  40  1   
 37  17  41  1   
 38  18  42  1   
 39  18  43  1   
 40  18  44  1   
 41  19  45  1   
 42  19  46  1   
 43  19  47  1   
 44  20  48  1   
 45  20  49  1   
 46  20  50  1   
 47  21  23  1   
 48  21  24  ar  
 49  22  24  ar  
 50  22  51  1   
 51  23  25  1   
 52  24  26  1   
 53  25  26  1   
 54  25  52  1   
 55  25  53  1   
@<TRIPOS>SUBSTRUCTURE
  1 ****   9 GROUP 4 **** **** 0

# MOE 2024.06 (io_trps.svl 2023.06)
