@<TRIPOS>MOLECULE
NONAME
49 51 1 0 0 
SMALL
USER_CHARGES


@<TRIPOS>ATOM
  1 F       -0.3560     0.9720     0.9540 F     1 <1>  -0.3400 
  2 C       -1.3740     1.6900     0.4950 C.3   1 <1>   1.1640 
  3 F       -1.6810     2.5540     1.4560 F     1 <1>  -0.3400 
  4 F       -0.8980     2.4110    -0.5120 F     1 <1>  -0.3400 
  5 C       -2.5690     0.8260     0.0640 C.ar  1 <1>  -0.1440 
  6 C       -3.8750     1.2860     0.2040 C.ar  1 <1>  -0.1500 
  7 C       -2.3660    -0.4370    -0.4840 C.ar  1 <1>  -0.1500 
  8 C       -4.9670     0.5180    -0.1820 C.ar  1 <1>   0.1170 
  9 C       -3.4420    -1.2140    -0.8760 C.ar  1 <1>  -0.1500 
 10 N       -6.2560     1.0460    -0.0280 N.am  1 <1>  -0.5470 
 11 C       -4.7300    -0.7390    -0.7260 C.ar  1 <1>  -0.1500 
 12 C       -7.4720     0.4350     0.0970 C.2   1 <1>   0.6900 
 13 O       -7.5600    -0.7680     0.2530 O.2   1 <1>  -0.5700 
 14 N       -8.6020     1.2130     0.0730 N.am  1 <1>  -0.6600 
 15 C       -9.9040     0.6310     0.5130 C.3   1 <1>   0.1400 
 16 C       -8.6450     2.5670    -0.5540 C.3   1 <1>   0.1400 
 17 C      -10.8640     1.7360     0.9590 C.3   1 <1>  -0.1600 
 18 C      -10.0130     2.7980    -1.1950 C.3   1 <1>  -0.1600 
 19 C      -11.1370     2.7970    -0.1370 C.3   1 <1>   0.2800 
 20 O      -11.1050     4.0320     0.5380 O.3   1 <1>  -0.5600 
 21 C      -12.5220     2.5810    -0.8000 C.3   1 <1>  -0.1600 
 22 C      -11.7370     5.1310    -0.0570 C.3   1 <1>   0.1200 
 23 C      -13.6300     3.4110    -0.1450 C.3   1 <1>   0.2800 
 24 C      -13.2510     4.8950    -0.1850 C.3   1 <1>  -0.1600 
 25 O      -13.7070     3.0540     1.1750 O.3   1 <1>  -0.6800 
 26 C      -15.0040     3.1450    -0.7530 C.3   1 <1>  -0.2400 
 27 H       -4.0570     2.2600     0.6240 H     1 <1>   0.1500 
 28 H       -1.3690    -0.8260    -0.6110 H     1 <1>   0.1500 
 29 H       -3.2780    -2.1900    -1.2970 H     1 <1>   0.1500 
 30 H       -6.3120     2.0430     0.1370 H     1 <1>   0.3700 
 31 H       -5.5570    -1.3520    -1.0380 H     1 <1>   0.1500 
 32 H       -9.7350    -0.0510     1.3300 H     1 <1>   0.0800 
 33 H      -10.3320     0.0720    -0.3020 H     1 <1>   0.0800 
 34 H       -7.8840     2.6450    -1.3110 H     1 <1>   0.0800 
 35 H       -8.4670     3.3150     0.2000 H     1 <1>   0.0800 
 36 H      -10.4270     2.2060     1.8230 H     1 <1>   0.0800 
 37 H      -11.7800     1.2750     1.2800 H     1 <1>   0.0800 
 38 H      -10.1800     2.0100    -1.9070 H     1 <1>   0.0800 
 39 H      -10.0050     3.7190    -1.7440 H     1 <1>   0.0800 
 40 H      -12.7850     1.5380    -0.7970 H     1 <1>   0.0800 
 41 H      -12.4670     2.8700    -1.8340 H     1 <1>   0.0800 
 42 H      -11.2970     5.3010    -1.0230 H     1 <1>   0.0800 
 43 H      -11.5460     5.9930     0.5590 H     1 <1>   0.0800 
 44 H      -13.5620     5.3180    -1.1230 H     1 <1>   0.0800 
 45 H      -13.7770     5.4300     0.5850 H     1 <1>   0.0800 
 46 H      -12.8510     3.3030     1.5830 H     1 <1>   0.4000 
 47 H      -15.0070     3.4000    -1.7970 H     1 <1>   0.0800 
 48 H      -15.7510     3.7370    -0.2550 H     1 <1>   0.0800 
 49 H      -15.2580     2.1050    -0.6560 H     1 <1>   0.0800 
@<TRIPOS>BOND
  1   1   2  1   
  2   2   3  1   
  3   2   4  1   
  4   2   5  1   
  5   5   6  ar  
  6   5   7  ar  
  7   6   8  ar  
  8   6  27  1   
  9   7   9  ar  
 10   7  28  1   
 11   8  10  1   
 12   8  11  ar  
 13   9  11  ar  
 14   9  29  1   
 15  10  12  am  
 16  10  30  1   
 17  11  31  1   
 18  12  13  2   
 19  12  14  am  
 20  14  15  1   
 21  14  16  1   
 22  15  17  1   
 23  15  32  1   
 24  15  33  1   
 25  16  18  1   
 26  16  34  1   
 27  16  35  1   
 28  17  19  1   
 29  17  36  1   
 30  17  37  1   
 31  18  19  1   
 32  18  38  1   
 33  18  39  1   
 34  19  20  1   
 35  19  21  1   
 36  20  22  1   
 37  21  23  1   
 38  21  40  1   
 39  21  41  1   
 40  22  24  1   
 41  22  42  1   
 42  22  43  1   
 43  23  24  1   
 44  23  25  1   
 45  23  26  1   
 46  24  44  1   
 47  24  45  1   
 48  25  46  1   
 49  26  47  1   
 50  26  48  1   
 51  26  49  1   
@<TRIPOS>SUBSTRUCTURE
  1 ****  14 GROUP 4 **** **** 0

# MOE 2024.06 (io_trps.svl 2023.06)
