@<TRIPOS>MOLECULE
NONAME
54 57 1 0 0 
SMALL
USER_CHARGES


@<TRIPOS>ATOM
  1 CL      -2.6920    -0.3080     1.1050 Cl    1 <1>  -0.1770 
  2 C       -1.7660     1.1650     0.9390 C.ar  1 <1>   0.1770 
  3 C       -2.3880     2.3970     1.0910 C.ar  1 <1>  -0.1440 
  4 C       -0.4200     1.0600     0.6470 C.ar  1 <1>  -0.1500 
  5 C       -1.6270     3.5570     0.9570 C.ar  1 <1>  -0.1440 
  6 C       -3.8720     2.4430     1.4010 C.3   1 <1>   0.4870 
  7 C        0.3280     2.2130     0.5030 C.ar  1 <1>  -0.1500 
  8 C       -0.2750     3.4490     0.6590 C.ar  1 <1>  -0.1500 
  9 C       -2.2180     4.9500     1.1390 C.3   1 <1>  -0.0970 
 10 N       -4.6100     2.7510     0.1460 N.4   1 <1>  -0.9590 
 11 C       -6.0070     3.2100     0.4470 C.3   1 <1>   0.3430 
 12 C       -4.6100     1.5850    -0.7880 C.3   1 <1>   0.3430 
 13 C       -6.7650     3.6280    -0.8260 C.3   1 <1>   0.1430 
 14 C       -5.3070     1.9630    -2.0980 C.3   1 <1>  -0.1600 
 15 C       -8.1880     3.9470    -0.4390 C.ar  1 <1>   0.1670 
 16 C       -6.7340     2.4890    -1.8650 C.3   1 <1>  -0.1600 
 17 C       -6.2720     4.9760    -1.4210 C.3   1 <1>  -0.1600 
 18 N       -8.9250     3.1970     0.3370 N.ar  1 <1>  -0.6200 
 19 C       -8.6090     5.1250    -0.9730 C.ar  1 <1>  -0.1430 
 20 C       -7.5340     5.7730    -1.8090 C.3   1 <1>  -0.0170 
 21 C      -10.1540     3.6680     0.5700 C.ar  1 <1>   0.7200 
 22 C       -9.8860     5.5310    -0.6790 C.ar  1 <1>   0.1600 
 23 N      -10.6630     4.8090     0.0940 N.ar  1 <1>  -0.6200 
 24 N      -10.9660     2.9100     1.3860 N.pl3 1 <1>  -0.8380 
 25 C      -12.2050     3.4730     1.9920 C.3   1 <1>   0.1290 
 26 C      -10.8090     1.4360     1.5200 C.3   1 <1>   0.1290 
 27 H        0.0360     0.0920     0.5340 H     1 <1>   0.1500 
 28 H       -4.0510     3.2130     2.1330 H     1 <1>   0.0800 
 29 H       -4.2070     1.5070     1.8140 H     1 <1>   0.0800 
 30 H        1.3790     2.1500     0.2740 H     1 <1>   0.1500 
 31 H        0.3320     4.3340     0.5490 H     1 <1>   0.1500 
 32 H       -2.7700     5.0130     2.0590 H     1 <1>   0.0800 
 33 H       -2.8620     5.2000     0.3160 H     1 <1>   0.0800 
 34 H       -1.4370     5.6900     1.1820 H     1 <1>   0.0800 
 35 H       -4.0950     3.5100    -0.3150 H     1 <1>   0.4500 
 36 H       -5.9920     4.0420     1.1320 H     1 <1>   0.0800 
 37 H       -6.5560     2.4090     0.9160 H     1 <1>   0.0800 
 38 H       -5.1260     0.7540    -0.3330 H     1 <1>   0.0800 
 39 H       -3.5980     1.2770    -0.9980 H     1 <1>   0.0800 
 40 H       -5.3530     1.0910    -2.7270 H     1 <1>   0.0800 
 41 H       -4.7140     2.6950    -2.6180 H     1 <1>   0.0800 
 42 H       -7.1640     2.8220    -2.7950 H     1 <1>   0.0800 
 43 H       -7.3470     1.6770    -1.5070 H     1 <1>   0.0800 
 44 H       -5.6200     4.8510    -2.2680 H     1 <1>   0.0800 
 45 H       -5.7480     5.5360    -0.6660 H     1 <1>   0.0800 
 46 H       -7.7640     5.6450    -2.8530 H     1 <1>   0.0800 
 47 H       -7.4300     6.8210    -1.5850 H     1 <1>   0.0800 
 48 H      -10.2750     6.4530    -1.0760 H     1 <1>   0.1500 
 49 H      -12.0790     4.5220     2.1980 H     1 <1>   0.0800 
 50 H      -12.4260     2.9700     2.9170 H     1 <1>   0.0800 
 51 H      -13.0280     3.3470     1.3110 H     1 <1>   0.0800 
 52 H      -10.1680     1.0460     0.7490 H     1 <1>   0.0800 
 53 H      -11.7680     0.9550     1.4340 H     1 <1>   0.0800 
 54 H      -10.3830     1.2050     2.4800 H     1 <1>   0.0800 
@<TRIPOS>BOND
  1   1   2  1   
  2   2   3  ar  
  3   2   4  ar  
  4   3   5  ar  
  5   3   6  1   
  6   4   7  ar  
  7   4  27  1   
  8   5   8  ar  
  9   5   9  1   
 10   6  10  1   
 11   6  28  1   
 12   6  29  1   
 13   7   8  ar  
 14   7  30  1   
 15   8  31  1   
 16   9  32  1   
 17   9  33  1   
 18   9  34  1   
 19  10  11  1   
 20  10  12  1   
 21  10  35  1   
 22  11  13  1   
 23  11  36  1   
 24  11  37  1   
 25  12  14  1   
 26  12  38  1   
 27  12  39  1   
 28  13  15  1   
 29  13  16  1   
 30  13  17  1   
 31  14  16  1   
 32  14  40  1   
 33  14  41  1   
 34  15  18  ar  
 35  15  19  ar  
 36  16  42  1   
 37  16  43  1   
 38  17  20  1   
 39  17  44  1   
 40  17  45  1   
 41  18  21  ar  
 42  19  20  1   
 43  19  22  ar  
 44  20  46  1   
 45  20  47  1   
 46  21  23  ar  
 47  21  24  1   
 48  22  23  ar  
 49  22  48  1   
 50  24  25  1   
 51  24  26  1   
 52  25  49  1   
 53  25  50  1   
 54  25  51  1   
 55  26  52  1   
 56  26  53  1   
 57  26  54  1   
@<TRIPOS>SUBSTRUCTURE
  1 ****  11 GROUP 4 **** **** 0

# MOE 2024.06 (io_trps.svl 2023.06)
