@<TRIPOS>MOLECULE
NONAME
42 43 1 0 0 
SMALL
USER_CHARGES


@<TRIPOS>ATOM
  1 S        0.2820    -0.4660     1.6380 S.o2  1 <1>   1.4470 
  2 O        0.6900    -1.8180     1.9550 O.2   1 <1>  -0.6500 
  3 O        0.2540     0.5320     2.6860 O.2   1 <1>  -0.6500 
  4 N       -1.2630    -0.5210     0.9480 N.am  1 <1>  -0.8490 
  5 C        1.3020     0.1730     0.2770 C.ar  1 <1>  -0.0090 
  6 C       -1.3840    -1.5750    -0.0790 C.3   1 <1>   0.1960 
  7 C       -2.3120    -0.6970     1.9610 C.3   1 <1>   0.1960 
  8 C        2.3750    -0.5600    -0.2280 C.ar  1 <1>  -0.1500 
  9 C        1.0230     1.4140    -0.2930 C.ar  1 <1>  -0.1500 
 10 C       -2.7420    -1.4740    -0.7970 C.3   1 <1>   0.2000 
 11 C       -3.6950    -0.5620     1.3060 C.3   1 <1>  -0.1600 
 12 C        3.1500    -0.0760    -1.2700 C.ar  1 <1>  -0.1500 
 13 C        1.7850     1.9160    -1.3350 C.ar  1 <1>  -0.1500 
 14 O       -2.8050    -2.4430    -1.7840 O.3   1 <1>  -0.6800 
 15 C       -3.9190    -1.6330     0.2000 C.3   1 <1>  -0.1060 
 16 C        2.8380     1.1580    -1.8050 C.ar  1 <1>   0.1900 
 17 C       -3.8890    -3.0490     0.8220 C.2   1 <1>   0.9060 
 18 C       -5.3070    -1.4420    -0.4770 C.3   1 <1>  -0.1600 
 19 F        3.5610     1.6210    -2.7880 F     1 <1>  -0.1900 
 20 O       -3.5220    -4.0090     0.1270 O.co2 1 <1>  -0.9000 
 21 O       -4.2320    -3.2070     1.9990 O.co2 1 <1>  -0.9000 
 22 C       -5.5340    -0.1200    -1.2330 C.3   1 <1>  -0.1600 
 23 C       -6.9400    -0.0760    -1.8380 C.3   1 <1>  -0.2400 
 24 H       -0.6070    -1.4570    -0.8130 H     1 <1>   0.0800 
 25 H       -1.2810    -2.5470     0.3770 H     1 <1>   0.0800 
 26 H       -2.2110    -1.6600     2.4400 H     1 <1>   0.0800 
 27 H       -2.2160     0.0600     2.7210 H     1 <1>   0.0800 
 28 H        2.6040    -1.5230     0.2000 H     1 <1>   0.1500 
 29 H        0.1940     1.9880     0.0900 H     1 <1>   0.1500 
 30 H       -2.7860    -0.5200    -1.2890 H     1 <1>   0.0800 
 31 H       -4.4500    -0.6660     2.0660 H     1 <1>   0.0800 
 32 H       -3.7720     0.4300     0.9030 H     1 <1>   0.0800 
 33 H        3.9770    -0.6410    -1.6610 H     1 <1>   0.1500 
 34 H        1.5690     2.8740    -1.7750 H     1 <1>   0.1500 
 35 H       -3.0540    -3.2880    -1.2970 H     1 <1>   0.4000 
 36 H       -5.4520    -2.2560    -1.1680 H     1 <1>   0.0800 
 37 H       -6.0630    -1.5460     0.2820 H     1 <1>   0.0800 
 38 H       -5.4190     0.7170    -0.5690 H     1 <1>   0.0800 
 39 H       -4.8150    -0.0250    -2.0290 H     1 <1>   0.0800 
 40 H       -7.6830    -0.1520    -1.0640 H     1 <1>   0.0800 
 41 H       -7.0740    -0.8910    -2.5280 H     1 <1>   0.0800 
 42 H       -7.0870     0.8490    -2.3670 H     1 <1>   0.0800 
@<TRIPOS>BOND
  1   1   2  2   
  2   1   3  2   
  3   1   4  am  
  4   1   5  1   
  5   4   6  1   
  6   4   7  1   
  7   5   8  ar  
  8   5   9  ar  
  9   6  10  1   
 10   6  24  1   
 11   6  25  1   
 12   7  11  1   
 13   7  26  1   
 14   7  27  1   
 15   8  12  ar  
 16   8  28  1   
 17   9  13  ar  
 18   9  29  1   
 19  10  14  1   
 20  10  15  1   
 21  10  30  1   
 22  11  15  1   
 23  11  31  1   
 24  11  32  1   
 25  12  16  ar  
 26  12  33  1   
 27  13  16  ar  
 28  13  34  1   
 29  14  35  1   
 30  15  17  1   
 31  15  18  1   
 32  16  19  1   
 33  17  20  ar  
 34  17  21  ar  
 35  18  22  1   
 36  18  36  1   
 37  18  37  1   
 38  22  23  1   
 39  22  38  1   
 40  22  39  1   
 41  23  40  1   
 42  23  41  1   
 43  23  42  1   
@<TRIPOS>SUBSTRUCTURE
  1 ****   6 GROUP 4 **** **** 0

# MOE 2024.06 (io_trps.svl 2023.06)
