@<TRIPOS>MOLECULE
NONAME
56 58 1 0 0 
SMALL
USER_CHARGES


@<TRIPOS>ATOM
  1 S        0.8650     0.2250    -1.8970 S.o2  1 <1>   1.3330 
  2 O        1.1640    -1.1900    -1.8920 O.2   1 <1>  -0.6500 
  3 O        0.4510     0.8660    -3.1250 O.2   1 <1>  -0.6500 
  4 N       -0.3620     0.5000    -0.7540 N.am  1 <1>  -0.8490 
  5 C        2.2780     1.0970    -1.2190 C.3   1 <1>  -0.0550 
  6 C       -1.3750    -0.5590    -0.7670 C.3   1 <1>   0.1160 
  7 C       -1.0120     1.8070    -0.9050 C.3   1 <1>   0.1160 
  8 C        2.8890     0.4380     0.0380 C.3   1 <1>  -0.0800 
  9 C        4.1580     1.0980     0.5530 C.3   1 <1>   0.2200 
 10 C        1.9890     0.4260     1.2800 C.3   1 <1>   0.1200 
 11 N        4.0150     2.5740     0.5660 N.am  1 <1>  -0.7300 
 12 C        4.1630     0.5980     1.9900 C.3   1 <1>   0.1200 
 13 O        2.8250     0.6280     2.3850 O.3   1 <1>  -0.5600 
 14 C        4.5170     3.4310    -0.3730 C.2   1 <1>   0.5440 
 15 O        5.0930     2.9400    -1.3250 O.2   1 <1>  -0.5700 
 16 C        4.3510     4.8690    -0.2520 C.ar  1 <1>   0.0860 
 17 C        5.0470     5.7460    -1.0890 C.ar  1 <1>  -0.1500 
 18 C        3.4940     5.4520     0.6890 C.ar  1 <1>  -0.1500 
 19 C        4.9010     7.1150    -0.9930 C.ar  1 <1>  -0.1500 
 20 C        3.3460     6.8220     0.7840 C.ar  1 <1>  -0.1500 
 21 C        4.0460     7.6810    -0.0550 C.ar  1 <1>   0.1000 
 22 N        3.8830     9.0550     0.0520 N.pl3 1 <1>  -0.8380 
 23 C        3.7580     9.9270    -1.1450 C.3   1 <1>   0.2090 
 24 C        4.1330     9.7500     1.3410 C.3   1 <1>   0.2090 
 25 C        4.9920    10.8290    -1.2680 C.3   1 <1>  -0.1600 
 26 C        5.3690    10.6470     1.2150 C.3   1 <1>  -0.1600 
 27 C        5.2570    11.6120     0.0250 C.3   1 <1>  -0.1600 
 28 H        3.0420     1.1380    -1.9720 H     1 <1>   0.0800 
 29 H        1.9960     2.1070    -1.0010 H     1 <1>   0.0800 
 30 H       -2.1320    -0.3640    -0.0270 H     1 <1>   0.0800 
 31 H       -0.9200    -1.5090    -0.5390 H     1 <1>   0.0800 
 32 H       -1.8370    -0.6230    -1.7390 H     1 <1>   0.0800 
 33 H       -1.7150     1.9660    -0.1040 H     1 <1>   0.0800 
 34 H       -1.5360     1.8620    -1.8460 H     1 <1>   0.0800 
 35 H       -0.2790     2.5950    -0.8730 H     1 <1>   0.0800 
 36 H        3.1240    -0.5860    -0.2000 H     1 <1>   0.0800 
 37 H        5.0390     0.8010     0.0090 H     1 <1>   0.0800 
 38 H        1.4740    -0.5130     1.3930 H     1 <1>   0.0800 
 39 H        1.2760     1.2320     1.2640 H     1 <1>   0.0800 
 40 H        3.5290     2.9300     1.3910 H     1 <1>   0.3700 
 41 H        4.7520     1.2130     2.6470 H     1 <1>   0.0800 
 42 H        4.5000    -0.4230     2.0390 H     1 <1>   0.0800 
 43 H        5.7170     5.3380    -1.8260 H     1 <1>   0.1500 
 44 H        2.9250     4.8320     1.3560 H     1 <1>   0.1500 
 45 H        5.4600     7.7600    -1.6450 H     1 <1>   0.1500 
 46 H        2.6760     7.2460     1.5070 H     1 <1>   0.1500 
 47 H        3.6460     9.3260    -2.0310 H     1 <1>   0.0800 
 48 H        2.8740    10.5330    -1.0400 H     1 <1>   0.0800 
 49 H        3.2700    10.3440     1.5920 H     1 <1>   0.0800 
 50 H        4.2900     9.0290     2.1250 H     1 <1>   0.0800 
 51 H        5.8450    10.2160    -1.4990 H     1 <1>   0.0800 
 52 H        4.8490    11.5130    -2.0850 H     1 <1>   0.0800 
 53 H        5.4960    11.2050     2.1240 H     1 <1>   0.0800 
 54 H        6.2330    10.0190     1.0910 H     1 <1>   0.0800 
 55 H        4.4500    12.3020     0.1980 H     1 <1>   0.0800 
 56 H        6.1680    12.1780    -0.0720 H     1 <1>   0.0800 
@<TRIPOS>BOND
  1   1   2  2   
  2   1   3  2   
  3   1   4  am  
  4   1   5  1   
  5   4   6  1   
  6   4   7  1   
  7   5   8  1   
  8   5  28  1   
  9   5  29  1   
 10   6  30  1   
 11   6  31  1   
 12   6  32  1   
 13   7  33  1   
 14   7  34  1   
 15   7  35  1   
 16   8   9  1   
 17   8  10  1   
 18   8  36  1   
 19   9  11  1   
 20   9  12  1   
 21   9  37  1   
 22  10  13  1   
 23  10  38  1   
 24  10  39  1   
 25  11  14  am  
 26  11  40  1   
 27  12  13  1   
 28  12  41  1   
 29  12  42  1   
 30  14  15  2   
 31  14  16  1   
 32  16  17  ar  
 33  16  18  ar  
 34  17  19  ar  
 35  17  43  1   
 36  18  20  ar  
 37  18  44  1   
 38  19  21  ar  
 39  19  45  1   
 40  20  21  ar  
 41  20  46  1   
 42  21  22  1   
 43  22  23  1   
 44  22  24  1   
 45  23  25  1   
 46  23  47  1   
 47  23  48  1   
 48  24  26  1   
 49  24  49  1   
 50  24  50  1   
 51  25  27  1   
 52  25  51  1   
 53  25  52  1   
 54  26  27  1   
 55  26  53  1   
 56  26  54  1   
 57  27  55  1   
 58  27  56  1   
@<TRIPOS>SUBSTRUCTURE
  1 ****  16 GROUP 4 **** **** 0

# MOE 2024.06 (io_trps.svl 2023.06)
