@<TRIPOS>MOLECULE
NONAME
51 54 1 0 0 
SMALL
USER_CHARGES


@<TRIPOS>ATOM
  1 O        0.5160     0.5850     2.4620 O.co2 1 <1>  -0.9000 
  2 C        1.0340     0.2950     1.3780 C.2   1 <1>   0.9060 
  3 O        0.6580    -0.6870     0.7230 O.co2 1 <1>  -0.9000 
  4 C        2.2090     1.1080     0.8270 C.3   1 <1>  -0.1060 
  5 C        3.3870     0.0890     0.7730 C.3   1 <1>   0.2000 
  6 C        2.6290     2.2670     1.7730 C.3   1 <1>  -0.1600 
  7 C        1.7910     1.6750    -0.5720 C.3   1 <1>  -0.0160 
  8 O        3.5720    -0.3960    -0.5170 O.3   1 <1>  -0.6800 
  9 C        4.7250     0.6150     1.3460 C.3   1 <1>   0.1100 
 10 C        3.9230     2.9580     1.3090 C.3   1 <1>   0.1100 
 11 C        0.8690     2.8950    -0.5560 C.ar  1 <1>  -0.1430 
 12 N        5.0400     2.0230     1.0080 N.3   1 <1>  -0.8100 
 13 C       -0.4260     2.7990    -0.0690 C.ar  1 <1>  -0.1500 
 14 C        1.3170     4.1160    -1.0390 C.ar  1 <1>  -0.1500 
 15 C        5.5390     2.1300    -0.3770 C.3   1 <1>   0.2900 
 16 C       -1.2570     3.9060    -0.0580 C.ar  1 <1>  -0.1500 
 17 C        0.4880     5.2250    -1.0300 C.ar  1 <1>  -0.1500 
 18 C        6.1790     3.4820    -0.6400 C.2   1 <1>  -0.0400 
 19 C       -0.8010     5.1200    -0.5380 C.ar  1 <1>  -0.1500 
 20 O        6.4200     3.8520    -1.8670 O.3   1 <1>  -0.0190 
 21 C        6.5890     4.4690     0.1670 C.2   1 <1>  -0.1500 
 22 N        6.9600     5.0320    -1.9260 N.2   1 <1>  -0.4100 
 23 C        7.0860     5.4480    -0.7020 C.2   1 <1>   0.2350 
 24 C        7.6480     6.7250    -0.3130 C.ar  1 <1>   0.0540 
 25 C        7.7950     7.7550    -1.2440 C.ar  1 <1>   0.1600 
 26 C        8.0650     6.9920     0.9850 C.ar  1 <1>  -0.1500 
 27 N        8.2870     8.9610    -1.0020 N.ar  1 <1>  -0.6200 
 28 C        8.5810     8.2400     1.2600 C.ar  1 <1>  -0.1500 
 29 C        8.6690     9.1760     0.2450 C.ar  1 <1>   0.1600 
 30 H        3.1350    -0.7740     1.3690 H     1 <1>   0.0800 
 31 H        2.7740     1.8850     2.7690 H     1 <1>   0.0800 
 32 H        1.8390     2.9930     1.8520 H     1 <1>   0.0800 
 33 H        2.6670     1.9390    -1.1260 H     1 <1>   0.0800 
 34 H        1.3020     0.9030    -1.1400 H     1 <1>   0.0800 
 35 H        2.7180    -0.8150    -0.7720 H     1 <1>   0.4000 
 36 H        5.5280    -0.0360     1.0460 H     1 <1>   0.0800 
 37 H        4.6620     0.5500     2.4180 H     1 <1>   0.0800 
 38 H        4.2440     3.6330     2.0840 H     1 <1>   0.0800 
 39 H        3.7000     3.5560     0.4430 H     1 <1>   0.0800 
 40 H       -0.7930     1.8580     0.3100 H     1 <1>   0.1500 
 41 H        2.3160     4.2090    -1.4260 H     1 <1>   0.1500 
 42 H        6.2800     1.3690    -0.5510 H     1 <1>   0.0800 
 43 H        4.7410     1.9680    -1.0750 H     1 <1>   0.0800 
 44 H       -2.2560     3.8120     0.3300 H     1 <1>   0.1500 
 45 H        0.8470     6.1660    -1.4050 H     1 <1>   0.1500 
 46 H       -1.4480     5.9790    -0.5270 H     1 <1>   0.1500 
 47 H        6.5450     4.5060     1.2380 H     1 <1>   0.1500 
 48 H        7.4820     7.5620    -2.2570 H     1 <1>   0.1500 
 49 H        7.9940     6.2490     1.7590 H     1 <1>   0.1500 
 50 H        8.9150     8.4890     2.2510 H     1 <1>   0.1500 
 51 H        9.0730    10.1490     0.4690 H     1 <1>   0.1500 
@<TRIPOS>BOND
  1   1   2  ar  
  2   2   3  ar  
  3   2   4  1   
  4   4   5  1   
  5   4   6  1   
  6   4   7  1   
  7   5   8  1   
  8   5   9  1   
  9   5  30  1   
 10   6  10  1   
 11   6  31  1   
 12   6  32  1   
 13   7  11  1   
 14   7  33  1   
 15   7  34  1   
 16   8  35  1   
 17   9  12  1   
 18   9  36  1   
 19   9  37  1   
 20  10  12  1   
 21  10  38  1   
 22  10  39  1   
 23  11  13  ar  
 24  11  14  ar  
 25  12  15  1   
 26  13  16  ar  
 27  13  40  1   
 28  14  17  ar  
 29  14  41  1   
 30  15  18  1   
 31  15  42  1   
 32  15  43  1   
 33  16  19  ar  
 34  16  44  1   
 35  17  19  ar  
 36  17  45  1   
 37  18  20  1   
 38  18  21  2   
 39  19  46  1   
 40  20  22  1   
 41  21  23  1   
 42  21  47  1   
 43  22  23  2   
 44  23  24  1   
 45  24  25  ar  
 46  24  26  ar  
 47  25  27  ar  
 48  25  48  1   
 49  26  28  ar  
 50  26  49  1   
 51  27  29  ar  
 52  28  29  ar  
 53  28  50  1   
 54  29  51  1   
@<TRIPOS>SUBSTRUCTURE
  1 ****  10 GROUP 4 **** **** 0

# MOE 2024.06 (io_trps.svl 2023.06)
