@<TRIPOS>MOLECULE
NONAME
44 46 1 0 0 
SMALL
USER_CHARGES


@<TRIPOS>ATOM
  1 F       -1.4190    -1.0640    -0.0690 F     1 <1>  -0.1900 
  2 C       -2.1310     0.0270     0.0580 C.ar  1 <1>   0.1900 
  3 C       -3.3010    -0.0370     0.7980 C.ar  1 <1>  -0.1440 
  4 C       -1.6950     1.1900    -0.5590 C.ar  1 <1>  -0.1440 
  5 C       -4.0650     1.1130     0.9230 C.ar  1 <1>  -0.1500 
  6 C       -3.7320    -1.3340     1.4520 C.3   1 <1>   0.4870 
  7 C       -2.4770     2.3270    -0.4220 C.ar  1 <1>  -0.1500 
  8 C       -0.4030     1.2320    -1.3620 C.3   1 <1>  -0.0970 
  9 C       -3.6520     2.2870     0.3130 C.ar  1 <1>  -0.1500 
 10 N       -4.0430    -2.3340     0.3930 N.4   1 <1>  -0.9590 
 11 C       -5.2380    -1.9080    -0.4030 C.3   1 <1>   0.3430 
 12 C       -4.3660    -3.6620     1.0000 C.3   1 <1>   0.3430 
 13 C       -6.4120    -2.7180     0.1540 C.3   1 <1>   0.2000 
 14 C       -5.7680    -4.0540     0.5100 C.3   1 <1>  -0.0800 
 15 O       -6.8390    -2.1160     1.3340 O.3   1 <1>  -0.6800 
 16 C       -5.7050    -5.0050    -0.7020 C.3   1 <1>  -0.0170 
 17 C       -4.8680    -6.2330    -0.3830 C.ar  1 <1>  -0.1430 
 18 C       -5.2860    -7.1830     0.5290 C.ar  1 <1>  -0.1500 
 19 C       -3.6450    -6.4620    -0.9850 C.ar  1 <1>  -0.1500 
 20 C       -4.4750    -8.2710     0.8040 C.ar  1 <1>   0.1600 
 21 C       -2.9120    -7.5850    -0.6390 C.ar  1 <1>   0.1600 
 22 N       -3.2950    -8.4860     0.2480 N.ar  1 <1>  -0.6200 
 23 H       -4.9810     1.1140     1.4920 H     1 <1>   0.1500 
 24 H       -4.6020    -1.1660     2.0670 H     1 <1>   0.0800 
 25 H       -2.9330    -1.6960     2.0780 H     1 <1>   0.0800 
 26 H       -2.1760     3.2520    -0.8840 H     1 <1>   0.1500 
 27 H       -0.2020     2.2270    -1.7170 H     1 <1>   0.0800 
 28 H       -0.4730     0.5750    -2.2100 H     1 <1>   0.0800 
 29 H        0.4230     0.9190    -0.7480 H     1 <1>   0.0800 
 30 H       -4.2450     3.1820     0.4120 H     1 <1>   0.1500 
 31 H       -3.2100    -2.3870    -0.2110 H     1 <1>   0.4500 
 32 H       -5.4280    -0.8490    -0.3320 H     1 <1>   0.0800 
 33 H       -5.0900    -2.1680    -1.4380 H     1 <1>   0.0800 
 34 H       -3.6330    -4.4050     0.7290 H     1 <1>   0.0800 
 35 H       -4.3860    -3.5770     2.0750 H     1 <1>   0.0800 
 36 H       -7.2430    -2.7840    -0.5290 H     1 <1>   0.0800 
 37 H       -6.3090    -4.5480     1.2990 H     1 <1>   0.0800 
 38 H       -7.7040    -2.4770     1.6240 H     1 <1>   0.4000 
 39 H       -5.2890    -4.5070    -1.5600 H     1 <1>   0.0800 
 40 H       -6.7010    -5.3220    -0.9660 H     1 <1>   0.0800 
 41 H       -6.2330    -7.0960     1.0300 H     1 <1>   0.1500 
 42 H       -3.2490    -5.7880    -1.7220 H     1 <1>   0.1500 
 43 H       -4.8130    -9.0040     1.5180 H     1 <1>   0.1500 
 44 H       -1.9610    -7.7520    -1.1170 H     1 <1>   0.1500 
@<TRIPOS>BOND
  1   1   2  1   
  2   2   3  ar  
  3   2   4  ar  
  4   3   5  ar  
  5   3   6  1   
  6   4   7  ar  
  7   4   8  1   
  8   5   9  ar  
  9   5  23  1   
 10   6  10  1   
 11   6  24  1   
 12   6  25  1   
 13   7   9  ar  
 14   7  26  1   
 15   8  27  1   
 16   8  28  1   
 17   8  29  1   
 18   9  30  1   
 19  10  11  1   
 20  10  12  1   
 21  10  31  1   
 22  11  13  1   
 23  11  32  1   
 24  11  33  1   
 25  12  14  1   
 26  12  34  1   
 27  12  35  1   
 28  13  14  1   
 29  13  15  1   
 30  13  36  1   
 31  14  16  1   
 32  14  37  1   
 33  15  38  1   
 34  16  17  1   
 35  16  39  1   
 36  16  40  1   
 37  17  18  ar  
 38  17  19  ar  
 39  18  20  ar  
 40  18  41  1   
 41  19  21  ar  
 42  19  42  1   
 43  20  22  ar  
 44  20  43  1   
 45  21  22  ar  
 46  21  44  1   
@<TRIPOS>SUBSTRUCTURE
  1 ****  10 GROUP 4 **** **** 0

# MOE 2024.06 (io_trps.svl 2023.06)
