@<TRIPOS>MOLECULE
NONAME
53 56 1 0 0 
SMALL
USER_CHARGES


@<TRIPOS>ATOM
  1 O        0.1960     0.7450     0.6340 O.3   1 <1>  -0.0190 
  2 N        0.9730    -0.3000     0.6250 N.2   1 <1>  -0.4100 
  3 C        0.7700     1.7880     0.0960 C.2   1 <1>  -0.0400 
  4 C        2.0680     0.0770     0.0700 C.2   1 <1>   0.1080 
  5 C        1.9990     1.4180    -0.2970 C.2   1 <1>  -0.1500 
  6 C       -0.0050     3.0940     0.0260 C.3   1 <1>   0.0200 
  7 C        3.2640    -0.8220    -0.1490 C.3   1 <1>  -0.0590 
  8 C        0.8330     4.2670    -0.5150 C.3   1 <1>  -0.0800 
  9 C        0.0450     5.5560    -0.7720 C.3   1 <1>   0.2000 
 10 C        1.9490     4.7070     0.4330 C.3   1 <1>   0.2090 
 11 O       -0.8820     5.7300     0.2660 O.3   1 <1>  -0.5600 
 12 C        1.1170     6.6570    -0.7360 C.3   1 <1>   0.2090 
 13 N        2.2650     6.0900     0.0180 N.pl3 1 <1>  -0.8380 
 14 C       -1.9010     6.6440     0.0070 C.3   1 <1>   0.0400 
 15 C        3.1820     6.8710     0.6760 C.ar  1 <1>   0.7200 
 16 N        3.1980     8.1620     0.3670 N.ar  1 <1>  -0.6200 
 17 N        3.9760     6.2570     1.5500 N.ar  1 <1>  -0.6200 
 18 C        4.0860     8.9100     0.9890 C.ar  1 <1>   0.3100 
 19 C        4.8490     7.0140     2.1630 C.ar  1 <1>   0.1600 
 20 C        4.1480    10.3210     0.6900 C.ar  1 <1>   0.0000 
 21 C        4.9450     8.3580     1.9160 C.ar  1 <1>  -0.1500 
 22 C        5.0510    10.8540    -0.2350 C.ar  1 <1>   0.1670 
 23 C        3.3040    11.2040     1.3440 C.ar  1 <1>  -0.1500 
 24 N        5.1780    12.1430    -0.5060 N.ar  1 <1>  -0.6200 
 25 C        5.9830     9.9420    -1.0150 C.3   1 <1>  -0.0970 
 26 C        3.4220    12.5450     1.0580 C.ar  1 <1>  -0.1500 
 27 C        4.3670    12.9630     0.1370 C.ar  1 <1>   0.1670 
 28 C        4.5200    14.4330    -0.1900 C.3   1 <1>  -0.0970 
 29 H        2.7750     1.9790    -0.7820 H     1 <1>   0.1500 
 30 H       -0.8600     2.9460    -0.6090 H     1 <1>   0.0800 
 31 H       -0.3690     3.3300     1.0110 H     1 <1>   0.0800 
 32 H        4.1460    -0.3610     0.2550 H     1 <1>   0.0800 
 33 H        3.4010    -0.9940    -1.2010 H     1 <1>   0.0800 
 34 H        3.1070    -1.7660     0.3410 H     1 <1>   0.0800 
 35 H        1.2890     3.9730    -1.4430 H     1 <1>   0.0800 
 36 H       -0.4790     5.5230    -1.7110 H     1 <1>   0.0800 
 37 H        2.8190     4.0780     0.3560 H     1 <1>   0.0800 
 38 H        1.6010     4.7180     1.4520 H     1 <1>   0.0800 
 39 H        0.7500     7.5530    -0.2670 H     1 <1>   0.0800 
 40 H        1.4470     6.8860    -1.7340 H     1 <1>   0.0800 
 41 H       -2.5420     6.6790     0.8700 H     1 <1>   0.0800 
 42 H       -2.4660     6.3150    -0.8480 H     1 <1>   0.0800 
 43 H       -1.4800     7.6180    -0.1670 H     1 <1>   0.0800 
 44 H        5.5050     6.5490     2.8790 H     1 <1>   0.1500 
 45 H        5.6650     8.9700     2.4240 H     1 <1>   0.1500 
 46 H        2.5790    10.8440     2.0530 H     1 <1>   0.1500 
 47 H        5.4850     9.0310    -1.2930 H     1 <1>   0.0800 
 48 H        6.8460     9.7100    -0.4200 H     1 <1>   0.0800 
 49 H        6.3080    10.4300    -1.9160 H     1 <1>   0.0800 
 50 H        2.7840    13.2580     1.5470 H     1 <1>   0.1500 
 51 H        3.8290    15.0310     0.3740 H     1 <1>   0.0800 
 52 H        4.3400    14.5850    -1.2380 H     1 <1>   0.0800 
 53 H        5.5220    14.7480     0.0380 H     1 <1>   0.0800 
@<TRIPOS>BOND
  1   1   2  1   
  2   1   3  1   
  3   2   4  2   
  4   3   5  2   
  5   3   6  1   
  6   4   5  1   
  7   4   7  1   
  8   5  29  1   
  9   6   8  1   
 10   6  30  1   
 11   6  31  1   
 12   7  32  1   
 13   7  33  1   
 14   7  34  1   
 15   8   9  1   
 16   8  10  1   
 17   8  35  1   
 18   9  11  1   
 19   9  12  1   
 20   9  36  1   
 21  10  13  1   
 22  10  37  1   
 23  10  38  1   
 24  11  14  1   
 25  12  13  1   
 26  12  39  1   
 27  12  40  1   
 28  13  15  1   
 29  14  41  1   
 30  14  42  1   
 31  14  43  1   
 32  15  16  ar  
 33  15  17  ar  
 34  16  18  ar  
 35  17  19  ar  
 36  18  20  1   
 37  18  21  ar  
 38  19  21  ar  
 39  19  44  1   
 40  20  22  ar  
 41  20  23  ar  
 42  21  45  1   
 43  22  24  ar  
 44  22  25  1   
 45  23  26  ar  
 46  23  46  1   
 47  24  27  ar  
 48  25  47  1   
 49  25  48  1   
 50  25  49  1   
 51  26  27  ar  
 52  26  50  1   
 53  27  28  1   
 54  28  51  1   
 55  28  52  1   
 56  28  53  1   
@<TRIPOS>SUBSTRUCTURE
  1 ****  13 GROUP 4 **** **** 0

# MOE 2024.06 (io_trps.svl 2023.06)
