@<TRIPOS>MOLECULE
NONAME
46 48 1 0 0 
SMALL
USER_CHARGES


@<TRIPOS>ATOM
  1 S       -0.3360     0.4010    -0.1750 S.3   1 <1>  -0.3320 
  2 C       -0.2930    -1.3850    -0.1150 C.ar  1 <1>   0.4120 
  3 C        1.3250     0.8950     0.4590 C.3   1 <1>   0.2140 
  4 N        0.8280    -1.9320     0.3260 N.ar  1 <1>  -0.6200 
  5 C       -1.4230    -2.0680    -0.5300 C.ar  1 <1>  -0.1500 
  6 C        1.4120     2.4130     0.4480 C.ar  1 <1>  -0.1440 
  7 C        0.8140    -3.2570     0.3520 C.ar  1 <1>   0.1600 
  8 C       -1.4150    -3.4460    -0.4940 C.ar  1 <1>  -0.1500 
  9 C        1.6070     3.0940    -0.7420 C.ar  1 <1>  -0.1500 
 10 C        1.2950     3.1340     1.6250 C.ar  1 <1>  -0.1500 
 11 C       -0.2580    -4.0450    -0.0380 C.ar  1 <1>  -0.1500 
 12 C        1.6910     4.4750    -0.7510 C.ar  1 <1>  -0.1500 
 13 C        1.3800     4.5150     1.6090 C.ar  1 <1>  -0.1500 
 14 C        1.5890     5.2190     0.4240 C.ar  1 <1>   0.0860 
 15 C        1.6880     6.6690     0.4210 C.2   1 <1>   0.5440 
 16 O        1.0130     7.3200     1.1970 O.2   1 <1>  -0.5700 
 17 N        2.5650     7.3270    -0.4180 N.am  1 <1>  -0.6600 
 18 C        2.3360     8.7230    -0.9000 C.3   1 <1>   0.2200 
 19 C        3.9810     6.8740    -0.4930 C.3   1 <1>   0.1400 
 20 C        2.7310     9.7550     0.1740 C.3   1 <1>   0.1400 
 21 C        0.8960     8.9090    -1.3930 C.3   1 <1>  -0.2400 
 22 C        4.7900     7.4870     0.6510 C.3   1 <1>  -0.0990 
 23 N        4.2100     9.9010     0.2820 N.am  1 <1>  -0.7300 
 24 C        5.1490     8.9370     0.4050 C.2   1 <1>   0.5690 
 25 O        6.3130     9.2340     0.3180 O.2   1 <1>  -0.5700 
 26 H        2.0600     0.4520    -0.1880 H     1 <1>   0.0800 
 27 H        1.4200     0.4930     1.4520 H     1 <1>   0.0800 
 28 H       -2.2830    -1.5220    -0.8720 H     1 <1>   0.1500 
 29 H        1.7070    -3.7440     0.7050 H     1 <1>   0.1500 
 30 H       -2.2680    -4.0250    -0.8060 H     1 <1>   0.1500 
 31 H        1.6870     2.5470    -1.6660 H     1 <1>   0.1500 
 32 H        1.1310     2.6240     2.5590 H     1 <1>   0.1500 
 33 H       -0.1850    -5.1170     0.0160 H     1 <1>   0.1500 
 34 H        1.8320     4.9900    -1.6850 H     1 <1>   0.1500 
 35 H        1.2810     5.0660     2.5290 H     1 <1>   0.1500 
 36 H        2.9670     8.8890    -1.7570 H     1 <1>   0.0800 
 37 H        4.4100     7.1470    -1.4430 H     1 <1>   0.0800 
 38 H        4.0240     5.8020    -0.4100 H     1 <1>   0.0800 
 39 H        2.3160     9.4800     1.1280 H     1 <1>   0.0800 
 40 H        2.3220    10.7120    -0.0990 H     1 <1>   0.0800 
 41 H        0.1980     8.8950    -0.5760 H     1 <1>   0.0800 
 42 H        0.6420     8.1330    -2.0910 H     1 <1>   0.0800 
 43 H        0.8030     9.8560    -1.8920 H     1 <1>   0.0800 
 44 H        5.7060     6.9350     0.7520 H     1 <1>   0.0800 
 45 H        4.2560     7.4010     1.5790 H     1 <1>   0.0800 
 46 H        4.5770    10.8490     0.1780 H     1 <1>   0.3700 
@<TRIPOS>BOND
  1   1   2  1   
  2   1   3  1   
  3   2   4  ar  
  4   2   5  ar  
  5   3   6  1   
  6   3  26  1   
  7   3  27  1   
  8   4   7  ar  
  9   5   8  ar  
 10   5  28  1   
 11   6   9  ar  
 12   6  10  ar  
 13   7  11  ar  
 14   7  29  1   
 15   8  11  ar  
 16   8  30  1   
 17   9  12  ar  
 18   9  31  1   
 19  10  13  ar  
 20  10  32  1   
 21  11  33  1   
 22  12  14  ar  
 23  12  34  1   
 24  13  14  ar  
 25  13  35  1   
 26  14  15  1   
 27  15  16  2   
 28  15  17  am  
 29  17  18  1   
 30  17  19  1   
 31  18  20  1   
 32  18  21  1   
 33  18  36  1   
 34  19  22  1   
 35  19  37  1   
 36  19  38  1   
 37  20  23  1   
 38  20  39  1   
 39  20  40  1   
 40  21  41  1   
 41  21  42  1   
 42  21  43  1   
 43  22  24  1   
 44  22  44  1   
 45  22  45  1   
 46  23  24  am  
 47  23  46  1   
 48  24  25  2   
@<TRIPOS>SUBSTRUCTURE
  1 ****  12 GROUP 4 **** **** 0

# MOE 2024.06 (io_trps.svl 2023.06)
