@<TRIPOS>MOLECULE
NONAME
41 43 1 0 0 
SMALL
USER_CHARGES


@<TRIPOS>ATOM
  1 O        1.1960    -0.7620     0.8950 O.3   1 <1>  -0.5600 
  2 C        0.1480    -1.6430     1.1840 C.3   1 <1>   0.1200 
  3 C        1.4250    -0.5130    -0.4500 C.3   1 <1>   0.1200 
  4 C        0.6040    -3.1060     1.0210 C.3   1 <1>   0.1900 
  5 C        1.9510    -1.7640    -1.1730 C.3   1 <1>  -0.0800 
  6 N        0.4460    -3.6660    -0.3710 N.3   1 <1>  -0.8100 
  7 C        2.0610    -3.2730     1.5080 C.3   1 <1>   0.3430 
  8 C        0.8100    -2.7590    -1.4800 C.3   1 <1>   0.1100 
  9 C        3.2160    -2.3380    -0.4950 C.3   1 <1>   0.3430 
 10 C       -0.9100    -4.2390    -0.5700 C.3   1 <1>   0.2900 
 11 N        2.9700    -3.5450     0.3490 N.4   1 <1>  -0.9590 
 12 C       -1.1180    -5.4780     0.2930 C.2   1 <1>   0.0060 
 13 C        4.2230    -4.2330     0.7640 C.3   1 <1>   0.2630 
 14 N       -1.7390    -5.4540     1.4310 N.2   1 <1>  -0.5650 
 15 N       -0.6750    -6.7110    -0.0570 N.pl3 1 <1>   0.0480 
 16 C       -1.7040    -6.7330     1.8460 C.2   1 <1>   0.0770 
 17 C       -1.0590    -7.5110     0.9520 C.2   1 <1>  -0.3020 
 18 C        0.0410    -7.1330    -1.2730 C.3   1 <1>   0.0160 
 19 H       -0.1140    -1.4740     2.2140 H     1 <1>   0.0800 
 20 H       -0.7120    -1.4140     0.5790 H     1 <1>   0.0800 
 21 H        0.5150    -0.1470    -0.8950 H     1 <1>   0.0800 
 22 H        2.1580     0.2740    -0.4990 H     1 <1>   0.0800 
 23 H        0.0000    -3.6750     1.7030 H     1 <1>   0.0800 
 24 H        2.2750    -1.3940    -2.1290 H     1 <1>   0.0800 
 25 H        2.0840    -4.1090     2.1870 H     1 <1>   0.0800 
 26 H        2.3790    -2.3980     2.0500 H     1 <1>   0.0800 
 27 H        1.0960    -3.3660    -2.3230 H     1 <1>   0.0800 
 28 H       -0.0590    -2.1960    -1.7820 H     1 <1>   0.0800 
 29 H        3.6770    -1.5670     0.1020 H     1 <1>   0.0800 
 30 H        3.9120    -2.6070    -1.2720 H     1 <1>   0.0800 
 31 H       -1.6590    -3.5070    -0.3220 H     1 <1>   0.0800 
 32 H       -1.0470    -4.5130    -1.6020 H     1 <1>   0.0800 
 33 H        2.3660    -4.1610    -0.2290 H     1 <1>   0.4500 
 34 H        4.8110    -3.5870     1.3950 H     1 <1>   0.0800 
 35 H        4.8070    -4.5000    -0.1020 H     1 <1>   0.0800 
 36 H        3.9900    -5.1330     1.3110 H     1 <1>   0.0800 
 37 H       -2.1550    -7.0320     2.7780 H     1 <1>   0.1500 
 38 H       -0.8650    -8.5680     0.9820 H     1 <1>   0.1500 
 39 H        0.5460    -8.0630    -1.0870 H     1 <1>   0.0800 
 40 H        0.7620    -6.3840    -1.5450 H     1 <1>   0.0800 
 41 H       -0.6660    -7.2650    -2.0720 H     1 <1>   0.0800 
@<TRIPOS>BOND
  1   1   2  1   
  2   1   3  1   
  3   2   4  1   
  4   2  19  1   
  5   2  20  1   
  6   3   5  1   
  7   3  21  1   
  8   3  22  1   
  9   4   6  1   
 10   4   7  1   
 11   4  23  1   
 12   5   8  1   
 13   5   9  1   
 14   5  24  1   
 15   6   8  1   
 16   6  10  1   
 17   7  11  1   
 18   7  25  1   
 19   7  26  1   
 20   8  27  1   
 21   8  28  1   
 22   9  11  1   
 23   9  29  1   
 24   9  30  1   
 25  10  12  1   
 26  10  31  1   
 27  10  32  1   
 28  11  13  1   
 29  11  33  1   
 30  12  14  2   
 31  12  15  1   
 32  13  34  1   
 33  13  35  1   
 34  13  36  1   
 35  14  16  1   
 36  15  17  1   
 37  15  18  1   
 38  16  17  2   
 39  16  37  1   
 40  17  38  1   
 41  18  39  1   
 42  18  40  1   
 43  18  41  1   
@<TRIPOS>SUBSTRUCTURE
  1 ****   6 GROUP 4 **** **** 0

# MOE 2024.06 (io_trps.svl 2023.06)
