@<TRIPOS>MOLECULE
NONAME
50 53 1 0 0 
SMALL
USER_CHARGES


@<TRIPOS>ATOM
  1 O       -2.2920     0.3270    -1.6850 O.2   1 <1>  -0.5700 
  2 C       -2.2330     0.7940    -0.5620 C.2   1 <1>   0.7150 
  3 N       -2.3500    -0.0610     0.4940 N.am  1 <1>  -0.7300 
  4 C       -2.0640     2.2090    -0.3230 C.2   1 <1>   0.0550 
  5 C       -2.5870    -1.5170     0.3960 C.3   1 <1>   0.2200 
  6 O       -2.0620     2.6680     0.9230 O.3   1 <1>  -0.2800 
  7 C       -1.8960     3.2530    -1.1640 C.2   1 <1>   0.0460 
  8 C       -4.0820    -1.7800     0.4110 C.3   1 <1>  -0.0800 
  9 C       -2.1310    -2.2110     1.6760 C.3   1 <1>   0.1200 
 10 C       -1.8920     3.9630     0.7450 C.2   1 <1>   0.2980 
 11 N       -1.7870     4.3760    -0.4640 N.2   1 <1>  -0.5650 
 12 C       -1.8190     3.3180    -2.6770 C.3   1 <1>  -0.0590 
 13 C       -4.3880    -1.7920     1.9110 C.3   1 <1>   0.1200 
 14 C       -4.4260    -3.1200    -0.2690 C.3   1 <1>  -0.0160 
 15 O       -3.2050    -2.1450     2.5670 O.3   1 <1>  -0.5600 
 16 C       -1.8390     4.8300     1.9950 C.3   1 <1>   0.0200 
 17 C       -5.9340    -3.3350    -0.3500 C.ar  1 <1>  -0.1440 
 18 C       -1.6420     6.3270     1.7090 C.3   1 <1>  -0.2400 
 19 C       -6.7470    -2.6520    -1.2860 C.ar  1 <1>   0.0000 
 20 C       -6.5470    -4.2100     0.4980 C.ar  1 <1>  -0.1500 
 21 C       -8.1380    -2.9140    -1.2620 C.ar  1 <1>   0.3100 
 22 C       -6.2640    -1.7300    -2.2450 C.ar  1 <1>  -0.1500 
 23 C       -7.9320    -4.4000     0.4350 C.ar  1 <1>   0.1600 
 24 N       -8.7140    -3.7880    -0.3970 N.ar  1 <1>  -0.6200 
 25 C       -8.9720    -2.2460    -2.1720 C.ar  1 <1>  -0.1500 
 26 C       -7.1040    -1.0960    -3.1190 C.ar  1 <1>  -0.1500 
 27 C       -8.4760    -1.3540    -3.0840 C.ar  1 <1>  -0.1500 
 28 H       -2.3950     0.3380     1.4340 H     1 <1>   0.3700 
 29 H       -2.0940    -1.9130    -0.4770 H     1 <1>   0.0800 
 30 H       -4.6200    -0.9880    -0.0780 H     1 <1>   0.0800 
 31 H       -1.2660    -1.7450     2.1160 H     1 <1>   0.0800 
 32 H       -1.9280    -3.2510     1.4910 H     1 <1>   0.0800 
 33 H       -1.9080     2.3450    -3.1190 H     1 <1>   0.0800 
 34 H       -0.8770     3.7450    -2.9690 H     1 <1>   0.0800 
 35 H       -2.6100     3.9410    -3.0500 H     1 <1>   0.0800 
 36 H       -5.1620    -2.4890     2.1800 H     1 <1>   0.0800 
 37 H       -4.6630    -0.8070     2.2470 H     1 <1>   0.0800 
 38 H       -3.9750    -3.9300     0.2770 H     1 <1>   0.0800 
 39 H       -4.0140    -3.1460    -1.2630 H     1 <1>   0.0800 
 40 H       -2.7550     4.6930     2.5390 H     1 <1>   0.0800 
 41 H       -1.0310     4.4810     2.6130 H     1 <1>   0.0800 
 42 H       -2.4510     6.6970     1.1040 H     1 <1>   0.0800 
 43 H       -0.7190     6.4830     1.1780 H     1 <1>   0.0800 
 44 H       -1.6130     6.8820     2.6290 H     1 <1>   0.0800 
 45 H       -5.9930    -4.7680     1.2320 H     1 <1>   0.1500 
 46 H       -5.2120    -1.5160    -2.2950 H     1 <1>   0.1500 
 47 H       -8.3760    -5.0990     1.1230 H     1 <1>   0.1500 
 48 H      -10.0240    -2.4620    -2.1280 H     1 <1>   0.1500 
 49 H       -6.7210    -0.3950    -3.8410 H     1 <1>   0.1500 
 50 H       -9.1280    -0.8490    -3.7760 H     1 <1>   0.1500 
@<TRIPOS>BOND
  1   1   2  2   
  2   2   3  am  
  3   2   4  1   
  4   3   5  1   
  5   3  28  1   
  6   4   6  1   
  7   4   7  2   
  8   5   8  1   
  9   5   9  1   
 10   5  29  1   
 11   6  10  1   
 12   7  11  1   
 13   7  12  1   
 14   8  13  1   
 15   8  14  1   
 16   8  30  1   
 17   9  15  1   
 18   9  31  1   
 19   9  32  1   
 20  10  11  2   
 21  10  16  1   
 22  12  33  1   
 23  12  34  1   
 24  12  35  1   
 25  13  15  1   
 26  13  36  1   
 27  13  37  1   
 28  14  17  1   
 29  14  38  1   
 30  14  39  1   
 31  16  18  1   
 32  16  40  1   
 33  16  41  1   
 34  17  19  ar  
 35  17  20  ar  
 36  18  42  1   
 37  18  43  1   
 38  18  44  1   
 39  19  21  ar  
 40  19  22  ar  
 41  20  23  ar  
 42  20  45  1   
 43  21  24  ar  
 44  21  25  ar  
 45  22  26  ar  
 46  22  46  1   
 47  23  24  ar  
 48  23  47  1   
 49  25  27  ar  
 50  25  48  1   
 51  26  27  ar  
 52  26  49  1   
 53  27  50  1   
@<TRIPOS>SUBSTRUCTURE
  1 ****   8 GROUP 4 **** **** 0

# MOE 2024.06 (io_trps.svl 2023.06)
