@<TRIPOS>MOLECULE
NONAME
55 58 1 0 0 
SMALL
USER_CHARGES


@<TRIPOS>ATOM
  1 O       -0.1230    -1.6090    -1.1580 O.2   1 <1>  -0.5700 
  2 C        0.5530    -1.9930    -0.2360 C.2   1 <1>   0.6300 
  3 N        0.0770    -2.7360     0.8050 N.am  1 <1>  -0.5470 
  4 C        2.0330    -1.6420    -0.2140 C.3   1 <1>  -0.1000 
  5 C       -1.2150    -3.2120     1.0610 C.ar  1 <1>   0.1170 
  6 C        2.9500    -2.1500    -1.2890 C.3   1 <1>  -0.2000 
  7 C        3.0890    -2.6630     0.1110 C.3   1 <1>  -0.2000 
  8 C       -2.3590    -2.5530     0.6240 C.ar  1 <1>  -0.1500 
  9 C       -1.3670    -4.3850     1.7900 C.ar  1 <1>  -0.1500 
 10 C       -3.6170    -3.0620     0.8880 C.ar  1 <1>  -0.1500 
 11 C       -2.6230    -4.8970     2.0550 C.ar  1 <1>  -0.1500 
 12 C       -3.7580    -4.2460     1.5950 C.ar  1 <1>  -0.1440 
 13 C       -5.1380    -4.8470     1.8470 C.3   1 <1>   0.0440 
 14 C       -5.1950    -6.3240     1.4750 C.2   1 <1>   0.5690 
 15 O       -5.4080    -7.1080     2.3700 O.2   1 <1>  -0.5700 
 16 N       -4.9940    -6.7370     0.1840 N.am  1 <1>  -0.6600 
 17 C       -4.7850    -8.1970    -0.1060 C.3   1 <1>   0.3640 
 18 C       -4.9140    -5.7990    -0.9840 C.3   1 <1>   0.1400 
 19 C       -3.3010    -8.5850     0.0020 C.ar  1 <1>  -0.1440 
 20 C       -5.3670    -8.6430    -1.4860 C.3   1 <1>   0.2000 
 21 C       -4.7410    -6.5300    -2.3220 C.3   1 <1>   0.1200 
 22 C       -2.2500    -7.6840    -0.1360 C.ar  1 <1>  -0.1500 
 23 C       -2.9980    -9.9170     0.2540 C.ar  1 <1>  -0.1500 
 24 O       -5.6380    -7.5900    -2.3820 O.3   1 <1>  -0.5600 
 25 C       -6.6750    -9.4250    -1.3180 C.3   1 <1>   0.1200 
 26 C       -0.9360    -8.1060    -0.0410 C.ar  1 <1>  -0.1500 
 27 C       -1.6850   -10.3420     0.3520 C.ar  1 <1>  -0.1500 
 28 O       -6.4240   -10.6700    -0.7470 O.3   1 <1>  -0.6800 
 29 C       -0.6510    -9.4370     0.2020 C.ar  1 <1>  -0.1500 
 30 H        0.7890    -3.0360     1.4650 H     1 <1>   0.3700 
 31 H        2.1890    -0.6290     0.1110 H     1 <1>   0.1000 
 32 H        2.5350    -2.7930    -2.0470 H     1 <1>   0.1000 
 33 H        3.6970    -1.4820    -1.6810 H     1 <1>   0.1000 
 34 H        3.9470    -2.3570     0.6850 H     1 <1>   0.1000 
 35 H        2.8170    -3.6880     0.2910 H     1 <1>   0.1000 
 36 H       -2.2670    -1.6350     0.0720 H     1 <1>   0.1500 
 37 H       -0.5020    -4.9110     2.1480 H     1 <1>   0.1500 
 38 H       -4.4830    -2.5300     0.5340 H     1 <1>   0.1500 
 39 H       -2.7140    -5.8150     2.6130 H     1 <1>   0.1500 
 40 H       -5.8920    -4.3220     1.2910 H     1 <1>   0.0800 
 41 H       -5.3740    -4.7440     2.8900 H     1 <1>   0.0800 
 42 H       -5.2940    -8.7660     0.6530 H     1 <1>   0.0800 
 43 H       -5.8180    -5.2180    -1.0270 H     1 <1>   0.0800 
 44 H       -4.0880    -5.1240    -0.8570 H     1 <1>   0.0800 
 45 H       -4.6560    -9.2820    -1.9780 H     1 <1>   0.0800 
 46 H       -3.7400    -6.9090    -2.4380 H     1 <1>   0.0800 
 47 H       -4.9550    -5.8650    -3.1390 H     1 <1>   0.0800 
 48 H       -2.4330    -6.6410    -0.3130 H     1 <1>   0.1500 
 49 H       -3.7910   -10.6340     0.3820 H     1 <1>   0.1500 
 50 H       -7.1470    -9.5850    -2.2720 H     1 <1>   0.0800 
 51 H       -7.3470    -8.8900    -0.6690 H     1 <1>   0.0800 
 52 H       -0.1360    -7.3960    -0.1530 H     1 <1>   0.1500 
 53 H       -1.4690   -11.3780     0.5480 H     1 <1>   0.1500 
 54 H       -6.0560   -11.2870    -1.4110 H     1 <1>   0.4000 
 55 H        0.3710    -9.7660     0.2760 H     1 <1>   0.1500 
@<TRIPOS>BOND
  1   1   2  2   
  2   2   3  am  
  3   2   4  1   
  4   3   5  1   
  5   3  30  1   
  6   4   6  1   
  7   4   7  1   
  8   4  31  1   
  9   5   8  ar  
 10   5   9  ar  
 11   6   7  1   
 12   6  32  1   
 13   6  33  1   
 14   7  34  1   
 15   7  35  1   
 16   8  10  ar  
 17   8  36  1   
 18   9  11  ar  
 19   9  37  1   
 20  10  12  ar  
 21  10  38  1   
 22  11  12  ar  
 23  11  39  1   
 24  12  13  1   
 25  13  14  1   
 26  13  40  1   
 27  13  41  1   
 28  14  15  2   
 29  14  16  am  
 30  16  17  1   
 31  16  18  1   
 32  17  19  1   
 33  17  20  1   
 34  17  42  1   
 35  18  21  1   
 36  18  43  1   
 37  18  44  1   
 38  19  22  ar  
 39  19  23  ar  
 40  20  24  1   
 41  20  25  1   
 42  20  45  1   
 43  21  24  1   
 44  21  46  1   
 45  21  47  1   
 46  22  26  ar  
 47  22  48  1   
 48  23  27  ar  
 49  23  49  1   
 50  25  28  1   
 51  25  50  1   
 52  25  51  1   
 53  26  29  ar  
 54  26  52  1   
 55  27  29  ar  
 56  27  53  1   
 57  28  54  1   
 58  29  55  1   
@<TRIPOS>SUBSTRUCTURE
  1 ****  22 GROUP 4 **** **** 0

# MOE 2024.06 (io_trps.svl 2023.06)
