@<TRIPOS>MOLECULE
NONAME
50 51 1 0 0 
SMALL
USER_CHARGES


@<TRIPOS>ATOM
  1 O       -2.8260     0.9660    -1.9000 O.2   1 <1>  -0.5700 
  2 C       -2.4900     0.9540    -0.7400 C.2   1 <1>   0.5690 
  3 N       -2.3660    -0.2070    -0.0450 N.am  1 <1>  -0.7300 
  4 C       -2.1870     2.2670    -0.0130 C.3   1 <1>  -0.0190 
  5 C       -2.5900    -1.5580    -0.6020 C.3   1 <1>   0.1400 
  6 C       -2.7590     3.5080    -0.7310 C.3   1 <1>  -0.1600 
  7 C       -0.6660     2.4300     0.2240 C.3   1 <1>  -0.1600 
  8 C       -3.6620    -2.2690     0.2220 C.3   1 <1>  -0.1600 
  9 C       -2.5740     4.8020     0.0910 C.3   1 <1>   0.2000 
 10 C       -0.2280     3.8830     0.4970 C.3   1 <1>  -0.1600 
 11 C       -3.9090    -3.6730    -0.3210 C.3   1 <1>   0.2090 
 12 O       -2.3730     5.8740    -0.7980 O.3   1 <1>  -0.5600 
 13 C       -1.3720     4.7230     1.0700 C.3   1 <1>   0.2000 
 14 N       -4.9050    -4.3490     0.5360 N.pl3 1 <1>  -0.8690 
 15 C       -3.5200     6.3390    -1.4380 C.3   1 <1>   0.0400 
 16 O       -0.8940     5.9940     1.3060 O.3   1 <1>  -0.6800 
 17 C       -5.1390    -5.7030     0.4460 C.ar  1 <1>   0.4100 
 18 N       -4.3230    -6.4220    -0.3130 N.ar  1 <1>  -0.6200 
 19 C       -6.2130    -6.2510     1.1410 C.ar  1 <1>  -0.1500 
 20 C       -4.5860    -7.7170    -0.3790 C.ar  1 <1>   0.1600 
 21 C       -6.4750    -7.5980     1.0610 C.ar  1 <1>  -0.1500 
 22 C       -5.6300    -8.3550     0.2730 C.ar  1 <1>  -0.1440 
 23 C       -5.8570    -9.8510     0.1390 C.3   1 <1>  -0.0970 
 24 H       -2.0620    -0.1800     0.9290 H     1 <1>   0.3700 
 25 H       -2.6730     2.2050     0.9450 H     1 <1>   0.0800 
 26 H       -2.9050    -1.4850    -1.6300 H     1 <1>   0.0800 
 27 H       -1.6670    -2.1110    -0.5690 H     1 <1>   0.0800 
 28 H       -3.8060     3.3580    -0.9250 H     1 <1>   0.0800 
 29 H       -2.2550     3.6090    -1.6780 H     1 <1>   0.0800 
 30 H       -0.3780     1.8090     1.0550 H     1 <1>   0.0800 
 31 H       -0.1300     2.0750    -0.6410 H     1 <1>   0.0800 
 32 H       -3.3370    -2.3450     1.2440 H     1 <1>   0.0800 
 33 H       -4.5760    -1.7040     0.1730 H     1 <1>   0.0800 
 34 H       -3.4580     5.0000     0.6740 H     1 <1>   0.0800 
 35 H        0.0870     4.3300    -0.4310 H     1 <1>   0.0800 
 36 H        0.6080     3.8890     1.1750 H     1 <1>   0.0800 
 37 H       -2.9890    -4.2350    -0.3130 H     1 <1>   0.0800 
 38 H       -4.2770    -3.6320    -1.3330 H     1 <1>   0.0800 
 39 H       -1.6830     4.3080     2.0130 H     1 <1>   0.0800 
 40 H       -5.7270    -3.7820     0.7440 H     1 <1>   0.4000 
 41 H       -3.2410     7.1720    -2.0590 H     1 <1>   0.0800 
 42 H       -4.2350     6.6620    -0.7010 H     1 <1>   0.0800 
 43 H       -3.9340     5.5580    -2.0520 H     1 <1>   0.0800 
 44 H       -1.0660     6.5000     0.4790 H     1 <1>   0.4000 
 45 H       -6.8290    -5.6110     1.7410 H     1 <1>   0.1500 
 46 H       -3.9250    -8.3040    -0.9920 H     1 <1>   0.1500 
 47 H       -7.2990    -8.0420     1.5910 H     1 <1>   0.1500 
 48 H       -6.8350   -10.0380    -0.2680 H     1 <1>   0.0800 
 49 H       -5.7870   -10.3190     1.1050 H     1 <1>   0.0800 
 50 H       -5.1240   -10.2950    -0.5110 H     1 <1>   0.0800 
@<TRIPOS>BOND
  1   1   2  2   
  2   2   3  am  
  3   2   4  1   
  4   3   5  1   
  5   3  24  1   
  6   4   6  1   
  7   4   7  1   
  8   4  25  1   
  9   5   8  1   
 10   5  26  1   
 11   5  27  1   
 12   6   9  1   
 13   6  28  1   
 14   6  29  1   
 15   7  10  1   
 16   7  30  1   
 17   7  31  1   
 18   8  11  1   
 19   8  32  1   
 20   8  33  1   
 21   9  12  1   
 22   9  13  1   
 23   9  34  1   
 24  10  13  1   
 25  10  35  1   
 26  10  36  1   
 27  11  14  1   
 28  11  37  1   
 29  11  38  1   
 30  12  15  1   
 31  13  16  1   
 32  13  39  1   
 33  14  17  1   
 34  14  40  1   
 35  15  41  1   
 36  15  42  1   
 37  15  43  1   
 38  16  44  1   
 39  17  18  ar  
 40  17  19  ar  
 41  18  20  ar  
 42  19  21  ar  
 43  19  45  1   
 44  20  22  ar  
 45  20  46  1   
 46  21  22  ar  
 47  21  47  1   
 48  22  23  1   
 49  23  48  1   
 50  23  49  1   
 51  23  50  1   
@<TRIPOS>SUBSTRUCTURE
  1 ****   5 GROUP 4 **** **** 0

# MOE 2024.06 (io_trps.svl 2023.06)
