@<TRIPOS>MOLECULE
NONAME
26 26 1 0 0 
SMALL
USER_CHARGES


@<TRIPOS>ATOM
  1 S        0.1060     0.1400    -0.0290 S.3   1 <1>  -0.4600 
  2 C       -1.5260     0.8460     0.2700 C.3   1 <1>   0.1500 
  3 C       -0.1920    -1.6080     0.3000 C.3   1 <1>   0.4300 
  4 C       -2.5220     0.0300    -0.5620 C.3   1 <1>  -0.1600 
  5 C       -1.4470     2.3310    -0.1110 C.3   1 <1>  -0.1600 
  6 O       -1.2280    -1.9950    -0.5390 O.3   1 <1>  -0.5600 
  7 C        1.0630    -2.3840    -0.0630 C.3   1 <1>  -0.2400 
  8 C       -2.4770    -1.4650    -0.2250 C.3   1 <1>   0.1200 
  9 C       -2.7360     3.1030     0.2100 C.3   1 <1>  -0.1600 
 10 C       -2.5710     4.5940    -0.0980 C.3   1 <1>  -0.2400 
 11 H       -1.7210     0.7340     1.3230 H     1 <1>   0.0800 
 12 H       -0.4740    -1.7290     1.3320 H     1 <1>   0.0800 
 13 H       -3.5170     0.3860    -0.3740 H     1 <1>   0.0800 
 14 H       -2.3190     0.1600    -1.6100 H     1 <1>   0.0800 
 15 H       -0.6320     2.7750     0.4330 H     1 <1>   0.0800 
 16 H       -1.2260     2.4160    -1.1610 H     1 <1>   0.0800 
 17 H        1.3110    -2.2160    -1.0950 H     1 <1>   0.0800 
 18 H        0.9020    -3.4330     0.1020 H     1 <1>   0.0800 
 19 H        1.8810    -2.0580     0.5520 H     1 <1>   0.0800 
 20 H       -3.2030    -1.9930    -0.8180 H     1 <1>   0.0800 
 21 H       -2.6850    -1.6440     0.8160 H     1 <1>   0.0800 
 22 H       -3.5530     2.7190    -0.3760 H     1 <1>   0.0800 
 23 H       -2.9810     2.9830     1.2510 H     1 <1>   0.0800 
 24 H       -2.3410     4.7400    -1.1390 H     1 <1>   0.0800 
 25 H       -1.7770     5.0150     0.4940 H     1 <1>   0.0800 
 26 H       -3.4810     5.1210     0.1280 H     1 <1>   0.0800 
@<TRIPOS>BOND
  1   1   2  1   
  2   1   3  1   
  3   2   4  1   
  4   2   5  1   
  5   2  11  1   
  6   3   6  1   
  7   3   7  1   
  8   3  12  1   
  9   4   8  1   
 10   4  13  1   
 11   4  14  1   
 12   5   9  1   
 13   5  15  1   
 14   5  16  1   
 15   6   8  1   
 16   7  17  1   
 17   7  18  1   
 18   7  19  1   
 19   8  20  1   
 20   8  21  1   
 21   9  10  1   
 22   9  22  1   
 23   9  23  1   
 24  10  24  1   
 25  10  25  1   
 26  10  26  1   
@<TRIPOS>SUBSTRUCTURE
  1 ****   2 GROUP 4 **** **** 0

# MOE 2024.06 (io_trps.svl 2023.06)
