@<TRIPOS>MOLECULE
NONAME
49 51 1 0 0 
SMALL
USER_CHARGES


@<TRIPOS>ATOM
  1 S       -2.1390    -1.3040     2.1540 S.3   1 <1>  -0.0800 
  2 C       -1.7620    -0.3000     0.7670 C.2   1 <1>   0.1980 
  3 C       -0.4480    -1.3290     2.5580 C.2   1 <1>  -0.1100 
  4 N       -0.5230    -0.0290     0.6390 N.2   1 <1>  -0.5650 
  5 C       -2.9200     0.1250    -0.1190 C.3   1 <1>   0.3200 
  6 C        0.2260    -0.6070     1.6490 C.2   1 <1>   0.0460 
  7 N       -3.4920    -1.0480    -0.8210 N.am  1 <1>  -0.7300 
  8 C        1.7180    -0.3640     1.6180 C.3   1 <1>  -0.0590 
  9 C       -4.7430    -1.5410    -0.6460 C.2   1 <1>   0.5690 
 10 O       -5.5560    -0.9510     0.0240 O.2   1 <1>  -0.5700 
 11 C       -5.1130    -2.8860    -1.2820 C.3   1 <1>   0.2610 
 12 O       -4.0430    -3.3510    -2.0940 O.3   1 <1>  -0.5600 
 13 C       -5.5150    -3.8820    -0.1570 C.3   1 <1>   0.3640 
 14 C       -4.2320    -4.6450    -2.6020 C.3   1 <1>   0.1810 
 15 N       -4.9950    -5.2820    -0.3160 N.am  1 <1>  -0.6600 
 16 C       -7.0400    -3.9210    -0.0290 C.ar  1 <1>  -0.1430 
 17 C       -4.3840    -5.6690    -1.4820 C.2   1 <1>   0.5690 
 18 C       -5.1190    -6.1330     0.9000 C.3   1 <1>   0.2200 
 19 C       -7.6690    -3.1660     0.9510 C.ar  1 <1>  -0.1500 
 20 C       -7.8170    -4.6920    -0.8840 C.ar  1 <1>  -0.1500 
 21 O       -3.9620    -6.7840    -1.6840 O.2   1 <1>  -0.5700 
 22 C       -3.7330    -6.4470     1.4630 C.3   1 <1>  -0.2400 
 23 C       -5.9250    -7.4010     0.6180 C.3   1 <1>  -0.2400 
 24 C       -9.0470    -3.1840     1.0770 C.ar  1 <1>  -0.1500 
 25 C       -9.1950    -4.7110    -0.7590 C.ar  1 <1>  -0.1500 
 26 C       -9.8110    -3.9570     0.2230 C.ar  1 <1>  -0.1500 
 27 H       -0.1420    -1.8790     3.4290 H     1 <1>   0.1500 
 28 H       -2.5660     0.8340    -0.8470 H     1 <1>   0.0800 
 29 H       -3.6720     0.6050     0.4830 H     1 <1>   0.0800 
 30 H       -2.8320    -1.6090    -1.3710 H     1 <1>   0.3700 
 31 H        2.1970    -0.8560     2.4450 H     1 <1>   0.0800 
 32 H        1.9120     0.6910     1.6760 H     1 <1>   0.0800 
 33 H        2.1260    -0.7430     0.7000 H     1 <1>   0.0800 
 34 H       -5.9540    -2.7200    -1.9290 H     1 <1>   0.0800 
 35 H       -5.1120    -3.5030     0.7680 H     1 <1>   0.0800 
 36 H       -5.1050    -4.6510    -3.2290 H     1 <1>   0.0800 
 37 H       -3.3720    -4.8920    -3.1960 H     1 <1>   0.0800 
 38 H       -5.6560    -5.5790     1.6530 H     1 <1>   0.0800 
 39 H       -7.0920    -2.5490     1.6190 H     1 <1>   0.1500 
 40 H       -7.3550    -5.2900    -1.6500 H     1 <1>   0.1500 
 41 H       -3.1740    -7.0600     0.7790 H     1 <1>   0.0800 
 42 H       -3.8290    -6.9810     2.3900 H     1 <1>   0.0800 
 43 H       -3.1920    -5.5370     1.6470 H     1 <1>   0.0800 
 44 H       -5.4060    -8.0510    -0.0630 H     1 <1>   0.0800 
 45 H       -6.8850    -7.1490     0.2080 H     1 <1>   0.0800 
 46 H       -6.0830    -7.9400     1.5340 H     1 <1>   0.0800 
 47 H       -9.5240    -2.5920     1.8400 H     1 <1>   0.1500 
 48 H       -9.7880    -5.3150    -1.4240 H     1 <1>   0.1500 
 49 H      -10.8830    -3.9710     0.3220 H     1 <1>   0.1500 
@<TRIPOS>BOND
  1   1   2  1   
  2   1   3  1   
  3   2   4  2   
  4   2   5  1   
  5   3   6  2   
  6   3  27  1   
  7   4   6  1   
  8   5   7  1   
  9   5  28  1   
 10   5  29  1   
 11   6   8  1   
 12   7   9  am  
 13   7  30  1   
 14   8  31  1   
 15   8  32  1   
 16   8  33  1   
 17   9  10  2   
 18   9  11  1   
 19  11  12  1   
 20  11  13  1   
 21  11  34  1   
 22  12  14  1   
 23  13  15  1   
 24  13  16  1   
 25  13  35  1   
 26  14  17  1   
 27  14  36  1   
 28  14  37  1   
 29  15  17  am  
 30  15  18  1   
 31  16  19  ar  
 32  16  20  ar  
 33  17  21  2   
 34  18  22  1   
 35  18  23  1   
 36  18  38  1   
 37  19  24  ar  
 38  19  39  1   
 39  20  25  ar  
 40  20  40  1   
 41  22  41  1   
 42  22  42  1   
 43  22  43  1   
 44  23  44  1   
 45  23  45  1   
 46  23  46  1   
 47  24  26  ar  
 48  24  47  1   
 49  25  26  ar  
 50  25  48  1   
 51  26  49  1   
@<TRIPOS>SUBSTRUCTURE
  1 ****  13 GROUP 4 **** **** 0

# MOE 2024.06 (io_trps.svl 2023.06)
