@<TRIPOS>MOLECULE
NONAME
46 49 1 0 0 
SMALL
USER_CHARGES


@<TRIPOS>ATOM
  1 F       -1.2130    -0.3740     1.1480 F     1 <1>  -0.1900 
  2 C       -2.3170    -0.9840     0.8140 C.ar  1 <1>   0.1900 
  3 C       -3.4600    -0.2610     0.6340 C.ar  1 <1>  -0.1500 
  4 C       -2.2770    -2.3680     0.6550 C.ar  1 <1>  -0.1500 
  5 C       -4.6510    -0.9080     0.2760 C.ar  1 <1>   0.3100 
  6 C       -3.4290    -3.0200     0.3040 C.ar  1 <1>  -0.1500 
  7 N       -5.7530    -0.1420     0.1150 N.ar  1 <1>  -0.6200 
  8 C       -4.6400    -2.3170     0.1040 C.ar  1 <1>   0.0000 
  9 C       -6.8610    -0.7450    -0.2130 C.ar  1 <1>   0.4100 
 10 C       -5.8550    -2.9370    -0.2630 C.ar  1 <1>  -0.1440 
 11 N       -8.0000     0.0170    -0.3600 N.pl3 1 <1>  -0.8380 
 12 C       -6.9430    -2.1350    -0.4170 C.ar  1 <1>  -0.1500 
 13 C       -5.9560    -4.4380    -0.4890 C.3   1 <1>  -0.0970 
 14 C       -9.1500    -0.2320     0.5530 C.3   1 <1>   0.2090 
 15 C       -7.8840     1.4280    -0.8050 C.3   1 <1>   0.2090 
 16 C      -10.4940     0.1380    -0.1210 C.3   1 <1>   0.0000 
 17 C       -9.1810     1.8480    -1.5030 C.3   1 <1>  -0.1600 
 18 C      -11.6320    -0.1140     0.8910 C.3   1 <1>   0.2000 
 19 C      -10.4170     1.6040    -0.6190 C.3   1 <1>  -0.1600 
 20 C      -10.8170    -0.8550    -1.2570 C.3   1 <1>  -0.1600 
 21 O      -12.7900     0.5270     0.4870 O.3   1 <1>  -0.6800 
 22 C      -11.9040    -1.6150     0.8180 C.3   1 <1>  -0.1600 
 23 C      -11.5320    -2.0490    -0.6070 C.3   1 <1>  -0.1600 
 24 H       -3.4710     0.8050     0.7630 H     1 <1>   0.1500 
 25 H       -1.3480    -2.8880     0.8090 H     1 <1>   0.1500 
 26 H       -3.4110    -4.0870     0.1770 H     1 <1>   0.1500 
 27 H       -7.8970    -2.5290    -0.7080 H     1 <1>   0.1500 
 28 H       -6.9570    -4.7170    -0.7680 H     1 <1>   0.0800 
 29 H       -5.6980    -4.9650     0.4130 H     1 <1>   0.0800 
 30 H       -5.2900    -4.7390    -1.2770 H     1 <1>   0.0800 
 31 H       -9.1540    -1.2630     0.8570 H     1 <1>   0.0800 
 32 H       -9.0160     0.3680     1.4370 H     1 <1>   0.0800 
 33 H       -7.6990     2.0550     0.0510 H     1 <1>   0.0800 
 34 H       -7.0550     1.5280    -1.4850 H     1 <1>   0.0800 
 35 H       -9.1210     2.8900    -1.7580 H     1 <1>   0.0800 
 36 H       -9.2700     1.2920    -2.4190 H     1 <1>   0.0800 
 37 H      -11.3970     0.2220     1.8870 H     1 <1>   0.0800 
 38 H      -11.3020     1.8640    -1.1720 H     1 <1>   0.0800 
 39 H      -10.3680     2.2580     0.2350 H     1 <1>   0.0800 
 40 H      -11.4850    -0.3930    -1.9630 H     1 <1>   0.0800 
 41 H       -9.9330    -1.1630    -1.7900 H     1 <1>   0.0800 
 42 H      -13.0220     0.2190    -0.4090 H     1 <1>   0.4000 
 43 H      -11.2600    -2.1190     1.5170 H     1 <1>   0.0800 
 44 H      -12.9230    -1.8550     1.0690 H     1 <1>   0.0800 
 45 H      -10.8800    -2.9050    -0.5740 H     1 <1>   0.0800 
 46 H      -12.4120    -2.3060    -1.1710 H     1 <1>   0.0800 
@<TRIPOS>BOND
  1   1   2  1   
  2   2   3  ar  
  3   2   4  ar  
  4   3   5  ar  
  5   3  24  1   
  6   4   6  ar  
  7   4  25  1   
  8   5   7  ar  
  9   5   8  ar  
 10   6   8  ar  
 11   6  26  1   
 12   7   9  ar  
 13   8  10  ar  
 14   9  11  1   
 15   9  12  ar  
 16  10  12  ar  
 17  10  13  1   
 18  11  14  1   
 19  11  15  1   
 20  12  27  1   
 21  13  28  1   
 22  13  29  1   
 23  13  30  1   
 24  14  16  1   
 25  14  31  1   
 26  14  32  1   
 27  15  17  1   
 28  15  33  1   
 29  15  34  1   
 30  16  18  1   
 31  16  19  1   
 32  16  20  1   
 33  17  19  1   
 34  17  35  1   
 35  17  36  1   
 36  18  21  1   
 37  18  22  1   
 38  18  37  1   
 39  19  38  1   
 40  19  39  1   
 41  20  23  1   
 42  20  40  1   
 43  20  41  1   
 44  21  42  1   
 45  22  23  1   
 46  22  43  1   
 47  22  44  1   
 48  23  45  1   
 49  23  46  1   
@<TRIPOS>SUBSTRUCTURE
  1 ****   9 GROUP 4 **** **** 0

# MOE 2024.06 (io_trps.svl 2023.06)
