@<TRIPOS>MOLECULE
NONAME
46 47 1 0 0 
SMALL
USER_CHARGES


@<TRIPOS>ATOM
  1 O        4.8570    -0.7250    -0.6320 O.2   1 <1>  -0.5700 
  2 C        4.2960    -0.8100     0.4330 C.2   1 <1>   0.6590 
  3 O        4.4250     0.1510     1.3450 O.3   1 <1>  -0.4300 
  4 C        3.4280    -2.0380     0.8200 C.3   1 <1>   0.4840 
  5 C        5.3260     1.2380     1.1840 C.3   1 <1>   0.1200 
  6 N        3.5330    -3.2400    -0.1170 N.4   1 <1>  -0.9590 
  7 C        1.9340    -1.6620     0.9870 C.3   1 <1>  -0.1600 
  8 C        4.8170     2.2130     0.1040 C.3   1 <1>   0.3430 
  9 C        2.8620    -4.4230     0.5150 C.3   1 <1>   0.3430 
 10 C        2.8720    -2.9440    -1.4350 C.3   1 <1>   0.3430 
 11 C        1.0240    -2.6850     0.2840 C.3   1 <1>  -0.0800 
 12 N        5.7910     3.3150    -0.1980 N.4   1 <1>  -0.9590 
 13 C        1.3890    -4.0850     0.8140 C.3   1 <1>  -0.1600 
 14 C        1.3760    -2.6500    -1.2140 C.3   1 <1>  -0.1600 
 15 C        5.1240     4.3640    -1.0180 C.3   1 <1>   0.3430 
 16 C        7.0200     2.8040    -0.8710 C.3   1 <1>   0.3430 
 17 C        5.9350     5.6540    -0.9630 C.3   1 <1>  -0.2400 
 18 C        8.2010     3.0020     0.0690 C.3   1 <1>  -0.2400 
 19 H        3.7850    -2.3530     1.7860 H     1 <1>   0.0800 
 20 H        6.2860     0.8280     0.9210 H     1 <1>   0.0800 
 21 H        5.4000     1.7380     2.1340 H     1 <1>   0.0800 
 22 H        4.5270    -3.4430    -0.2920 H     1 <1>   0.4500 
 23 H        1.7460    -0.6810     0.5850 H     1 <1>   0.0800 
 24 H        1.6990    -1.6170     2.0360 H     1 <1>   0.0800 
 25 H        3.8910     2.6430     0.4480 H     1 <1>   0.0800 
 26 H        4.6210     1.6640    -0.8030 H     1 <1>   0.0800 
 27 H        3.3660    -4.6930     1.4290 H     1 <1>   0.0800 
 28 H        2.9080    -5.2680    -0.1550 H     1 <1>   0.0800 
 29 H        2.9780    -3.7880    -2.0970 H     1 <1>   0.0800 
 30 H        3.3440    -2.0940    -1.9020 H     1 <1>   0.0800 
 31 H       -0.0190    -2.4620     0.4470 H     1 <1>   0.0800 
 32 H        6.0800     3.7650     0.6820 H     1 <1>   0.4500 
 33 H        1.2170    -4.1360     1.8750 H     1 <1>   0.0800 
 34 H        0.7570    -4.8280     0.3590 H     1 <1>   0.0800 
 35 H        0.7900    -3.3790    -1.7480 H     1 <1>   0.0800 
 36 H        1.1360    -1.6890    -1.6340 H     1 <1>   0.0800 
 37 H        4.1380     4.5620    -0.6260 H     1 <1>   0.0800 
 38 H        5.0200     4.0330    -2.0400 H     1 <1>   0.0800 
 39 H        7.1990     3.3430    -1.7880 H     1 <1>   0.0800 
 40 H        6.9120     1.7580    -1.1150 H     1 <1>   0.0800 
 41 H        6.0490     5.9940     0.0500 H     1 <1>   0.0800 
 42 H        5.4140     6.4190    -1.5110 H     1 <1>   0.0800 
 43 H        6.9030     5.5330    -1.4170 H     1 <1>   0.0800 
 44 H        8.3490     4.0460     0.2820 H     1 <1>   0.0800 
 45 H        9.0940     2.6350    -0.4060 H     1 <1>   0.0800 
 46 H        8.0700     2.4590     0.9870 H     1 <1>   0.0800 
@<TRIPOS>BOND
  1   1   2  2   
  2   2   3  1   
  3   2   4  1   
  4   3   5  1   
  5   4   6  1   
  6   4   7  1   
  7   4  19  1   
  8   5   8  1   
  9   5  20  1   
 10   5  21  1   
 11   6   9  1   
 12   6  10  1   
 13   6  22  1   
 14   7  11  1   
 15   7  23  1   
 16   7  24  1   
 17   8  12  1   
 18   8  25  1   
 19   8  26  1   
 20   9  13  1   
 21   9  27  1   
 22   9  28  1   
 23  10  14  1   
 24  10  29  1   
 25  10  30  1   
 26  11  13  1   
 27  11  14  1   
 28  11  31  1   
 29  12  15  1   
 30  12  16  1   
 31  12  32  1   
 32  13  33  1   
 33  13  34  1   
 34  14  35  1   
 35  14  36  1   
 36  15  17  1   
 37  15  37  1   
 38  15  38  1   
 39  16  18  1   
 40  16  39  1   
 41  16  40  1   
 42  17  41  1   
 43  17  42  1   
 44  17  43  1   
 45  18  44  1   
 46  18  45  1   
 47  18  46  1   
@<TRIPOS>SUBSTRUCTURE
  1 ****   2 GROUP 4 **** **** 0

# MOE 2024.06 (io_trps.svl 2023.06)
