@<TRIPOS>MOLECULE
NONAME
54 58 1 0 0 
SMALL
USER_CHARGES


@<TRIPOS>ATOM
  1 O        0.6790     0.3580     0.5940 O.2   1 <1>  -0.5700 
  2 C        1.4290    -0.5640     0.2960 C.2   1 <1>   0.6160 
  3 N        2.4230    -0.3930    -0.6550 N.am  1 <1>  -0.4690 
  4 C        1.2920    -1.8350     0.9050 C.2   1 <1>  -0.1360 
  5 C        3.2520    -1.4480    -0.9810 C.2   1 <1>  -0.0410 
  6 C        2.6190     0.9240    -1.3110 C.3   1 <1>   0.1400 
  7 C        2.0880    -2.8980     0.5780 C.2   1 <1>   0.0140 
  8 C        3.1030    -2.6630    -0.3950 C.2   1 <1>  -0.1500 
  9 C        3.6450     1.7410    -0.5280 C.3   1 <1>  -0.2400 
 10 C        1.9520    -4.2120     1.1790 C.2   1 <1>   0.6160 
 11 O        2.9530    -4.8410     1.4670 O.2   1 <1>  -0.5700 
 12 N        0.7190    -4.7790     1.4220 N.am  1 <1>  -0.6600 
 13 C        0.5560    -5.9130     2.3740 C.3   1 <1>   0.1400 
 14 C       -0.4960    -4.5000     0.6080 C.3   1 <1>   0.1400 
 15 C        0.2030    -7.1800     1.5950 C.3   1 <1>  -0.1600 
 16 C       -0.8550    -5.7540    -0.1920 C.3   1 <1>  -0.1600 
 17 C       -1.0370    -6.9750     0.7200 C.3   1 <1>   0.4600 
 18 O       -2.1120    -6.7340     1.6040 O.3   1 <1>  -0.5600 
 19 C       -1.3250    -8.2310    -0.0920 C.2   1 <1>  -0.3320 
 20 C       -3.4210    -6.9480     1.1310 C.3   1 <1>   0.1200 
 21 N       -0.4600    -8.8660    -0.9420 N.pl3 1 <1>   0.0330 
 22 C       -2.4970    -8.8960    -0.0740 C.2   1 <1>  -0.1810 
 23 C       -3.6510    -8.4260     0.7750 C.3   1 <1>   0.0210 
 24 C       -1.1070    -9.9590    -1.4660 C.ar  1 <1>  -0.1520 
 25 C       -2.3940   -10.0070    -0.9360 C.ar  1 <1>   0.0000 
 26 C       -0.6700   -10.9280    -2.3730 C.ar  1 <1>  -0.1500 
 27 C       -3.2600   -11.0370    -1.3140 C.ar  1 <1>  -0.1500 
 28 C       -1.5330   -11.9360    -2.7370 C.ar  1 <1>  -0.1500 
 29 C       -2.8290   -11.9900    -2.2070 C.ar  1 <1>  -0.1500 
 30 H        0.5230    -1.9180     1.6480 H     1 <1>   0.1500 
 31 H        4.0220    -1.2680    -1.7140 H     1 <1>   0.1500 
 32 H        1.6830     1.4550    -1.3560 H     1 <1>   0.0800 
 33 H        2.9620     0.7730    -2.3200 H     1 <1>   0.0800 
 34 H        3.7540    -3.4850    -0.6440 H     1 <1>   0.1500 
 35 H        3.2900     1.9150     0.4720 H     1 <1>   0.0800 
 36 H        3.7920     2.6930    -1.0060 H     1 <1>   0.0800 
 37 H        4.5880     1.2260    -0.4900 H     1 <1>   0.0800 
 38 H       -0.2320    -5.6800     3.0700 H     1 <1>   0.0800 
 39 H        1.4610    -6.0700     2.9370 H     1 <1>   0.0800 
 40 H       -0.3280    -3.6860    -0.0730 H     1 <1>   0.0800 
 41 H       -1.3090    -4.2350     1.2630 H     1 <1>   0.0800 
 42 H        0.0240    -7.9920     2.2760 H     1 <1>   0.0800 
 43 H        1.0450    -7.4460     0.9830 H     1 <1>   0.0800 
 44 H       -0.0620    -5.9510    -0.8900 H     1 <1>   0.0800 
 45 H       -1.7460    -5.5860    -0.7660 H     1 <1>   0.0800 
 46 H       -3.5800    -6.3280     0.2670 H     1 <1>   0.0800 
 47 H       -4.1030    -6.6430     1.9050 H     1 <1>   0.0800 
 48 H        0.5070    -8.5990    -1.1460 H     1 <1>   0.2700 
 49 H       -4.5750    -8.5310     0.2370 H     1 <1>   0.0800 
 50 H       -3.7050    -9.0160     1.6720 H     1 <1>   0.0800 
 51 H        0.3260   -10.8790    -2.7740 H     1 <1>   0.1500 
 52 H       -4.2500   -11.0670    -0.8980 H     1 <1>   0.1500 
 53 H       -1.2210   -12.6940    -3.4340 H     1 <1>   0.1500 
 54 H       -3.4830   -12.7890    -2.5070 H     1 <1>   0.1500 
@<TRIPOS>BOND
  1   1   2  2   
  2   2   3  am  
  3   2   4  1   
  4   3   5  1   
  5   3   6  1   
  6   4   7  2   
  7   4  30  1   
  8   5   8  2   
  9   5  31  1   
 10   6   9  1   
 11   6  32  1   
 12   6  33  1   
 13   7   8  1   
 14   7  10  1   
 15   8  34  1   
 16   9  35  1   
 17   9  36  1   
 18   9  37  1   
 19  10  11  2   
 20  10  12  am  
 21  12  13  1   
 22  12  14  1   
 23  13  15  1   
 24  13  38  1   
 25  13  39  1   
 26  14  16  1   
 27  14  40  1   
 28  14  41  1   
 29  15  17  1   
 30  15  42  1   
 31  15  43  1   
 32  16  17  1   
 33  16  44  1   
 34  16  45  1   
 35  17  18  1   
 36  17  19  1   
 37  18  20  1   
 38  19  21  1   
 39  19  22  2   
 40  20  23  1   
 41  20  46  1   
 42  20  47  1   
 43  21  24  1   
 44  21  48  1   
 45  22  23  1   
 46  22  25  1   
 47  23  49  1   
 48  23  50  1   
 49  24  25  ar  
 50  24  26  ar  
 51  25  27  ar  
 52  26  28  ar  
 53  26  51  1   
 54  27  29  ar  
 55  27  52  1   
 56  28  29  ar  
 57  28  53  1   
 58  29  54  1   
@<TRIPOS>SUBSTRUCTURE
  1 ****  16 GROUP 4 **** **** 0

# MOE 2024.06 (io_trps.svl 2023.06)
