@<TRIPOS>MOLECULE
NONAME
45 47 1 0 0 
SMALL
USER_CHARGES


@<TRIPOS>ATOM
  1 CL       0.9410    -0.5810    -0.1680 Cl    1 <1>  -0.1770 
  2 C        0.3570    -2.2180    -0.0020 C.ar  1 <1>   0.1770 
  3 C        0.9290    -3.0490     0.9420 C.ar  1 <1>  -0.1500 
  4 C       -0.6690    -2.6570    -0.8190 C.ar  1 <1>  -0.1500 
  5 C        0.4620    -4.3470     1.0700 C.ar  1 <1>  -0.1500 
  6 C       -1.1350    -3.9560    -0.6900 C.ar  1 <1>  -0.1500 
  7 C       -0.5670    -4.8070     0.2590 C.ar  1 <1>   0.0830 
  8 O       -0.9600    -6.0910     0.4520 O.3   1 <1>  -0.3630 
  9 C       -1.9870    -6.6700    -0.3150 C.3   1 <1>   0.1200 
 10 C       -2.1360    -8.1200     0.1590 C.3   1 <1>   0.3430 
 11 N       -3.1860    -8.8780    -0.6000 N.4   1 <1>  -0.9590 
 12 C       -4.5890    -8.3940    -0.3330 C.3   1 <1>   0.3430 
 13 C       -3.1510   -10.3400    -0.2650 C.3   1 <1>   0.3430 
 14 C       -5.3290    -9.5390     0.3650 C.3   1 <1>   0.2000 
 15 C       -4.6060   -10.7880    -0.1350 C.3   1 <1>  -0.0800 
 16 O       -5.1810    -9.4020     1.7400 O.3   1 <1>  -0.6800 
 17 C       -4.7840   -12.0670     0.7070 C.3   1 <1>  -0.0170 
 18 C       -3.8540   -13.1550     0.1950 C.ar  1 <1>  -0.1430 
 19 C       -2.7310   -13.5470     0.8970 C.ar  1 <1>  -0.1500 
 20 C       -4.0810   -13.8000    -1.0050 C.ar  1 <1>  -0.1500 
 21 C       -1.8990   -14.5190     0.3680 C.ar  1 <1>   0.1600 
 22 C       -3.1850   -14.7610    -1.4450 C.ar  1 <1>   0.1600 
 23 N       -2.0940   -15.1220    -0.7920 N.ar  1 <1>  -0.6200 
 24 H        1.7250    -2.6830     1.5650 H     1 <1>   0.1500 
 25 H       -1.0920    -1.9850    -1.5440 H     1 <1>   0.1500 
 26 H        0.8970    -5.0050     1.8000 H     1 <1>   0.1500 
 27 H       -1.9310    -4.2740    -1.3340 H     1 <1>   0.1500 
 28 H       -2.8860    -6.1060    -0.1440 H     1 <1>   0.0800 
 29 H       -1.6930    -6.6310    -1.3490 H     1 <1>   0.0800 
 30 H       -2.3800    -8.1160     1.2090 H     1 <1>   0.0800 
 31 H       -1.1830    -8.6100     0.0340 H     1 <1>   0.0800 
 32 H       -2.9940    -8.7860    -1.6090 H     1 <1>   0.4500 
 33 H       -4.6090    -7.5070     0.2790 H     1 <1>   0.0800 
 34 H       -5.0780    -8.1840    -1.2710 H     1 <1>   0.0800 
 35 H       -2.6350   -10.9110    -1.0220 H     1 <1>   0.0800 
 36 H       -2.6510   -10.4890     0.6780 H     1 <1>   0.0800 
 37 H       -6.3830    -9.5390     0.1420 H     1 <1>   0.0800 
 38 H       -4.9600   -10.9980    -1.1290 H     1 <1>   0.0800 
 39 H       -4.2760    -9.5870     2.0540 H     1 <1>   0.4000 
 40 H       -5.8050   -12.4060     0.6440 H     1 <1>   0.0800 
 41 H       -4.5730   -11.8840     1.7460 H     1 <1>   0.0800 
 42 H       -2.4900   -13.1170     1.8520 H     1 <1>   0.1500 
 43 H       -4.9440   -13.5750    -1.6040 H     1 <1>   0.1500 
 44 H       -1.0270   -14.8180     0.9260 H     1 <1>   0.1500 
 45 H       -3.3740   -15.2570    -2.3820 H     1 <1>   0.1500 
@<TRIPOS>BOND
  1   1   2  1   
  2   2   3  ar  
  3   2   4  ar  
  4   3   5  ar  
  5   3  24  1   
  6   4   6  ar  
  7   4  25  1   
  8   5   7  ar  
  9   5  26  1   
 10   6   7  ar  
 11   6  27  1   
 12   7   8  1   
 13   8   9  1   
 14   9  10  1   
 15   9  28  1   
 16   9  29  1   
 17  10  11  1   
 18  10  30  1   
 19  10  31  1   
 20  11  12  1   
 21  11  13  1   
 22  11  32  1   
 23  12  14  1   
 24  12  33  1   
 25  12  34  1   
 26  13  15  1   
 27  13  35  1   
 28  13  36  1   
 29  14  15  1   
 30  14  16  1   
 31  14  37  1   
 32  15  17  1   
 33  15  38  1   
 34  16  39  1   
 35  17  18  1   
 36  17  40  1   
 37  17  41  1   
 38  18  19  ar  
 39  18  20  ar  
 40  19  21  ar  
 41  19  42  1   
 42  20  22  ar  
 43  20  43  1   
 44  21  23  ar  
 45  21  44  1   
 46  22  23  ar  
 47  22  45  1   
@<TRIPOS>SUBSTRUCTURE
  1 ****  10 GROUP 4 **** **** 0

# MOE 2024.06 (io_trps.svl 2023.06)
