@<TRIPOS>MOLECULE
NONAME
54 57 1 0 0 
SMALL
USER_CHARGES


@<TRIPOS>ATOM
  1 O        0.7980     0.0250     1.6530 O.2   1 <1>  -0.5700 
  2 C        0.5700     1.1610     2.0040 C.2   1 <1>   0.5690 
  3 N       -0.5240     1.8490     1.5340 N.am  1 <1>  -0.6600 
  4 C        1.5540     1.7720     3.0080 C.3   1 <1>   0.1810 
  5 C       -1.3620     1.2710     0.4410 C.3   1 <1>   0.1400 
  6 C       -0.8700     3.2330     1.9780 C.3   1 <1>   0.1400 
  7 O        2.0090     3.0710     2.6460 O.3   1 <1>  -0.3620 
  8 C       -1.8510     2.3750    -0.5000 C.3   1 <1>  -0.1600 
  9 C       -2.3510     3.5090     1.7250 C.3   1 <1>  -0.1600 
 10 C        2.6970     3.2970     1.4990 C.ar  1 <1>   0.0820 
 11 C       -2.6790     3.4700     0.2170 C.3   1 <1>   0.2800 
 12 C        3.1890     2.3140     0.6730 C.ar  1 <1>  -0.1500 
 13 C        2.8960     4.6420     1.1640 C.ar  1 <1>  -0.1500 
 14 O       -2.2520     4.6810    -0.3600 O.3   1 <1>  -0.5600 
 15 C       -4.2000     3.2720    -0.0160 C.3   1 <1>  -0.1600 
 16 C        3.8790     2.6340    -0.5130 C.ar  1 <1>   0.0000 
 17 C        3.5650     4.9800     0.0210 C.ar  1 <1>  -0.1500 
 18 C       -3.0880     5.8000    -0.2540 C.3   1 <1>   0.1200 
 19 C       -4.7290     4.0820    -1.2030 C.3   1 <1>   0.2800 
 20 C        4.0730     3.9920    -0.8470 C.ar  1 <1>   0.0000 
 21 C        4.3820     1.6450    -1.3830 C.ar  1 <1>  -0.1500 
 22 C       -4.4160     5.5660    -0.9910 C.3   1 <1>  -0.1600 
 23 O       -4.0510     3.6860    -2.3250 O.3   1 <1>  -0.6800 
 24 C       -6.2100     3.8320    -1.4730 C.3   1 <1>  -0.2400 
 25 C        4.7640     4.3060    -2.0340 C.ar  1 <1>  -0.1500 
 26 C        5.0480     1.9790    -2.5290 C.ar  1 <1>  -0.1500 
 27 C        5.2420     3.3250    -2.8580 C.ar  1 <1>  -0.1500 
 28 H        2.4120     1.1360     3.1160 H     1 <1>   0.0800 
 29 H        1.0710     1.8550     3.9630 H     1 <1>   0.0800 
 30 H       -2.2010     0.7560     0.8760 H     1 <1>   0.0800 
 31 H       -0.7880     0.5560    -0.1230 H     1 <1>   0.0800 
 32 H       -0.2700     3.9400     1.4280 H     1 <1>   0.0800 
 33 H       -0.6580     3.3460     3.0260 H     1 <1>   0.0800 
 34 H       -2.4210     1.9190    -1.2870 H     1 <1>   0.0800 
 35 H       -0.9780     2.8130    -0.9530 H     1 <1>   0.0800 
 36 H       -2.6200     4.4550     2.1520 H     1 <1>   0.0800 
 37 H       -2.9180     2.7570     2.2430 H     1 <1>   0.0800 
 38 H        3.0650     1.2720     0.8980 H     1 <1>   0.1500 
 39 H        2.5080     5.3960     1.8250 H     1 <1>   0.1500 
 40 H       -4.7340     3.5910     0.8610 H     1 <1>   0.0800 
 41 H       -4.4310     2.2290    -0.1420 H     1 <1>   0.0800 
 42 H        3.7150     6.0130    -0.2360 H     1 <1>   0.1500 
 43 H       -2.5660     6.6390    -0.6810 H     1 <1>   0.0800 
 44 H       -3.2620     6.0030     0.7870 H     1 <1>   0.0800 
 45 H        4.2270     0.6120    -1.1260 H     1 <1>   0.1500 
 46 H       -4.4110     6.0790    -1.9370 H     1 <1>   0.0800 
 47 H       -5.1930     6.0160    -0.4010 H     1 <1>   0.0800 
 48 H       -3.1090     3.9160    -2.1770 H     1 <1>   0.4000 
 49 H       -6.7990     4.1170    -0.6210 H     1 <1>   0.0800 
 50 H       -6.3800     2.7890    -1.6710 H     1 <1>   0.0800 
 51 H       -6.5340     4.4080    -2.3210 H     1 <1>   0.0800 
 52 H        4.9090     5.3420    -2.2820 H     1 <1>   0.1500 
 53 H        5.4290     1.2190    -3.1890 H     1 <1>   0.1500 
 54 H        5.7690     3.5720    -3.7640 H     1 <1>   0.1500 
@<TRIPOS>BOND
  1   1   2  2   
  2   2   3  am  
  3   2   4  1   
  4   3   5  1   
  5   3   6  1   
  6   4   7  1   
  7   4  28  1   
  8   4  29  1   
  9   5   8  1   
 10   5  30  1   
 11   5  31  1   
 12   6   9  1   
 13   6  32  1   
 14   6  33  1   
 15   7  10  1   
 16   8  11  1   
 17   8  34  1   
 18   8  35  1   
 19   9  11  1   
 20   9  36  1   
 21   9  37  1   
 22  10  12  ar  
 23  10  13  ar  
 24  11  14  1   
 25  11  15  1   
 26  12  16  ar  
 27  12  38  1   
 28  13  17  ar  
 29  13  39  1   
 30  14  18  1   
 31  15  19  1   
 32  15  40  1   
 33  15  41  1   
 34  16  20  ar  
 35  16  21  ar  
 36  17  20  ar  
 37  17  42  1   
 38  18  22  1   
 39  18  43  1   
 40  18  44  1   
 41  19  22  1   
 42  19  23  1   
 43  19  24  1   
 44  20  25  ar  
 45  21  26  ar  
 46  21  45  1   
 47  22  46  1   
 48  22  47  1   
 49  23  48  1   
 50  24  49  1   
 51  24  50  1   
 52  24  51  1   
 53  25  27  ar  
 54  25  52  1   
 55  26  27  ar  
 56  26  53  1   
 57  27  54  1   
@<TRIPOS>SUBSTRUCTURE
  1 ****   3 GROUP 4 **** **** 0

# MOE 2024.06 (io_trps.svl 2023.06)
