@<TRIPOS>MOLECULE
NONAME
38 39 1 0 0 
SMALL
USER_CHARGES


@<TRIPOS>ATOM
  1 O       -0.3850    -2.1330     1.3070 O.3   1 <1>  -0.5600 
  2 C       -0.1240    -1.8430    -0.0400 C.3   1 <1>   0.2000 
  3 C        0.0480    -1.1630     2.2160 C.3   1 <1>   0.0400 
  4 C       -1.1980    -2.5960    -0.8440 C.3   1 <1>   0.3430 
  5 C        1.2840    -2.3770    -0.3860 C.3   1 <1>  -0.1600 
  6 N       -1.1320    -4.0280    -0.4110 N.4   1 <1>  -0.9590 
  7 C        1.2530    -3.6900    -1.2010 C.3   1 <1>  -0.1600 
  8 C        0.1720    -4.6920    -0.7570 C.3   1 <1>   0.3430 
  9 C       -2.3460    -4.8030    -0.7750 C.3   1 <1>   0.3430 
 10 C       -2.4040    -6.1070     0.0200 C.3   1 <1>  -0.1600 
 11 C       -3.7160    -6.8600    -0.2440 C.3   1 <1>   0.0960 
 12 N       -3.7240    -8.1270     0.5100 N.pl3 1 <1>   0.0480 
 13 C       -3.4210    -9.3650     0.0570 C.2   1 <1>   0.0360 
 14 C       -4.0020    -8.3000     1.8140 C.2   1 <1>  -0.3020 
 15 N       -3.4830   -10.2850     0.9620 N.2   1 <1>  -0.5650 
 16 C       -3.8510    -9.6170     2.0710 C.2   1 <1>   0.0770 
 17 H       -0.2000    -0.7800    -0.2040 H     1 <1>   0.0800 
 18 H       -0.1760    -1.5090     3.2110 H     1 <1>   0.0800 
 19 H       -0.4750    -0.2400     2.0320 H     1 <1>   0.0800 
 20 H        1.1100    -1.0180     2.1190 H     1 <1>   0.0800 
 21 H       -1.0150    -2.5040    -1.9010 H     1 <1>   0.0800 
 22 H       -2.1630    -2.1750    -0.6180 H     1 <1>   0.0800 
 23 H        1.8520    -2.5300     0.5160 H     1 <1>   0.0800 
 24 H        1.8050    -1.6350    -0.9650 H     1 <1>   0.0800 
 25 H       -1.1030    -3.9090     0.6210 H     1 <1>   0.4500 
 26 H        2.2160    -4.1670    -1.1510 H     1 <1>   0.0800 
 27 H        1.0830    -3.4550    -2.2380 H     1 <1>   0.0800 
 28 H        0.0220    -5.4090    -1.5470 H     1 <1>   0.0800 
 29 H        0.5270    -5.2280     0.1090 H     1 <1>   0.0800 
 30 H       -2.3440    -5.0130    -1.8330 H     1 <1>   0.0800 
 31 H       -3.2230    -4.2160    -0.5490 H     1 <1>   0.0800 
 32 H       -2.3400    -5.8870     1.0720 H     1 <1>   0.0800 
 33 H       -1.5840    -6.7450    -0.2590 H     1 <1>   0.0800 
 34 H       -3.8230    -7.0860    -1.2910 H     1 <1>   0.0800 
 35 H       -4.5630    -6.2740     0.0700 H     1 <1>   0.0800 
 36 H       -3.1520    -9.5530    -0.9680 H     1 <1>   0.1500 
 37 H       -4.2880    -7.5060     2.4790 H     1 <1>   0.1500 
 38 H       -3.9910   -10.1300     3.0090 H     1 <1>   0.1500 
@<TRIPOS>BOND
  1   1   2  1   
  2   1   3  1   
  3   2   4  1   
  4   2   5  1   
  5   2  17  1   
  6   3  18  1   
  7   3  19  1   
  8   3  20  1   
  9   4   6  1   
 10   4  21  1   
 11   4  22  1   
 12   5   7  1   
 13   5  23  1   
 14   5  24  1   
 15   6   8  1   
 16   6   9  1   
 17   6  25  1   
 18   7   8  1   
 19   7  26  1   
 20   7  27  1   
 21   8  28  1   
 22   8  29  1   
 23   9  10  1   
 24   9  30  1   
 25   9  31  1   
 26  10  11  1   
 27  10  32  1   
 28  10  33  1   
 29  11  12  1   
 30  11  34  1   
 31  11  35  1   
 32  12  13  1   
 33  12  14  1   
 34  13  15  2   
 35  13  36  1   
 36  14  16  2   
 37  14  37  1   
 38  15  16  1   
 39  16  38  1   
@<TRIPOS>SUBSTRUCTURE
  1 ****  10 GROUP 4 **** **** 0

# MOE 2024.06 (io_trps.svl 2023.06)
