@<TRIPOS>MOLECULE
NONAME
47 50 1 0 0 
SMALL
USER_CHARGES


@<TRIPOS>ATOM
  1 S       -0.2190     0.9530    -0.1520 S.3   1 <1>  -0.0800 
  2 C        1.4460     1.4800    -0.2840 C.ar  1 <1>   0.0400 
  3 C        0.2990    -0.7000    -0.4630 C.2   1 <1>   0.1980 
  4 C        2.2220     0.3690    -0.5500 C.ar  1 <1>   0.2270 
  5 C        1.9530     2.7570    -0.1570 C.ar  1 <1>  -0.1500 
  6 N        1.5480    -0.8430    -0.6430 N.2   1 <1>  -0.5650 
  7 C       -0.7760    -1.7610    -0.4850 C.3   1 <1>  -0.0600 
  8 C        3.5870     0.5570    -0.7030 C.ar  1 <1>  -0.1500 
  9 C        3.3300     2.9540    -0.2960 C.ar  1 <1>   0.0860 
 10 C        4.1220     1.8280    -0.5790 C.ar  1 <1>  -0.1500 
 11 C        3.9290     4.2680    -0.1560 C.2   1 <1>   0.5440 
 12 O        4.9100     4.5680    -0.8090 O.2   1 <1>  -0.5700 
 13 N        3.3860     5.1670     0.7350 N.am  1 <1>  -0.4940 
 14 C        3.5480     6.5650     0.9110 C.2   1 <1>  -0.0880 
 15 N        4.6800     7.3280     0.8280 N.pl3 1 <1>   0.3140 
 16 C        2.5450     7.4200     1.2220 C.2   1 <1>  -0.1500 
 17 N        4.4060     8.6360     1.0630 N.2   1 <1>  -0.7070 
 18 C        6.0780     6.9040     0.5600 C.3   1 <1>   0.1760 
 19 C        3.1320     8.6750     1.2970 C.2   1 <1>   0.1390 
 20 C        7.0680     7.5210     1.5620 C.3   1 <1>  -0.1600 
 21 C        6.4680     7.2940    -0.8730 C.3   1 <1>  -0.1600 
 22 C        8.4980     7.1130     1.2240 C.3   1 <1>   0.3430 
 23 C        7.8980     6.8690    -1.1700 C.3   1 <1>   0.3430 
 24 N        8.8180     7.5070    -0.1810 N.4   1 <1>  -0.9590 
 25 C       10.2430     7.2060    -0.5100 C.3   1 <1>   0.2630 
 26 H        1.2820     3.5750     0.0320 H     1 <1>   0.1500 
 27 H       -1.4930    -1.5390    -1.2540 H     1 <1>   0.0800 
 28 H       -1.2740    -1.7960     0.4670 H     1 <1>   0.0800 
 29 H       -0.3340    -2.7200    -0.6840 H     1 <1>   0.0800 
 30 H        4.2060    -0.2960    -0.9190 H     1 <1>   0.1500 
 31 H        5.1830     1.9630    -0.7050 H     1 <1>   0.1500 
 32 H        2.6000     4.7850     1.2650 H     1 <1>   0.3700 
 33 H        1.5040     7.2090     1.3780 H     1 <1>   0.1500 
 34 H        6.1320     5.8400     0.6820 H     1 <1>   0.0800 
 35 H        2.5990     9.5840     1.5230 H     1 <1>   0.1500 
 36 H        6.8290     7.1820     2.5550 H     1 <1>   0.0800 
 37 H        6.9980     8.5960     1.5530 H     1 <1>   0.0800 
 38 H        6.3690     8.3570    -1.0100 H     1 <1>   0.0800 
 39 H        5.8100     6.8120    -1.5740 H     1 <1>   0.0800 
 40 H        8.6050     6.0460     1.3360 H     1 <1>   0.0800 
 41 H        9.1790     7.5960     1.9070 H     1 <1>   0.0800 
 42 H        8.1610     7.1720    -2.1710 H     1 <1>   0.0800 
 43 H        7.9740     5.7950    -1.1090 H     1 <1>   0.0800 
 44 H        8.6730     8.5270    -0.2500 H     1 <1>   0.4500 
 45 H       10.4260     6.1450    -0.4500 H     1 <1>   0.0800 
 46 H       10.9020     7.7100     0.1790 H     1 <1>   0.0800 
 47 H       10.4740     7.5390    -1.5100 H     1 <1>   0.0800 
@<TRIPOS>BOND
  1   1   2  1   
  2   1   3  1   
  3   2   4  ar  
  4   2   5  ar  
  5   3   6  2   
  6   3   7  1   
  7   4   6  1   
  8   4   8  ar  
  9   5   9  ar  
 10   5  26  1   
 11   7  27  1   
 12   7  28  1   
 13   7  29  1   
 14   8  10  ar  
 15   8  30  1   
 16   9  10  ar  
 17   9  11  1   
 18  10  31  1   
 19  11  12  2   
 20  11  13  am  
 21  13  14  1   
 22  13  32  1   
 23  14  15  1   
 24  14  16  2   
 25  15  17  1   
 26  15  18  1   
 27  16  19  1   
 28  16  33  1   
 29  17  19  2   
 30  18  20  1   
 31  18  21  1   
 32  18  34  1   
 33  19  35  1   
 34  20  22  1   
 35  20  36  1   
 36  20  37  1   
 37  21  23  1   
 38  21  38  1   
 39  21  39  1   
 40  22  24  1   
 41  22  40  1   
 42  22  41  1   
 43  23  24  1   
 44  23  42  1   
 45  23  43  1   
 46  24  25  1   
 47  24  44  1   
 48  25  45  1   
 49  25  46  1   
 50  25  47  1   
@<TRIPOS>SUBSTRUCTURE
  1 ****  11 GROUP 4 **** **** 0

# MOE 2024.06 (io_trps.svl 2023.06)
