@<TRIPOS>MOLECULE
NONAME
44 46 1 0 0 
SMALL
USER_CHARGES


@<TRIPOS>ATOM
  1 O       -0.2600     0.1400     0.8440 O.2   1 <1>  -0.5700 
  2 C       -1.1780     0.6990     0.2700 C.2   1 <1>   0.6160 
  3 N       -2.0470    -0.0680    -0.4750 N.am  1 <1>  -0.6600 
  4 C       -1.3070     2.1250     0.3720 C.2   1 <1>   0.0290 
  5 C       -3.1790     0.4380    -1.2860 C.3   1 <1>   0.1400 
  6 C       -2.3440    -1.4690    -0.1130 C.3   1 <1>   0.1400 
  7 C       -2.4370     2.6090     1.1030 C.2   1 <1>   0.6160 
  8 C       -0.4190     3.0350    -0.1640 C.2   1 <1>  -0.1380 
  9 C       -4.4030    -0.3180    -0.7640 C.3   1 <1>   0.2000 
 10 C       -3.8670    -1.4990     0.0620 C.3   1 <1>  -0.0800 
 11 O       -3.3110     1.8980     1.5840 O.2   1 <1>  -0.5700 
 12 N       -2.5920     3.9600     1.2560 N.am  1 <1>  -0.5390 
 13 C       -0.6380     4.4180     0.0250 C.2   1 <1>  -0.1500 
 14 C        0.8180     2.6330    -0.9600 C.3   1 <1>  -0.1020 
 15 O       -5.1420     0.5070     0.0670 O.3   1 <1>  -0.6800 
 16 C       -4.5100    -2.8350    -0.3450 C.3   1 <1>  -0.0170 
 17 C       -1.7150     4.8650     0.7290 C.2   1 <1>  -0.0290 
 18 C       -3.9540    -3.9950     0.4650 C.ar  1 <1>   0.1670 
 19 C       -2.0050     6.3320     0.9720 C.3   1 <1>  -0.1020 
 20 N       -2.9230    -4.6410    -0.0560 N.ar  1 <1>  -0.6200 
 21 C       -4.5290    -4.3230     1.6920 C.ar  1 <1>   0.1600 
 22 C       -2.5080    -5.6240     0.7250 C.ar  1 <1>   0.1600 
 23 N       -4.1170    -5.3080     2.4730 N.ar  1 <1>  -0.6200 
 24 C       -3.0850    -5.9460     1.9480 C.ar  1 <1>   0.1600 
 25 H       -3.3060     1.5040    -1.2180 H     1 <1>   0.0800 
 26 H       -3.0030     0.1710    -2.3130 H     1 <1>   0.0800 
 27 H       -2.0310    -2.1130    -0.9180 H     1 <1>   0.0800 
 28 H       -1.8420    -1.7670     0.7920 H     1 <1>   0.0800 
 29 H       -5.0410    -0.6250    -1.5750 H     1 <1>   0.0800 
 30 H       -4.0670    -1.3280     1.1060 H     1 <1>   0.0800 
 31 H       -3.4110     4.2420     1.7950 H     1 <1>   0.3700 
 32 H        0.0680     5.1110    -0.3980 H     1 <1>   0.1500 
 33 H        0.8410     3.1610    -1.8970 H     1 <1>   0.0800 
 34 H        0.8380     1.5790    -1.1710 H     1 <1>   0.0800 
 35 H        1.7030     2.8800    -0.4020 H     1 <1>   0.0800 
 36 H       -4.5440     0.9210     0.7430 H     1 <1>   0.4000 
 37 H       -4.3390    -3.0220    -1.3910 H     1 <1>   0.0800 
 38 H       -5.5730    -2.7740    -0.1950 H     1 <1>   0.0800 
 39 H       -2.9610     6.5910     0.5540 H     1 <1>   0.0800 
 40 H       -1.2520     6.9480     0.5130 H     1 <1>   0.0800 
 41 H       -2.0160     6.5340     2.0270 H     1 <1>   0.0800 
 42 H       -5.3640    -3.7430     2.0440 H     1 <1>   0.1500 
 43 H       -1.6700    -6.2040     0.3820 H     1 <1>   0.1500 
 44 H       -2.6750    -6.7650     2.5120 H     1 <1>   0.1500 
@<TRIPOS>BOND
  1   1   2  2   
  2   2   3  am  
  3   2   4  1   
  4   3   5  1   
  5   3   6  1   
  6   4   7  1   
  7   4   8  2   
  8   5   9  1   
  9   5  25  1   
 10   5  26  1   
 11   6  10  1   
 12   6  27  1   
 13   6  28  1   
 14   7  11  2   
 15   7  12  am  
 16   8  13  1   
 17   8  14  1   
 18   9  10  1   
 19   9  15  1   
 20   9  29  1   
 21  10  16  1   
 22  10  30  1   
 23  12  17  1   
 24  12  31  1   
 25  13  17  2   
 26  13  32  1   
 27  14  33  1   
 28  14  34  1   
 29  14  35  1   
 30  15  36  1   
 31  16  18  1   
 32  16  37  1   
 33  16  38  1   
 34  17  19  1   
 35  18  20  ar  
 36  18  21  ar  
 37  19  39  1   
 38  19  40  1   
 39  19  41  1   
 40  20  22  ar  
 41  21  23  ar  
 42  21  42  1   
 43  22  24  ar  
 44  22  43  1   
 45  23  24  ar  
 46  24  44  1   
@<TRIPOS>SUBSTRUCTURE
  1 ****   3 GROUP 4 **** **** 0

# MOE 2024.06 (io_trps.svl 2023.06)
