@<TRIPOS>MOLECULE
NONAME
51 54 1 0 0 
SMALL
USER_CHARGES


@<TRIPOS>ATOM
  1 O       -2.1350    -0.2650    -1.2100 O.2   1 <1>  -0.5700 
  2 C       -2.4760     0.5880    -0.4020 C.2   1 <1>   0.6160 
  3 N       -2.3370     1.9350    -0.7290 N.am  1 <1>  -0.4770 
  4 C       -3.0350     0.2310     0.8690 C.2   1 <1>   0.0290 
  5 C       -2.7790     2.9480     0.1440 C.ar  1 <1>   0.1170 
  6 C       -1.6640     2.3100    -2.0120 C.3   1 <1>   0.0600 
  7 C       -3.1480    -1.1610     1.2090 C.2   1 <1>   0.6160 
  8 C       -3.4270     1.2120     1.7290 C.2   1 <1>  -0.1780 
  9 C       -3.3230     2.5890     1.3920 C.ar  1 <1>   0.0280 
 10 C       -2.7060     4.3100    -0.1750 C.ar  1 <1>  -0.1500 
 11 O       -2.4850    -1.6020     2.1300 O.2   1 <1>  -0.5700 
 12 N       -4.0400    -2.0000     0.5830 N.am  1 <1>  -0.6600 
 13 C       -3.7520     3.5860     2.2720 C.ar  1 <1>  -0.1500 
 14 C       -3.1380     5.2790     0.7030 C.ar  1 <1>  -0.1500 
 15 C       -4.9270    -1.6530    -0.5560 C.3   1 <1>   0.1400 
 16 C       -4.1990    -3.4270     0.9350 C.3   1 <1>   0.1400 
 17 C       -3.6620     4.9170     1.9350 C.ar  1 <1>  -0.1500 
 18 C       -5.7700    -2.9080    -0.8190 C.3   1 <1>   0.2000 
 19 C       -4.9070    -4.0490    -0.2700 C.3   1 <1>  -0.0800 
 20 O       -6.9620    -2.8490    -0.0850 O.3   1 <1>  -0.5600 
 21 C       -5.6830    -5.3350     0.0660 C.3   1 <1>   0.0200 
 22 C       -8.0060    -2.1630    -0.7020 C.3   1 <1>   0.0400 
 23 C       -4.7800    -6.5020     0.4330 C.2   1 <1>  -0.0400 
 24 O       -5.3280    -7.6250     0.8130 O.3   1 <1>  -0.0190 
 25 C       -3.4480    -6.6710     0.4570 C.2   1 <1>  -0.1500 
 26 N       -4.4380    -8.5340     1.0920 N.2   1 <1>  -0.4100 
 27 C       -3.2950    -7.9850     0.8880 C.2   1 <1>   0.1080 
 28 C       -1.9680    -8.6810     1.0910 C.3   1 <1>  -0.0590 
 29 H       -0.8510     2.9840    -1.8090 H     1 <1>   0.0800 
 30 H       -2.3740     2.7870    -2.6630 H     1 <1>   0.0800 
 31 H       -1.2600     1.4510    -2.5190 H     1 <1>   0.0800 
 32 H       -3.8280     0.9590     2.6950 H     1 <1>   0.1500 
 33 H       -2.3090     4.6280    -1.1200 H     1 <1>   0.1500 
 34 H       -4.1600     3.3040     3.2260 H     1 <1>   0.1500 
 35 H       -3.0710     6.3210     0.4400 H     1 <1>   0.1500 
 36 H       -5.5370    -0.7980    -0.3260 H     1 <1>   0.0800 
 37 H       -4.3220    -1.4480    -1.4200 H     1 <1>   0.0800 
 38 H       -3.2430    -3.8830     1.1260 H     1 <1>   0.0800 
 39 H       -4.8140    -3.4980     1.8170 H     1 <1>   0.0800 
 40 H       -3.9960     5.6780     2.6190 H     1 <1>   0.1500 
 41 H       -6.0000    -3.0440    -1.8620 H     1 <1>   0.0800 
 42 H       -4.1590    -4.2760    -1.0090 H     1 <1>   0.0800 
 43 H       -6.2780    -5.6230    -0.7820 H     1 <1>   0.0800 
 44 H       -6.3550    -5.1510     0.8860 H     1 <1>   0.0800 
 45 H       -8.8520    -2.1800    -0.0380 H     1 <1>   0.0800 
 46 H       -8.2610    -2.6570    -1.6230 H     1 <1>   0.0800 
 47 H       -7.7120    -1.1440    -0.8850 H     1 <1>   0.0800 
 48 H       -2.6540    -5.9910     0.2120 H     1 <1>   0.1500 
 49 H       -1.4080    -8.6720     0.1740 H     1 <1>   0.0800 
 50 H       -2.1300    -9.7000     1.3910 H     1 <1>   0.0800 
 51 H       -1.4070    -8.1760     1.8560 H     1 <1>   0.0800 
@<TRIPOS>BOND
  1   1   2  2   
  2   2   3  am  
  3   2   4  1   
  4   3   5  1   
  5   3   6  1   
  6   4   7  1   
  7   4   8  2   
  8   5   9  ar  
  9   5  10  ar  
 10   6  29  1   
 11   6  30  1   
 12   6  31  1   
 13   7  11  2   
 14   7  12  am  
 15   8   9  1   
 16   8  32  1   
 17   9  13  ar  
 18  10  14  ar  
 19  10  33  1   
 20  12  15  1   
 21  12  16  1   
 22  13  17  ar  
 23  13  34  1   
 24  14  17  ar  
 25  14  35  1   
 26  15  18  1   
 27  15  36  1   
 28  15  37  1   
 29  16  19  1   
 30  16  38  1   
 31  16  39  1   
 32  17  40  1   
 33  18  19  1   
 34  18  20  1   
 35  18  41  1   
 36  19  21  1   
 37  19  42  1   
 38  20  22  1   
 39  21  23  1   
 40  21  43  1   
 41  21  44  1   
 42  22  45  1   
 43  22  46  1   
 44  22  47  1   
 45  23  24  1   
 46  23  25  2   
 47  24  26  1   
 48  25  27  1   
 49  25  48  1   
 50  26  27  2   
 51  27  28  1   
 52  28  49  1   
 53  28  50  1   
 54  28  51  1   
@<TRIPOS>SUBSTRUCTURE
  1 ****  12 GROUP 4 **** **** 0

# MOE 2024.06 (io_trps.svl 2023.06)
