@<TRIPOS>MOLECULE
NONAME
44 46 1 0 0 
SMALL
USER_CHARGES


@<TRIPOS>ATOM
  1 S       -0.3930    -0.3030    -0.5970 S.3   1 <1>  -0.0800 
  2 C       -0.8290    -1.9920    -0.3800 C.2   1 <1>  -0.1400 
  3 C        0.9630    -0.7360    -1.6230 C.2   1 <1>  -0.1100 
  4 C        0.0260    -2.7850    -1.0550 C.2   1 <1>  -0.1500 
  5 C       -2.0400    -2.2670     0.4920 C.3   1 <1>   0.3200 
  6 C        1.0450    -2.0710    -1.7630 C.2   1 <1>  -0.1500 
  7 N       -2.4000    -3.6910     0.4040 N.am  1 <1>  -0.7300 
  8 C       -2.8650    -4.4570     1.4170 C.2   1 <1>   0.5690 
  9 O       -3.0750    -4.0090     2.5190 O.2   1 <1>  -0.5700 
 10 C       -3.1410    -5.9380     1.1440 C.3   1 <1>   0.1710 
 11 N       -3.4850    -6.2560    -0.2770 N.3   1 <1>  -0.8100 
 12 C       -4.7940    -5.7080    -0.6790 C.3   1 <1>   0.1100 
 13 C       -3.6140    -7.7000    -0.4830 C.3   1 <1>   0.1100 
 14 C       -5.8470    -6.7760    -0.3640 C.3   1 <1>   0.2000 
 15 C       -5.0570    -8.0630    -0.1100 C.3   1 <1>  -0.0800 
 16 O       -6.5490    -6.4360     0.7810 O.3   1 <1>  -0.6800 
 17 C       -5.6020    -9.2500    -0.9180 C.3   1 <1>   0.0200 
 18 C       -4.8320   -10.5360    -0.6720 C.2   1 <1>  -0.0400 
 19 O       -4.9720   -11.5240    -1.5160 O.3   1 <1>  -0.0190 
 20 C       -3.9760   -10.9340     0.2830 C.2   1 <1>  -0.1500 
 21 N       -4.2530   -12.5550    -1.1820 N.2   1 <1>  -0.4100 
 22 C       -3.6420   -12.2290    -0.1010 C.2   1 <1>   0.1080 
 23 C       -2.6930   -13.1400     0.6460 C.3   1 <1>  -0.0590 
 24 H        1.5620     0.0660    -2.0160 H     1 <1>   0.1500 
 25 H       -0.0080    -3.8610    -1.0870 H     1 <1>   0.1500 
 26 H       -2.8710    -1.6730     0.1540 H     1 <1>   0.0800 
 27 H       -1.8220    -2.0030     1.5140 H     1 <1>   0.0800 
 28 H        1.7870    -2.5950    -2.3400 H     1 <1>   0.1500 
 29 H       -2.3180    -4.1300    -0.5170 H     1 <1>   0.3700 
 30 H       -3.9260    -6.2630     1.8010 H     1 <1>   0.0800 
 31 H       -2.2490    -6.4740     1.4130 H     1 <1>   0.0800 
 32 H       -5.0140    -4.7650    -0.2080 H     1 <1>   0.0800 
 33 H       -4.7750    -5.5560    -1.7450 H     1 <1>   0.0800 
 34 H       -3.4430    -7.9090    -1.5260 H     1 <1>   0.0800 
 35 H       -2.8920    -8.2530     0.0940 H     1 <1>   0.0800 
 36 H       -6.5540    -6.8670    -1.1710 H     1 <1>   0.0800 
 37 H       -5.0860    -8.3120     0.9360 H     1 <1>   0.0800 
 38 H       -5.9310    -6.1710     1.4880 H     1 <1>   0.4000 
 39 H       -5.5570    -9.0190    -1.9680 H     1 <1>   0.0800 
 40 H       -6.6340    -9.4170    -0.6620 H     1 <1>   0.0800 
 41 H       -3.6110   -10.4180     1.1500 H     1 <1>   0.1500 
 42 H       -1.7520   -12.6440     0.7990 H     1 <1>   0.0800 
 43 H       -2.5250   -14.0380     0.0780 H     1 <1>   0.0800 
 44 H       -3.1150   -13.4050     1.5970 H     1 <1>   0.0800 
@<TRIPOS>BOND
  1   1   2  1   
  2   1   3  1   
  3   2   4  2   
  4   2   5  1   
  5   3   6  2   
  6   3  24  1   
  7   4   6  1   
  8   4  25  1   
  9   5   7  1   
 10   5  26  1   
 11   5  27  1   
 12   6  28  1   
 13   7   8  am  
 14   7  29  1   
 15   8   9  2   
 16   8  10  1   
 17  10  11  1   
 18  10  30  1   
 19  10  31  1   
 20  11  12  1   
 21  11  13  1   
 22  12  14  1   
 23  12  32  1   
 24  12  33  1   
 25  13  15  1   
 26  13  34  1   
 27  13  35  1   
 28  14  15  1   
 29  14  16  1   
 30  14  36  1   
 31  15  17  1   
 32  15  37  1   
 33  16  38  1   
 34  17  18  1   
 35  17  39  1   
 36  17  40  1   
 37  18  19  1   
 38  18  20  2   
 39  19  21  1   
 40  20  22  1   
 41  20  41  1   
 42  21  22  2   
 43  22  23  1   
 44  23  42  1   
 45  23  43  1   
 46  23  44  1   
@<TRIPOS>SUBSTRUCTURE
  1 ****  11 GROUP 4 **** **** 0

# MOE 2024.06 (io_trps.svl 2023.06)
