@<TRIPOS>MOLECULE
NONAME
45 47 1 0 0 
SMALL
USER_CHARGES


@<TRIPOS>ATOM
  1 O       -1.4150    -2.5630     0.5830 O.co2 1 <1>  -0.9000 
  2 C       -0.6180    -3.1300     1.3480 C.2   1 <1>   1.0330 
  3 O       -1.1000    -3.6840     2.3520 O.co2 1 <1>  -0.9000 
  4 C        0.7120    -3.4170     0.9280 C.2   1 <1>  -0.2330 
  5 C        1.2470    -4.6990     0.9880 C.2   1 <1>   0.3720 
  6 C        1.6840    -2.6920     0.3130 C.2   1 <1>   0.0870 
  7 N        2.4020    -4.7580     0.4330 N.2   1 <1>  -0.4100 
  8 N        0.5950    -5.7940     1.5460 N.pl3 1 <1>  -0.8520 
  9 O        2.6570    -3.5350     0.0440 O.3   1 <1>  -0.0190 
 10 C        1.8110    -1.3010    -0.0670 C.ar  1 <1>   0.0530 
 11 C        0.2070    -6.8860     0.6060 C.3   1 <1>   0.2090 
 12 C        0.9170    -0.3230     0.3720 C.ar  1 <1>  -0.1500 
 13 C        2.8530    -0.8770    -0.8950 C.ar  1 <1>  -0.1500 
 14 C       -1.3110    -6.9620     0.3200 C.3   1 <1>   0.2000 
 15 C        1.0530     1.0030     0.0050 C.ar  1 <1>  -0.1500 
 16 C        2.9970     0.4480    -1.2660 C.ar  1 <1>  -0.1500 
 17 O       -1.5320    -7.5810    -0.9180 O.3   1 <1>  -0.6800 
 18 C       -1.9850    -5.5800     0.3320 C.3   1 <1>   0.3430 
 19 C        2.0950     1.3940    -0.8160 C.ar  1 <1>  -0.1500 
 20 N       -3.3140    -5.5010    -0.3370 N.4   1 <1>  -0.9590 
 21 C       -3.7220    -4.0770    -0.4150 C.3   1 <1>   0.3430 
 22 C       -4.3910    -6.1950     0.3910 C.3   1 <1>   0.3430 
 23 C       -5.2330    -4.1310    -0.5940 C.3   1 <1>  -0.1600 
 24 C       -5.6630    -5.5190    -0.1040 C.3   1 <1>  -0.1600 
 25 H       -0.1620    -5.4310     2.1600 H     1 <1>   0.4000 
 26 H        0.5340    -7.8230     1.0230 H     1 <1>   0.0800 
 27 H        0.7380    -6.7400    -0.3200 H     1 <1>   0.0800 
 28 H        0.0970    -0.5950     1.0100 H     1 <1>   0.1500 
 29 H        3.5660    -1.5960    -1.2570 H     1 <1>   0.1500 
 30 H       -1.7750    -7.5770     1.0710 H     1 <1>   0.0800 
 31 H        0.3430     1.7300     0.3590 H     1 <1>   0.1500 
 32 H        3.8110     0.7430    -1.9050 H     1 <1>   0.1500 
 33 H       -0.8820    -7.2710    -1.5830 H     1 <1>   0.4000 
 34 H       -1.3180    -4.8840    -0.1480 H     1 <1>   0.0800 
 35 H       -2.0960    -5.2690     1.3550 H     1 <1>   0.0800 
 36 H        2.2010     2.4250    -1.1020 H     1 <1>   0.1500 
 37 H       -3.2270    -5.9010    -1.2790 H     1 <1>   0.4500 
 38 H       -3.2240    -3.5550    -1.2170 H     1 <1>   0.0800 
 39 H       -3.4840    -3.5810     0.5160 H     1 <1>   0.0800 
 40 H       -4.2790    -6.0210     1.4490 H     1 <1>   0.0800 
 41 H       -4.3870    -7.2550     0.1920 H     1 <1>   0.0800 
 42 H       -5.4820    -3.9980    -1.6320 H     1 <1>   0.0800 
 43 H       -5.6950    -3.3430    -0.0250 H     1 <1>   0.0800 
 44 H       -6.3880    -5.4570     0.6890 H     1 <1>   0.0800 
 45 H       -6.0840    -6.0890    -0.9140 H     1 <1>   0.0800 
@<TRIPOS>BOND
  1   1   2  ar  
  2   2   3  ar  
  3   2   4  1   
  4   4   5  1   
  5   4   6  2   
  6   5   7  2   
  7   5   8  1   
  8   6   9  1   
  9   6  10  1   
 10   7   9  1   
 11   8  11  1   
 12   8  25  1   
 13  10  12  ar  
 14  10  13  ar  
 15  11  14  1   
 16  11  26  1   
 17  11  27  1   
 18  12  15  ar  
 19  12  28  1   
 20  13  16  ar  
 21  13  29  1   
 22  14  17  1   
 23  14  18  1   
 24  14  30  1   
 25  15  19  ar  
 26  15  31  1   
 27  16  19  ar  
 28  16  32  1   
 29  17  33  1   
 30  18  20  1   
 31  18  34  1   
 32  18  35  1   
 33  19  36  1   
 34  20  21  1   
 35  20  22  1   
 36  20  37  1   
 37  21  23  1   
 38  21  38  1   
 39  21  39  1   
 40  22  24  1   
 41  22  40  1   
 42  22  41  1   
 43  23  24  1   
 44  23  42  1   
 45  23  43  1   
 46  24  44  1   
 47  24  45  1   
@<TRIPOS>SUBSTRUCTURE
  1 ****   2 GROUP 4 **** **** 0

# MOE 2024.06 (io_trps.svl 2023.06)
