@<TRIPOS>MOLECULE
NONAME
47 49 1 0 0 
SMALL
USER_CHARGES


@<TRIPOS>ATOM
  1 O        0.5540     0.0240     2.5990 O.2   1 <1>  -0.5700 
  2 C        0.7700    -0.5620     1.5640 C.2   1 <1>   0.5690 
  3 N        1.1600     0.0500     0.4110 N.am  1 <1>  -0.4930 
  4 C        0.6020    -2.0750     1.5610 C.3   1 <1>   0.1810 
  5 C        1.4440     1.4110     0.1340 C.2   1 <1>   0.0630 
  6 O        0.9610    -2.6350     0.3020 O.3   1 <1>  -0.3630 
  7 C        0.7880     2.5730     0.5560 C.2   1 <1>   0.1080 
  8 C        2.4450     1.8520    -0.6600 C.2   1 <1>  -0.3320 
  9 C        0.8330    -3.9640     0.0650 C.ar  1 <1>   0.0830 
 10 N        1.3330     3.6450     0.0710 N.2   1 <1>  -0.7070 
 11 C       -0.4260     2.6480     1.4550 C.3   1 <1>  -0.0590 
 12 N        2.3600     3.2070    -0.6760 N.pl3 1 <1>   0.3140 
 13 C        3.5000     1.0520    -1.4110 C.3   1 <1>  -0.0600 
 14 C        0.4450    -4.8920     1.0280 C.ar  1 <1>  -0.1500 
 15 C        1.1080    -4.3970    -1.2210 C.ar  1 <1>  -0.1500 
 16 C        3.2360     4.1590    -1.3880 C.3   1 <1>   0.0960 
 17 C        0.3350    -6.2310     0.6960 C.ar  1 <1>  -0.1500 
 18 C        0.9980    -5.7350    -1.5500 C.ar  1 <1>  -0.1500 
 19 C        4.4370     4.5580    -0.5180 C.3   1 <1>  -0.1600 
 20 C        0.6120    -6.6730    -0.5960 C.ar  1 <1>  -0.0230 
 21 C        5.3600     5.5370    -1.2520 C.3   1 <1>  -0.2400 
 22 N        0.5040    -8.0540    -0.9410 N.pl3 1 <1>   0.5930 
 23 N        0.0770    -8.5140    -2.1060 N.2   1 <1>  -0.4180 
 24 C        0.8000    -9.1200    -0.2120 C.2   1 <1>   0.0360 
 25 N        0.1210    -9.7960    -2.0450 N.2   1 <1>   0.0000 
 26 N        0.5730   -10.1940    -0.8620 N.2   1 <1>  -0.3380 
 27 H        1.3630    -0.5880    -0.3590 H     1 <1>   0.3700 
 28 H       -0.4250    -2.3150     1.7610 H     1 <1>   0.0800 
 29 H        1.2360    -2.5010     2.3170 H     1 <1>   0.0800 
 30 H       -1.0750     1.8130     1.2730 H     1 <1>   0.0800 
 31 H       -0.9640     3.5580     1.2650 H     1 <1>   0.0800 
 32 H       -0.1110     2.6360     2.4820 H     1 <1>   0.0800 
 33 H        3.3980     0.0020    -1.2070 H     1 <1>   0.0800 
 34 H        4.4840     1.3580    -1.1040 H     1 <1>   0.0800 
 35 H        3.3990     1.2060    -2.4700 H     1 <1>   0.0800 
 36 H        0.2230    -4.5930     2.0360 H     1 <1>   0.1500 
 37 H        1.4060    -3.6810    -1.9660 H     1 <1>   0.1500 
 38 H        2.6530     5.0300    -1.6280 H     1 <1>   0.0800 
 39 H        3.5670     3.7070    -2.3040 H     1 <1>   0.0800 
 40 H        0.0240    -6.9300     1.4540 H     1 <1>   0.1500 
 41 H        1.2120    -6.0510    -2.5580 H     1 <1>   0.1500 
 42 H        4.9950     3.6790    -0.2460 H     1 <1>   0.0800 
 43 H        4.0740     5.0210     0.3850 H     1 <1>   0.0800 
 44 H        5.7490     5.0900    -2.1500 H     1 <1>   0.0800 
 45 H        6.1870     5.8050    -0.6180 H     1 <1>   0.0800 
 46 H        4.8260     6.4350    -1.5120 H     1 <1>   0.0800 
 47 H        1.1830    -9.0620     0.7890 H     1 <1>   0.1500 
@<TRIPOS>BOND
  1   1   2  2   
  2   2   3  am  
  3   2   4  1   
  4   3   5  1   
  5   3  27  1   
  6   4   6  1   
  7   4  28  1   
  8   4  29  1   
  9   5   7  1   
 10   5   8  2   
 11   6   9  1   
 12   7  10  2   
 13   7  11  1   
 14   8  12  1   
 15   8  13  1   
 16   9  14  ar  
 17   9  15  ar  
 18  10  12  1   
 19  11  30  1   
 20  11  31  1   
 21  11  32  1   
 22  12  16  1   
 23  13  33  1   
 24  13  34  1   
 25  13  35  1   
 26  14  17  ar  
 27  14  36  1   
 28  15  18  ar  
 29  15  37  1   
 30  16  19  1   
 31  16  38  1   
 32  16  39  1   
 33  17  20  ar  
 34  17  40  1   
 35  18  20  ar  
 36  18  41  1   
 37  19  21  1   
 38  19  42  1   
 39  19  43  1   
 40  20  22  1   
 41  21  44  1   
 42  21  45  1   
 43  21  46  1   
 44  22  23  1   
 45  22  24  1   
 46  23  25  2   
 47  24  26  2   
 48  24  47  1   
 49  25  26  1   
@<TRIPOS>SUBSTRUCTURE
  1 ****   6 GROUP 4 **** **** 0

# MOE 2024.06 (io_trps.svl 2023.06)
