@<TRIPOS>MOLECULE
NONAME
45 47 1 0 0 
SMALL
USER_CHARGES


@<TRIPOS>ATOM
  1 CL       2.1720    -0.2590     4.5710 Cl    1 <1>  -0.1770 
  2 C        2.4010    -0.9540     2.9850 C.ar  1 <1>   0.1770 
  3 C        2.3030    -2.3180     2.8200 C.ar  1 <1>  -0.1500 
  4 C        2.6730    -0.1200     1.9160 C.ar  1 <1>  -0.1500 
  5 C        2.4720    -2.8940     1.5620 C.ar  1 <1>   0.0860 
  6 C        2.8550    -0.6760     0.6660 C.ar  1 <1>  -0.1500 
  7 C        2.7700    -2.0540     0.4710 C.ar  1 <1>   0.1000 
  8 C        2.3490    -4.3270     1.4130 C.2   1 <1>   0.5440 
  9 N        2.9710    -2.5760    -0.8000 N.pl3 1 <1>  -0.8690 
 10 O        3.1170    -5.0440     2.0300 O.2   1 <1>  -0.5700 
 11 N        1.3810    -4.9230     0.6200 N.am  1 <1>  -0.6600 
 12 C        4.1430    -2.1610    -1.6110 C.3   1 <1>   0.1290 
 13 C        0.1980    -4.1560     0.1180 C.3   1 <1>   0.2200 
 14 C        1.3680    -6.4120     0.4830 C.3   1 <1>   0.0600 
 15 C       -1.1310    -4.6420     0.6880 C.3   1 <1>  -0.1600 
 16 C        0.0090    -4.2240    -1.3960 C.3   1 <1>  -0.1600 
 17 C       -2.1840    -4.0880    -0.2800 C.3   1 <1>  -0.0800 
 18 C       -1.4580    -3.8310    -1.6140 C.3   1 <1>  -0.0800 
 19 C       -2.7680    -2.7380     0.1630 C.3   1 <1>  -0.1600 
 20 C       -1.6440    -2.3390    -1.9290 C.3   1 <1>  -0.1600 
 21 C       -2.8600    -1.9230    -1.1170 C.3   1 <1>   0.2000 
 22 O       -2.8010    -0.5780    -0.8280 O.3   1 <1>  -0.6800 
 23 H        2.0970    -2.9460     3.6680 H     1 <1>   0.1500 
 24 H        2.7400     0.9420     2.0700 H     1 <1>   0.1500 
 25 H        3.0610    -0.0410    -0.1760 H     1 <1>   0.1500 
 26 H        2.7960    -3.5930    -0.8630 H     1 <1>   0.4000 
 27 H        4.9140    -1.7610    -0.9750 H     1 <1>   0.0800 
 28 H        3.8440    -1.4090    -2.3210 H     1 <1>   0.0800 
 29 H        4.5370    -3.0090    -2.1430 H     1 <1>   0.0800 
 30 H        0.2920    -3.1160     0.3800 H     1 <1>   0.0800 
 31 H        0.8030    -6.7250    -0.3750 H     1 <1>   0.0800 
 32 H        0.9360    -6.8480     1.3670 H     1 <1>   0.0800 
 33 H        2.3750    -6.7780     0.3790 H     1 <1>   0.0800 
 34 H       -1.1830    -5.7150     0.6640 H     1 <1>   0.0800 
 35 H       -1.2790    -4.3030     1.6980 H     1 <1>   0.0800 
 36 H        0.6850    -3.5680    -1.9140 H     1 <1>   0.0800 
 37 H        0.1510    -5.2260    -1.7540 H     1 <1>   0.0800 
 38 H       -2.9820    -4.7980    -0.4220 H     1 <1>   0.0800 
 39 H       -1.8980    -4.4250    -2.3970 H     1 <1>   0.0800 
 40 H       -2.1010    -2.2530     0.8540 H     1 <1>   0.0800 
 41 H       -3.7340    -2.8590     0.6180 H     1 <1>   0.0800 
 42 H       -1.8040    -2.1770    -2.9800 H     1 <1>   0.0800 
 43 H       -0.7830    -1.7800    -1.6060 H     1 <1>   0.0800 
 44 H       -3.7750    -2.1310    -1.6470 H     1 <1>   0.0800 
 45 H       -1.9630    -0.3750    -0.3730 H     1 <1>   0.4000 
@<TRIPOS>BOND
  1   1   2  1   
  2   2   3  ar  
  3   2   4  ar  
  4   3   5  ar  
  5   3  23  1   
  6   4   6  ar  
  7   4  24  1   
  8   5   7  ar  
  9   5   8  1   
 10   6   7  ar  
 11   6  25  1   
 12   7   9  1   
 13   8  10  2   
 14   8  11  am  
 15   9  12  1   
 16   9  26  1   
 17  11  13  1   
 18  11  14  1   
 19  12  27  1   
 20  12  28  1   
 21  12  29  1   
 22  13  15  1   
 23  13  16  1   
 24  13  30  1   
 25  14  31  1   
 26  14  32  1   
 27  14  33  1   
 28  15  17  1   
 29  15  34  1   
 30  15  35  1   
 31  16  18  1   
 32  16  36  1   
 33  16  37  1   
 34  17  18  1   
 35  17  19  1   
 36  17  38  1   
 37  18  20  1   
 38  18  39  1   
 39  19  21  1   
 40  19  40  1   
 41  19  41  1   
 42  20  21  1   
 43  20  42  1   
 44  20  43  1   
 45  21  22  1   
 46  21  44  1   
 47  22  45  1   
@<TRIPOS>SUBSTRUCTURE
  1 ****  13 GROUP 4 **** **** 0

# MOE 2024.06 (io_trps.svl 2023.06)
