@<TRIPOS>MOLECULE
NONAME
41 43 1 0 0 
SMALL
USER_CHARGES


@<TRIPOS>ATOM
  1 O       -0.0820    -0.6120     0.3720 O.3   1 <1>  -0.5600 
  2 C        0.6820     0.5050     0.6710 C.3   1 <1>   0.1200 
  3 C       -1.4390    -0.3210     0.5150 C.3   1 <1>   0.1200 
  4 C       -0.1490     1.6680     0.1490 C.3   1 <1>   0.2890 
  5 C       -1.5690     1.2070     0.4460 C.3   1 <1>  -0.0800 
  6 N        0.1610     2.9510     0.8320 N.pl3 1 <1>  -0.8690 
  7 C       -2.5940     1.6920    -0.5920 C.3   1 <1>  -0.0170 
  8 C        0.7940     4.0620     0.4460 C.ar  1 <1>   0.7710 
  9 C       -3.9900     1.1890    -0.2610 C.ar  1 <1>  -0.1440 
 10 N        0.8650     5.0190     1.3460 N.ar  1 <1>  -0.6200 
 11 N        1.3230     4.1730    -0.7860 N.ar  1 <1>  -0.1790 
 12 C       -4.5730     0.1390    -0.9430 C.ar  1 <1>  -0.1500 
 13 C       -4.7480     1.7580     0.7430 C.ar  1 <1>  -0.1500 
 14 C        1.4850     6.1240     1.0040 C.ar  1 <1>   0.4100 
 15 C        1.9670     5.3040    -1.1670 C.ar  1 <1>   0.2110 
 16 C       -5.8450    -0.2820    -0.5930 C.ar  1 <1>   0.1600 
 17 C       -6.0120     1.2610     1.0120 C.ar  1 <1>   0.1600 
 18 N        1.5330     7.0620     1.9530 N.pl3 1 <1>  -0.9000 
 19 C        2.0640     6.3190    -0.2710 C.ar  1 <1>  -0.1430 
 20 N       -6.5770     0.2530     0.3700 N.ar  1 <1>  -0.6200 
 21 C        2.7720     7.6270    -0.6160 C.3   1 <1>  -0.0970 
 22 H        0.8000     0.5470     1.7410 H     1 <1>   0.0800 
 23 H        1.6360     0.4150     0.1840 H     1 <1>   0.0800 
 24 H       -1.9700    -0.8220    -0.2760 H     1 <1>   0.0800 
 25 H       -1.7710    -0.7010     1.4670 H     1 <1>   0.0800 
 26 H        0.0010     1.7420    -0.9140 H     1 <1>   0.0800 
 27 H       -1.8690     1.5450     1.4230 H     1 <1>   0.0800 
 28 H       -0.1660     2.9880     1.8050 H     1 <1>   0.4000 
 29 H       -2.3150     1.3520    -1.5750 H     1 <1>   0.0800 
 30 H       -2.6100     2.7680    -0.6090 H     1 <1>   0.0800 
 31 H        1.2220     3.3740    -1.4010 H     1 <1>   0.4570 
 32 H       -4.0570    -0.3600    -1.7430 H     1 <1>   0.1500 
 33 H       -4.3730     2.5840     1.3190 H     1 <1>   0.1500 
 34 H        2.3800     5.3620    -2.1630 H     1 <1>   0.1500 
 35 H       -6.2850    -1.1030    -1.1350 H     1 <1>   0.1500 
 36 H       -6.5900     1.7170     1.7990 H     1 <1>   0.1500 
 37 H        1.1060     6.8910     2.8680 H     1 <1>   0.4000 
 38 H        1.9780     7.9760     1.8550 H     1 <1>   0.4000 
 39 H        3.1550     7.6140    -1.6220 H     1 <1>   0.0800 
 40 H        3.5980     7.7900     0.0550 H     1 <1>   0.0800 
 41 H        2.0880     8.4540    -0.5270 H     1 <1>   0.0800 
@<TRIPOS>BOND
  1   1   2  1   
  2   1   3  1   
  3   2   4  1   
  4   2  22  1   
  5   2  23  1   
  6   3   5  1   
  7   3  24  1   
  8   3  25  1   
  9   4   5  1   
 10   4   6  1   
 11   4  26  1   
 12   5   7  1   
 13   5  27  1   
 14   6   8  1   
 15   6  28  1   
 16   7   9  1   
 17   7  29  1   
 18   7  30  1   
 19   8  10  ar  
 20   8  11  ar  
 21   9  12  ar  
 22   9  13  ar  
 23  10  14  ar  
 24  11  15  ar  
 25  11  31  1   
 26  12  16  ar  
 27  12  32  1   
 28  13  17  ar  
 29  13  33  1   
 30  14  18  1   
 31  14  19  ar  
 32  15  19  ar  
 33  15  34  1   
 34  16  20  ar  
 35  16  35  1   
 36  17  20  ar  
 37  17  36  1   
 38  18  37  1   
 39  18  38  1   
 40  19  21  1   
 41  21  39  1   
 42  21  40  1   
 43  21  41  1   
@<TRIPOS>SUBSTRUCTURE
  1 ****   4 GROUP 4 **** **** 0

# MOE 2024.06 (io_trps.svl 2023.06)
