@<TRIPOS>MOLECULE
NONAME
44 47 1 0 0 
SMALL
USER_CHARGES


@<TRIPOS>ATOM
  1 CL      -0.3990     0.2610    -0.9370 Cl    1 <1>  -0.1400 
  2 C       -2.0870     0.1030    -0.5180 C.2   1 <1>   0.1400 
  3 C       -2.7880    -1.0060    -0.8570 C.2   1 <1>  -0.1810 
  4 C       -2.6930     1.1750     0.1890 C.2   1 <1>  -0.1500 
  5 N       -4.1290    -1.0870    -0.5020 N.pl3 1 <1>   0.3340 
  6 C       -4.0090     1.0840     0.5310 C.2   1 <1>  -0.1050 
  7 C       -5.1030    -1.9840    -0.6630 C.2   1 <1>  -0.0150 
  8 C       -4.7610    -0.0700     0.1820 C.2   1 <1>   0.1420 
  9 F       -4.8800    -3.1070    -1.2980 F     1 <1>  -0.1370 
 10 C       -6.2680    -1.5500    -0.1040 C.2   1 <1>   0.1410 
 11 N       -6.0280    -0.3140     0.4300 N.2   1 <1>  -0.5650 
 12 C       -7.5360    -2.2710    -0.0580 C.2   1 <1>   0.7160 
 13 O       -7.5240    -3.4920    -0.0610 O.2   1 <1>  -0.5700 
 14 N       -8.7720    -1.6440    -0.0180 N.am  1 <1>  -0.6600 
 15 C       -8.9460    -0.1840    -0.2830 C.3   1 <1>   0.1400 
 16 C      -10.0090    -2.4300     0.2740 C.3   1 <1>   0.1400 
 17 C      -10.3260     0.0770    -0.8850 C.3   1 <1>  -0.1600 
 18 C      -11.0610    -1.5460     0.9450 C.3   1 <1>  -0.1600 
 19 C      -11.4480    -0.3280     0.0870 C.3   1 <1>   0.4180 
 20 O      -11.6540     0.7180     1.0050 O.3   1 <1>  -0.5600 
 21 C      -12.7350    -0.6280    -0.6820 C.2   1 <1>  -0.2880 
 22 C      -12.4680     1.7880     0.6110 C.3   1 <1>   0.1200 
 23 C      -13.8570     0.0880    -0.5820 C.2   1 <1>  -0.2760 
 24 C      -13.8960     1.3080     0.3190 C.3   1 <1>  -0.0220 
 25 C      -15.1510    -0.2300    -1.3090 C.3   1 <1>  -0.1020 
 26 H       -2.3700    -1.8400    -1.3900 H     1 <1>   0.1500 
 27 H       -2.0900     2.0310     0.4350 H     1 <1>   0.1500 
 28 H       -4.5200     1.8640     1.0670 H     1 <1>   0.1500 
 29 H       -8.1930     0.1570    -0.9720 H     1 <1>   0.0800 
 30 H       -8.8380     0.3610     0.6400 H     1 <1>   0.0800 
 31 H       -9.7720    -3.2550     0.9260 H     1 <1>   0.0800 
 32 H      -10.3950    -2.8330    -0.6470 H     1 <1>   0.0800 
 33 H      -10.4060    -0.4980    -1.7890 H     1 <1>   0.0800 
 34 H      -10.4170     1.1090    -1.1600 H     1 <1>   0.0800 
 35 H      -10.6560    -1.2160     1.8850 H     1 <1>   0.0800 
 36 H      -11.9360    -2.1310     1.1590 H     1 <1>   0.0800 
 37 H      -12.6470    -1.4940    -1.3130 H     1 <1>   0.1500 
 38 H      -12.0420     2.2450    -0.2640 H     1 <1>   0.0800 
 39 H      -12.4730     2.5080     1.4100 H     1 <1>   0.0800 
 40 H      -14.4340     2.1070    -0.1580 H     1 <1>   0.0800 
 41 H      -14.3950     1.0670     1.2400 H     1 <1>   0.0800 
 42 H      -15.4270     0.5860    -1.9530 H     1 <1>   0.0800 
 43 H      -15.9420    -0.3970    -0.6000 H     1 <1>   0.0800 
 44 H      -15.0390    -1.1150    -1.9090 H     1 <1>   0.0800 
@<TRIPOS>BOND
  1   1   2  1   
  2   2   3  2   
  3   2   4  1   
  4   3   5  1   
  5   3  26  1   
  6   4   6  2   
  7   4  27  1   
  8   5   7  1   
  9   5   8  1   
 10   6   8  1   
 11   6  28  1   
 12   7   9  1   
 13   7  10  2   
 14   8  11  2   
 15  10  11  1   
 16  10  12  1   
 17  12  13  2   
 18  12  14  am  
 19  14  15  1   
 20  14  16  1   
 21  15  17  1   
 22  15  29  1   
 23  15  30  1   
 24  16  18  1   
 25  16  31  1   
 26  16  32  1   
 27  17  19  1   
 28  17  33  1   
 29  17  34  1   
 30  18  19  1   
 31  18  35  1   
 32  18  36  1   
 33  19  20  1   
 34  19  21  1   
 35  20  22  1   
 36  21  23  2   
 37  21  37  1   
 38  22  24  1   
 39  22  38  1   
 40  22  39  1   
 41  23  24  1   
 42  23  25  1   
 43  24  40  1   
 44  24  41  1   
 45  25  42  1   
 46  25  43  1   
 47  25  44  1   
@<TRIPOS>SUBSTRUCTURE
  1 ****  15 GROUP 4 **** **** 0

# MOE 2024.06 (io_trps.svl 2023.06)
