@<TRIPOS>MOLECULE
NONAME
52 54 1 0 0 
SMALL
USER_CHARGES


@<TRIPOS>ATOM
  1 O        3.1390     1.6930     2.0790 O.co2 1 <1>  -0.9000 
  2 C        2.4040     0.8100     1.6130 C.2   1 <1>   0.9060 
  3 O        2.1630    -0.2170     2.2470 O.co2 1 <1>  -0.9000 
  4 C        2.0380     0.8350     0.1210 C.3   1 <1>  -0.1060 
  5 C        2.9160    -0.2870    -0.4760 C.3   1 <1>   0.2000 
  6 C        2.4280     2.1860    -0.5660 C.3   1 <1>  -0.1600 
  7 C        0.5250     0.5400    -0.0520 C.3   1 <1>  -0.0160 
  8 O        2.7470    -0.3450    -1.8620 O.3   1 <1>  -0.6800 
  9 C        4.4140    -0.0170    -0.1720 C.3   1 <1>   0.3430 
 10 C        3.9100     2.2920    -0.9690 C.3   1 <1>   0.3430 
 11 C       -0.3710     1.6860     0.4030 C.ar  1 <1>  -0.1440 
 12 N        4.7310     1.4510    -0.0600 N.4   1 <1>  -0.9590 
 13 C       -0.6020     1.8970     1.7540 C.ar  1 <1>  -0.1500 
 14 C       -0.9690     2.5270    -0.5250 C.ar  1 <1>  -0.1500 
 15 C        6.1740     1.7620    -0.0280 C.3   1 <1>   0.4860 
 16 C       -1.4130     2.9380     2.1720 C.ar  1 <1>  -0.1500 
 17 C       -1.7820     3.5670    -0.1080 C.ar  1 <1>  -0.1500 
 18 C        6.3800     3.2520     0.1660 C.ar  1 <1>  -0.1430 
 19 C       -2.0040     3.7740     1.2420 C.ar  1 <1>  -0.1500 
 20 C        7.0750     3.9840    -0.7850 C.ar  1 <1>  -0.1500 
 21 C        5.8720     3.8990     1.2840 C.ar  1 <1>  -0.1500 
 22 C        7.2550     5.3450    -0.6210 C.ar  1 <1>  -0.1500 
 23 C        6.0580     5.2610     1.4440 C.ar  1 <1>  -0.1500 
 24 C        6.7490     5.9930     0.4930 C.ar  1 <1>  -0.1430 
 25 C        6.9420     7.5020     0.6620 C.3   1 <1>  -0.1230 
 26 C        8.3610     7.9970     0.4570 C.2   1 <1>   0.9060 
 27 O        9.0490     8.2650     1.4480 O.co2 1 <1>  -0.9000 
 28 O        8.7720     8.1690    -0.6980 O.co2 1 <1>  -0.9000 
 29 H        2.6400    -1.2480    -0.0730 H     1 <1>   0.0800 
 30 H        2.1830     3.0050     0.0900 H     1 <1>   0.0800 
 31 H        1.8470     2.3250    -1.4590 H     1 <1>   0.0800 
 32 H        0.3080     0.3320    -1.0830 H     1 <1>   0.0800 
 33 H        0.2630    -0.3440     0.5060 H     1 <1>   0.0800 
 34 H        1.8290    -0.6110    -2.0700 H     1 <1>   0.4000 
 35 H        5.0100    -0.4790    -0.9400 H     1 <1>   0.0800 
 36 H        4.6500    -0.4840     0.7710 H     1 <1>   0.0800 
 37 H        4.2180     3.3240    -0.9190 H     1 <1>   0.0800 
 38 H        4.0340     1.9430    -1.9810 H     1 <1>   0.0800 
 39 H        4.3570     1.7230     0.8870 H     1 <1>   0.4500 
 40 H       -0.1470     1.2530     2.4890 H     1 <1>   0.1500 
 41 H       -0.8060     2.3770    -1.5770 H     1 <1>   0.1500 
 42 H        6.6410     1.2330     0.7860 H     1 <1>   0.0800 
 43 H        6.6340     1.4520    -0.9500 H     1 <1>   0.0800 
 44 H       -1.5780     3.0920     3.2240 H     1 <1>   0.1500 
 45 H       -2.2410     4.2160    -0.8330 H     1 <1>   0.1500 
 46 H       -2.6320     4.5830     1.5690 H     1 <1>   0.1500 
 47 H        7.4860     3.5130    -1.6600 H     1 <1>   0.1500 
 48 H        5.3230     3.3560     2.0390 H     1 <1>   0.1500 
 49 H        7.8010     5.9120    -1.3600 H     1 <1>   0.1500 
 50 H        5.6620     5.7530     2.3150 H     1 <1>   0.1500 
 51 H        6.6400     7.8060     1.6450 H     1 <1>   0.0800 
 52 H        6.3220     8.0150    -0.0460 H     1 <1>   0.0800 
@<TRIPOS>BOND
  1   1   2  ar  
  2   2   3  ar  
  3   2   4  1   
  4   4   5  1   
  5   4   6  1   
  6   4   7  1   
  7   5   8  1   
  8   5   9  1   
  9   5  29  1   
 10   6  10  1   
 11   6  30  1   
 12   6  31  1   
 13   7  11  1   
 14   7  32  1   
 15   7  33  1   
 16   8  34  1   
 17   9  12  1   
 18   9  35  1   
 19   9  36  1   
 20  10  12  1   
 21  10  37  1   
 22  10  38  1   
 23  11  13  ar  
 24  11  14  ar  
 25  12  15  1   
 26  12  39  1   
 27  13  16  ar  
 28  13  40  1   
 29  14  17  ar  
 30  14  41  1   
 31  15  18  1   
 32  15  42  1   
 33  15  43  1   
 34  16  19  ar  
 35  16  44  1   
 36  17  19  ar  
 37  17  45  1   
 38  18  20  ar  
 39  18  21  ar  
 40  19  46  1   
 41  20  22  ar  
 42  20  47  1   
 43  21  23  ar  
 44  21  48  1   
 45  22  24  ar  
 46  22  49  1   
 47  23  24  ar  
 48  23  50  1   
 49  24  25  1   
 50  25  26  1   
 51  25  51  1   
 52  25  52  1   
 53  26  27  ar  
 54  26  28  ar  
@<TRIPOS>SUBSTRUCTURE
  1 ****  10 GROUP 4 **** **** 0

# MOE 2024.06 (io_trps.svl 2023.06)
