@<TRIPOS>MOLECULE
NONAME
45 47 1 0 0 
SMALL
USER_CHARGES


@<TRIPOS>ATOM
  1 CL      -1.7230    -0.7580    -2.0050 Cl    1 <1>  -0.1770 
  2 C       -2.4000     0.5070    -1.0090 C.ar  1 <1>   0.1770 
  3 C       -3.0390     0.1980     0.1880 C.ar  1 <1>   0.0860 
  4 C       -2.2750     1.8100    -1.4510 C.ar  1 <1>  -0.1500 
  5 C       -3.1780    -1.1600     0.6580 C.2   1 <1>   0.5440 
  6 C       -3.5410     1.2600     0.9390 C.ar  1 <1>  -0.1500 
  7 C       -2.7900     2.8440    -0.6900 C.ar  1 <1>  -0.1500 
  8 O       -2.5360    -1.5270     1.6220 O.2   1 <1>  -0.5700 
  9 N       -4.0510    -2.0400     0.0670 N.am  1 <1>  -0.6600 
 10 C       -3.4310     2.5820     0.5180 C.ar  1 <1>  -0.1430 
 11 C       -4.9640    -1.7520    -1.0680 C.3   1 <1>   0.1400 
 12 C       -4.2620    -3.4190     0.5540 C.3   1 <1>   0.1400 
 13 C       -3.9900     3.7420     1.3620 C.3   1 <1>   1.1640 
 14 C       -5.8590    -2.9920    -1.2030 C.3   1 <1>   0.2000 
 15 C       -5.0290    -4.1160    -0.5720 C.3   1 <1>  -0.0800 
 16 F       -4.8930     3.3510     2.2530 F     1 <1>  -0.3400 
 17 F       -3.0370     4.3670     2.0400 F     1 <1>  -0.3400 
 18 F       -4.5840     4.6650     0.6150 F     1 <1>  -0.3400 
 19 O       -7.0280    -2.8180    -0.4540 O.3   1 <1>  -0.5600 
 20 C       -5.8480    -5.3300    -0.0990 C.3   1 <1>   0.0200 
 21 C       -8.0700    -2.1750    -1.1180 C.3   1 <1>   0.0400 
 22 C       -4.9850    -6.4970     0.3520 C.2   1 <1>  -0.0400 
 23 O       -5.5700    -7.5600     0.8380 O.3   1 <1>  -0.0190 
 24 C       -3.6610    -6.7190     0.3670 C.2   1 <1>  -0.1500 
 25 N       -4.7120    -8.4770     1.1800 N.2   1 <1>  -0.4100 
 26 C       -3.5520    -7.9970     0.9080 C.2   1 <1>   0.1080 
 27 C       -2.2500    -8.7280     1.1490 C.3   1 <1>  -0.0590 
 28 H       -1.7750     2.0110    -2.3820 H     1 <1>   0.1500 
 29 H       -4.0210     1.0220     1.8760 H     1 <1>   0.1500 
 30 H       -2.6850     3.8590    -1.0430 H     1 <1>   0.1500 
 31 H       -5.5400    -0.8620    -0.8850 H     1 <1>   0.0800 
 32 H       -4.3800    -1.6320    -1.9620 H     1 <1>   0.0800 
 33 H       -3.3220    -3.8980     0.7660 H     1 <1>   0.0800 
 34 H       -4.8560    -3.3810     1.4520 H     1 <1>   0.0800 
 35 H       -6.1180    -3.2100    -2.2250 H     1 <1>   0.0800 
 36 H       -4.3120    -4.4440    -1.3040 H     1 <1>   0.0800 
 37 H       -6.4790    -5.6670    -0.9020 H     1 <1>   0.0800 
 38 H       -6.4890    -5.0420     0.7170 H     1 <1>   0.0800 
 39 H       -8.8970    -2.0890    -0.4350 H     1 <1>   0.0800 
 40 H       -8.3670    -2.7650    -1.9680 H     1 <1>   0.0800 
 41 H       -7.7540    -1.1950    -1.4270 H     1 <1>   0.0800 
 42 H       -2.8450    -6.0970     0.0510 H     1 <1>   0.1500 
 43 H       -1.6420    -8.1700     1.8360 H     1 <1>   0.0800 
 44 H       -1.7230    -8.8470     0.2210 H     1 <1>   0.0800 
 45 H       -2.4470    -9.6990     1.5670 H     1 <1>   0.0800 
@<TRIPOS>BOND
  1   1   2  1   
  2   2   3  ar  
  3   2   4  ar  
  4   3   5  1   
  5   3   6  ar  
  6   4   7  ar  
  7   4  28  1   
  8   5   8  2   
  9   5   9  am  
 10   6  10  ar  
 11   6  29  1   
 12   7  10  ar  
 13   7  30  1   
 14   9  11  1   
 15   9  12  1   
 16  10  13  1   
 17  11  14  1   
 18  11  31  1   
 19  11  32  1   
 20  12  15  1   
 21  12  33  1   
 22  12  34  1   
 23  13  16  1   
 24  13  17  1   
 25  13  18  1   
 26  14  15  1   
 27  14  19  1   
 28  14  35  1   
 29  15  20  1   
 30  15  36  1   
 31  19  21  1   
 32  20  22  1   
 33  20  37  1   
 34  20  38  1   
 35  21  39  1   
 36  21  40  1   
 37  21  41  1   
 38  22  23  1   
 39  22  24  2   
 40  23  25  1   
 41  24  26  1   
 42  24  42  1   
 43  25  26  2   
 44  26  27  1   
 45  27  43  1   
 46  27  44  1   
 47  27  45  1   
@<TRIPOS>SUBSTRUCTURE
  1 ****   9 GROUP 4 **** **** 0

# MOE 2024.06 (io_trps.svl 2023.06)
