@<TRIPOS>MOLECULE
NONAME
39 42 1 0 0 
SMALL
USER_CHARGES


@<TRIPOS>ATOM
  1 S       -3.1070    -0.1100    -0.0250 S.3   1 <1>  -0.1570 
  2 C       -2.3530    -1.7150     0.0420 C.2   1 <1>   0.2420 
  3 C       -1.5590     0.6530     0.4240 C.2   1 <1>  -0.0490 
  4 N       -2.8090    -2.9010    -0.1630 N.2   1 <1>  -0.5650 
  5 N       -1.0560    -1.6060     0.3780 N.pl3 1 <1>   0.3340 
  6 C       -0.6100    -0.2840     0.5910 C.2   1 <1>  -0.1810 
  7 C       -1.7000    -3.6900     0.0570 C.2   1 <1>   0.1410 
  8 C       -0.6400    -2.8810     0.3860 C.2   1 <1>  -0.3020 
  9 C       -1.6520    -5.1500    -0.0400 C.2   1 <1>   0.7160 
 10 O       -0.6040    -5.7160     0.2300 O.2   1 <1>  -0.5700 
 11 N       -2.7190    -5.9450    -0.4200 N.am  1 <1>  -0.6600 
 12 C       -4.0750    -5.4780    -0.8010 C.3   1 <1>   0.1400 
 13 C       -2.6470    -7.4250    -0.4700 C.3   1 <1>   0.1400 
 14 C       -4.8570    -6.7490    -1.1400 C.3   1 <1>   0.2000 
 15 C       -4.1030    -7.8910    -0.4640 C.3   1 <1>  -0.0800 
 16 O       -6.1580    -6.6940    -0.6610 O.3   1 <1>  -0.6800 
 17 C       -4.3350    -9.2450    -1.1550 C.3   1 <1>  -0.0170 
 18 C       -3.5860   -10.3670    -0.4560 C.ar  1 <1>   0.1670 
 19 N       -2.3200   -10.5350    -0.8050 N.ar  1 <1>  -0.6200 
 20 C       -4.2380   -11.1410     0.4930 C.ar  1 <1>  -0.1500 
 21 C       -1.6770   -11.5100    -0.1820 C.ar  1 <1>   0.1600 
 22 C       -3.5570   -12.1540     1.1330 C.ar  1 <1>  -0.1500 
 23 C       -2.2380   -12.3350     0.7780 C.ar  1 <1>  -0.1500 
 24 H       -1.5550     1.7270     0.5070 H     1 <1>   0.1500 
 25 H        0.4190    -0.1380     0.8620 H     1 <1>   0.1500 
 26 H        0.3680    -3.1690     0.6190 H     1 <1>   0.1500 
 27 H       -4.5210    -4.9590     0.0300 H     1 <1>   0.0800 
 28 H       -4.0190    -4.8270    -1.6560 H     1 <1>   0.0800 
 29 H       -2.1510    -7.7220    -1.3790 H     1 <1>   0.0800 
 30 H       -2.1030    -7.8200     0.3720 H     1 <1>   0.0800 
 31 H       -4.8930    -6.8800    -2.2080 H     1 <1>   0.0800 
 32 H       -4.4070    -7.9610     0.5660 H     1 <1>   0.0800 
 33 H       -6.1550    -6.5020     0.2970 H     1 <1>   0.4000 
 34 H       -4.0120    -9.1960    -2.1800 H     1 <1>   0.0800 
 35 H       -5.3870    -9.4650    -1.1580 H     1 <1>   0.0800 
 36 H       -5.2690   -10.9530     0.7310 H     1 <1>   0.1500 
 37 H       -0.6450   -11.6600    -0.4510 H     1 <1>   0.1500 
 38 H       -4.0330   -12.7740     1.8740 H     1 <1>   0.1500 
 39 H       -1.6480   -13.1060     1.2390 H     1 <1>   0.1500 
@<TRIPOS>BOND
  1   1   2  1   
  2   1   3  1   
  3   2   4  2   
  4   2   5  1   
  5   3   6  2   
  6   3  24  1   
  7   4   7  1   
  8   5   6  1   
  9   5   8  1   
 10   6  25  1   
 11   7   8  2   
 12   7   9  1   
 13   8  26  1   
 14   9  10  2   
 15   9  11  am  
 16  11  12  1   
 17  11  13  1   
 18  12  14  1   
 19  12  27  1   
 20  12  28  1   
 21  13  15  1   
 22  13  29  1   
 23  13  30  1   
 24  14  15  1   
 25  14  16  1   
 26  14  31  1   
 27  15  17  1   
 28  15  32  1   
 29  16  33  1   
 30  17  18  1   
 31  17  34  1   
 32  17  35  1   
 33  18  19  ar  
 34  18  20  ar  
 35  19  21  ar  
 36  20  22  ar  
 37  20  36  1   
 38  21  23  ar  
 39  21  37  1   
 40  22  23  ar  
 41  22  38  1   
 42  23  39  1   
@<TRIPOS>SUBSTRUCTURE
  1 ****  11 GROUP 4 **** **** 0

# MOE 2024.06 (io_trps.svl 2023.06)
