@<TRIPOS>MOLECULE
NONAME
51 53 1 0 0 
SMALL
USER_CHARGES


@<TRIPOS>ATOM
  1 O       -0.8060     0.5650    -0.0500 O.2   1 <1>  -0.5700 
  2 C       -0.5550     1.7050     0.2460 C.2   1 <1>   0.5690 
  3 N       -1.5380     2.5510     0.6220 N.am  1 <1>  -0.7300 
  4 C        0.8840     2.2210     0.1580 C.3   1 <1>   0.1810 
  5 C       -1.3060     3.9670     0.9970 C.3   1 <1>   0.3640 
  6 O        1.0900     3.4270     0.8640 O.3   1 <1>  -0.5600 
  7 C       -2.3550     4.8360     0.3040 C.ar  1 <1>  -0.1440 
  8 C        0.1220     4.4370     0.6160 C.3   1 <1>   0.2610 
  9 C       -2.9850     5.8480     1.0140 C.ar  1 <1>  -0.1500 
 10 C       -2.6850     4.6460    -1.0320 C.ar  1 <1>  -0.1500 
 11 C        0.4980     5.7450     1.3350 C.2   1 <1>   0.5690 
 12 C       -3.9270     6.6560     0.4010 C.ar  1 <1>  -0.1500 
 13 C       -3.6270     5.4530    -1.6460 C.ar  1 <1>  -0.1500 
 14 O       -0.0830     6.0480     2.3550 O.2   1 <1>  -0.5700 
 15 N        1.4730     6.5610     0.8170 N.am  1 <1>  -0.6600 
 16 C       -4.2490     6.4590    -0.9290 C.ar  1 <1>  -0.1500 
 17 C        1.7450     7.9180     1.3900 C.3   1 <1>   0.1400 
 18 C        2.3550     6.1870    -0.3290 C.3   1 <1>   0.1400 
 19 C        1.9750     8.9940     0.2850 C.3   1 <1>   0.2800 
 20 C        3.4060     7.2710    -0.6150 C.3   1 <1>   0.1200 
 21 O        2.7900     8.5170    -0.7670 O.3   1 <1>  -0.5600 
 22 C        2.6650    10.2380     0.9120 C.3   1 <1>  -0.1600 
 23 C        0.5990     9.3310    -0.3470 C.3   1 <1>  -0.1600 
 24 C        3.5750    11.0720    -0.0110 C.3   1 <1>  -0.2400 
 25 C        0.5900    10.3640    -1.4850 C.3   1 <1>  -0.2400 
 26 H       -2.4980     2.2070     0.6740 H     1 <1>   0.3700 
 27 H        1.1410     2.3840    -0.8720 H     1 <1>   0.0800 
 28 H        1.5500     1.4850     0.5690 H     1 <1>   0.0800 
 29 H       -1.4300     4.0430     2.0640 H     1 <1>   0.0800 
 30 H        0.1310     4.6320    -0.4390 H     1 <1>   0.0800 
 31 H       -2.7420     6.0200     2.0490 H     1 <1>   0.1500 
 32 H       -2.2130     3.8670    -1.6070 H     1 <1>   0.1500 
 33 H       -4.4080     7.4390     0.9610 H     1 <1>   0.1500 
 34 H       -3.8770     5.2980    -2.6810 H     1 <1>   0.1500 
 35 H       -4.9820     7.0880    -1.4050 H     1 <1>   0.1500 
 36 H        0.9320     8.2280     2.0230 H     1 <1>   0.0800 
 37 H        2.6170     7.8450     2.0150 H     1 <1>   0.0800 
 38 H        2.8520     5.2580    -0.1090 H     1 <1>   0.0800 
 39 H        1.7560     6.0530    -1.2120 H     1 <1>   0.0800 
 40 H        3.9300     7.0520    -1.5290 H     1 <1>   0.0800 
 41 H        4.1230     7.3360     0.1840 H     1 <1>   0.0800 
 42 H        1.9080    10.8770     1.3300 H     1 <1>   0.0800 
 43 H        3.2740     9.9190     1.7380 H     1 <1>   0.0800 
 44 H        0.1750     8.4180    -0.7250 H     1 <1>   0.0800 
 45 H       -0.0630     9.6790     0.4260 H     1 <1>   0.0800 
 46 H        3.0520    11.4130    -0.8820 H     1 <1>   0.0800 
 47 H        4.4160    10.4840    -0.3350 H     1 <1>   0.0800 
 48 H        3.9490    11.9290     0.5200 H     1 <1>   0.0800 
 49 H        1.3070    10.0980    -2.2420 H     1 <1>   0.0800 
 50 H        0.8160    11.3450    -1.1100 H     1 <1>   0.0800 
 51 H       -0.3850    10.3970    -1.9380 H     1 <1>   0.0800 
@<TRIPOS>BOND
  1   1   2  2   
  2   2   3  am  
  3   2   4  1   
  4   3   5  1   
  5   3  26  1   
  6   4   6  1   
  7   4  27  1   
  8   4  28  1   
  9   5   7  1   
 10   5   8  1   
 11   5  29  1   
 12   6   8  1   
 13   7   9  ar  
 14   7  10  ar  
 15   8  11  1   
 16   8  30  1   
 17   9  12  ar  
 18   9  31  1   
 19  10  13  ar  
 20  10  32  1   
 21  11  14  2   
 22  11  15  am  
 23  12  16  ar  
 24  12  33  1   
 25  13  16  ar  
 26  13  34  1   
 27  15  17  1   
 28  15  18  1   
 29  16  35  1   
 30  17  19  1   
 31  17  36  1   
 32  17  37  1   
 33  18  20  1   
 34  18  38  1   
 35  18  39  1   
 36  19  21  1   
 37  19  22  1   
 38  19  23  1   
 39  20  21  1   
 40  20  40  1   
 41  20  41  1   
 42  22  24  1   
 43  22  42  1   
 44  22  43  1   
 45  23  25  1   
 46  23  44  1   
 47  23  45  1   
 48  24  46  1   
 49  24  47  1   
 50  24  48  1   
 51  25  49  1   
 52  25  50  1   
 53  25  51  1   
@<TRIPOS>SUBSTRUCTURE
  1 ****  11 GROUP 4 **** **** 0

# MOE 2024.06 (io_trps.svl 2023.06)
