@<TRIPOS>MOLECULE
NONAME
37 39 1 0 0 
SMALL
USER_CHARGES


@<TRIPOS>ATOM
  1 F        1.1830     1.0170     1.4500 F     1 <1>  -0.1900 
  2 C        1.4010     2.0770     0.7150 C.ar  1 <1>   0.1900 
  3 C        0.9520     3.2980     1.1560 C.ar  1 <1>  -0.1500 
  4 C        2.0870     1.9050    -0.4920 C.ar  1 <1>  -0.1500 
  5 C        1.2020     4.4040     0.3480 C.ar  1 <1>   0.2270 
  6 C        2.3320     3.0020    -1.2890 C.ar  1 <1>  -0.1500 
  7 N        0.8730     5.7110     0.5450 N.2   1 <1>  -0.5650 
  8 C        1.8790     4.2510    -0.8510 C.ar  1 <1>  -0.1520 
  9 C        1.3310     6.3180    -0.4930 C.2   1 <1>   0.0060 
 10 N        1.9520     5.4980    -1.3800 N.pl3 1 <1>   0.0330 
 11 C        1.2070     7.8110    -0.7200 C.3   1 <1>   0.0200 
 12 C        2.2050     8.5580     0.1690 C.3   1 <1>   0.1100 
 13 N        2.3380     9.9710    -0.2350 N.3   1 <1>  -0.8100 
 14 C        3.5620    10.5680     0.3590 C.3   1 <1>   0.2900 
 15 C        1.1450    10.7580     0.1290 C.3   1 <1>   0.0300 
 16 C        3.8860    11.9580    -0.1830 C.2   1 <1>   0.2980 
 17 O        4.1820    12.0840    -1.4510 O.3   1 <1>  -0.0190 
 18 N        3.9080    13.0400     0.4930 N.2   1 <1>  -0.5650 
 19 N        4.4100    13.3540    -1.6010 N.2   1 <1>  -0.4100 
 20 C        4.2480    13.9210    -0.4620 C.2   1 <1>   0.3350 
 21 C        4.4160    15.4470    -0.1850 C.3   1 <1>   1.2010 
 22 F        3.3020    16.0110     0.2760 F     1 <1>  -0.3400 
 23 F        4.7560    16.1490    -1.2640 F     1 <1>  -0.3400 
 24 F        5.3580    15.7030     0.7220 F     1 <1>  -0.3400 
 25 H        0.4270     3.4170     2.0840 H     1 <1>   0.1500 
 26 H        2.4100     0.9200    -0.7760 H     1 <1>   0.1500 
 27 H        2.8560     2.9070    -2.2250 H     1 <1>   0.1500 
 28 H        2.3850     5.7620    -2.2690 H     1 <1>   0.2700 
 29 H        0.2040     8.1090    -0.4760 H     1 <1>   0.0800 
 30 H        1.3970     8.0430    -1.7530 H     1 <1>   0.0800 
 31 H        3.1610     8.0720     0.0680 H     1 <1>   0.0800 
 32 H        1.9030     8.4830     1.2010 H     1 <1>   0.0800 
 33 H        4.4050     9.9340     0.1450 H     1 <1>   0.0800 
 34 H        3.4530    10.6260     1.4280 H     1 <1>   0.0800 
 35 H        0.2710    10.3610    -0.3560 H     1 <1>   0.0800 
 36 H        1.2580    11.7790    -0.1910 H     1 <1>   0.0800 
 37 H        0.9910    10.7420     1.1950 H     1 <1>   0.0800 
@<TRIPOS>BOND
  1   1   2  1   
  2   2   3  ar  
  3   2   4  ar  
  4   3   5  ar  
  5   3  25  1   
  6   4   6  ar  
  7   4  26  1   
  8   5   7  1   
  9   5   8  ar  
 10   6   8  ar  
 11   6  27  1   
 12   7   9  2   
 13   8  10  1   
 14   9  10  1   
 15   9  11  1   
 16  10  28  1   
 17  11  12  1   
 18  11  29  1   
 19  11  30  1   
 20  12  13  1   
 21  12  31  1   
 22  12  32  1   
 23  13  14  1   
 24  13  15  1   
 25  14  16  1   
 26  14  33  1   
 27  14  34  1   
 28  15  35  1   
 29  15  36  1   
 30  15  37  1   
 31  16  17  1   
 32  16  18  2   
 33  17  19  1   
 34  18  20  1   
 35  19  20  2   
 36  20  21  1   
 37  21  22  1   
 38  21  23  1   
 39  21  24  1   
@<TRIPOS>SUBSTRUCTURE
  1 ****  12 GROUP 4 **** **** 0

# MOE 2024.06 (io_trps.svl 2023.06)
