@<TRIPOS>MOLECULE
NONAME
49 52 1 0 0 
SMALL
USER_CHARGES


@<TRIPOS>ATOM
  1 CL      -0.3260     1.0050    -2.9480 Cl    1 <1>  -0.1770 
  2 C       -1.7690     1.6490    -2.2140 C.ar  1 <1>   0.1770 
  3 C       -2.5830     0.8190    -1.4680 C.ar  1 <1>  -0.1500 
  4 C       -2.0840     2.9820    -2.3880 C.ar  1 <1>  -0.1500 
  5 C       -3.7270     1.3390    -0.8860 C.ar  1 <1>  -0.1500 
  6 C       -3.2300     3.4900    -1.8010 C.ar  1 <1>  -0.1500 
  7 C       -4.0740     2.6850    -1.0310 C.ar  1 <1>   0.0860 
  8 C       -5.2750     3.2140    -0.4020 C.2   1 <1>   0.5440 
  9 O       -6.2490     2.4960    -0.2830 O.2   1 <1>  -0.5700 
 10 N       -5.3010     4.4920     0.1170 N.am  1 <1>  -0.6600 
 11 C       -6.5940     5.2500     0.3210 C.3   1 <1>   0.2200 
 12 C       -4.1790     4.8650     1.0340 C.3   1 <1>   0.1400 
 13 C       -6.4110     6.7810     0.5720 C.3   1 <1>   0.1380 
 14 C       -7.6550     5.0350    -0.7770 C.3   1 <1>  -0.1600 
 15 C       -4.6310     5.7940     2.1670 C.3   1 <1>  -0.1600 
 16 C       -6.0810     7.6060    -0.7140 C.2   1 <1>  -0.2760 
 17 C       -7.7820     7.2010     1.1850 C.3   1 <1>   0.1200 
 18 C       -5.2950     7.0660     1.6170 C.3   1 <1>  -0.1600 
 19 C       -8.7730     6.0870    -0.7000 C.3   1 <1>   0.1200 
 20 C       -6.7180     8.7100    -1.1380 C.2   1 <1>  -0.2880 
 21 C       -4.9160     7.1010    -1.5680 C.3   1 <1>  -0.0220 
 22 O       -8.9020     6.5640     0.6090 O.3   1 <1>  -0.5600 
 23 C       -6.3840     9.4600    -2.4220 C.3   1 <1>   0.2580 
 24 C       -4.4540     8.1480    -2.5910 C.3   1 <1>   0.1200 
 25 O       -5.5600     8.6860    -3.2410 O.3   1 <1>  -0.5600 
 26 H       -2.3240    -0.2190    -1.3480 H     1 <1>   0.1500 
 27 H       -1.4380     3.6080    -2.9790 H     1 <1>   0.1500 
 28 H       -4.3700     0.6970    -0.3070 H     1 <1>   0.1500 
 29 H       -3.4820     4.5240    -1.9440 H     1 <1>   0.1500 
 30 H       -7.0250     4.8400     1.2190 H     1 <1>   0.0800 
 31 H       -3.7620     3.9710     1.4690 H     1 <1>   0.0800 
 32 H       -3.4010     5.3430     0.4670 H     1 <1>   0.0800 
 33 H       -8.1090     4.0700    -0.6510 H     1 <1>   0.0800 
 34 H       -7.2120     5.0690    -1.7540 H     1 <1>   0.0800 
 35 H       -5.3150     5.2640     2.8080 H     1 <1>   0.0800 
 36 H       -3.7780     6.0650     2.7630 H     1 <1>   0.0800 
 37 H       -7.9360     8.2620     1.1520 H     1 <1>   0.0800 
 38 H       -7.8020     6.9180     2.2230 H     1 <1>   0.0800 
 39 H       -4.5290     7.6750     1.1710 H     1 <1>   0.0800 
 40 H       -5.6810     7.6400     2.4410 H     1 <1>   0.0800 
 41 H       -9.7150     5.6540    -0.9880 H     1 <1>   0.0800 
 42 H       -8.5740     6.9210    -1.3480 H     1 <1>   0.0800 
 43 H       -7.5370     9.1820    -0.6300 H     1 <1>   0.1500 
 44 H       -5.2100     6.2130    -2.0960 H     1 <1>   0.0800 
 45 H       -4.0700     6.8620    -0.9570 H     1 <1>   0.0800 
 46 H       -5.8830    10.3870    -2.2070 H     1 <1>   0.0800 
 47 H       -7.2820     9.6650    -2.9790 H     1 <1>   0.0800 
 48 H       -3.8190     7.6980    -3.3330 H     1 <1>   0.0800 
 49 H       -3.9200     8.9480    -2.1070 H     1 <1>   0.0800 
@<TRIPOS>BOND
  1   1   2  1   
  2   2   3  ar  
  3   2   4  ar  
  4   3   5  ar  
  5   3  26  1   
  6   4   6  ar  
  7   4  27  1   
  8   5   7  ar  
  9   5  28  1   
 10   6   7  ar  
 11   6  29  1   
 12   7   8  1   
 13   8   9  2   
 14   8  10  am  
 15  10  11  1   
 16  10  12  1   
 17  11  13  1   
 18  11  14  1   
 19  11  30  1   
 20  12  15  1   
 21  12  31  1   
 22  12  32  1   
 23  13  16  1   
 24  13  17  1   
 25  13  18  1   
 26  14  19  1   
 27  14  33  1   
 28  14  34  1   
 29  15  18  1   
 30  15  35  1   
 31  15  36  1   
 32  16  20  2   
 33  16  21  1   
 34  17  22  1   
 35  17  37  1   
 36  17  38  1   
 37  18  39  1   
 38  18  40  1   
 39  19  22  1   
 40  19  41  1   
 41  19  42  1   
 42  20  23  1   
 43  20  43  1   
 44  21  24  1   
 45  21  44  1   
 46  21  45  1   
 47  23  25  1   
 48  23  46  1   
 49  23  47  1   
 50  24  25  1   
 51  24  48  1   
 52  24  49  1   
@<TRIPOS>SUBSTRUCTURE
  1 ****  10 GROUP 4 **** **** 0

# MOE 2024.06 (io_trps.svl 2023.06)
