@<TRIPOS>MOLECULE
NONAME
49 52 1 0 0 
SMALL
USER_CHARGES


@<TRIPOS>ATOM
  1 CL       0.9060    -1.7870     2.1060 Cl    1 <1>  -0.1770 
  2 C        0.1370    -2.7450     0.8610 C.ar  1 <1>   0.1770 
  3 C        0.8220    -3.0470    -0.3080 C.ar  1 <1>  -0.1440 
  4 C       -1.1540    -3.1810     1.0800 C.ar  1 <1>  -0.1500 
  5 C        0.1740    -3.8080    -1.2700 C.ar  1 <1>  -0.1500 
  6 C        2.2450    -2.5620    -0.5390 C.3   1 <1>  -0.0960 
  7 C       -1.8020    -3.9460     0.1170 C.ar  1 <1>   0.1000 
  8 C       -1.1210    -4.2490    -1.0560 C.ar  1 <1>  -0.1500 
  9 N       -3.1050    -4.4040     0.2940 N.pl3 1 <1>  -0.8380 
 10 C       -4.1720    -3.6460    -0.3920 C.3   1 <1>   0.2090 
 11 C       -3.4810    -4.9860     1.6000 C.3   1 <1>   0.2090 
 12 C       -5.3070    -4.6220    -0.6900 C.3   1 <1>  -0.1600 
 13 C       -4.6000    -5.9910     1.3460 C.3   1 <1>  -0.1600 
 14 C       -5.7600    -5.3170     0.6030 C.3   1 <1>   0.4230 
 15 N       -6.8340    -6.3220     0.3510 N.4   1 <1>  -0.9590 
 16 C       -6.5000    -7.3950    -0.6690 C.3   1 <1>   0.3430 
 17 C       -8.1760    -5.6850     0.0560 C.3   1 <1>   0.3430 
 18 C       -7.5350    -8.5560    -0.6640 C.3   1 <1>   0.2200 
 19 C       -9.2550    -6.7140    -0.3650 C.3   1 <1>   0.1400 
 20 N       -8.8060    -8.1020    -0.0670 N.am  1 <1>  -0.6600 
 21 C       -7.1370    -9.6910     0.2910 C.3   1 <1>   0.1200 
 22 C       -8.8900    -8.6040     1.1880 C.2   1 <1>   0.7800 
 23 O       -7.9420    -9.4930     1.4320 O.3   1 <1>  -0.4300 
 24 O       -9.5930    -8.1640     2.0670 O.2   1 <1>  -0.5700 
 25 H       -1.6490    -2.9190     1.9930 H     1 <1>   0.1500 
 26 H        0.6730    -4.0620    -2.1880 H     1 <1>   0.1500 
 27 H        2.8930    -2.9460     0.2290 H     1 <1>   0.0800 
 28 H        2.2750    -1.4870    -0.5120 H     1 <1>   0.0800 
 29 H        2.6150    -2.8890    -1.4940 H     1 <1>   0.0800 
 30 H       -1.6140    -4.8410    -1.8030 H     1 <1>   0.1500 
 31 H       -3.7910    -3.2240    -1.3080 H     1 <1>   0.0800 
 32 H       -4.5070    -2.8410     0.2400 H     1 <1>   0.0800 
 33 H       -3.8060    -4.2060     2.2690 H     1 <1>   0.0800 
 34 H       -2.6280    -5.4810     2.0370 H     1 <1>   0.0800 
 35 H       -4.9360    -5.3330    -1.4050 H     1 <1>   0.0800 
 36 H       -6.1170    -4.0730    -1.1320 H     1 <1>   0.0800 
 37 H       -4.9350    -6.3760     2.2920 H     1 <1>   0.0800 
 38 H       -4.1830    -6.7960     0.7700 H     1 <1>   0.0800 
 39 H       -6.1520    -4.5560     1.2590 H     1 <1>   0.0800 
 40 H       -6.9800    -6.8250     1.2410 H     1 <1>   0.4500 
 41 H       -5.5180    -7.7970    -0.4880 H     1 <1>   0.0800 
 42 H       -6.4890    -6.9540    -1.6520 H     1 <1>   0.0800 
 43 H       -8.0780    -4.9540    -0.7290 H     1 <1>   0.0800 
 44 H       -8.5250    -5.1670     0.9350 H     1 <1>   0.0800 
 45 H       -7.6790    -8.9420    -1.6590 H     1 <1>   0.0800 
 46 H       -9.4540    -6.6240    -1.4190 H     1 <1>   0.0800 
 47 H      -10.1770    -6.5060     0.1550 H     1 <1>   0.0800 
 48 H       -6.1000    -9.6740     0.5770 H     1 <1>   0.0800 
 49 H       -7.3860   -10.6520    -0.1260 H     1 <1>   0.0800 
@<TRIPOS>BOND
  1   1   2  1   
  2   2   3  ar  
  3   2   4  ar  
  4   3   5  ar  
  5   3   6  1   
  6   4   7  ar  
  7   4  25  1   
  8   5   8  ar  
  9   5  26  1   
 10   6  27  1   
 11   6  28  1   
 12   6  29  1   
 13   7   8  ar  
 14   7   9  1   
 15   8  30  1   
 16   9  10  1   
 17   9  11  1   
 18  10  12  1   
 19  10  31  1   
 20  10  32  1   
 21  11  13  1   
 22  11  33  1   
 23  11  34  1   
 24  12  14  1   
 25  12  35  1   
 26  12  36  1   
 27  13  14  1   
 28  13  37  1   
 29  13  38  1   
 30  14  15  1   
 31  14  39  1   
 32  15  16  1   
 33  15  17  1   
 34  15  40  1   
 35  16  18  1   
 36  16  41  1   
 37  16  42  1   
 38  17  19  1   
 39  17  43  1   
 40  17  44  1   
 41  18  20  1   
 42  18  21  1   
 43  18  45  1   
 44  19  20  1   
 45  19  46  1   
 46  19  47  1   
 47  20  22  am  
 48  21  23  1   
 49  21  48  1   
 50  21  49  1   
 51  22  23  1   
 52  22  24  2   
@<TRIPOS>SUBSTRUCTURE
  1 ****  13 GROUP 4 **** **** 0

# MOE 2024.06 (io_trps.svl 2023.06)
