@<TRIPOS>MOLECULE
NONAME
45 47 1 0 0 
SMALL
USER_CHARGES


@<TRIPOS>ATOM
  1 O       -1.8970     0.5410     2.2980 O.2   1 <1>  -0.5700 
  2 C       -2.3770     0.9490     1.2560 C.2   1 <1>   0.5440 
  3 N       -3.4520     0.2790     0.7210 N.am  1 <1>  -0.6600 
  4 C       -1.8160     2.1090     0.5970 C.ar  1 <1>   0.0860 
  5 C       -4.1250     0.6520    -0.5490 C.3   1 <1>   0.1400 
  6 C       -3.7730    -1.1220     1.0860 C.3   1 <1>   0.1400 
  7 C       -1.0560     1.9840    -0.5790 C.ar  1 <1>   0.0820 
  8 C       -2.0460     3.3990     1.0970 C.ar  1 <1>  -0.1440 
  9 C       -5.1200    -0.4810    -0.8040 C.3   1 <1>   0.2000 
 10 C       -4.4770    -1.7060    -0.1480 C.3   1 <1>  -0.0800 
 11 O       -0.7550     0.7940    -1.1500 O.3   1 <1>  -0.3630 
 12 C       -0.5840     3.1070    -1.2370 C.ar  1 <1>  -0.1500 
 13 C       -1.5540     4.5110     0.4340 C.ar  1 <1>  -0.1500 
 14 C       -2.8460     3.6000     2.3790 C.3   1 <1>  -0.0970 
 15 O       -6.2930    -0.1980    -0.1240 O.3   1 <1>  -0.6800 
 16 C       -3.4870    -2.3820    -1.1200 C.3   1 <1>  -0.0170 
 17 C       -0.1280    -0.2170    -0.3840 C.3   1 <1>   0.0400 
 18 C       -0.8280     4.3690    -0.7350 C.ar  1 <1>  -0.1500 
 19 C       -2.8340    -3.6160    -0.5170 C.ar  1 <1>   0.1670 
 20 N       -1.5980    -3.4750    -0.0640 N.ar  1 <1>  -0.6200 
 21 C       -3.5380    -4.8170    -0.4640 C.ar  1 <1>   0.1600 
 22 C       -1.1230    -4.5990     0.4460 C.ar  1 <1>   0.1600 
 23 N       -3.0660    -5.9430     0.0440 N.ar  1 <1>  -0.6200 
 24 C       -1.8330    -5.7920     0.4990 C.ar  1 <1>   0.1600 
 25 H       -4.6140     1.6080    -0.4720 H     1 <1>   0.0800 
 26 H       -3.3990     0.6820    -1.3420 H     1 <1>   0.0800 
 27 H       -2.8830    -1.6640     1.3550 H     1 <1>   0.0800 
 28 H       -4.4400    -1.1150     1.9310 H     1 <1>   0.0800 
 29 H       -5.3560    -0.6120    -1.8460 H     1 <1>   0.0800 
 30 H       -5.2240    -2.4240     0.1410 H     1 <1>   0.0800 
 31 H       -0.0180     2.9850    -2.1430 H     1 <1>   0.1500 
 32 H       -1.7330     5.4990     0.8200 H     1 <1>   0.1500 
 33 H       -2.9570     4.6440     2.6110 H     1 <1>   0.0800 
 34 H       -2.3440     3.1230     3.2020 H     1 <1>   0.0800 
 35 H       -3.8260     3.1690     2.2770 H     1 <1>   0.0800 
 36 H       -6.0670     0.0830     0.7860 H     1 <1>   0.4000 
 37 H       -2.7180    -1.6870    -1.4120 H     1 <1>   0.0800 
 38 H       -4.0080    -2.6750    -2.0130 H     1 <1>   0.0800 
 39 H        0.4490    -0.8340    -1.0490 H     1 <1>   0.0800 
 40 H       -0.8780    -0.8180     0.0960 H     1 <1>   0.0800 
 41 H        0.5150     0.2370     0.3490 H     1 <1>   0.0800 
 42 H       -0.4540     5.2380    -1.2480 H     1 <1>   0.1500 
 43 H       -4.5390    -4.8480    -0.8580 H     1 <1>   0.1500 
 44 H       -0.1240    -4.5750     0.8430 H     1 <1>   0.1500 
 45 H       -1.3610    -6.6550     0.9340 H     1 <1>   0.1500 
@<TRIPOS>BOND
  1   1   2  2   
  2   2   3  am  
  3   2   4  1   
  4   3   5  1   
  5   3   6  1   
  6   4   7  ar  
  7   4   8  ar  
  8   5   9  1   
  9   5  25  1   
 10   5  26  1   
 11   6  10  1   
 12   6  27  1   
 13   6  28  1   
 14   7  11  1   
 15   7  12  ar  
 16   8  13  ar  
 17   8  14  1   
 18   9  10  1   
 19   9  15  1   
 20   9  29  1   
 21  10  16  1   
 22  10  30  1   
 23  11  17  1   
 24  12  18  ar  
 25  12  31  1   
 26  13  18  ar  
 27  13  32  1   
 28  14  33  1   
 29  14  34  1   
 30  14  35  1   
 31  15  36  1   
 32  16  19  1   
 33  16  37  1   
 34  16  38  1   
 35  17  39  1   
 36  17  40  1   
 37  17  41  1   
 38  18  42  1   
 39  19  20  ar  
 40  19  21  ar  
 41  20  22  ar  
 42  21  23  ar  
 43  21  43  1   
 44  22  24  ar  
 45  22  44  1   
 46  23  24  ar  
 47  24  45  1   
@<TRIPOS>SUBSTRUCTURE
  1 ****   3 GROUP 4 **** **** 0

# MOE 2024.06 (io_trps.svl 2023.06)
