@<TRIPOS>MOLECULE
NONAME
62 64 1 0 0 
SMALL
USER_CHARGES


@<TRIPOS>ATOM
  1 O       -0.4250    -0.9140     0.2160 O.2   1 <1>  -0.5700 
  2 C        0.6840    -1.1500    -0.2180 C.2   1 <1>   0.5690 
  3 N        1.2070    -0.3970    -1.2490 N.am  1 <1>  -0.6600 
  4 C        1.5280    -2.2880     0.4130 C.3   1 <1>   0.1710 
  5 C        2.5970    -0.5180    -1.7700 C.3   1 <1>   0.0600 
  6 C        0.3890     0.6340    -1.9500 C.3   1 <1>   0.0600 
  7 N        0.7760    -3.4170     1.0290 N.3   1 <1>  -0.8100 
  8 C        0.0820    -3.0310     2.2750 C.3   1 <1>   0.1100 
  9 C        1.5680    -4.6360     1.2110 C.3   1 <1>   0.1100 
 10 C       -1.3740    -3.5210     2.2700 C.3   1 <1>   0.2090 
 11 C        0.6730    -5.8810     1.2730 C.3   1 <1>  -0.1600 
 12 N       -1.5650    -4.9820     1.9380 N.pl3 1 <1>  -0.8380 
 13 C       -0.4310    -5.8710     2.3440 C.3   1 <1>   0.2090 
 14 C       -2.5690    -5.4290     1.1290 C.ar  1 <1>   0.4100 
 15 N       -2.4630    -6.6450     0.6200 N.ar  1 <1>  -0.6200 
 16 C       -3.6870    -4.6240     0.8260 C.ar  1 <1>  -0.1500 
 17 C       -3.3760    -7.0630    -0.2420 C.ar  1 <1>   0.7710 
 18 C       -4.6090    -5.0620    -0.0620 C.ar  1 <1>   0.2180 
 19 N       -4.4140    -6.2880    -0.5950 N.ar  1 <1>  -0.1790 
 20 N       -3.2610    -8.3040    -0.7900 N.pl3 1 <1>  -0.8380 
 21 C       -5.8310    -4.2530    -0.4780 C.3   1 <1>  -0.0170 
 22 C       -4.3290    -9.0160    -1.5730 C.3   1 <1>   0.2090 
 23 C       -2.0020    -9.0960    -0.5470 C.3   1 <1>   0.2090 
 24 C       -7.1430    -4.9350    -0.0700 C.3   1 <1>  -0.2400 
 25 C       -4.2970   -10.5190    -1.2830 C.3   1 <1>  -0.1600 
 26 C       -1.7950   -10.1620    -1.6270 C.3   1 <1>  -0.1600 
 27 C       -2.9610   -11.1600    -1.6910 C.3   1 <1>  -0.1600 
 28 H        2.1840    -1.8570     1.1460 H     1 <1>   0.0800 
 29 H        2.1350    -2.6970    -0.3720 H     1 <1>   0.0800 
 30 H        3.2660    -0.8680    -1.0040 H     1 <1>   0.0800 
 31 H        2.9490     0.4430    -2.1050 H     1 <1>   0.0800 
 32 H        2.6140    -1.2040    -2.5990 H     1 <1>   0.0800 
 33 H       -0.6360     0.6050    -1.6200 H     1 <1>   0.0800 
 34 H        0.4090     0.4570    -3.0100 H     1 <1>   0.0800 
 35 H        0.7860     1.6130    -1.7450 H     1 <1>   0.0800 
 36 H        0.0630    -1.9610     2.3790 H     1 <1>   0.0800 
 37 H        0.5970    -3.4120     3.1380 H     1 <1>   0.0800 
 38 H        2.1670    -4.5570     2.1030 H     1 <1>   0.0800 
 39 H        2.2370    -4.7560     0.3760 H     1 <1>   0.0800 
 40 H       -1.8770    -2.9100     1.5430 H     1 <1>   0.0800 
 41 H       -1.8110    -3.3210     3.2320 H     1 <1>   0.0800 
 42 H        1.3090    -6.7250     1.4650 H     1 <1>   0.0800 
 43 H        0.2270    -6.0380     0.3080 H     1 <1>   0.0800 
 44 H       -0.0340    -5.5590     3.2940 H     1 <1>   0.0800 
 45 H       -0.7980    -6.8740     2.4750 H     1 <1>   0.0800 
 46 H       -3.7960    -3.6700     1.3020 H     1 <1>   0.1500 
 47 H       -5.0340    -6.6750    -1.2910 H     1 <1>   0.4570 
 48 H       -5.8170    -4.0970    -1.5440 H     1 <1>   0.0800 
 49 H       -5.7890    -3.2810    -0.0150 H     1 <1>   0.0800 
 50 H       -4.1660    -8.8560    -2.6270 H     1 <1>   0.0800 
 51 H       -5.3050    -8.6460    -1.3120 H     1 <1>   0.0800 
 52 H       -2.0640    -9.5690     0.4190 H     1 <1>   0.0800 
 53 H       -1.1460    -8.4410    -0.5420 H     1 <1>   0.0800 
 54 H       -7.2680    -5.8810    -0.5650 H     1 <1>   0.0800 
 55 H       -7.9770    -4.3070    -0.3330 H     1 <1>   0.0800 
 56 H       -7.1680    -5.0940     0.9950 H     1 <1>   0.0800 
 57 H       -5.1010   -11.0090    -1.8050 H     1 <1>   0.0800 
 58 H       -4.4610   -10.6660    -0.2290 H     1 <1>   0.0800 
 59 H       -0.8790   -10.6930    -1.4360 H     1 <1>   0.0800 
 60 H       -1.6840    -9.6660    -2.5760 H     1 <1>   0.0800 
 61 H       -3.0300   -11.5470    -2.6940 H     1 <1>   0.0800 
 62 H       -2.7640   -11.9930    -1.0370 H     1 <1>   0.0800 
@<TRIPOS>BOND
  1   1   2  2   
  2   2   3  am  
  3   2   4  1   
  4   3   5  1   
  5   3   6  1   
  6   4   7  1   
  7   4  28  1   
  8   4  29  1   
  9   5  30  1   
 10   5  31  1   
 11   5  32  1   
 12   6  33  1   
 13   6  34  1   
 14   6  35  1   
 15   7   8  1   
 16   7   9  1   
 17   8  10  1   
 18   8  36  1   
 19   8  37  1   
 20   9  11  1   
 21   9  38  1   
 22   9  39  1   
 23  10  12  1   
 24  10  40  1   
 25  10  41  1   
 26  11  13  1   
 27  11  42  1   
 28  11  43  1   
 29  12  13  1   
 30  12  14  1   
 31  13  44  1   
 32  13  45  1   
 33  14  15  ar  
 34  14  16  ar  
 35  15  17  ar  
 36  16  18  ar  
 37  16  46  1   
 38  17  19  ar  
 39  17  20  1   
 40  18  19  ar  
 41  18  21  1   
 42  19  47  1   
 43  20  22  1   
 44  20  23  1   
 45  21  24  1   
 46  21  48  1   
 47  21  49  1   
 48  22  25  1   
 49  22  50  1   
 50  22  51  1   
 51  23  26  1   
 52  23  52  1   
 53  23  53  1   
 54  24  54  1   
 55  24  55  1   
 56  24  56  1   
 57  25  27  1   
 58  25  57  1   
 59  25  58  1   
 60  26  27  1   
 61  26  59  1   
 62  26  60  1   
 63  27  61  1   
 64  27  62  1   
@<TRIPOS>SUBSTRUCTURE
  1 ****  14 GROUP 4 **** **** 0

# MOE 2024.06 (io_trps.svl 2023.06)
