@<TRIPOS>MOLECULE
NONAME
48 50 1 0 0 
SMALL
USER_CHARGES


@<TRIPOS>ATOM
  1 O        4.6630    -1.1320     0.9670 O.2   1 <1>  -0.5700 
  2 C        3.7340    -1.2910     0.2020 C.2   1 <1>   0.6900 
  3 N        2.4320    -1.1230     0.5670 N.am  1 <1>  -0.4200 
  4 N        3.8420    -1.6020    -1.1180 N.am  1 <1>  -0.6600 
  5 C        1.6240    -1.2870    -0.5140 C.2   1 <1>   0.5690 
  6 C        1.9910    -0.6910     1.9190 C.3   1 <1>   0.2010 
  7 C        2.4860    -1.5980    -1.7280 C.3   1 <1>   0.2010 
  8 C        5.0840    -1.6520    -1.9230 C.3   1 <1>   0.0600 
  9 O        0.4220    -1.2090    -0.5240 O.2   1 <1>  -0.5700 
 10 C        2.2340     0.7940     2.1720 C.2   1 <1>   0.5690 
 11 O        1.3060     1.4560     2.5690 O.2   1 <1>  -0.5700 
 12 N        3.4860     1.3070     1.9450 N.am  1 <1>  -0.4940 
 13 C        3.9700     2.6360     1.9230 C.2   1 <1>  -0.0880 
 14 N        3.5670     3.6990     2.6730 N.pl3 1 <1>   0.3140 
 15 C        4.9720     3.0880     1.1150 C.2   1 <1>  -0.0540 
 16 N        4.2710     4.8120     2.3740 N.2   1 <1>  -0.7070 
 17 C        2.5750     3.7540     3.7540 C.3   1 <1>   0.0160 
 18 C        5.7570     2.3610     0.1450 C.ar  1 <1>   0.0540 
 19 C        5.0920     4.4410     1.4480 C.2   1 <1>   0.1080 
 20 C        5.6880     2.6240    -1.2300 C.ar  1 <1>   0.0820 
 21 C        6.6320     1.3720     0.5830 C.ar  1 <1>  -0.1500 
 22 C        6.0730     5.4030     0.8170 C.3   1 <1>  -0.0590 
 23 O        4.8120     3.5790    -1.6440 O.3   1 <1>  -0.3630 
 24 C        6.4970     1.9210    -2.1180 C.ar  1 <1>  -0.1500 
 25 C        7.4310     0.6730    -0.3020 C.ar  1 <1>  -0.1500 
 26 C        4.6780     3.9440    -2.9990 C.3   1 <1>   0.0400 
 27 C        7.3690     0.9510    -1.6550 C.ar  1 <1>  -0.1500 
 28 H        2.5190    -1.2610     2.6610 H     1 <1>   0.0800 
 29 H        0.9400    -0.8920     2.0270 H     1 <1>   0.0800 
 30 H        2.2410    -2.5610    -2.1370 H     1 <1>   0.0800 
 31 H        2.3950    -0.8230    -2.4670 H     1 <1>   0.0800 
 32 H        5.9420    -1.6350    -1.2720 H     1 <1>   0.0800 
 33 H        5.1280    -0.8000    -2.5780 H     1 <1>   0.0800 
 34 H        5.1070    -2.5560    -2.5060 H     1 <1>   0.0800 
 35 H        4.1580     0.6200     1.5700 H     1 <1>   0.3700 
 36 H        2.6140     2.8430     4.3200 H     1 <1>   0.0800 
 37 H        1.5990     3.8800     3.3260 H     1 <1>   0.0800 
 38 H        2.7970     4.5860     4.3940 H     1 <1>   0.0800 
 39 H        6.6870     1.1540     1.6350 H     1 <1>   0.1500 
 40 H        6.9920     4.8980     0.5830 H     1 <1>   0.0800 
 41 H        6.2790     6.2100     1.4960 H     1 <1>   0.0800 
 42 H        5.6490     5.8030    -0.0850 H     1 <1>   0.0800 
 43 H        6.4670     2.1140    -3.1730 H     1 <1>   0.1500 
 44 H        8.1010    -0.0860     0.0650 H     1 <1>   0.1500 
 45 H        3.9350     4.7190    -3.0620 H     1 <1>   0.0800 
 46 H        4.3580     3.0850    -3.5610 H     1 <1>   0.0800 
 47 H        5.6230     4.3130    -3.3560 H     1 <1>   0.0800 
 48 H        7.9970     0.4130    -2.3440 H     1 <1>   0.1500 
@<TRIPOS>BOND
  1   1   2  2   
  2   2   3  am  
  3   2   4  am  
  4   3   5  am  
  5   3   6  1   
  6   4   7  1   
  7   4   8  1   
  8   5   7  1   
  9   5   9  2   
 10   6  10  1   
 11   6  28  1   
 12   6  29  1   
 13   7  30  1   
 14   7  31  1   
 15   8  32  1   
 16   8  33  1   
 17   8  34  1   
 18  10  11  2   
 19  10  12  am  
 20  12  13  1   
 21  12  35  1   
 22  13  14  1   
 23  13  15  2   
 24  14  16  1   
 25  14  17  1   
 26  15  18  1   
 27  15  19  1   
 28  16  19  2   
 29  17  36  1   
 30  17  37  1   
 31  17  38  1   
 32  18  20  ar  
 33  18  21  ar  
 34  19  22  1   
 35  20  23  1   
 36  20  24  ar  
 37  21  25  ar  
 38  21  39  1   
 39  22  40  1   
 40  22  41  1   
 41  22  42  1   
 42  23  26  1   
 43  24  27  ar  
 44  24  43  1   
 45  25  27  ar  
 46  25  44  1   
 47  26  45  1   
 48  26  46  1   
 49  26  47  1   
 50  27  48  1   
@<TRIPOS>SUBSTRUCTURE
  1 ****  12 GROUP 4 **** **** 0

# MOE 2024.06 (io_trps.svl 2023.06)
