@<TRIPOS>MOLECULE
NONAME
51 53 1 0 0 
SMALL
USER_CHARGES


@<TRIPOS>ATOM
  1 O        4.7520    -0.8150    -0.7080 O.2   1 <1>  -0.5700 
  2 C        3.5710    -0.8780    -0.4150 C.2   1 <1>   0.5440 
  3 N        2.7010    -0.1750    -1.2170 N.am  1 <1>  -0.6600 
  4 C        3.1340    -1.5770     0.7790 C.ar  1 <1>   0.0860 
  5 C        2.9520    -0.0390    -2.6920 C.3   1 <1>   0.1400 
  6 C        1.7970     0.8480    -0.6310 C.3   1 <1>   0.1400 
  7 C        1.8750    -2.1480     0.9020 C.ar  1 <1>  -0.1500 
  8 C        3.9510    -1.7230     1.8900 C.ar  1 <1>  -0.1500 
  9 C        4.0720     0.9710    -3.0360 C.3   1 <1>   0.3430 
 10 C        2.5950     2.1030    -0.2500 C.3   1 <1>  -0.1600 
 11 C        1.5030    -2.7810     2.0730 C.ar  1 <1>   0.1670 
 12 C        3.4920    -2.3730     3.0190 C.ar  1 <1>   0.1660 
 13 N        4.4660     1.7910    -1.8500 N.4   1 <1>  -0.9590 
 14 C        3.4070     2.7300    -1.3880 C.3   1 <1>   0.3430 
 15 N        2.2850    -2.8940     3.1290 N.ar  1 <1>  -0.6200 
 16 C        0.1280    -3.4010     2.2060 C.3   1 <1>  -0.0970 
 17 C        4.3860    -2.5270     4.2320 C.3   1 <1>  -0.0970 
 18 C        5.8100     2.4050    -1.9770 C.3   1 <1>   0.4860 
 19 C        6.2780     2.8050    -0.5890 C.ar  1 <1>  -0.1430 
 20 C        6.6580     1.8290     0.3220 C.ar  1 <1>  -0.1500 
 21 C        6.3280     4.1380    -0.2100 C.ar  1 <1>  -0.1500 
 22 C        7.0660     2.1830     1.5950 C.ar  1 <1>  -0.1500 
 23 C        6.7380     4.4850     1.0660 C.ar  1 <1>  -0.1500 
 24 C        7.1090     3.5150     1.9900 C.ar  1 <1>   0.0730 
 25 C        7.5260     3.8740     3.3160 C.1   1 <1>   0.4840 
 26 N        7.8490     4.1550     4.3720 N.1   1 <1>  -0.5570 
 27 H        2.0420     0.2540    -3.1870 H     1 <1>   0.0800 
 28 H        3.2270    -1.0020    -3.0890 H     1 <1>   0.0800 
 29 H        1.3170     0.4520     0.2490 H     1 <1>   0.0800 
 30 H        1.0220     1.0970    -1.3370 H     1 <1>   0.0800 
 31 H        1.1880    -2.1000     0.0780 H     1 <1>   0.1500 
 32 H        4.9490    -1.3260     1.8660 H     1 <1>   0.1500 
 33 H        3.7610     1.6030    -3.8510 H     1 <1>   0.0800 
 34 H        4.9260     0.4040    -3.3690 H     1 <1>   0.0800 
 35 H        3.2480     1.8810     0.5760 H     1 <1>   0.0800 
 36 H        1.8970     2.8410     0.1040 H     1 <1>   0.0800 
 37 H        4.5650     1.0710    -1.1060 H     1 <1>   0.4500 
 38 H        3.8610     3.6360    -1.0200 H     1 <1>   0.0800 
 39 H        2.7580     2.9930    -2.2070 H     1 <1>   0.0800 
 40 H       -0.4490    -3.2740     1.3100 H     1 <1>   0.0800 
 41 H       -0.3940    -2.9410     3.0260 H     1 <1>   0.0800 
 42 H        0.2280    -4.4510     2.4090 H     1 <1>   0.0800 
 43 H        5.3490    -2.0810     4.0680 H     1 <1>   0.0800 
 44 H        4.5180    -3.5710     4.4480 H     1 <1>   0.0800 
 45 H        3.9230    -2.0570     5.0800 H     1 <1>   0.0800 
 46 H        5.7730     3.2650    -2.6260 H     1 <1>   0.0800 
 47 H        6.5040     1.6900    -2.3880 H     1 <1>   0.0800 
 48 H        6.6440     0.7850     0.0510 H     1 <1>   0.1500 
 49 H        6.0530     4.9200    -0.8990 H     1 <1>   0.1500 
 50 H        7.3570     1.4140     2.2920 H     1 <1>   0.1500 
 51 H        6.7730     5.5250     1.3500 H     1 <1>   0.1500 
@<TRIPOS>BOND
  1   1   2  2   
  2   2   3  am  
  3   2   4  1   
  4   3   5  1   
  5   3   6  1   
  6   4   7  ar  
  7   4   8  ar  
  8   5   9  1   
  9   5  27  1   
 10   5  28  1   
 11   6  10  1   
 12   6  29  1   
 13   6  30  1   
 14   7  11  ar  
 15   7  31  1   
 16   8  12  ar  
 17   8  32  1   
 18   9  13  1   
 19   9  33  1   
 20   9  34  1   
 21  10  14  1   
 22  10  35  1   
 23  10  36  1   
 24  11  15  ar  
 25  11  16  1   
 26  12  15  ar  
 27  12  17  1   
 28  13  14  1   
 29  13  18  1   
 30  13  37  1   
 31  14  38  1   
 32  14  39  1   
 33  16  40  1   
 34  16  41  1   
 35  16  42  1   
 36  17  43  1   
 37  17  44  1   
 38  17  45  1   
 39  18  19  1   
 40  18  46  1   
 41  18  47  1   
 42  19  20  ar  
 43  19  21  ar  
 44  20  22  ar  
 45  20  48  1   
 46  21  23  ar  
 47  21  49  1   
 48  22  24  ar  
 49  22  50  1   
 50  23  24  ar  
 51  23  51  1   
 52  24  25  1   
 53  25  26  3   
@<TRIPOS>SUBSTRUCTURE
  1 ****   2 GROUP 4 **** **** 0

# MOE 2024.06 (io_trps.svl 2023.06)
