@<TRIPOS>MOLECULE
NONAME
47 50 1 0 0 
SMALL
USER_CHARGES


@<TRIPOS>ATOM
  1 S       -0.7120     1.1260     1.7120 S.3   1 <1>  -0.0800 
  2 C       -1.0260     1.3580    -0.0150 C.2   1 <1>  -0.0450 
  3 C       -1.3880    -0.4850     1.6950 C.2   1 <1>  -0.1100 
  4 C       -1.6230     0.2350    -0.5010 C.2   1 <1>  -0.1810 
  5 C       -0.6650     2.6200    -0.6170 C.2   1 <1>   0.7150 
  6 C       -1.8190    -0.7990     0.4610 C.2   1 <1>  -0.1500 
  7 C       -2.0770     0.0260    -1.9350 C.3   1 <1>  -0.0590 
  8 O       -1.4850     3.2060    -1.3020 O.2   1 <1>  -0.5700 
  9 N        0.5870     3.1860    -0.4530 N.am  1 <1>  -0.6600 
 10 C        1.7940     2.3870    -0.0850 C.3   1 <1>   0.1400 
 11 C        0.8240     4.6320    -0.7200 C.3   1 <1>   0.1400 
 12 C        2.4370     2.8840     1.2170 C.3   1 <1>   0.1400 
 13 C        0.9690     5.3780     0.6100 C.3   1 <1>  -0.1600 
 14 N        3.1750     4.1660     0.9980 N.am  1 <1>  -0.6600 
 15 C        2.4040     5.4380     1.1510 C.3   1 <1>   0.1400 
 16 C        4.5230     4.1420     0.6750 C.2   1 <1>   0.7150 
 17 O        4.9660     3.0950     0.2240 O.2   1 <1>  -0.5700 
 18 C        5.4080     5.2700     0.8350 C.2   1 <1>   0.1020 
 19 N        5.2460     6.2960     1.6410 N.2   1 <1>  -0.3380 
 20 N        6.5640     5.3960     0.1530 N.pl3 1 <1>   0.3340 
 21 N        6.2730     7.1090     1.4920 N.2   1 <1>  -0.3380 
 22 C        7.0640     6.5720     0.6030 C.2   1 <1>   0.3120 
 23 C        7.2610     4.6890    -0.8170 C.2   1 <1>  -0.1810 
 24 N        8.2460     7.1100     0.1600 N.2   1 <1>  -0.5760 
 25 C        8.4310     5.2120    -1.2650 C.2   1 <1>  -0.1360 
 26 C        8.8940     6.4460    -0.7370 C.2   1 <1>   0.3750 
 27 C       10.2030     7.0030    -1.2520 C.3   1 <1>  -0.1790 
 28 H       -1.3940    -1.0350     2.6200 H     1 <1>   0.1500 
 29 H       -2.2780    -1.7330     0.1880 H     1 <1>   0.1500 
 30 H       -1.8330     0.8770    -2.5460 H     1 <1>   0.0800 
 31 H       -3.1420    -0.1160    -1.9630 H     1 <1>   0.0800 
 32 H       -1.5980    -0.8420    -2.3510 H     1 <1>   0.0800 
 33 H        2.5170     2.4400    -0.8810 H     1 <1>   0.0800 
 34 H        1.5320     1.3510     0.0310 H     1 <1>   0.0800 
 35 H       -0.0070     5.0470    -1.2640 H     1 <1>   0.0800 
 36 H        1.7040     4.7560    -1.3290 H     1 <1>   0.0800 
 37 H        3.1280     2.1350     1.5650 H     1 <1>   0.0800 
 38 H        1.6880     3.0060     1.9800 H     1 <1>   0.0800 
 39 H        0.3100     4.9490     1.3450 H     1 <1>   0.0800 
 40 H        0.6430     6.3920     0.4630 H     1 <1>   0.0800 
 41 H        2.3870     5.7160     2.1920 H     1 <1>   0.0800 
 42 H        2.9130     6.2200     0.6160 H     1 <1>   0.0800 
 43 H        6.8440     3.7610    -1.1670 H     1 <1>   0.1500 
 44 H        9.0250     4.7190    -2.0130 H     1 <1>   0.1500 
 45 H       10.9990     6.3110    -1.0510 H     1 <1>   0.0800 
 46 H       10.4260     7.9360    -0.7650 H     1 <1>   0.0800 
 47 H       10.1370     7.1750    -2.3100 H     1 <1>   0.0800 
@<TRIPOS>BOND
  1   1   2  1   
  2   1   3  1   
  3   2   4  2   
  4   2   5  1   
  5   3   6  2   
  6   3  28  1   
  7   4   6  1   
  8   4   7  1   
  9   5   8  2   
 10   5   9  am  
 11   6  29  1   
 12   7  30  1   
 13   7  31  1   
 14   7  32  1   
 15   9  10  1   
 16   9  11  1   
 17  10  12  1   
 18  10  33  1   
 19  10  34  1   
 20  11  13  1   
 21  11  35  1   
 22  11  36  1   
 23  12  14  1   
 24  12  37  1   
 25  12  38  1   
 26  13  15  1   
 27  13  39  1   
 28  13  40  1   
 29  14  15  1   
 30  14  16  am  
 31  15  41  1   
 32  15  42  1   
 33  16  17  2   
 34  16  18  1   
 35  18  19  2   
 36  18  20  1   
 37  19  21  1   
 38  20  22  1   
 39  20  23  1   
 40  21  22  2   
 41  22  24  1   
 42  23  25  2   
 43  23  43  1   
 44  24  26  2   
 45  25  26  1   
 46  25  44  1   
 47  26  27  1   
 48  27  45  1   
 49  27  46  1   
 50  27  47  1   
@<TRIPOS>SUBSTRUCTURE
  1 ****  14 GROUP 4 **** **** 0

# MOE 2024.06 (io_trps.svl 2023.06)
