@<TRIPOS>MOLECULE
NONAME
46 49 1 0 0 
SMALL
USER_CHARGES


@<TRIPOS>ATOM
  1 O       -0.5050     0.0160    -0.7580 O.2   1 <1>  -0.5700 
  2 C       -1.5370     0.6430    -0.6940 C.2   1 <1>   0.5690 
  3 N       -2.7530     0.0270    -0.8650 N.am  1 <1>  -0.6600 
  4 C       -1.4710     2.1460    -0.4240 C.3   1 <1>  -0.0040 
  5 C       -4.0960     0.6850    -0.7880 C.3   1 <1>   0.1400 
  6 C       -2.8500    -1.4430    -1.1260 C.3   1 <1>   0.1400 
  7 C       -0.0520     2.7200    -0.2610 C.3   1 <1>  -0.1950 
  8 C       -5.0070    -0.0390     0.2230 C.3   1 <1>   0.1900 
  9 C       -3.8000    -2.1200    -0.1250 C.3   1 <1>   0.1100 
 10 C        0.6240     2.7270     1.0730 C.3   1 <1>  -0.2000 
 11 C        0.1780     4.0180     0.4460 C.3   1 <1>  -0.2000 
 12 N       -5.1340    -1.4770    -0.1190 N.3   1 <1>  -0.8100 
 13 C       -6.3960     0.6280     0.2710 C.3   1 <1>   0.1200 
 14 C       -6.0630    -2.1420     0.8260 C.3   1 <1>   0.3330 
 15 O       -7.2220    -0.0280     1.1900 O.3   1 <1>  -0.5600 
 16 C       -6.3190    -3.5920     0.4190 C.ar  1 <1>  -0.1440 
 17 C       -7.4090    -1.3870     0.8920 C.3   1 <1>   0.1200 
 18 C       -6.2530    -4.6030     1.3670 C.ar  1 <1>  -0.1500 
 19 C       -6.6240    -3.9210    -0.8950 C.ar  1 <1>  -0.1500 
 20 C       -6.4900    -5.9190     1.0090 C.ar  1 <1>  -0.1500 
 21 C       -6.8600    -5.2360    -1.2560 C.ar  1 <1>  -0.1500 
 22 C       -6.7940    -6.2360    -0.3030 C.ar  1 <1>  -0.1500 
 23 H       -1.9410     2.6510    -1.2470 H     1 <1>   0.0800 
 24 H       -2.0330     2.3530     0.4670 H     1 <1>   0.0800 
 25 H       -4.0060     1.7160    -0.5020 H     1 <1>   0.0800 
 26 H       -4.5550     0.6500    -1.7610 H     1 <1>   0.0800 
 27 H       -3.2210    -1.6000    -2.1240 H     1 <1>   0.0800 
 28 H       -1.8820    -1.9080    -1.0590 H     1 <1>   0.0800 
 29 H        0.5710     2.5070    -1.1140 H     1 <1>   0.1000 
 30 H       -4.5620     0.0590     1.1990 H     1 <1>   0.0800 
 31 H       -3.3630    -2.0770     0.8580 H     1 <1>   0.0800 
 32 H       -3.8960    -3.1560    -0.4000 H     1 <1>   0.0800 
 33 H        0.0930     2.3490     1.9280 H     1 <1>   0.1000 
 34 H        1.6750     2.4950     1.1080 H     1 <1>   0.1000 
 35 H        0.9260     4.6900     0.0610 H     1 <1>   0.1000 
 36 H       -0.6550     4.5390     0.8860 H     1 <1>   0.1000 
 37 H       -6.8660     0.5980    -0.6970 H     1 <1>   0.0800 
 38 H       -6.3110     1.6520     0.5870 H     1 <1>   0.0800 
 39 H       -5.6290    -2.1270     1.8110 H     1 <1>   0.0800 
 40 H       -8.0290    -1.8100     1.6600 H     1 <1>   0.0800 
 41 H       -7.9260    -1.4640    -0.0480 H     1 <1>   0.0800 
 42 H       -6.0190    -4.3720     2.3920 H     1 <1>   0.1500 
 43 H       -6.6710    -3.1450    -1.6410 H     1 <1>   0.1500 
 44 H       -6.4370    -6.6970     1.7510 H     1 <1>   0.1500 
 45 H       -7.0950    -5.4790    -2.2780 H     1 <1>   0.1500 
 46 H       -6.9780    -7.2590    -0.5820 H     1 <1>   0.1500 
@<TRIPOS>BOND
  1   1   2  2   
  2   2   3  am  
  3   2   4  1   
  4   3   5  1   
  5   3   6  1   
  6   4   7  1   
  7   4  23  1   
  8   4  24  1   
  9   5   8  1   
 10   5  25  1   
 11   5  26  1   
 12   6   9  1   
 13   6  27  1   
 14   6  28  1   
 15   7  10  1   
 16   7  11  1   
 17   7  29  1   
 18   8  12  1   
 19   8  13  1   
 20   8  30  1   
 21   9  12  1   
 22   9  31  1   
 23   9  32  1   
 24  10  11  1   
 25  10  33  1   
 26  10  34  1   
 27  11  35  1   
 28  11  36  1   
 29  12  14  1   
 30  13  15  1   
 31  13  37  1   
 32  13  38  1   
 33  14  16  1   
 34  14  17  1   
 35  14  39  1   
 36  15  17  1   
 37  16  18  ar  
 38  16  19  ar  
 39  17  40  1   
 40  17  41  1   
 41  18  20  ar  
 42  18  42  1   
 43  19  21  ar  
 44  19  43  1   
 45  20  22  ar  
 46  20  44  1   
 47  21  22  ar  
 48  21  45  1   
 49  22  46  1   
@<TRIPOS>SUBSTRUCTURE
  1 ****  12 GROUP 4 **** **** 0

# MOE 2024.06 (io_trps.svl 2023.06)
