@<TRIPOS>MOLECULE
NONAME
52 54 1 0 0 
SMALL
USER_CHARGES


@<TRIPOS>ATOM
  1 O       -1.4110     1.1730     0.8260 O.2   1 <1>  -0.5700 
  2 C       -0.8770     2.2540     0.9070 C.2   1 <1>   0.5690 
  3 N       -1.5830     3.3980     1.1720 N.am  1 <1>  -0.6600 
  4 C        0.6370     2.3200     0.6630 C.3   1 <1>   0.1810 
  5 C       -0.8810     4.7170     1.2790 C.3   1 <1>   0.3640 
  6 C       -3.0360     3.3780     1.5150 C.3   1 <1>   0.0600 
  7 O        1.2340     3.5310     1.0700 O.3   1 <1>  -0.5600 
  8 C       -1.7380     5.8650     0.7120 C.ar  1 <1>  -0.1440 
  9 C        0.5310     4.6810     0.6540 C.3   1 <1>   0.2610 
 10 C       -2.1300     5.9940    -0.6250 C.ar  1 <1>  -0.1440 
 11 C       -2.1430     6.8360     1.6220 C.ar  1 <1>  -0.1500 
 12 C        1.3150     5.9580     0.9730 C.2   1 <1>   0.5690 
 13 C       -2.9020     7.0830    -1.0070 C.ar  1 <1>  -0.1500 
 14 C       -1.7760     5.0000    -1.7250 C.3   1 <1>  -0.0960 
 15 C       -2.9220     7.9080     1.2320 C.ar  1 <1>  -0.1500 
 16 O        1.1120     6.5700     1.9970 O.2   1 <1>  -0.5700 
 17 N        2.2030     6.4170     0.0540 N.am  1 <1>  -0.7300 
 18 C       -3.3020     8.0340    -0.0880 C.ar  1 <1>  -0.1500 
 19 C        2.8380     7.7490     0.0800 C.3   1 <1>   0.3200 
 20 C        2.2840     8.5590    -1.0750 C.2   1 <1>   0.0060 
 21 N        2.8880     8.7070    -2.2050 N.2   1 <1>  -0.3380 
 22 N        1.1030     9.1900    -1.0630 N.pl3 1 <1>   0.0480 
 23 N        2.1000     9.4560    -2.9760 N.2   1 <1>  -0.3380 
 24 C        1.0510     9.7300    -2.2810 C.2   1 <1>   0.0360 
 25 C        0.0790     9.2810    -0.0010 C.3   1 <1>   0.0960 
 26 C        0.4210    10.4030     0.9870 C.3   1 <1>  -0.1600 
 27 C       -0.6100    10.4760     2.1170 C.3   1 <1>  -0.2400 
 28 H        0.8310     2.1840    -0.3850 H     1 <1>   0.0800 
 29 H        1.1150     1.5250     1.2060 H     1 <1>   0.0800 
 30 H       -0.7410     4.8970     2.3310 H     1 <1>   0.0800 
 31 H       -3.1990     3.8830     2.4510 H     1 <1>   0.0800 
 32 H       -3.3920     2.3660     1.6050 H     1 <1>   0.0800 
 33 H       -3.6010     3.8720     0.7440 H     1 <1>   0.0800 
 34 H        0.4440     4.6240    -0.4120 H     1 <1>   0.0800 
 35 H       -1.8530     6.7650     2.6570 H     1 <1>   0.1500 
 36 H       -3.2070     7.1940    -2.0330 H     1 <1>   0.1500 
 37 H       -2.5390     4.9980    -2.4840 H     1 <1>   0.0800 
 38 H       -1.7040     3.9970    -1.3520 H     1 <1>   0.0800 
 39 H       -0.8470     5.2770    -2.1880 H     1 <1>   0.0800 
 40 H       -3.2330     8.6410     1.9560 H     1 <1>   0.1500 
 41 H        2.3870     5.8950    -0.8060 H     1 <1>   0.3700 
 42 H       -3.9100     8.8660    -0.4000 H     1 <1>   0.1500 
 43 H        2.6490     8.2450     1.0160 H     1 <1>   0.0800 
 44 H        3.9020     7.6370    -0.0350 H     1 <1>   0.0800 
 45 H        0.2250    10.3230    -2.6270 H     1 <1>   0.1500 
 46 H       -0.8760     9.4710    -0.4570 H     1 <1>   0.0800 
 47 H        0.0190     8.3390     0.5110 H     1 <1>   0.0800 
 48 H        1.3910    10.2240     1.4180 H     1 <1>   0.0800 
 49 H        0.4460    11.3460     0.4690 H     1 <1>   0.0800 
 50 H       -0.6410     9.5450     2.6570 H     1 <1>   0.0800 
 51 H       -1.5890    10.6850     1.7230 H     1 <1>   0.0800 
 52 H       -0.3460    11.2590     2.8060 H     1 <1>   0.0800 
@<TRIPOS>BOND
  1   1   2  2   
  2   2   3  am  
  3   2   4  1   
  4   3   5  1   
  5   3   6  1   
  6   4   7  1   
  7   4  28  1   
  8   4  29  1   
  9   5   8  1   
 10   5   9  1   
 11   5  30  1   
 12   6  31  1   
 13   6  32  1   
 14   6  33  1   
 15   7   9  1   
 16   8  10  ar  
 17   8  11  ar  
 18   9  12  1   
 19   9  34  1   
 20  10  13  ar  
 21  10  14  1   
 22  11  15  ar  
 23  11  35  1   
 24  12  16  2   
 25  12  17  am  
 26  13  18  ar  
 27  13  36  1   
 28  14  37  1   
 29  14  38  1   
 30  14  39  1   
 31  15  18  ar  
 32  15  40  1   
 33  17  19  1   
 34  17  41  1   
 35  18  42  1   
 36  19  20  1   
 37  19  43  1   
 38  19  44  1   
 39  20  21  2   
 40  20  22  1   
 41  21  23  1   
 42  22  24  1   
 43  22  25  1   
 44  23  24  2   
 45  24  45  1   
 46  25  26  1   
 47  25  46  1   
 48  25  47  1   
 49  26  27  1   
 50  26  48  1   
 51  26  49  1   
 52  27  50  1   
 53  27  51  1   
 54  27  52  1   
@<TRIPOS>SUBSTRUCTURE
  1 ****   8 GROUP 4 **** **** 0

# MOE 2024.06 (io_trps.svl 2023.06)
