@<TRIPOS>MOLECULE
NONAME
44 46 1 0 0 
SMALL
USER_CHARGES


@<TRIPOS>ATOM
  1 S        0.7190    -0.3280    -0.0160 S.o2  1 <1>   1.3330 
  2 O        1.7150    -0.5980    -1.0300 O.2   1 <1>  -0.6500 
  3 O        0.4180    -1.3440     0.9660 O.2   1 <1>  -0.6500 
  4 N       -0.7230     0.0790    -0.8120 N.am  1 <1>  -0.8490 
  5 C        1.1190     1.1830     0.8710 C.3   1 <1>  -0.0550 
  6 C       -0.5090     0.8380    -2.0510 C.3   1 <1>   0.1160 
  7 C       -1.5550    -1.0960    -1.0860 C.3   1 <1>   0.1160 
  8 C        2.5550     1.2990     1.4230 C.3   1 <1>  -0.0800 
  9 C        3.6180     1.3800     0.3230 C.3   1 <1>   0.2200 
 10 C        3.0310     0.1480     2.3170 C.3   1 <1>   0.1200 
 11 N        4.3230     2.6750     0.4250 N.am  1 <1>  -0.7300 
 12 C        4.5500     0.2170     0.6530 C.3   1 <1>   0.1200 
 13 O        4.3790    -0.0050     2.0150 O.3   1 <1>  -0.5600 
 14 C        3.9050     3.8340    -0.1610 C.2   1 <1>   0.7150 
 15 O        2.8830     3.8120    -0.8230 O.2   1 <1>  -0.5700 
 16 C        4.6430     5.0550     0.0180 C.2   1 <1>   0.0550 
 17 O        5.7200     5.0980     0.7700 O.3   1 <1>  -0.0190 
 18 C        4.4650     6.3090    -0.4550 C.2   1 <1>  -0.1500 
 19 N        6.2550     6.2790     0.8230 N.2   1 <1>  -0.4100 
 20 C        5.5160     7.0330     0.0870 C.2   1 <1>   0.2030 
 21 C        5.7690     8.5120    -0.1430 C.3   1 <1>  -0.0140 
 22 C        5.6530     9.1060    -1.5160 C.3   1 <1>  -0.2000 
 23 C        6.9980     8.9500    -0.8790 C.3   1 <1>  -0.2000 
 24 H        0.9590     2.0200     0.2200 H     1 <1>   0.0800 
 25 H        0.4280     1.2860     1.6850 H     1 <1>   0.0800 
 26 H       -1.4550     1.1470    -2.4620 H     1 <1>   0.0800 
 27 H        0.0080     0.2330    -2.7790 H     1 <1>   0.0800 
 28 H        0.0780     1.7180    -1.8560 H     1 <1>   0.0800 
 29 H       -2.4680    -0.8010    -1.5750 H     1 <1>   0.0800 
 30 H       -1.8130    -1.5880    -0.1630 H     1 <1>   0.0800 
 31 H       -1.0240    -1.7930    -1.7130 H     1 <1>   0.0800 
 32 H        2.5900     2.1930     2.0200 H     1 <1>   0.0800 
 33 H        3.2200     1.2730    -0.6720 H     1 <1>   0.0800 
 34 H        2.5450    -0.7870     2.1000 H     1 <1>   0.0800 
 35 H        2.9320     0.3730     3.3650 H     1 <1>   0.0800 
 36 H        5.1050     2.7010     1.0840 H     1 <1>   0.3700 
 37 H        5.5830     0.4300     0.4440 H     1 <1>   0.0800 
 38 H        4.2420    -0.6740     0.1320 H     1 <1>   0.0800 
 39 H        3.6930     6.6780    -1.1040 H     1 <1>   0.1500 
 40 H        5.4590     9.1120     0.6950 H     1 <1>   0.1000 
 41 H        5.4080     8.4680    -2.3470 H     1 <1>   0.1000 
 42 H        5.2380    10.0940    -1.6160 H     1 <1>   0.1000 
 43 H        7.5180     9.8240    -0.5290 H     1 <1>   0.1000 
 44 H        7.6680     8.1910    -1.2450 H     1 <1>   0.1000 
@<TRIPOS>BOND
  1   1   2  2   
  2   1   3  2   
  3   1   4  am  
  4   1   5  1   
  5   4   6  1   
  6   4   7  1   
  7   5   8  1   
  8   5  24  1   
  9   5  25  1   
 10   6  26  1   
 11   6  27  1   
 12   6  28  1   
 13   7  29  1   
 14   7  30  1   
 15   7  31  1   
 16   8   9  1   
 17   8  10  1   
 18   8  32  1   
 19   9  11  1   
 20   9  12  1   
 21   9  33  1   
 22  10  13  1   
 23  10  34  1   
 24  10  35  1   
 25  11  14  am  
 26  11  36  1   
 27  12  13  1   
 28  12  37  1   
 29  12  38  1   
 30  14  15  2   
 31  14  16  1   
 32  16  17  1   
 33  16  18  2   
 34  17  19  1   
 35  18  20  1   
 36  18  39  1   
 37  19  20  2   
 38  20  21  1   
 39  21  22  1   
 40  21  23  1   
 41  21  40  1   
 42  22  23  1   
 43  22  41  1   
 44  22  42  1   
 45  23  43  1   
 46  23  44  1   
@<TRIPOS>SUBSTRUCTURE
  1 ****  14 GROUP 4 **** **** 0

# MOE 2024.06 (io_trps.svl 2023.06)
