@<TRIPOS>MOLECULE
NONAME
41 43 1 0 0 
SMALL
USER_CHARGES


@<TRIPOS>ATOM
  1 O        0.4750     0.3910     0.6960 O.co2 1 <1>  -0.9000 
  2 C        1.6200     0.5090     0.2540 C.2   1 <1>   0.9060 
  3 O        2.4540    -0.4010     0.2870 O.co2 1 <1>  -0.9000 
  4 C        2.0370     1.8320    -0.3530 C.3   1 <1>  -0.1860 
  5 C        3.5070     2.0940    -0.0910 C.3   1 <1>   0.2090 
  6 C        1.3380     3.0680     0.2090 C.3   1 <1>  -0.1600 
  7 N        3.6610     3.5840    -0.0840 N.pl3 1 <1>  -0.8380 
  8 C        2.3030     4.2050    -0.0830 C.3   1 <1>   0.2090 
  9 C        4.8540     4.2020    -0.0250 C.ar  1 <1>   0.4610 
 10 N        4.8990     5.5300    -0.0370 N.ar  1 <1>  -0.1790 
 11 C        6.0960     3.5220     0.0490 C.ar  1 <1>  -0.1500 
 12 C        6.0510     6.2940     0.0160 C.ar  1 <1>   0.3610 
 13 C        7.2800     4.1910     0.1030 C.ar  1 <1>  -0.1430 
 14 C        7.2850     5.6210     0.0860 C.ar  1 <1>   0.0000 
 15 C        5.9870     7.7010     0.0000 C.ar  1 <1>  -0.1430 
 16 C        8.5910     3.4170     0.1820 C.3   1 <1>  -0.0970 
 17 C        8.4480     6.4010     0.1360 C.ar  1 <1>  -0.1500 
 18 C        7.1600     8.4350     0.0500 C.ar  1 <1>  -0.1430 
 19 C        4.6160     8.3870    -0.0740 C.3   1 <1>  -0.0970 
 20 C        8.3830     7.7700     0.1180 C.ar  1 <1>  -0.1500 
 21 C        7.1980     9.9600     0.0340 C.3   1 <1>  -0.0970 
 22 H        1.8760     1.7680    -1.4120 H     1 <1>   0.0800 
 23 H        4.1110     1.6260    -0.8510 H     1 <1>   0.0800 
 24 H        3.7830     1.7010     0.8750 H     1 <1>   0.0800 
 25 H        1.2160     2.9610     1.2740 H     1 <1>   0.0800 
 26 H        0.3700     3.2180    -0.2340 H     1 <1>   0.0800 
 27 H        2.2120     4.9710     0.6680 H     1 <1>   0.0800 
 28 H        2.0920     4.6080    -1.0600 H     1 <1>   0.0800 
 29 H        4.0100     6.0050    -0.0970 H     1 <1>   0.4570 
 30 H        6.0760     2.4480     0.0660 H     1 <1>   0.1500 
 31 H        8.4140     2.3560     0.1870 H     1 <1>   0.0800 
 32 H        9.1200     3.6710     1.0840 H     1 <1>   0.0800 
 33 H        9.2120     3.6480    -0.6650 H     1 <1>   0.0800 
 34 H        9.4130     5.9290     0.1900 H     1 <1>   0.1500 
 35 H        4.1130     8.1180    -0.9860 H     1 <1>   0.0800 
 36 H        4.6870     9.4580    -0.0580 H     1 <1>   0.0800 
 37 H        4.0090     8.1020     0.7670 H     1 <1>   0.0800 
 38 H        9.2980     8.3380     0.1570 H     1 <1>   0.1500 
 39 H        6.6770    10.3540     0.8890 H     1 <1>   0.0800 
 40 H        6.7420    10.3360    -0.8640 H     1 <1>   0.0800 
 41 H        8.2090    10.3270     0.0670 H     1 <1>   0.0800 
@<TRIPOS>BOND
  1   1   2  ar  
  2   2   3  ar  
  3   2   4  1   
  4   4   5  1   
  5   4   6  1   
  6   4  22  1   
  7   5   7  1   
  8   5  23  1   
  9   5  24  1   
 10   6   8  1   
 11   6  25  1   
 12   6  26  1   
 13   7   8  1   
 14   7   9  1   
 15   8  27  1   
 16   8  28  1   
 17   9  10  ar  
 18   9  11  ar  
 19  10  12  ar  
 20  10  29  1   
 21  11  13  ar  
 22  11  30  1   
 23  12  14  ar  
 24  12  15  ar  
 25  13  14  ar  
 26  13  16  1   
 27  14  17  ar  
 28  15  18  ar  
 29  15  19  1   
 30  16  31  1   
 31  16  32  1   
 32  16  33  1   
 33  17  20  ar  
 34  17  34  1   
 35  18  20  ar  
 36  18  21  1   
 37  19  35  1   
 38  19  36  1   
 39  19  37  1   
 40  20  38  1   
 41  21  39  1   
 42  21  40  1   
 43  21  41  1   
@<TRIPOS>SUBSTRUCTURE
  1 ****   9 GROUP 4 **** **** 0

# MOE 2024.06 (io_trps.svl 2023.06)
