@<TRIPOS>MOLECULE
NONAME
41 43 1 0 0 
SMALL
USER_CHARGES


@<TRIPOS>ATOM
  1 O       -1.2380     0.1840     2.2650 O.2   1 <1>  -0.5700 
  2 C       -1.6100     0.7170     1.2460 C.2   1 <1>   0.5690 
  3 N       -2.1500    -0.0020     0.2110 N.am  1 <1>  -0.6600 
  4 C       -1.4600     2.2320     1.1630 C.3   1 <1>  -0.0040 
  5 C       -2.1970    -1.5050     0.2820 C.3   1 <1>   0.3640 
  6 C       -2.7660     0.6190    -1.0050 C.3   1 <1>   0.1400 
  7 C       -0.2390     2.6610     0.3320 C.3   1 <1>  -0.1950 
  8 C       -1.0080    -2.1570    -0.4470 C.ar  1 <1>  -0.1440 
  9 C       -3.5550    -2.0740    -0.2430 C.3   1 <1>   0.2000 
 10 C       -3.4100    -0.4200    -1.9340 C.3   1 <1>   0.1200 
 11 C        1.1220     2.6900     0.9490 C.3   1 <1>  -0.2000 
 12 C        0.4340     3.9740     0.5790 C.3   1 <1>  -0.2000 
 13 C       -0.7990    -3.5180    -0.2610 C.ar  1 <1>  -0.1500 
 14 C       -0.1250    -1.4620    -1.2680 C.ar  1 <1>  -0.1500 
 15 O       -4.2250    -1.2580    -1.1800 O.3   1 <1>  -0.5600 
 16 C       -4.5380    -2.3170     0.9090 C.3   1 <1>   0.1200 
 17 C        0.2430    -4.1730    -0.8930 C.ar  1 <1>  -0.1500 
 18 C        0.9180    -2.1140    -1.9030 C.ar  1 <1>  -0.1500 
 19 O       -4.1440    -3.4280     1.6490 O.3   1 <1>  -0.6800 
 20 C        1.1020    -3.4720    -1.7190 C.ar  1 <1>  -0.1500 
 21 H       -2.3520     2.6660     0.7540 H     1 <1>   0.0800 
 22 H       -1.3580     2.6090     2.1640 H     1 <1>   0.0800 
 23 H       -2.1030    -1.8070     1.3120 H     1 <1>   0.0800 
 24 H       -3.5290     1.3120    -0.6990 H     1 <1>   0.0800 
 25 H       -2.0200     1.1630    -1.5560 H     1 <1>   0.0800 
 26 H       -0.2900     2.3240    -0.6880 H     1 <1>   0.1000 
 27 H       -3.3820    -3.0130    -0.7370 H     1 <1>   0.0800 
 28 H       -2.6680    -1.0140    -2.4410 H     1 <1>   0.0800 
 29 H       -4.0240     0.0670    -2.6700 H     1 <1>   0.0800 
 30 H        1.2220     2.4300     1.9900 H     1 <1>   0.1000 
 31 H        1.9590     2.3550     0.3620 H     1 <1>   0.1000 
 32 H        0.8080     4.5340    -0.2610 H     1 <1>   0.1000 
 33 H        0.0830     4.6100     1.3730 H     1 <1>   0.1000 
 34 H       -1.4480    -4.0790     0.3890 H     1 <1>   0.1500 
 35 H       -0.2270    -0.4040    -1.4200 H     1 <1>   0.1500 
 36 H       -5.5290    -2.5020     0.5310 H     1 <1>   0.0800 
 37 H       -4.5550    -1.4660     1.5680 H     1 <1>   0.0800 
 38 H        0.3880    -5.2280    -0.7390 H     1 <1>   0.1500 
 39 H        1.5910    -1.5630    -2.5360 H     1 <1>   0.1500 
 40 H       -4.4130    -4.2550     1.2010 H     1 <1>   0.4000 
 41 H        1.9130    -3.9790    -2.2120 H     1 <1>   0.1500 
@<TRIPOS>BOND
  1   1   2  2   
  2   2   3  am  
  3   2   4  1   
  4   3   5  1   
  5   3   6  1   
  6   4   7  1   
  7   4  21  1   
  8   4  22  1   
  9   5   8  1   
 10   5   9  1   
 11   5  23  1   
 12   6  10  1   
 13   6  24  1   
 14   6  25  1   
 15   7  11  1   
 16   7  12  1   
 17   7  26  1   
 18   8  13  ar  
 19   8  14  ar  
 20   9  15  1   
 21   9  16  1   
 22   9  27  1   
 23  10  15  1   
 24  10  28  1   
 25  10  29  1   
 26  11  12  1   
 27  11  30  1   
 28  11  31  1   
 29  12  32  1   
 30  12  33  1   
 31  13  17  ar  
 32  13  34  1   
 33  14  18  ar  
 34  14  35  1   
 35  16  19  1   
 36  16  36  1   
 37  16  37  1   
 38  17  20  ar  
 39  17  38  1   
 40  18  20  ar  
 41  18  39  1   
 42  19  40  1   
 43  20  41  1   
@<TRIPOS>SUBSTRUCTURE
  1 ****   3 GROUP 4 **** **** 0

# MOE 2024.06 (io_trps.svl 2023.06)
