@<TRIPOS>MOLECULE
NONAME
48 51 1 0 0 
SMALL
USER_CHARGES


@<TRIPOS>ATOM
  1 O        0.1980    -0.4900    -0.9250 O.3   1 <1>  -0.2800 
  2 C        0.7690     0.7140    -0.9200 C.ar  1 <1>   0.1400 
  3 C        0.9310    -1.2820    -0.1440 C.2   1 <1>  -0.0400 
  4 C        1.8960     0.7060    -0.1180 C.ar  1 <1>   0.0000 
  5 C        0.3510     1.8550    -1.5930 C.ar  1 <1>  -0.1500 
  6 C        1.9810    -0.6140     0.3770 C.2   1 <1>  -0.1810 
  7 C        0.4900    -2.7240     0.0300 C.3   1 <1>   0.5230 
  8 C        2.6400     1.8780     0.0260 C.ar  1 <1>  -0.1500 
  9 C        1.0930     3.0100    -1.4450 C.ar  1 <1>  -0.1500 
 10 C        3.0880    -1.0790     1.3060 C.3   1 <1>  -0.0590 
 11 N       -0.8390    -2.7560     0.7160 N.4   1 <1>  -0.9590 
 12 C        2.2330     3.0190    -0.6370 C.ar  1 <1>  -0.1500 
 13 C       -1.9510    -2.3550    -0.2110 C.3   1 <1>   0.3430 
 14 C       -1.1460    -4.1290     1.2090 C.3   1 <1>   0.3430 
 15 C       -2.9640    -3.5100    -0.2030 C.3   1 <1>   0.2000 
 16 C       -2.1420    -4.7270     0.2120 C.3   1 <1>  -0.0800 
 17 O       -3.9410    -3.2790     0.7580 O.3   1 <1>  -0.6800 
 18 C       -1.4600    -5.3670    -1.0180 C.3   1 <1>   0.0210 
 19 C       -0.2560    -6.2100    -0.6480 C.2   1 <1>   0.1080 
 20 N        0.9160    -5.6990    -0.4200 N.2   1 <1>  -0.7070 
 21 C       -0.2650    -7.5940    -0.5200 C.2   1 <1>  -0.1500 
 22 N        1.7030    -6.7690    -0.1610 N.pl3 1 <1>   0.3000 
 23 C        1.0050    -7.9210    -0.2060 C.2   1 <1>  -0.3320 
 24 C        1.6060    -9.2930     0.0470 C.3   1 <1>  -0.0600 
 25 H       -0.5280     1.8240    -2.2100 H     1 <1>   0.1500 
 26 H        1.2210    -3.2470     0.6230 H     1 <1>   0.0800 
 27 H        0.4350    -3.2110    -0.9300 H     1 <1>   0.0800 
 28 H        3.5180     1.8820     0.6460 H     1 <1>   0.1500 
 29 H        0.7980     3.9130    -1.9520 H     1 <1>   0.1500 
 30 H        3.0750    -0.4970     2.2110 H     1 <1>   0.0800 
 31 H        4.0430    -0.9460     0.8280 H     1 <1>   0.0800 
 32 H        2.9740    -2.1160     1.5610 H     1 <1>   0.0800 
 33 H       -0.7770    -2.0840     1.4910 H     1 <1>   0.4500 
 34 H        2.7970     3.9310    -0.5360 H     1 <1>   0.1500 
 35 H       -2.4170    -1.4320     0.0950 H     1 <1>   0.0800 
 36 H       -1.5630    -2.2310    -1.2090 H     1 <1>   0.0800 
 37 H       -0.2590    -4.7310     1.3200 H     1 <1>   0.0800 
 38 H       -1.6240    -4.0600     2.1720 H     1 <1>   0.0800 
 39 H       -3.4610    -3.6290    -1.1520 H     1 <1>   0.0800 
 40 H       -2.7480    -5.4760     0.6910 H     1 <1>   0.0800 
 41 H       -3.5790    -3.1350     1.6530 H     1 <1>   0.4000 
 42 H       -1.1260    -4.6170    -1.7120 H     1 <1>   0.0800 
 43 H       -2.1730    -5.9820    -1.5410 H     1 <1>   0.0800 
 44 H       -1.1110    -8.2450    -0.6550 H     1 <1>   0.1500 
 45 H        2.7110    -6.6920     0.0320 H     1 <1>   0.2700 
 46 H        0.8500   -10.0530    -0.0520 H     1 <1>   0.0800 
 47 H        2.0140    -9.3460     1.0400 H     1 <1>   0.0800 
 48 H        2.3870    -9.4960    -0.6650 H     1 <1>   0.0800 
@<TRIPOS>BOND
  1   1   2  1   
  2   1   3  1   
  3   2   4  ar  
  4   2   5  ar  
  5   3   6  2   
  6   3   7  1   
  7   4   6  1   
  8   4   8  ar  
  9   5   9  ar  
 10   5  25  1   
 11   6  10  1   
 12   7  11  1   
 13   7  26  1   
 14   7  27  1   
 15   8  12  ar  
 16   8  28  1   
 17   9  12  ar  
 18   9  29  1   
 19  10  30  1   
 20  10  31  1   
 21  10  32  1   
 22  11  13  1   
 23  11  14  1   
 24  11  33  1   
 25  12  34  1   
 26  13  15  1   
 27  13  35  1   
 28  13  36  1   
 29  14  16  1   
 30  14  37  1   
 31  14  38  1   
 32  15  16  1   
 33  15  17  1   
 34  15  39  1   
 35  16  18  1   
 36  16  40  1   
 37  17  41  1   
 38  18  19  1   
 39  18  42  1   
 40  18  43  1   
 41  19  20  2   
 42  19  21  1   
 43  20  22  1   
 44  21  23  2   
 45  21  44  1   
 46  22  23  1   
 47  22  45  1   
 48  23  24  1   
 49  24  46  1   
 50  24  47  1   
 51  24  48  1   
@<TRIPOS>SUBSTRUCTURE
  1 ****   7 GROUP 4 **** **** 0

# MOE 2024.06 (io_trps.svl 2023.06)
