@<TRIPOS>MOLECULE
NONAME
47 48 1 0 0 
SMALL
USER_CHARGES


@<TRIPOS>ATOM
  1 F       -0.5700     0.1970    -0.2250 F     1 <1>  -0.1900 
  2 C       -1.8350     0.5230    -0.1530 C.ar  1 <1>   0.1900 
  3 C       -2.3330     1.3450     0.8650 C.ar  1 <1>   0.0830 
  4 C       -2.6580     0.0140    -1.1390 C.ar  1 <1>  -0.1500 
  5 O       -1.6260     1.9060     1.8880 O.3   1 <1>  -0.3630 
  6 C       -3.6880     1.6320     0.8530 C.ar  1 <1>  -0.1500 
  7 C       -4.0050     0.3210    -1.1210 C.ar  1 <1>  -0.1500 
  8 C       -0.2440     1.6950     2.0750 C.3   1 <1>   0.0400 
  9 C       -4.5500     1.1310    -0.1230 C.ar  1 <1>   0.0530 
 10 C       -5.9520     1.4620    -0.0960 C.2   1 <1>   0.0870 
 11 O       -6.3070     2.7080     0.0910 O.3   1 <1>  -0.0190 
 12 C       -7.0970     0.7350    -0.2230 C.2   1 <1>  -0.0860 
 13 N       -7.6010     2.8770     0.0840 N.2   1 <1>  -0.4100 
 14 C       -8.1010     1.7070    -0.1050 C.2   1 <1>   0.3720 
 15 C       -7.2960    -0.6740    -0.4050 C.2   1 <1>   0.7160 
 16 N       -9.4840     1.4830    -0.1840 N.pl3 1 <1>  -0.8210 
 17 O       -6.3540    -1.4320    -0.5370 O.2   1 <1>  -0.5700 
 18 N       -8.5580    -1.1840    -0.4320 N.am  1 <1>  -0.7300 
 19 C      -10.2130     1.9190     1.0400 C.3   1 <1>   0.1290 
 20 C      -10.0900     2.0740    -1.4090 C.3   1 <1>   0.1290 
 21 C       -9.0210    -2.5670    -0.6840 C.3   1 <1>   0.2200 
 22 C       -8.2580    -3.5970     0.1670 C.3   1 <1>   0.1200 
 23 C       -8.9150    -2.8480    -2.1830 C.3   1 <1>  -0.2400 
 24 O       -8.9080    -4.8320     0.0930 O.3   1 <1>  -0.5600 
 25 C       -8.2590    -5.8460     0.7870 C.3   1 <1>   0.0400 
 26 H       -2.2480    -0.6150    -1.9080 H     1 <1>   0.1500 
 27 H       -4.0850     2.2630     1.6280 H     1 <1>   0.1500 
 28 H       -4.6480    -0.0740    -1.8880 H     1 <1>   0.1500 
 29 H        0.0600     2.2310     2.9560 H     1 <1>   0.0800 
 30 H        0.2870     2.0710     1.2190 H     1 <1>   0.0800 
 31 H       -0.0660     0.6420     2.2100 H     1 <1>   0.0800 
 32 H       -9.2970    -0.4680    -0.3620 H     1 <1>   0.3700 
 33 H      -11.2270     1.5620     1.0130 H     1 <1>   0.0800 
 34 H      -10.2160     2.9940     1.1080 H     1 <1>   0.0800 
 35 H       -9.7280     1.5200     1.9150 H     1 <1>   0.0800 
 36 H      -11.1100     1.7480    -1.5110 H     1 <1>   0.0800 
 37 H       -9.5370     1.7610    -2.2780 H     1 <1>   0.0800 
 38 H      -10.0650     3.1500    -1.3530 H     1 <1>   0.0800 
 39 H      -10.0570    -2.6180    -0.3930 H     1 <1>   0.0800 
 40 H       -8.2410    -3.2850     1.1960 H     1 <1>   0.0800 
 41 H       -7.2540    -3.7190    -0.2000 H     1 <1>   0.0800 
 42 H       -7.8870    -2.8140    -2.4980 H     1 <1>   0.0800 
 43 H       -9.4860    -2.1290    -2.7400 H     1 <1>   0.0800 
 44 H       -9.3010    -3.8290    -2.3950 H     1 <1>   0.0800 
 45 H       -8.8330    -6.7490     0.6760 H     1 <1>   0.0800 
 46 H       -8.1950    -5.5810     1.8280 H     1 <1>   0.0800 
 47 H       -7.2760    -5.9880     0.3710 H     1 <1>   0.0800 
@<TRIPOS>BOND
  1   1   2  1   
  2   2   3  ar  
  3   2   4  ar  
  4   3   5  1   
  5   3   6  ar  
  6   4   7  ar  
  7   4  26  1   
  8   5   8  1   
  9   6   9  ar  
 10   6  27  1   
 11   7   9  ar  
 12   7  28  1   
 13   8  29  1   
 14   8  30  1   
 15   8  31  1   
 16   9  10  1   
 17  10  11  1   
 18  10  12  2   
 19  11  13  1   
 20  12  14  1   
 21  12  15  1   
 22  13  14  2   
 23  14  16  1   
 24  15  17  2   
 25  15  18  am  
 26  16  19  1   
 27  16  20  1   
 28  18  21  1   
 29  18  32  1   
 30  19  33  1   
 31  19  34  1   
 32  19  35  1   
 33  20  36  1   
 34  20  37  1   
 35  20  38  1   
 36  21  22  1   
 37  21  23  1   
 38  21  39  1   
 39  22  24  1   
 40  22  40  1   
 41  22  41  1   
 42  23  42  1   
 43  23  43  1   
 44  23  44  1   
 45  24  25  1   
 46  25  45  1   
 47  25  46  1   
 48  25  47  1   
@<TRIPOS>SUBSTRUCTURE
  1 ****  12 GROUP 4 **** **** 0

# MOE 2024.06 (io_trps.svl 2023.06)
