@<TRIPOS>MOLECULE
NONAME
51 54 1 0 0 
SMALL
USER_CHARGES


@<TRIPOS>ATOM
  1 O       -0.6540     0.7300    -1.1880 O.2   1 <1>  -0.5700 
  2 C       -1.6740     1.2900    -0.8330 C.2   1 <1>   0.5440 
  3 N       -2.8930     0.7230    -1.1460 N.am  1 <1>  -0.6600 
  4 C       -1.5730     2.5200    -0.0830 C.ar  1 <1>   0.0860 
  5 C       -4.1460     0.9620    -0.3770 C.3   1 <1>   0.1400 
  6 C       -3.0110    -0.3710    -2.1510 C.3   1 <1>   0.1400 
  7 C       -2.3280     3.6380    -0.4270 C.ar  1 <1>   0.1600 
  8 C       -0.7200     2.6490     1.0060 C.ar  1 <1>  -0.1500 
  9 C       -4.5330    -0.3250     0.3560 C.3   1 <1>  -0.1600 
 10 C       -3.3920    -1.6710    -1.4400 C.3   1 <1>  -0.1600 
 11 N       -2.3330     4.7980     0.2070 N.ar  1 <1>  -0.6200 
 12 C       -0.6990     3.8510     1.6770 C.ar  1 <1>  -0.1500 
 13 C       -4.6740    -1.5150    -0.6080 C.3   1 <1>   0.4240 
 14 C       -1.5210     4.8930     1.2500 C.ar  1 <1>   0.3930 
 15 O       -5.6850    -1.2030    -1.5390 O.3   1 <1>  -0.5600 
 16 C       -4.9810    -2.8200     0.1580 C.ar  1 <1>  -0.1430 
 17 O       -1.5520     6.0880     1.8680 O.3   1 <1>  -0.3630 
 18 C       -7.0050    -1.4500    -1.1660 C.3   1 <1>   0.1200 
 19 C       -6.1780    -3.5040    -0.0330 C.ar  1 <1>  -0.1430 
 20 C       -4.0610    -3.3370     1.0650 C.ar  1 <1>  -0.1500 
 21 C       -0.7260     6.4180     2.9620 C.3   1 <1>   0.0400 
 22 C       -7.2000    -2.9550    -1.0080 C.3   1 <1>  -0.0170 
 23 C       -6.4430    -4.6760     0.6580 C.ar  1 <1>  -0.1500 
 24 C       -4.3260    -4.5040     1.7570 C.ar  1 <1>  -0.1500 
 25 C       -5.5140    -5.1830     1.5600 C.ar  1 <1>   0.0830 
 26 O       -5.6950    -6.3220     2.2760 O.3   1 <1>  -0.3620 
 27 C       -6.8630    -7.0990     2.1330 C.3   1 <1>   0.0400 
 28 H       -4.9300     1.2500    -1.0580 H     1 <1>   0.0800 
 29 H       -4.0180     1.7500     0.3440 H     1 <1>   0.0800 
 30 H       -2.0830    -0.5050    -2.6810 H     1 <1>   0.0800 
 31 H       -3.7680    -0.1090    -2.8700 H     1 <1>   0.0800 
 32 H       -2.9720     3.5580    -1.2860 H     1 <1>   0.1500 
 33 H       -0.0970     1.8220     1.3030 H     1 <1>   0.1500 
 34 H       -5.4480    -0.1790     0.8980 H     1 <1>   0.0800 
 35 H       -3.7700    -0.5390     1.0800 H     1 <1>   0.0800 
 36 H       -2.5700    -1.9560    -0.8110 H     1 <1>   0.0800 
 37 H       -3.5340    -2.4550    -2.1620 H     1 <1>   0.0800 
 38 H       -0.0480     3.9660     2.5210 H     1 <1>   0.1500 
 39 H       -7.6440    -1.0670    -1.9420 H     1 <1>   0.0800 
 40 H       -7.2170    -0.9330    -0.2470 H     1 <1>   0.0800 
 41 H       -3.1270    -2.8350     1.2430 H     1 <1>   0.1500 
 42 H       -0.9390     7.4340     3.2430 H     1 <1>   0.0800 
 43 H        0.3030     6.3320     2.6610 H     1 <1>   0.0800 
 44 H       -0.9490     5.7590     3.7820 H     1 <1>   0.0800 
 45 H       -7.0830    -3.4330    -1.9640 H     1 <1>   0.0800 
 46 H       -8.1960    -3.1470    -0.6520 H     1 <1>   0.0800 
 47 H       -7.3730    -5.1820     0.4850 H     1 <1>   0.1500 
 48 H       -3.6100    -4.8980     2.4550 H     1 <1>   0.1500 
 49 H       -6.7790    -7.9490     2.7870 H     1 <1>   0.0800 
 50 H       -6.9390    -7.4300     1.1130 H     1 <1>   0.0800 
 51 H       -7.7140    -6.5050     2.4130 H     1 <1>   0.0800 
@<TRIPOS>BOND
  1   1   2  2   
  2   2   3  am  
  3   2   4  1   
  4   3   5  1   
  5   3   6  1   
  6   4   7  ar  
  7   4   8  ar  
  8   5   9  1   
  9   5  28  1   
 10   5  29  1   
 11   6  10  1   
 12   6  30  1   
 13   6  31  1   
 14   7  11  ar  
 15   7  32  1   
 16   8  12  ar  
 17   8  33  1   
 18   9  13  1   
 19   9  34  1   
 20   9  35  1   
 21  10  13  1   
 22  10  36  1   
 23  10  37  1   
 24  11  14  ar  
 25  12  14  ar  
 26  12  38  1   
 27  13  15  1   
 28  13  16  1   
 29  14  17  1   
 30  15  18  1   
 31  16  19  ar  
 32  16  20  ar  
 33  17  21  1   
 34  18  22  1   
 35  18  39  1   
 36  18  40  1   
 37  19  22  1   
 38  19  23  ar  
 39  20  24  ar  
 40  20  41  1   
 41  21  42  1   
 42  21  43  1   
 43  21  44  1   
 44  22  45  1   
 45  22  46  1   
 46  23  25  ar  
 47  23  47  1   
 48  24  25  ar  
 49  24  48  1   
 50  25  26  1   
 51  26  27  1   
 52  27  49  1   
 53  27  50  1   
 54  27  51  1   
@<TRIPOS>SUBSTRUCTURE
  1 ****   9 GROUP 4 **** **** 0

# MOE 2024.06 (io_trps.svl 2023.06)
