@<TRIPOS>MOLECULE
NONAME
37 38 1 0 0 
SMALL
USER_CHARGES


@<TRIPOS>ATOM
  1 O        0.1580     0.3570    -0.0160 O.3   1 <1>  -0.3630 
  2 C       -1.0580     0.8480     0.3600 C.ar  1 <1>   0.3920 
  3 C        0.4610    -1.0190     0.1040 C.3   1 <1>   0.0400 
  4 N       -1.9490    -0.0230     0.8170 N.ar  1 <1>  -0.6200 
  5 C       -1.2960     2.2530     0.2490 C.ar  1 <1>   0.4100 
  6 C       -3.0840     0.5630     1.1670 C.ar  1 <1>   0.1600 
  7 N       -2.4460     2.8060     0.6160 N.ar  1 <1>  -0.6200 
  8 N       -0.3460     3.1470    -0.2550 N.pl3 1 <1>  -0.8380 
  9 C       -3.3200     1.9230     1.0710 C.ar  1 <1>   0.1600 
 10 C       -0.3620     4.5840     0.1800 C.3   1 <1>   0.3530 
 11 C        0.2150     2.9200    -1.6150 C.3   1 <1>   0.1290 
 12 C        1.0370     5.2020     0.2040 C.ar  1 <1>   0.1670 
 13 N        1.1860     6.3880    -0.3740 N.ar  1 <1>  -0.6200 
 14 C        2.0690     4.5120     0.8230 C.ar  1 <1>  -0.1500 
 15 C        2.4030     6.9020    -0.3340 C.ar  1 <1>   0.1670 
 16 C        3.3370     5.0520     0.8600 C.ar  1 <1>  -0.1430 
 17 C        3.4920     6.2840     0.2610 C.ar  1 <1>  -0.1500 
 18 C        2.5650     8.2540    -0.9940 C.3   1 <1>  -0.0970 
 19 C        4.4930     4.3290     1.5250 C.3   1 <1>  -0.0970 
 20 H        1.4670    -1.1750    -0.2420 H     1 <1>   0.0800 
 21 H       -0.2300    -1.5820    -0.4990 H     1 <1>   0.0800 
 22 H        0.3770    -1.3040     1.1380 H     1 <1>   0.0800 
 23 H       -3.8620    -0.0730     1.5500 H     1 <1>   0.1500 
 24 H       -4.2760     2.3050     1.3830 H     1 <1>   0.1500 
 25 H       -0.7790     4.6630     1.1680 H     1 <1>   0.0800 
 26 H       -0.9900     5.1450    -0.4890 H     1 <1>   0.0800 
 27 H       -0.1920     2.0220    -2.0480 H     1 <1>   0.0800 
 28 H        1.2850     2.8220    -1.5510 H     1 <1>   0.0800 
 29 H       -0.0220     3.7500    -2.2590 H     1 <1>   0.0800 
 30 H        1.8690     3.5530     1.2670 H     1 <1>   0.1500 
 31 H        4.4540     6.7620     0.2560 H     1 <1>   0.1500 
 32 H        1.9160     8.9650    -0.5170 H     1 <1>   0.0800 
 33 H        2.2940     8.1810    -2.0310 H     1 <1>   0.0800 
 34 H        3.5780     8.6040    -0.9220 H     1 <1>   0.0800 
 35 H        4.3340     3.2660     1.4990 H     1 <1>   0.0800 
 36 H        4.5770     4.6430     2.5500 H     1 <1>   0.0800 
 37 H        5.4140     4.5480     1.0160 H     1 <1>   0.0800 
@<TRIPOS>BOND
  1   1   2  1   
  2   1   3  1   
  3   2   4  ar  
  4   2   5  ar  
  5   3  20  1   
  6   3  21  1   
  7   3  22  1   
  8   4   6  ar  
  9   5   7  ar  
 10   5   8  1   
 11   6   9  ar  
 12   6  23  1   
 13   7   9  ar  
 14   8  10  1   
 15   8  11  1   
 16   9  24  1   
 17  10  12  1   
 18  10  25  1   
 19  10  26  1   
 20  11  27  1   
 21  11  28  1   
 22  11  29  1   
 23  12  13  ar  
 24  12  14  ar  
 25  13  15  ar  
 26  14  16  ar  
 27  14  30  1   
 28  15  17  ar  
 29  15  18  1   
 30  16  17  ar  
 31  16  19  1   
 32  17  31  1   
 33  18  32  1   
 34  18  33  1   
 35  18  34  1   
 36  19  35  1   
 37  19  36  1   
 38  19  37  1   
@<TRIPOS>SUBSTRUCTURE
  1 ****   8 GROUP 4 **** **** 0

# MOE 2024.06 (io_trps.svl 2023.06)
