@<TRIPOS>MOLECULE
NONAME
41 41 1 0 0 
SMALL
USER_CHARGES


@<TRIPOS>ATOM
  1 O        1.0110    -0.5320    -1.0750 O.3   1 <1>  -0.6800 
  2 C        2.0570    -0.3480    -0.1690 C.3   1 <1>   0.2000 
  3 C        2.1860    -1.5940     0.7230 C.3   1 <1>   0.1200 
  4 C        1.8310     0.9240     0.6760 C.3   1 <1>   0.2090 
  5 O        2.1600    -2.7590    -0.0390 O.3   1 <1>  -0.6800 
  6 N        2.2240     2.1900    -0.0300 N.pl3 1 <1>  -0.8380 
  7 C        3.4800     2.6980     0.0910 C.ar  1 <1>   0.4100 
  8 C        1.2510     2.6580    -1.0620 C.3   1 <1>   0.1290 
  9 N        4.4540     1.8090     0.0800 N.ar  1 <1>  -0.6200 
 10 C        3.7370     4.0910     0.2120 C.ar  1 <1>  -0.1430 
 11 C        5.7020     2.2390     0.0820 C.ar  1 <1>   0.7710 
 12 C        5.0370     4.5030     0.1820 C.ar  1 <1>   0.2180 
 13 C        2.5790     5.0760     0.4160 C.3   1 <1>  -0.0970 
 14 N        5.9910     3.5470     0.1050 N.ar  1 <1>  -0.1790 
 15 N        6.7230     1.3360     0.0520 N.pl3 1 <1>  -0.8380 
 16 C        5.5240     5.9460     0.2400 C.3   1 <1>  -0.0970 
 17 C        6.4560    -0.1260    -0.1620 C.3   1 <1>   0.1290 
 18 C        8.1770     1.6130     0.2800 C.3   1 <1>   0.1290 
 19 H        1.2770    -1.2180    -1.7200 H     1 <1>   0.4000 
 20 H        2.9650    -0.2330    -0.7330 H     1 <1>   0.0800 
 21 H        1.3800    -1.6390     1.4350 H     1 <1>   0.0800 
 22 H        3.1200    -1.5680     1.2570 H     1 <1>   0.0800 
 23 H        2.4280     0.8480     1.5680 H     1 <1>   0.0800 
 24 H        0.8010     0.9770     0.9840 H     1 <1>   0.0800 
 25 H        1.2480    -2.9250    -0.3510 H     1 <1>   0.4000 
 26 H        0.3490     3.0020    -0.5860 H     1 <1>   0.0800 
 27 H        1.0030     1.8560    -1.7340 H     1 <1>   0.0800 
 28 H        1.6720     3.4560    -1.6460 H     1 <1>   0.0800 
 29 H        1.7640     4.5990     0.9310 H     1 <1>   0.0800 
 30 H        2.2230     5.4390    -0.5310 H     1 <1>   0.0800 
 31 H        2.8720     5.9140     1.0210 H     1 <1>   0.0800 
 32 H        6.9750     3.7680     0.0580 H     1 <1>   0.4570 
 33 H        4.7360     6.6410     0.0130 H     1 <1>   0.0800 
 34 H        6.3060     6.1090    -0.4800 H     1 <1>   0.0800 
 35 H        5.9020     6.1700     1.2220 H     1 <1>   0.0800 
 36 H        5.5330    -0.2840    -0.6950 H     1 <1>   0.0800 
 37 H        6.3950    -0.6300     0.7880 H     1 <1>   0.0800 
 38 H        7.2470    -0.5700    -0.7420 H     1 <1>   0.0800 
 39 H        8.3340     2.5560     0.7730 H     1 <1>   0.0800 
 40 H        8.7030     1.6080    -0.6600 H     1 <1>   0.0800 
 41 H        8.5990     0.8450     0.9080 H     1 <1>   0.0800 
@<TRIPOS>BOND
  1   1   2  1   
  2   1  19  1   
  3   2   3  1   
  4   2   4  1   
  5   2  20  1   
  6   3   5  1   
  7   3  21  1   
  8   3  22  1   
  9   4   6  1   
 10   4  23  1   
 11   4  24  1   
 12   5  25  1   
 13   6   7  1   
 14   6   8  1   
 15   7   9  ar  
 16   7  10  ar  
 17   8  26  1   
 18   8  27  1   
 19   8  28  1   
 20   9  11  ar  
 21  10  12  ar  
 22  10  13  1   
 23  11  14  ar  
 24  11  15  1   
 25  12  14  ar  
 26  12  16  1   
 27  13  29  1   
 28  13  30  1   
 29  13  31  1   
 30  14  32  1   
 31  15  17  1   
 32  15  18  1   
 33  16  33  1   
 34  16  34  1   
 35  16  35  1   
 36  17  36  1   
 37  17  37  1   
 38  17  38  1   
 39  18  39  1   
 40  18  40  1   
 41  18  41  1   
@<TRIPOS>SUBSTRUCTURE
  1 ****   9 GROUP 4 **** **** 0

# MOE 2024.06 (io_trps.svl 2023.06)
