@<TRIPOS>MOLECULE
NONAME
45 47 1 0 0 
SMALL
USER_CHARGES


@<TRIPOS>ATOM
  1 O        1.0770    -0.1470    -1.4530 O.2   1 <1>  -0.5700 
  2 C        1.7330    -1.0150    -0.9280 C.2   1 <1>   0.5690 
  3 N        1.5830    -1.3840     0.3790 N.am  1 <1>  -0.6600 
  4 C        2.8030    -1.7170    -1.7390 C.3   1 <1>  -0.0990 
  5 C        2.4200    -2.4670     0.9500 C.3   1 <1>   0.1400 
  6 C        0.6190    -0.7260     1.3000 C.3   1 <1>   0.0600 
  7 C        2.8190    -3.2400    -1.4850 C.3   1 <1>  -0.0800 
  8 C        2.4790    -3.6470    -0.0350 C.3   1 <1>  -0.0800 
  9 C        4.1680    -3.8780    -1.8350 C.3   1 <1>  -0.1600 
 10 C        3.4970    -4.7150     0.3920 C.3   1 <1>  -0.1600 
 11 C        4.4090    -4.9810    -0.8060 C.3   1 <1>   0.2200 
 12 N        5.8510    -5.1300    -0.4320 N.am  1 <1>  -0.6600 
 13 C        6.7230    -4.1090    -0.0820 C.2   1 <1>   0.5440 
 14 C        6.4020    -6.4790    -0.7570 C.3   1 <1>   0.0600 
 15 O        7.8990    -4.2270    -0.3650 O.2   1 <1>  -0.5700 
 16 C        6.3160    -2.9150     0.6260 C.ar  1 <1>   0.0860 
 17 C        6.0400    -2.9680     1.9880 C.ar  1 <1>   0.1600 
 18 C        6.2150    -1.6740     0.0110 C.ar  1 <1>  -0.1500 
 19 N        5.6390    -1.9550     2.7410 N.ar  1 <1>  -0.6200 
 20 C        5.8030    -0.5970     0.7680 C.ar  1 <1>  -0.1440 
 21 C        5.5330    -0.7940     2.1140 C.ar  1 <1>   0.1600 
 22 C        5.6430     0.7770     0.1410 C.3   1 <1>  -0.0970 
 23 H        2.6480    -1.5210    -2.7840 H     1 <1>   0.0800 
 24 H        3.7390    -1.2770    -1.4550 H     1 <1>   0.0800 
 25 H        3.4070    -2.0810     1.1230 H     1 <1>   0.0800 
 26 H        2.0150    -2.7960     1.8910 H     1 <1>   0.0800 
 27 H        1.1460    -0.3100     2.1410 H     1 <1>   0.0800 
 28 H       -0.0990    -1.4460     1.6480 H     1 <1>   0.0800 
 29 H        0.0950     0.0670     0.7930 H     1 <1>   0.0800 
 30 H        2.0660    -3.6850    -2.1160 H     1 <1>   0.0800 
 31 H        1.5010    -4.0980    -0.0370 H     1 <1>   0.0800 
 32 H        4.9500    -3.1490    -1.8080 H     1 <1>   0.0800 
 33 H        4.1410    -4.2930    -2.8260 H     1 <1>   0.0800 
 34 H        2.9830    -5.6220     0.6530 H     1 <1>   0.0800 
 35 H        4.0510    -4.3990     1.2510 H     1 <1>   0.0800 
 36 H        4.0700    -5.8990    -1.2570 H     1 <1>   0.0800 
 37 H        5.7620    -7.2450    -0.3550 H     1 <1>   0.0800 
 38 H        7.3840    -6.6010    -0.3320 H     1 <1>   0.0800 
 39 H        6.4710    -6.5930    -1.8250 H     1 <1>   0.0800 
 40 H        6.1570    -3.9190     2.4790 H     1 <1>   0.1500 
 41 H        6.4580    -1.5700    -1.0320 H     1 <1>   0.1500 
 42 H        5.2110     0.0470     2.7060 H     1 <1>   0.1500 
 43 H        6.1670     0.8330    -0.7970 H     1 <1>   0.0800 
 44 H        6.0390     1.5340     0.7950 H     1 <1>   0.0800 
 45 H        4.6010     0.9800    -0.0340 H     1 <1>   0.0800 
@<TRIPOS>BOND
  1   1   2  2   
  2   2   3  am  
  3   2   4  1   
  4   3   5  1   
  5   3   6  1   
  6   4   7  1   
  7   4  23  1   
  8   4  24  1   
  9   5   8  1   
 10   5  25  1   
 11   5  26  1   
 12   6  27  1   
 13   6  28  1   
 14   6  29  1   
 15   7   8  1   
 16   7   9  1   
 17   7  30  1   
 18   8  10  1   
 19   8  31  1   
 20   9  11  1   
 21   9  32  1   
 22   9  33  1   
 23  10  11  1   
 24  10  34  1   
 25  10  35  1   
 26  11  12  1   
 27  11  36  1   
 28  12  13  am  
 29  12  14  1   
 30  13  15  2   
 31  13  16  1   
 32  14  37  1   
 33  14  38  1   
 34  14  39  1   
 35  16  17  ar  
 36  16  18  ar  
 37  17  19  ar  
 38  17  40  1   
 39  18  20  ar  
 40  18  41  1   
 41  19  21  ar  
 42  20  21  ar  
 43  20  22  1   
 44  21  42  1   
 45  22  43  1   
 46  22  44  1   
 47  22  45  1   
@<TRIPOS>SUBSTRUCTURE
  1 ****  16 GROUP 4 **** **** 0

# MOE 2024.06 (io_trps.svl 2023.06)
