@<TRIPOS>MOLECULE
NONAME
39 41 1 0 0 
SMALL
USER_CHARGES


@<TRIPOS>ATOM
  1 CL      -1.7610    -0.4650    -1.7970 Cl    1 <1>  -0.1770 
  2 C       -2.3170     0.6700    -0.5900 C.ar  1 <1>   0.1770 
  3 C       -2.8230     0.2140     0.6260 C.ar  1 <1>   0.0860 
  4 C       -2.2290     2.0170    -0.8890 C.ar  1 <1>  -0.1500 
  5 C       -2.9330    -1.1920     0.9400 C.2   1 <1>   0.5440 
  6 C       -3.2270     1.1790     1.5490 C.ar  1 <1>  -0.1500 
  7 C       -2.6480     2.9530     0.0400 C.ar  1 <1>  -0.1500 
  8 O       -2.2620    -1.6640     1.8360 O.2   1 <1>  -0.5700 
  9 N       -3.8140    -2.0130     0.2790 N.am  1 <1>  -0.6600 
 10 C       -3.1440     2.5310     1.2610 C.ar  1 <1>  -0.1500 
 11 C       -4.8470    -1.5890    -0.6990 C.3   1 <1>   0.1400 
 12 C       -3.9130    -3.4690     0.5410 C.3   1 <1>   0.1400 
 13 C       -5.8680    -2.7240    -0.6760 C.3   1 <1>   0.2000 
 14 C       -5.0160    -3.9690    -0.4020 C.3   1 <1>  -0.0800 
 15 O       -6.7280    -2.5070     0.3900 O.3   1 <1>  -0.6800 
 16 C       -5.7950    -5.1840     0.1370 C.3   1 <1>   0.0200 
 17 C       -4.9440    -6.4370     0.2520 C.2   1 <1>  -0.0400 
 18 O       -5.4650    -7.5000     0.8060 O.3   1 <1>  -0.0190 
 19 C       -3.6870    -6.7430    -0.1100 C.2   1 <1>  -0.1500 
 20 N       -4.6270    -8.4950     0.8370 N.2   1 <1>  -0.4100 
 21 C       -3.5460    -8.0670     0.2920 C.2   1 <1>   0.1080 
 22 C       -2.2950    -8.8990     0.1180 C.3   1 <1>  -0.0590 
 23 H       -1.8340     2.3290    -1.8400 H     1 <1>   0.1500 
 24 H       -3.6050     0.8570     2.5050 H     1 <1>   0.1500 
 25 H       -2.5830     4.0050    -0.1830 H     1 <1>   0.1500 
 26 H       -3.4640     3.2570     1.9900 H     1 <1>   0.1500 
 27 H       -5.2920    -0.6440    -0.4360 H     1 <1>   0.0800 
 28 H       -4.3990    -1.5210    -1.6750 H     1 <1>   0.0800 
 29 H       -2.9690    -3.9490     0.3470 H     1 <1>   0.0800 
 30 H       -4.1820    -3.6230     1.5720 H     1 <1>   0.0800 
 31 H       -6.4500    -2.7900    -1.5800 H     1 <1>   0.0800 
 32 H       -4.5490    -4.2500    -1.3300 H     1 <1>   0.0800 
 33 H       -6.1950    -2.3100     1.1870 H     1 <1>   0.4000 
 34 H       -6.6230    -5.3950    -0.5180 H     1 <1>   0.0800 
 35 H       -6.2010    -4.9590     1.1080 H     1 <1>   0.0800 
 36 H       -2.9350    -6.1490    -0.5950 H     1 <1>   0.1500 
 37 H       -1.4790    -8.4460     0.6500 H     1 <1>   0.0800 
 38 H       -2.0450    -8.9680    -0.9250 H     1 <1>   0.0800 
 39 H       -2.4560    -9.8890     0.5040 H     1 <1>   0.0800 
@<TRIPOS>BOND
  1   1   2  1   
  2   2   3  ar  
  3   2   4  ar  
  4   3   5  1   
  5   3   6  ar  
  6   4   7  ar  
  7   4  23  1   
  8   5   8  2   
  9   5   9  am  
 10   6  10  ar  
 11   6  24  1   
 12   7  10  ar  
 13   7  25  1   
 14   9  11  1   
 15   9  12  1   
 16  10  26  1   
 17  11  13  1   
 18  11  27  1   
 19  11  28  1   
 20  12  14  1   
 21  12  29  1   
 22  12  30  1   
 23  13  14  1   
 24  13  15  1   
 25  13  31  1   
 26  14  16  1   
 27  14  32  1   
 28  15  33  1   
 29  16  17  1   
 30  16  34  1   
 31  16  35  1   
 32  17  18  1   
 33  17  19  2   
 34  18  20  1   
 35  19  21  1   
 36  19  36  1   
 37  20  21  2   
 38  21  22  1   
 39  22  37  1   
 40  22  38  1   
 41  22  39  1   
@<TRIPOS>SUBSTRUCTURE
  1 ****  12 GROUP 4 **** **** 0

# MOE 2024.06 (io_trps.svl 2023.06)
