@<TRIPOS>MOLECULE
NONAME
58 61 1 0 0 
SMALL
USER_CHARGES


@<TRIPOS>ATOM
  1 S       -1.4440     0.6480    -1.0110 S.3   1 <1>  -0.3320 
  2 C       -0.6040     2.2360    -1.1810 C.ar  1 <1>   0.1020 
  3 C       -1.2970     0.1550     0.7680 C.3   1 <1>   0.2140 
  4 C       -0.6780     3.2540    -0.2240 C.ar  1 <1>   0.0860 
  5 C        0.1270     2.3910    -2.3460 C.ar  1 <1>  -0.1500 
  6 C       -1.3660    -1.3620     0.8460 C.ar  1 <1>  -0.1440 
  7 C       -1.4870     3.1740     0.9700 C.2   1 <1>   0.5440 
  8 C        0.0560     4.4140    -0.4710 C.ar  1 <1>  -0.1500 
  9 C        0.8330     3.5590    -2.5710 C.ar  1 <1>  -0.1500 
 10 C       -2.5700    -2.0150     0.6070 C.ar  1 <1>  -0.1500 
 11 C       -0.2280    -2.0960     1.1580 C.ar  1 <1>  -0.1500 
 12 O       -0.9380     3.0190     2.0450 O.2   1 <1>  -0.5700 
 13 N       -2.8630     3.2560     0.9220 N.am  1 <1>  -0.6600 
 14 C        0.8010     4.5700    -1.6260 C.ar  1 <1>  -0.1500 
 15 C       -2.6420    -3.3960     0.6800 C.ar  1 <1>  -0.1500 
 16 C       -0.2880    -3.4780     1.2350 C.ar  1 <1>  -0.1500 
 17 C       -3.6010     3.4810    -0.3580 C.3   1 <1>   0.1400 
 18 C       -3.6890     3.0970     2.1560 C.3   1 <1>   0.1400 
 19 C       -1.4970    -4.1020     0.9940 C.ar  1 <1>   0.1900 
 20 C       -4.9700     4.1100    -0.0920 C.3   1 <1>  -0.1600 
 21 C       -4.9980     2.3980     1.7950 C.3   1 <1>  -0.1600 
 22 F       -1.5590    -5.4040     1.0660 F     1 <1>  -0.1900 
 23 C       -5.8610     3.2610     0.8480 C.3   1 <1>   0.2800 
 24 O       -6.5640     4.2050     1.6200 O.3   1 <1>  -0.5600 
 25 C       -6.8520     2.3810     0.0420 C.3   1 <1>  -0.1600 
 26 C       -7.7420     3.7960     2.2580 C.3   1 <1>   0.1200 
 27 C       -8.2230     3.0400    -0.1380 C.3   1 <1>   0.2800 
 28 C       -8.8110     3.3830     1.2330 C.3   1 <1>  -0.1600 
 29 O       -8.0430     4.2230    -0.8030 O.3   1 <1>  -0.6800 
 30 C       -9.1730     2.1990    -0.9870 C.3   1 <1>  -0.2400 
 31 H       -2.1130     0.6050     1.3030 H     1 <1>   0.0800 
 32 H       -0.3590     0.5320     1.1350 H     1 <1>   0.0800 
 33 H        0.1500     1.5960    -3.0700 H     1 <1>   0.1500 
 34 H        0.0340     5.2050     0.2600 H     1 <1>   0.1500 
 35 H        1.4070     3.6790    -3.4740 H     1 <1>   0.1500 
 36 H       -3.4500    -1.4470     0.3580 H     1 <1>   0.1500 
 37 H        0.7070    -1.5960     1.3410 H     1 <1>   0.1500 
 38 H        1.3560     5.4770    -1.7920 H     1 <1>   0.1500 
 39 H       -3.5640    -3.9180     0.4970 H     1 <1>   0.1500 
 40 H        0.5820    -4.0610     1.4740 H     1 <1>   0.1500 
 41 H       -3.7280     2.5380    -0.8610 H     1 <1>   0.0800 
 42 H       -3.0330     4.1330    -0.9990 H     1 <1>   0.0800 
 43 H       -3.8890     4.0660     2.5800 H     1 <1>   0.0800 
 44 H       -3.1570     2.5110     2.8860 H     1 <1>   0.0800 
 45 H       -5.4570     4.2700    -1.0360 H     1 <1>   0.0800 
 46 H       -4.7980     5.0780     0.3450 H     1 <1>   0.0800 
 47 H       -5.5340     2.1550     2.6920 H     1 <1>   0.0800 
 48 H       -4.7460     1.4690     1.3170 H     1 <1>   0.0800 
 49 H       -7.0040     1.4540     0.5640 H     1 <1>   0.0800 
 50 H       -6.4350     2.1200    -0.9140 H     1 <1>   0.0800 
 51 H       -8.0950     4.6210     2.8520 H     1 <1>   0.0800 
 52 H       -7.5130     2.9790     2.9170 H     1 <1>   0.0800 
 53 H       -9.5500     4.1580     1.1340 H     1 <1>   0.0800 
 54 H       -9.3200     2.5230     1.6300 H     1 <1>   0.0800 
 55 H       -7.5000     4.7920    -0.2160 H     1 <1>   0.4000 
 56 H       -9.3510     1.2480    -0.5180 H     1 <1>   0.0800 
 57 H       -8.7490     2.0270    -1.9590 H     1 <1>   0.0800 
 58 H      -10.1150     2.7050    -1.1000 H     1 <1>   0.0800 
@<TRIPOS>BOND
  1   1   2  1   
  2   1   3  1   
  3   2   4  ar  
  4   2   5  ar  
  5   3   6  1   
  6   3  31  1   
  7   3  32  1   
  8   4   7  1   
  9   4   8  ar  
 10   5   9  ar  
 11   5  33  1   
 12   6  10  ar  
 13   6  11  ar  
 14   7  12  2   
 15   7  13  am  
 16   8  14  ar  
 17   8  34  1   
 18   9  14  ar  
 19   9  35  1   
 20  10  15  ar  
 21  10  36  1   
 22  11  16  ar  
 23  11  37  1   
 24  13  17  1   
 25  13  18  1   
 26  14  38  1   
 27  15  19  ar  
 28  15  39  1   
 29  16  19  ar  
 30  16  40  1   
 31  17  20  1   
 32  17  41  1   
 33  17  42  1   
 34  18  21  1   
 35  18  43  1   
 36  18  44  1   
 37  19  22  1   
 38  20  23  1   
 39  20  45  1   
 40  20  46  1   
 41  21  23  1   
 42  21  47  1   
 43  21  48  1   
 44  23  24  1   
 45  23  25  1   
 46  24  26  1   
 47  25  27  1   
 48  25  49  1   
 49  25  50  1   
 50  26  28  1   
 51  26  51  1   
 52  26  52  1   
 53  27  28  1   
 54  27  29  1   
 55  27  30  1   
 56  28  53  1   
 57  28  54  1   
 58  29  55  1   
 59  30  56  1   
 60  30  57  1   
 61  30  58  1   
@<TRIPOS>SUBSTRUCTURE
  1 ****  13 GROUP 4 **** **** 0

# MOE 2024.06 (io_trps.svl 2023.06)
