@<TRIPOS>MOLECULE
Untitled Document
56 58 1 0 0 
SMALL
USER_CHARGES


@<TRIPOS>ATOM
  1 O       -0.3310     8.0100     0.4820 O.2   1 <1>  -0.5700 
  2 C        0.0950     6.9530     0.0530 C.2   1 <1>   0.6900 
  3 N       -0.6230     5.7960     0.2240 N.am  1 <1>  -0.6600 
  4 N        1.2870     6.9090    -0.5850 N.am  1 <1>  -0.7300 
  5 C       -0.2680     4.5230    -0.4680 C.3   1 <1>   0.2840 
  6 C       -1.7340     5.7390     1.2140 C.3   1 <1>   0.1400 
  7 C        2.2440     8.0170    -0.6670 C.3   1 <1>   0.2200 
  8 C        1.1110     4.0200    -0.0580 C.ar  1 <1>  -0.1430 
  9 C       -3.0000     6.4490     0.6930 C.3   1 <1>  -0.0800 
 10 C        2.8500     8.0380    -2.0740 C.3   1 <1>  -0.1600 
 11 C        3.3250     7.8060     0.3990 C.3   1 <1>  -0.1600 
 12 C        2.0340     3.6650    -1.0320 C.ar  1 <1>  -0.1500 
 13 C        1.4710     3.9310     1.2790 C.ar  1 <1>  -0.1500 
 14 C       -4.1330     6.3770     1.7290 C.3   1 <1>  -0.1600 
 15 C       -3.4940     5.9040    -0.6590 C.3   1 <1>  -0.1600 
 16 C        3.9540     9.0990    -2.1890 C.3   1 <1>  -0.1600 
 17 C        4.4310     8.8650     0.2880 C.3   1 <1>  -0.1600 
 18 C        3.2990     3.2320    -0.6750 C.ar  1 <1>  -0.1500 
 19 C        2.7360     3.4970     1.6370 C.ar  1 <1>  -0.1500 
 20 C       -5.3830     7.1060     1.2310 C.3   1 <1>   0.3430 
 21 C       -4.7520     6.6390    -1.1220 C.3   1 <1>   0.3430 
 22 C        5.0370     8.8900    -1.1220 C.3   1 <1>  -0.1600 
 23 C        3.6510     3.1480     0.6600 C.ar  1 <1>  -0.1500 
 24 N       -5.8080     6.5340    -0.0770 N.4   1 <1>  -0.9060 
 25 H        1.7240     5.9870    -0.6170 H     1 <1>   0.3700 
 26 H       -0.2890     4.6980    -1.5300 H     1 <1>   0.0800 
 27 H       -0.9970     3.7630    -0.2490 H     1 <1>   0.0800 
 28 H       -1.4040     6.2250     2.1180 H     1 <1>   0.0800 
 29 H       -1.9540     4.7150     1.4600 H     1 <1>   0.0800 
 30 H        1.7400     8.9530    -0.4840 H     1 <1>   0.0800 
 31 H       -2.7560     7.4900     0.5640 H     1 <1>   0.0800 
 32 H        2.0750     8.2500    -2.7890 H     1 <1>   0.0800 
 33 H        3.2680     7.0730    -2.2980 H     1 <1>   0.0800 
 34 H        3.7620     6.8290     0.2810 H     1 <1>   0.0800 
 35 H        2.8750     7.8620     1.3740 H     1 <1>   0.0800 
 36 H        1.7780     3.7250    -2.0760 H     1 <1>   0.1500 
 37 H        0.7720     4.2070     2.0490 H     1 <1>   0.1500 
 38 H       -3.8080     6.8420     2.6440 H     1 <1>   0.0800 
 39 H       -4.3750     5.3530     1.9540 H     1 <1>   0.0800 
 40 H       -3.6870     4.8480    -0.5930 H     1 <1>   0.0800 
 41 H       -2.7310     6.0500    -1.4040 H     1 <1>   0.0800 
 42 H        3.5200    10.0780    -2.0690 H     1 <1>   0.0800 
 43 H        4.3980     9.0530    -3.1690 H     1 <1>   0.0800 
 44 H        5.2030     8.6580     1.0100 H     1 <1>   0.0800 
 45 H        4.0180     9.8340     0.5160 H     1 <1>   0.0800 
 46 H        4.0100     2.9590    -1.4360 H     1 <1>   0.1500 
 47 H        3.0080     3.4330     2.6760 H     1 <1>   0.1500 
 48 H       -5.1610     8.1550     1.1150 H     1 <1>   0.0800 
 49 H       -6.1760     7.0060     1.9570 H     1 <1>   0.0800 
 50 H       -5.1010     6.2120    -2.0490 H     1 <1>   0.0800 
 51 H       -4.5120     7.6760    -1.2960 H     1 <1>   0.0800 
 52 H        5.7650     9.6810    -1.1870 H     1 <1>   0.0800 
 53 H        5.5440     7.9590    -1.3070 H     1 <1>   0.0800 
 54 H        4.6340     2.8110     0.9390 H     1 <1>   0.1500 
 55 H       -6.6600     7.0120    -0.4000 H     1 <1>   0.4500 
 56 H       -6.0490     5.5450     0.0550 H     1 <1>   0.4500 
@<TRIPOS>BOND
  1   1   2  2   
  2   2   3  am  
  3   2   4  am  
  4   3   5  1   
  5   3   6  1   
  6   4   7  1   
  7   4  25  1   
  8   5   8  1   
  9   5  26  1   
 10   5  27  1   
 11   6   9  1   
 12   6  28  1   
 13   6  29  1   
 14   7  10  1   
 15   7  11  1   
 16   7  30  1   
 17   8  12  ar  
 18   8  13  ar  
 19   9  14  1   
 20   9  15  1   
 21   9  31  1   
 22  10  16  1   
 23  10  32  1   
 24  10  33  1   
 25  11  17  1   
 26  11  34  1   
 27  11  35  1   
 28  12  18  ar  
 29  12  36  1   
 30  13  19  ar  
 31  13  37  1   
 32  14  20  1   
 33  14  38  1   
 34  14  39  1   
 35  15  21  1   
 36  15  40  1   
 37  15  41  1   
 38  16  22  1   
 39  16  42  1   
 40  16  43  1   
 41  17  22  1   
 42  17  44  1   
 43  17  45  1   
 44  18  23  ar  
 45  18  46  1   
 46  19  23  ar  
 47  19  47  1   
 48  20  24  1   
 49  20  48  1   
 50  20  49  1   
 51  21  24  1   
 52  21  50  1   
 53  21  51  1   
 54  22  52  1   
 55  22  53  1   
 56  23  54  1   
 57  24  55  1   
 58  24  56  1   
@<TRIPOS>SUBSTRUCTURE
  1 ****   2 GROUP 4 **** **** 0

# MOE 2024.06 (io_trps.svl 2023.06)
