@<TRIPOS>MOLECULE
NONAME
47 49 1 0 0 
SMALL
USER_CHARGES


@<TRIPOS>ATOM
  1 O        0.1810     0.6690     1.5050 O.2   1 <1>  -0.5700 
  2 C       -0.2310     1.4850     0.7040 C.2   1 <1>   0.5440 
  3 N       -1.5830     1.6190     0.5730 N.am  1 <1>  -0.7300 
  4 C        0.6820     2.2640    -0.1150 C.ar  1 <1>   0.0860 
  5 C       -2.6070     0.9470     1.4140 C.3   1 <1>   0.2200 
  6 C        1.9520     1.7790    -0.4310 C.ar  1 <1>  -0.1500 
  7 C        0.3340     3.5200    -0.6190 C.ar  1 <1>  -0.1500 
  8 C       -2.8470    -0.5110     0.9590 C.3   1 <1>   0.2000 
  9 C       -3.8940     1.7760     1.3530 C.3   1 <1>  -0.1600 
 10 C        2.8280     2.5000    -1.2200 C.ar  1 <1>  -0.1500 
 11 C        1.2050     4.2470    -1.4110 C.ar  1 <1>  -0.1500 
 12 O       -1.7150    -1.2740     1.2100 O.3   1 <1>  -0.6800 
 13 C       -4.0300    -1.1580     1.6930 C.3   1 <1>   0.1400 
 14 C       -5.0150     1.1050     2.1470 C.3   1 <1>   0.1400 
 15 C        2.4540     3.7370    -1.7140 C.ar  1 <1>  -0.1500 
 16 N       -5.2330    -0.2700     1.6250 N.am  1 <1>  -0.6600 
 17 C       -6.3630    -0.5950     0.9010 C.2   1 <1>   0.7160 
 18 O       -7.0220     0.3080     0.4190 O.2   1 <1>  -0.5700 
 19 C       -6.7650    -1.9670     0.7000 C.2   1 <1>  -0.0860 
 20 C       -7.2840    -2.6120    -0.3860 C.2   1 <1>  -0.3320 
 21 C       -6.7160    -2.9720     1.6720 C.2   1 <1>   0.1390 
 22 N       -7.4970    -3.8890    -0.0310 N.pl3 1 <1>   0.3000 
 23 C       -7.5950    -2.0570    -1.7660 C.3   1 <1>   0.0200 
 24 N       -7.1400    -4.1190     1.2450 N.2   1 <1>  -0.7070 
 25 C       -9.1060    -1.9340    -1.9590 C.3   1 <1>  -0.2400 
 26 H       -1.9490     2.1450    -0.2210 H     1 <1>   0.3700 
 27 H       -2.2650     0.9280     2.4360 H     1 <1>   0.0800 
 28 H        2.2530     0.8180    -0.0470 H     1 <1>   0.1500 
 29 H       -0.6270     3.9410    -0.3850 H     1 <1>   0.1500 
 30 H       -3.0320    -0.5370    -0.1000 H     1 <1>   0.0800 
 31 H       -3.7120     2.7520     1.7650 H     1 <1>   0.0800 
 32 H       -4.2200     1.8880     0.3340 H     1 <1>   0.0800 
 33 H        3.8010     2.1010    -1.4500 H     1 <1>   0.1500 
 34 H        0.9150     5.2120    -1.7900 H     1 <1>   0.1500 
 35 H       -0.9260    -0.6720     1.2680 H     1 <1>   0.4000 
 36 H       -3.7700    -1.3140     2.7250 H     1 <1>   0.0800 
 37 H       -4.2290    -2.1120     1.2390 H     1 <1>   0.0800 
 38 H       -5.9190     1.6880     2.0680 H     1 <1>   0.0800 
 39 H       -4.7500     1.0490     3.1890 H     1 <1>   0.0800 
 40 H        3.1340     4.3000    -2.3300 H     1 <1>   0.1500 
 41 H       -6.3640    -2.8120     2.6770 H     1 <1>   0.1500 
 42 H       -7.8880    -4.6280    -0.6280 H     1 <1>   0.2700 
 43 H       -7.1470    -1.0840    -1.8760 H     1 <1>   0.0800 
 44 H       -7.1770    -2.6990    -2.5220 H     1 <1>   0.0800 
 45 H       -9.5150    -1.2840    -1.2040 H     1 <1>   0.0800 
 46 H       -9.5800    -2.8950    -1.8830 H     1 <1>   0.0800 
 47 H       -9.3210    -1.5150    -2.9250 H     1 <1>   0.0800 
@<TRIPOS>BOND
  1   1   2  2   
  2   2   3  am  
  3   2   4  1   
  4   3   5  1   
  5   3  26  1   
  6   4   6  ar  
  7   4   7  ar  
  8   5   8  1   
  9   5   9  1   
 10   5  27  1   
 11   6  10  ar  
 12   6  28  1   
 13   7  11  ar  
 14   7  29  1   
 15   8  12  1   
 16   8  13  1   
 17   8  30  1   
 18   9  14  1   
 19   9  31  1   
 20   9  32  1   
 21  10  15  ar  
 22  10  33  1   
 23  11  15  ar  
 24  11  34  1   
 25  12  35  1   
 26  13  16  1   
 27  13  36  1   
 28  13  37  1   
 29  14  16  1   
 30  14  38  1   
 31  14  39  1   
 32  15  40  1   
 33  16  17  am  
 34  17  18  2   
 35  17  19  1   
 36  19  20  2   
 37  19  21  1   
 38  20  22  1   
 39  20  23  1   
 40  21  24  2   
 41  21  41  1   
 42  22  24  1   
 43  22  42  1   
 44  23  25  1   
 45  23  43  1   
 46  23  44  1   
 47  25  45  1   
 48  25  46  1   
 49  25  47  1   
@<TRIPOS>SUBSTRUCTURE
  1 ****   8 GROUP 4 **** **** 0

# MOE 2024.06 (io_trps.svl 2023.06)
