@<TRIPOS>MOLECULE
NONAME
55 57 1 0 0 
SMALL
USER_CHARGES


@<TRIPOS>ATOM
  1 O        2.6390    -0.9850     3.3350 O.2   1 <1>  -0.5700 
  2 C        2.0760    -1.2020     2.2890 C.2   1 <1>   0.5690 
  3 N        1.7340    -0.2050     1.4390 N.am  1 <1>  -0.7300 
  4 C        1.7500    -2.6460     1.8930 C.3   1 <1>   0.1710 
  5 C        2.0670     1.2180     1.5950 C.3   1 <1>   0.3210 
  6 N        0.5960    -2.7900     0.9580 N.3   1 <1>  -0.8100 
  7 C        2.6710     1.7140     0.2970 C.2   1 <1>  -0.1810 
  8 C        0.5470    -4.1600     0.3960 C.3   1 <1>   0.1100 
  9 C       -0.6850    -2.5000     1.6500 C.3   1 <1>   0.1100 
 10 C        3.9090     1.3660    -0.2350 C.2   1 <1>   0.1080 
 11 C        2.1500     2.5810    -0.5980 C.2   1 <1>  -0.3020 
 12 C       -0.6440    -4.3560    -0.5610 C.3   1 <1>   0.2090 
 13 C       -1.9030    -2.6650     0.7200 C.3   1 <1>   0.2090 
 14 N        4.1410     1.9600    -1.3630 N.2   1 <1>  -0.7070 
 15 C        4.9050     0.4080     0.3820 C.3   1 <1>  -0.0590 
 16 N        3.0530     2.7170    -1.5890 N.pl3 1 <1>   0.3140 
 17 N       -1.9330    -4.0270     0.1140 N.pl3 1 <1>  -0.8380 
 18 C        2.9300     3.5640    -2.7910 C.3   1 <1>   0.0960 
 19 C       -3.0890    -4.3550    -0.5830 C.ar  1 <1>   0.1000 
 20 C        3.2250     5.0340    -2.4670 C.3   1 <1>  -0.2400 
 21 C       -3.4200    -3.7390    -1.7860 C.ar  1 <1>  -0.1500 
 22 C       -3.9430    -5.3220    -0.0720 C.ar  1 <1>  -0.1500 
 23 C       -4.5770    -4.0780    -2.4670 C.ar  1 <1>  -0.1440 
 24 C       -5.1000    -5.6680    -0.7440 C.ar  1 <1>  -0.1500 
 25 C       -5.4170    -5.0470    -1.9400 C.ar  1 <1>  -0.1500 
 26 C       -4.9340    -3.4050    -3.7790 C.3   1 <1>  -0.0970 
 27 H        1.2880    -0.4720     0.5570 H     1 <1>   0.3700 
 28 H        1.5670    -3.2150     2.7880 H     1 <1>   0.0800 
 29 H        2.6310    -3.0450     1.4260 H     1 <1>   0.0800 
 30 H        2.7630     1.3560     2.4040 H     1 <1>   0.0800 
 31 H        1.1700     1.7700     1.8160 H     1 <1>   0.0800 
 32 H        0.4670    -4.8800     1.1930 H     1 <1>   0.0800 
 33 H        1.4570    -4.3570    -0.1440 H     1 <1>   0.0800 
 34 H       -0.6760    -1.4920     2.0250 H     1 <1>   0.0800 
 35 H       -0.8070    -3.1650     2.4880 H     1 <1>   0.0800 
 36 H        1.2110     3.1010    -0.5890 H     1 <1>   0.1500 
 37 H       -0.6730    -5.3790    -0.8950 H     1 <1>   0.0800 
 38 H       -0.5140    -3.7250    -1.4220 H     1 <1>   0.0800 
 39 H       -1.8580    -1.9230    -0.0580 H     1 <1>   0.0800 
 40 H       -2.8070    -2.5100     1.2810 H     1 <1>   0.0800 
 41 H        4.7910     0.3750     1.4490 H     1 <1>   0.0800 
 42 H        5.9040     0.7280     0.1480 H     1 <1>   0.0800 
 43 H        4.7500    -0.5750    -0.0210 H     1 <1>   0.0800 
 44 H        1.9340     3.4590    -3.1820 H     1 <1>   0.0800 
 45 H        3.6260     3.2030    -3.5260 H     1 <1>   0.0800 
 46 H        2.5240     5.4080    -1.7430 H     1 <1>   0.0800 
 47 H        3.1470     5.6280    -3.3600 H     1 <1>   0.0800 
 48 H        4.2240     5.1290    -2.0780 H     1 <1>   0.0800 
 49 H       -2.7590    -2.9910    -2.1800 H     1 <1>   0.1500 
 50 H       -3.6850    -5.7950     0.8570 H     1 <1>   0.1500 
 51 H       -5.7530    -6.4190    -0.3370 H     1 <1>   0.1500 
 52 H       -6.3180    -5.3200    -2.4590 H     1 <1>   0.1500 
 53 H       -4.2410    -2.6150    -4.0070 H     1 <1>   0.0800 
 54 H       -5.9220    -2.9850    -3.7190 H     1 <1>   0.0800 
 55 H       -4.9090    -4.1250    -4.5770 H     1 <1>   0.0800 
@<TRIPOS>BOND
  1   1   2  2   
  2   2   3  am  
  3   2   4  1   
  4   3   5  1   
  5   3  27  1   
  6   4   6  1   
  7   4  28  1   
  8   4  29  1   
  9   5   7  1   
 10   5  30  1   
 11   5  31  1   
 12   6   8  1   
 13   6   9  1   
 14   7  10  1   
 15   7  11  2   
 16   8  12  1   
 17   8  32  1   
 18   8  33  1   
 19   9  13  1   
 20   9  34  1   
 21   9  35  1   
 22  10  14  2   
 23  10  15  1   
 24  11  16  1   
 25  11  36  1   
 26  12  17  1   
 27  12  37  1   
 28  12  38  1   
 29  13  17  1   
 30  13  39  1   
 31  13  40  1   
 32  14  16  1   
 33  15  41  1   
 34  15  42  1   
 35  15  43  1   
 36  16  18  1   
 37  17  19  1   
 38  18  20  1   
 39  18  44  1   
 40  18  45  1   
 41  19  21  ar  
 42  19  22  ar  
 43  20  46  1   
 44  20  47  1   
 45  20  48  1   
 46  21  23  ar  
 47  21  49  1   
 48  22  24  ar  
 49  22  50  1   
 50  23  25  ar  
 51  23  26  1   
 52  24  25  ar  
 53  24  51  1   
 54  25  52  1   
 55  26  53  1   
 56  26  54  1   
 57  26  55  1   
@<TRIPOS>SUBSTRUCTURE
  1 ****   6 GROUP 4 **** **** 0

# MOE 2024.06 (io_trps.svl 2023.06)
