@<TRIPOS>MOLECULE
NONAME
50 51 1 0 0 
SMALL
USER_CHARGES


@<TRIPOS>ATOM
  1 F        1.7640    -0.8370     2.9720 F     1 <1>  -0.3400 
  2 C        0.6360    -0.4370     2.4040 C.3   1 <1>   1.1640 
  3 F       -0.3040    -1.2940     2.7850 F     1 <1>  -0.3400 
  4 F        0.3240     0.7200     2.9730 F     1 <1>  -0.3400 
  5 C        0.7250    -0.3730     0.8610 C.ar  1 <1>  -0.1440 
  6 C        1.2210    -1.4250     0.0740 C.ar  1 <1>  -0.1440 
  7 C        0.3070     0.7940     0.2200 C.ar  1 <1>  -0.1500 
  8 C        1.3290    -1.2530    -1.3010 C.ar  1 <1>  -0.1500 
  9 C        1.6970    -2.7770     0.6340 C.3   1 <1>   0.0450 
 10 C        0.3970     0.9370    -1.1510 C.ar  1 <1>  -0.1500 
 11 C        0.9170    -0.0870    -1.9140 C.ar  1 <1>  -0.1500 
 12 C        1.2090    -3.9770    -0.1780 C.2   1 <1>   0.5690 
 13 O        2.0050    -4.4810    -0.9330 O.2   1 <1>  -0.5700 
 14 N       -0.0710    -4.4690    -0.0870 N.am  1 <1>  -0.6600 
 15 C       -0.3530    -5.7820    -0.7740 C.3   1 <1>   0.3210 
 16 C       -1.1460    -3.9160     0.8030 C.3   1 <1>   0.1400 
 17 C       -1.8320    -6.1700    -0.8480 C.2   1 <1>   0.0460 
 18 C       -2.2210    -3.0690     0.0790 C.3   1 <1>   0.3430 
 19 N       -2.6690    -5.5870    -1.7360 N.2   1 <1>  -0.5650 
 20 C       -2.4880    -7.1040    -0.1170 C.2   1 <1>  -0.3320 
 21 N       -1.6890    -2.1210    -0.9610 N.4   1 <1>  -0.9590 
 22 C       -3.7970    -6.1910    -1.5440 C.2   1 <1>   0.0360 
 23 N       -3.7550    -7.1220    -0.5700 N.pl3 1 <1>   0.0330 
 24 C       -2.0100    -8.0270     0.9930 C.3   1 <1>  -0.0600 
 25 C       -2.5490    -0.9120    -1.0880 C.3   1 <1>   0.2630 
 26 C       -1.5690    -2.8060    -2.2860 C.3   1 <1>   0.2630 
 27 H       -0.0840     1.6270     0.7830 H     1 <1>   0.1500 
 28 H        1.7540    -2.0300    -1.9190 H     1 <1>   0.1500 
 29 H        1.4200    -2.9320     1.6560 H     1 <1>   0.0800 
 30 H        2.7730    -2.7810     0.6120 H     1 <1>   0.0800 
 31 H        0.0820     1.8540    -1.6230 H     1 <1>   0.1500 
 32 H        1.0150     0.0280    -2.9810 H     1 <1>   0.1500 
 33 H        0.1860    -6.5560    -0.2580 H     1 <1>   0.0800 
 34 H        0.0310    -5.7490    -1.7790 H     1 <1>   0.0800 
 35 H       -0.7090    -3.3160     1.5730 H     1 <1>   0.0800 
 36 H       -1.6370    -4.7270     1.3130 H     1 <1>   0.0800 
 37 H       -2.7490    -2.5080     0.8330 H     1 <1>   0.0800 
 38 H       -2.9410    -3.7280    -0.3740 H     1 <1>   0.0800 
 39 H       -0.7360    -1.8190    -0.6880 H     1 <1>   0.4500 
 40 H       -4.6990    -5.9920    -2.0990 H     1 <1>   0.1500 
 41 H       -4.5220    -7.7290    -0.2610 H     1 <1>   0.2700 
 42 H       -0.9820    -7.8350     1.2400 H     1 <1>   0.0800 
 43 H       -2.0970    -9.0540     0.6820 H     1 <1>   0.0800 
 44 H       -2.6030    -7.8840     1.8790 H     1 <1>   0.0800 
 45 H       -3.5440    -1.1910    -1.3970 H     1 <1>   0.0800 
 46 H       -2.1340    -0.2390    -1.8200 H     1 <1>   0.0800 
 47 H       -2.6090    -0.3950    -0.1440 H     1 <1>   0.0800 
 48 H       -2.5300    -3.1740    -2.6070 H     1 <1>   0.0800 
 49 H       -0.8960    -3.6440    -2.2170 H     1 <1>   0.0800 
 50 H       -1.1880    -2.1250    -3.0280 H     1 <1>   0.0800 
@<TRIPOS>BOND
  1   1   2  1   
  2   2   3  1   
  3   2   4  1   
  4   2   5  1   
  5   5   6  ar  
  6   5   7  ar  
  7   6   8  ar  
  8   6   9  1   
  9   7  10  ar  
 10   7  27  1   
 11   8  11  ar  
 12   8  28  1   
 13   9  12  1   
 14   9  29  1   
 15   9  30  1   
 16  10  11  ar  
 17  10  31  1   
 18  11  32  1   
 19  12  13  2   
 20  12  14  am  
 21  14  15  1   
 22  14  16  1   
 23  15  17  1   
 24  15  33  1   
 25  15  34  1   
 26  16  18  1   
 27  16  35  1   
 28  16  36  1   
 29  17  19  1   
 30  17  20  2   
 31  18  21  1   
 32  18  37  1   
 33  18  38  1   
 34  19  22  2   
 35  20  23  1   
 36  20  24  1   
 37  21  25  1   
 38  21  26  1   
 39  21  39  1   
 40  22  23  1   
 41  22  40  1   
 42  23  41  1   
 43  24  42  1   
 44  24  43  1   
 45  24  44  1   
 46  25  45  1   
 47  25  46  1   
 48  25  47  1   
 49  26  48  1   
 50  26  49  1   
 51  26  50  1   
@<TRIPOS>SUBSTRUCTURE
  1 ****  16 GROUP 4 **** **** 0

# MOE 2024.06 (io_trps.svl 2023.06)
