@<TRIPOS>MOLECULE
NONAME
31 32 1 0 0 
SMALL
USER_CHARGES


@<TRIPOS>ATOM
  1 F       -1.1970    -0.7520    -2.0150 F     1 <1>  -0.1900 
  2 C       -2.1580    -1.2670    -1.2800 C.ar  1 <1>   0.1900 
  3 C       -2.7390    -0.6050    -0.2020 C.ar  1 <1>   0.3920 
  4 C       -2.6070    -2.5230    -1.5930 C.ar  1 <1>   0.1600 
  5 O       -2.4110     0.6330     0.2380 O.3   1 <1>  -0.3630 
  6 N       -3.6990    -1.1780     0.4930 N.ar  1 <1>  -0.6200 
  7 N       -3.5650    -3.1050    -0.9030 N.ar  1 <1>  -0.6200 
  8 C       -1.4420     1.4670    -0.3560 C.3   1 <1>   0.0400 
  9 C       -4.0580    -2.3880     0.1020 C.ar  1 <1>   0.7200 
 10 N       -5.0520    -2.9300     0.8410 N.pl3 1 <1>  -0.8690 
 11 C       -5.2720    -4.3890     0.9860 C.3   1 <1>   0.2090 
 12 C       -6.2570    -4.8810    -0.0740 C.3   1 <1>   0.1200 
 13 O       -6.4960    -6.2620     0.1310 O.3   1 <1>  -0.3420 
 14 C       -7.3650    -6.8780    -0.7190 C.2   1 <1>   0.3510 
 15 N       -8.0140    -6.3320    -1.6670 N.2   1 <1>  -0.4100 
 16 C       -7.6810    -8.2070    -0.6820 C.2   1 <1>   0.1080 
 17 O       -8.7320    -7.2790    -2.2320 O.3   1 <1>   0.2420 
 18 N       -8.5170    -8.4200    -1.6160 N.2   1 <1>  -0.4100 
 19 C       -7.1510    -9.2510     0.2790 C.3   1 <1>  -0.0590 
 20 H       -2.1730    -3.0570    -2.4210 H     1 <1>   0.1500 
 21 H       -1.4130     2.3890     0.1960 H     1 <1>   0.0800 
 22 H       -1.7230     1.6630    -1.3760 H     1 <1>   0.0800 
 23 H       -0.4820     0.9840    -0.3050 H     1 <1>   0.0800 
 24 H       -5.2640    -2.3550     1.6570 H     1 <1>   0.4000 
 25 H       -5.6690    -4.5880     1.9660 H     1 <1>   0.0800 
 26 H       -4.3350    -4.9100     0.8770 H     1 <1>   0.0800 
 27 H       -5.8440    -4.7490    -1.0590 H     1 <1>   0.0800 
 28 H       -7.1920    -4.3560     0.0110 H     1 <1>   0.0800 
 29 H       -6.0820    -9.1720     0.3510 H     1 <1>   0.0800 
 30 H       -7.4060   -10.2360    -0.0690 H     1 <1>   0.0800 
 31 H       -7.5820    -9.1000     1.2510 H     1 <1>   0.0800 
@<TRIPOS>BOND
  1   1   2  1   
  2   2   3  ar  
  3   2   4  ar  
  4   3   5  1   
  5   3   6  ar  
  6   4   7  ar  
  7   4  20  1   
  8   5   8  1   
  9   6   9  ar  
 10   7   9  ar  
 11   8  21  1   
 12   8  22  1   
 13   8  23  1   
 14   9  10  1   
 15  10  11  1   
 16  10  24  1   
 17  11  12  1   
 18  11  25  1   
 19  11  26  1   
 20  12  13  1   
 21  12  27  1   
 22  12  28  1   
 23  13  14  1   
 24  14  15  2   
 25  14  16  1   
 26  15  17  1   
 27  16  18  2   
 28  16  19  1   
 29  17  18  1   
 30  19  29  1   
 31  19  30  1   
 32  19  31  1   
@<TRIPOS>SUBSTRUCTURE
  1 ****  11 GROUP 4 **** **** 0

# MOE 2024.06 (io_trps.svl 2023.06)
