@<TRIPOS>MOLECULE
NONAME
48 51 1 0 0 
SMALL
USER_CHARGES


@<TRIPOS>ATOM
  1 O       -0.4090    -0.9520    -0.4150 O.co2 1 <1>  -0.9000 
  2 C       -0.6190    -1.9310    -1.1520 C.2   1 <1>   0.9790 
  3 O       -0.0420    -1.9980    -2.2500 O.co2 1 <1>  -0.9000 
  4 C       -1.5580    -2.9690    -0.7460 C.ar  1 <1>  -0.1790 
  5 C       -1.8490    -4.0510    -1.5760 C.ar  1 <1>  -0.1500 
  6 C       -2.2110    -2.9140     0.4850 C.ar  1 <1>  -0.1500 
  7 C       -2.7810    -5.0070    -1.2210 C.ar  1 <1>  -0.1500 
  8 C       -3.1440    -3.8630     0.8510 C.ar  1 <1>  -0.1500 
  9 C       -3.4540    -4.9010    -0.0140 C.ar  1 <1>  -0.1430 
 10 C       -4.5710    -5.8560     0.3380 C.3   1 <1>   0.4870 
 11 N       -5.7520    -5.5680    -0.5400 N.4   1 <1>  -0.9590 
 12 C       -6.0290    -4.0890    -0.7510 C.3   1 <1>   0.3430 
 13 C       -6.9870    -6.2690    -0.0850 C.3   1 <1>   0.3430 
 14 C       -6.9270    -3.4220     0.3180 C.3   1 <1>   0.1440 
 15 C       -7.4630    -5.7490     1.2830 C.3   1 <1>  -0.1600 
 16 C       -8.2840    -3.1380    -0.2960 C.ar  1 <1>   0.1670 
 17 C       -7.0840    -4.2840     1.5910 C.3   1 <1>  -0.1600 
 18 C       -6.4310    -1.9970     0.6800 C.3   1 <1>  -0.1600 
 19 N       -8.9890    -3.9940    -1.0040 N.ar  1 <1>  -0.6200 
 20 C       -8.6950    -1.8650    -0.0410 C.ar  1 <1>  -0.1430 
 21 C       -7.6800    -1.1010     0.7710 C.3   1 <1>  -0.0170 
 22 C      -10.1490    -3.5140    -1.4370 C.ar  1 <1>   0.4770 
 23 C       -9.9120    -1.4740    -0.5400 C.ar  1 <1>   0.1600 
 24 N      -10.6520    -2.3040    -1.2450 N.ar  1 <1>  -0.6200 
 25 C      -11.0060    -4.4600    -2.2440 C.3   1 <1>  -0.0970 
 26 H       -1.3290    -4.1220    -2.5190 H     1 <1>   0.1500 
 27 H       -1.9720    -2.0980     1.1510 H     1 <1>   0.1500 
 28 H       -2.9740    -5.8140    -1.9040 H     1 <1>   0.1500 
 29 H       -3.6260    -3.7670     1.8080 H     1 <1>   0.1500 
 30 H       -4.8330    -5.7250     1.3730 H     1 <1>   0.0800 
 31 H       -4.2400    -6.8720     0.1980 H     1 <1>   0.0800 
 32 H       -5.4980    -5.9280    -1.4670 H     1 <1>   0.4500 
 33 H       -6.5230    -3.9660    -1.7010 H     1 <1>   0.0800 
 34 H       -5.1040    -3.5430    -0.8230 H     1 <1>   0.0800 
 35 H       -6.8240    -7.3340    -0.0350 H     1 <1>   0.0800 
 36 H       -7.7700    -6.0910    -0.8070 H     1 <1>   0.0800 
 37 H       -7.0900    -6.3890     2.0630 H     1 <1>   0.0800 
 38 H       -8.5360    -5.8410     1.3010 H     1 <1>   0.0800 
 39 H       -7.8300    -3.8520     2.2370 H     1 <1>   0.0800 
 40 H       -6.1560    -4.2720     2.1340 H     1 <1>   0.0800 
 41 H       -5.8090    -1.6160    -0.1130 H     1 <1>   0.0800 
 42 H       -5.8590    -1.9700     1.5910 H     1 <1>   0.0800 
 43 H       -7.4960    -0.1210     0.3640 H     1 <1>   0.0800 
 44 H       -8.0190    -1.0150     1.7890 H     1 <1>   0.0800 
 45 H      -10.2850    -0.4780    -0.3650 H     1 <1>   0.1500 
 46 H      -10.3950    -5.1890    -2.7420 H     1 <1>   0.0800 
 47 H      -11.5620    -3.9110    -2.9820 H     1 <1>   0.0800 
 48 H      -11.6950    -4.9600    -1.5900 H     1 <1>   0.0800 
@<TRIPOS>BOND
  1   1   2  ar  
  2   2   3  ar  
  3   2   4  1   
  4   4   5  ar  
  5   4   6  ar  
  6   5   7  ar  
  7   5  26  1   
  8   6   8  ar  
  9   6  27  1   
 10   7   9  ar  
 11   7  28  1   
 12   8   9  ar  
 13   8  29  1   
 14   9  10  1   
 15  10  11  1   
 16  10  30  1   
 17  10  31  1   
 18  11  12  1   
 19  11  13  1   
 20  11  32  1   
 21  12  14  1   
 22  12  33  1   
 23  12  34  1   
 24  13  15  1   
 25  13  35  1   
 26  13  36  1   
 27  14  16  1   
 28  14  17  1   
 29  14  18  1   
 30  15  17  1   
 31  15  37  1   
 32  15  38  1   
 33  16  19  ar  
 34  16  20  ar  
 35  17  39  1   
 36  17  40  1   
 37  18  21  1   
 38  18  41  1   
 39  18  42  1   
 40  19  22  ar  
 41  20  21  1   
 42  20  23  ar  
 43  21  43  1   
 44  21  44  1   
 45  22  24  ar  
 46  22  25  1   
 47  23  24  ar  
 48  23  45  1   
 49  25  46  1   
 50  25  47  1   
 51  25  48  1   
@<TRIPOS>SUBSTRUCTURE
  1 ****  12 GROUP 4 **** **** 0

# MOE 2024.06 (io_trps.svl 2023.06)
