@<TRIPOS>MOLECULE
Untitled Document
33 35 1 0 0 
SMALL
USER_CHARGES


@<TRIPOS>ATOM
  1 F       -0.4870     0.2040     0.8230 F     1 <1>  -0.1900 
  2 C       -1.5960     0.8690     0.6200 C.ar  1 <1>   0.1900 
  3 C       -1.5370     2.2070     0.2370 C.ar  1 <1>  -0.1440 
  4 C       -2.7770     0.1970     0.7960 C.ar  1 <1>  -0.1500 
  5 C       -2.7400     2.8780     0.0580 C.ar  1 <1>  -0.1440 
  6 C       -0.1810     2.8820     0.0240 C.3   1 <1>  -0.0960 
  7 C       -3.9920     0.8540     0.5950 C.ar  1 <1>   0.0860 
  8 C       -3.9720     2.2180     0.2390 C.ar  1 <1>   0.1000 
  9 C       -2.7640     4.3470    -0.3500 C.3   1 <1>  -0.0170 
 10 C       -5.2470     0.1590     0.7360 C.2   1 <1>   0.4690 
 11 N       -5.2030     2.8810     0.0550 N.pl3 1 <1>  -0.5690 
 12 C       -3.9670     5.0370     0.2800 C.3   1 <1>  -0.1600 
 13 O       -5.2680    -0.9430     1.2720 O.2   1 <1>  -0.5700 
 14 C       -6.4180     0.8140     0.2840 C.2   1 <1>  -0.2360 
 15 C       -6.3600     2.1420    -0.0160 C.2   1 <1>  -0.0500 
 16 C       -5.2720     4.3620    -0.1470 C.3   1 <1>   0.2890 
 17 C       -7.6360     0.0780     0.1490 C.2   1 <1>   1.0500 
 18 C       -6.4260     4.9820     0.6540 C.3   1 <1>  -0.2400 
 19 O       -8.6730     0.5030     0.6930 O.co2 1 <1>  -0.9000 
 20 O       -7.7210    -0.8980    -0.6180 O.co2 1 <1>  -0.9000 
 21 H       -2.7730    -0.8380     1.0850 H     1 <1>   0.1500 
 22 H        0.6150     2.1650    -0.0650 H     1 <1>   0.0800 
 23 H        0.0390     3.5280     0.8550 H     1 <1>   0.0800 
 24 H       -0.1880     3.4610    -0.8820 H     1 <1>   0.0800 
 25 H       -2.8220     4.4130    -1.4220 H     1 <1>   0.0800 
 26 H       -1.8800     4.8610    -0.0230 H     1 <1>   0.0800 
 27 H       -3.9840     6.0710    -0.0130 H     1 <1>   0.0800 
 28 H       -3.8780     4.9940     1.3520 H     1 <1>   0.0800 
 29 H       -7.2690     2.6300    -0.3280 H     1 <1>   0.1500 
 30 H       -5.4320     4.5440    -1.1960 H     1 <1>   0.0800 
 31 H       -6.3670     4.6770     1.6840 H     1 <1>   0.0800 
 32 H       -7.3780     4.6880     0.2540 H     1 <1>   0.0800 
 33 H       -6.3760     6.0540     0.6080 H     1 <1>   0.0800 
@<TRIPOS>BOND
  1   1   2  1   
  2   2   3  ar  
  3   2   4  ar  
  4   3   5  ar  
  5   3   6  1   
  6   4   7  ar  
  7   4  21  1   
  8   5   8  ar  
  9   5   9  1   
 10   6  22  1   
 11   6  23  1   
 12   6  24  1   
 13   7   8  ar  
 14   7  10  1   
 15   8  11  1   
 16   9  12  1   
 17   9  25  1   
 18   9  26  1   
 19  10  13  2   
 20  10  14  1   
 21  11  15  1   
 22  11  16  1   
 23  12  16  1   
 24  12  27  1   
 25  12  28  1   
 26  14  15  2   
 27  14  17  1   
 28  15  29  1   
 29  16  18  1   
 30  16  30  1   
 31  17  19  ar  
 32  17  20  ar  
 33  18  31  1   
 34  18  32  1   
 35  18  33  1   
@<TRIPOS>SUBSTRUCTURE
  1 ****   8 GROUP 4 **** **** 0

# MOE 2024.06 (io_trps.svl 2023.06)
