@<TRIPOS>MOLECULE
NONAME
42 44 1 0 0 
SMALL
USER_CHARGES


@<TRIPOS>ATOM
  1 F       -3.0480    -0.4940    -2.2890 F     1 <1>  -0.1900 
  2 C       -2.9610     0.4820    -1.4250 C.ar  1 <1>   0.1900 
  3 C       -2.9690     0.1880    -0.0650 C.ar  1 <1>  -0.1440 
  4 C       -2.8740     1.7700    -1.9150 C.ar  1 <1>  -0.1500 
  5 C       -2.8680     1.2450     0.8350 C.ar  1 <1>  -0.1500 
  6 C       -3.0670    -1.2450     0.4390 C.3   1 <1>   0.4870 
  7 C       -2.7880     2.7880    -0.9890 C.ar  1 <1>   0.1900 
  8 C       -2.7810     2.5510     0.3740 C.ar  1 <1>  -0.1500 
  9 N       -4.2600    -1.9230    -0.1550 N.4   1 <1>  -0.9590 
 10 F       -2.7100     4.0190    -1.4130 F     1 <1>  -0.1900 
 11 C       -5.4850    -1.9740     0.7060 C.3   1 <1>   0.4230 
 12 C       -3.8580    -3.2820    -0.6390 C.3   1 <1>   0.2630 
 13 C       -6.7000    -2.2840    -0.1740 C.3   1 <1>  -0.1600 
 14 C       -5.8720    -0.6070     1.2760 C.3   1 <1>  -0.1600 
 15 C       -7.0860    -0.9420    -0.8170 C.3   1 <1>  -0.0800 
 16 C       -6.5350     0.1450     0.1140 C.3   1 <1>  -0.0800 
 17 C       -8.5930    -0.6840    -0.9510 C.3   1 <1>  -0.1600 
 18 C       -7.7170     1.0440     0.4990 C.3   1 <1>  -0.1600 
 19 C       -8.7560     0.7850    -0.5850 C.3   1 <1>   0.2000 
 20 O      -10.0210     1.0190    -0.1000 O.3   1 <1>  -0.6800 
 21 H       -2.8720     1.9770    -2.9700 H     1 <1>   0.1500 
 22 H       -2.8530     1.0710     1.8990 H     1 <1>   0.1500 
 23 H       -3.1270    -1.2610     1.5150 H     1 <1>   0.0800 
 24 H       -2.1680    -1.7630     0.1470 H     1 <1>   0.0800 
 25 H       -2.7050     3.3800     1.0580 H     1 <1>   0.1500 
 26 H       -4.5080    -1.3560    -0.9790 H     1 <1>   0.4500 
 27 H       -5.3640    -2.7040     1.4910 H     1 <1>   0.0800 
 28 H       -3.6010    -3.9170     0.1930 H     1 <1>   0.0800 
 29 H       -3.0040    -3.2060    -1.2940 H     1 <1>   0.0800 
 30 H       -4.6600    -3.7440    -1.1910 H     1 <1>   0.0800 
 31 H       -6.5420    -3.0530    -0.9060 H     1 <1>   0.0800 
 32 H       -7.4920    -2.6140     0.4760 H     1 <1>   0.0800 
 33 H       -6.6040    -0.7840     2.0450 H     1 <1>   0.0800 
 34 H       -5.0720    -0.0600     1.7320 H     1 <1>   0.0800 
 35 H       -6.6190    -0.8400    -1.7840 H     1 <1>   0.0800 
 36 H       -5.8050     0.7280    -0.4240 H     1 <1>   0.0800 
 37 H       -9.1480    -1.2930    -0.2590 H     1 <1>   0.0800 
 38 H       -8.9380    -0.8740    -1.9520 H     1 <1>   0.0800 
 39 H       -7.4330     2.0820     0.5200 H     1 <1>   0.0800 
 40 H       -8.1160     0.7630     1.4580 H     1 <1>   0.0800 
 41 H       -8.5880     1.4190    -1.4410 H     1 <1>   0.0800 
 42 H      -10.2000     0.4580     0.6770 H     1 <1>   0.4000 
@<TRIPOS>BOND
  1   1   2  1   
  2   2   3  ar  
  3   2   4  ar  
  4   3   5  ar  
  5   3   6  1   
  6   4   7  ar  
  7   4  21  1   
  8   5   8  ar  
  9   5  22  1   
 10   6   9  1   
 11   6  23  1   
 12   6  24  1   
 13   7   8  ar  
 14   7  10  1   
 15   8  25  1   
 16   9  11  1   
 17   9  12  1   
 18   9  26  1   
 19  11  13  1   
 20  11  14  1   
 21  11  27  1   
 22  12  28  1   
 23  12  29  1   
 24  12  30  1   
 25  13  15  1   
 26  13  31  1   
 27  13  32  1   
 28  14  16  1   
 29  14  33  1   
 30  14  34  1   
 31  15  16  1   
 32  15  17  1   
 33  15  35  1   
 34  16  18  1   
 35  16  36  1   
 36  17  19  1   
 37  17  37  1   
 38  17  38  1   
 39  18  19  1   
 40  18  39  1   
 41  18  40  1   
 42  19  20  1   
 43  19  41  1   
 44  20  42  1   
@<TRIPOS>SUBSTRUCTURE
  1 ****  16 GROUP 4 **** **** 0

# MOE 2024.06 (io_trps.svl 2023.06)
