@<TRIPOS>MOLECULE
NONAME
56 59 1 0 0 
SMALL
USER_CHARGES


@<TRIPOS>ATOM
  1 O       -0.8270    -0.5520    -1.3880 O.2   1 <1>  -0.5700 
  2 C       -1.5190    -1.2170    -0.6530 C.2   1 <1>   0.5690 
  3 N       -1.2170    -2.5340    -0.3860 N.am  1 <1>  -0.6600 
  4 C       -2.7470    -0.5520    -0.0320 C.3   1 <1>  -0.0990 
  5 C        0.0930    -3.1480    -0.8390 C.3   1 <1>   0.2200 
  6 C       -2.2950    -3.4870     0.0320 C.3   1 <1>   0.1400 
  7 C       -2.5520     0.9410     0.2890 C.3   1 <1>  -0.2400 
  8 C        0.4120    -4.4880    -0.1040 C.3   1 <1>   0.0000 
  9 C        1.2810    -2.1490    -0.7780 C.3   1 <1>   0.3430 
 10 C       -2.1150    -4.8470    -0.6410 C.3   1 <1>  -0.1600 
 11 C        1.7460    -5.0920    -0.6550 C.3   1 <1>  -0.1600 
 12 C       -0.7440    -5.4970    -0.3800 C.3   1 <1>  -0.1600 
 13 C        0.5130    -4.3070     1.4480 C.3   1 <1>   0.1200 
 14 N        2.6180    -2.7950    -0.5630 N.4   1 <1>  -0.9590 
 15 C        2.7320    -4.0850    -1.2670 C.3   1 <1>   0.3430 
 16 O        1.6690    -3.6480     1.8620 O.3   1 <1>  -0.6800 
 17 C        3.7410    -1.8590    -0.8420 C.3   1 <1>   0.5230 
 18 C        3.7690    -0.7040     0.1430 C.2   1 <1>  -0.0400 
 19 O        4.5860     0.2860    -0.1450 O.3   1 <1>  -0.2800 
 20 C        3.1210    -0.4440     1.3010 C.2   1 <1>  -0.1500 
 21 C        4.4970     1.2170     0.7990 C.2   1 <1>   0.1410 
 22 C        3.5920     0.8010     1.7250 C.2   1 <1>  -0.1500 
 23 C        5.2930     2.4220     0.7200 C.2   1 <1>   0.2880 
 24 N        6.1470     2.6970    -0.2380 N.2   1 <1>  -0.7070 
 25 C        5.2610     3.4610     1.6580 C.2   1 <1>  -0.1500 
 26 N        6.6610     3.8980     0.0740 N.pl3 1 <1>   0.3000 
 27 C        6.1410     4.3810     1.2170 C.2   1 <1>  -0.3020 
 28 H       -3.5680    -0.6580    -0.7170 H     1 <1>   0.0800 
 29 H       -3.0040    -1.0520     0.8830 H     1 <1>   0.0800 
 30 H       -0.0350    -3.3850    -1.8810 H     1 <1>   0.0800 
 31 H       -2.2910    -3.5980     1.1020 H     1 <1>   0.0800 
 32 H       -3.2600    -3.1020    -0.2520 H     1 <1>   0.0800 
 33 H       -2.3480     1.4930    -0.6120 H     1 <1>   0.0800 
 34 H       -1.7270     1.0730     0.9660 H     1 <1>   0.0800 
 35 H       -3.4410     1.3430     0.7420 H     1 <1>   0.0800 
 36 H        1.0960    -1.4580     0.0260 H     1 <1>   0.0800 
 37 H        1.2910    -1.5840    -1.6960 H     1 <1>   0.0800 
 38 H       -2.8950    -5.5130    -0.3150 H     1 <1>   0.0800 
 39 H       -2.2480    -4.7090    -1.7010 H     1 <1>   0.0800 
 40 H        1.5560    -5.8140    -1.4280 H     1 <1>   0.0800 
 41 H        2.2480    -5.6340     0.1270 H     1 <1>   0.0800 
 42 H       -0.5360    -6.1010    -1.2460 H     1 <1>   0.0800 
 43 H       -0.8360    -6.1870     0.4420 H     1 <1>   0.0800 
 44 H        0.5240    -5.2730     1.9250 H     1 <1>   0.0800 
 45 H       -0.3250    -3.7580     1.8360 H     1 <1>   0.0800 
 46 H        2.6330    -3.0210     0.4520 H     1 <1>   0.4500 
 47 H        2.5050    -3.9420    -2.3120 H     1 <1>   0.0800 
 48 H        3.7350    -4.4720    -1.1870 H     1 <1>   0.0800 
 49 H        1.7110    -3.6480     2.8450 H     1 <1>   0.4000 
 50 H        4.6810    -2.3810    -0.7780 H     1 <1>   0.0800 
 51 H        3.6450    -1.4630    -1.8390 H     1 <1>   0.0800 
 52 H        2.3910    -1.0300     1.8320 H     1 <1>   0.1500 
 53 H        3.2820     1.3140     2.6170 H     1 <1>   0.1500 
 54 H        4.6480     3.4900     2.5400 H     1 <1>   0.1500 
 55 H        7.3660     4.3600    -0.5140 H     1 <1>   0.2700 
 56 H        6.4220     5.3290     1.6390 H     1 <1>   0.1500 
@<TRIPOS>BOND
  1   1   2  2   
  2   2   3  am  
  3   2   4  1   
  4   3   5  1   
  5   3   6  1   
  6   4   7  1   
  7   4  28  1   
  8   4  29  1   
  9   5   8  1   
 10   5   9  1   
 11   5  30  1   
 12   6  10  1   
 13   6  31  1   
 14   6  32  1   
 15   7  33  1   
 16   7  34  1   
 17   7  35  1   
 18   8  11  1   
 19   8  12  1   
 20   8  13  1   
 21   9  14  1   
 22   9  36  1   
 23   9  37  1   
 24  10  12  1   
 25  10  38  1   
 26  10  39  1   
 27  11  15  1   
 28  11  40  1   
 29  11  41  1   
 30  12  42  1   
 31  12  43  1   
 32  13  16  1   
 33  13  44  1   
 34  13  45  1   
 35  14  15  1   
 36  14  17  1   
 37  14  46  1   
 38  15  47  1   
 39  15  48  1   
 40  16  49  1   
 41  17  18  1   
 42  17  50  1   
 43  17  51  1   
 44  18  19  1   
 45  18  20  2   
 46  19  21  1   
 47  20  22  1   
 48  20  52  1   
 49  21  22  2   
 50  21  23  1   
 51  22  53  1   
 52  23  24  2   
 53  23  25  1   
 54  24  26  1   
 55  25  27  2   
 56  25  54  1   
 57  26  27  1   
 58  26  55  1   
 59  27  56  1   
@<TRIPOS>SUBSTRUCTURE
  1 ****   9 GROUP 4 **** **** 0

# MOE 2024.06 (io_trps.svl 2023.06)
