@<TRIPOS>MOLECULE
NONAME
51 53 1 0 0 
SMALL
USER_CHARGES


@<TRIPOS>ATOM
  1 O        1.4390     0.2770    -0.0040 O.2   1 <1>  -0.5700 
  2 C        2.2260    -0.5550     0.3780 C.2   1 <1>   0.5690 
  3 N        3.3790    -0.1840     1.0260 N.am  1 <1>  -0.6600 
  4 C        1.9390    -2.0220     0.0940 C.3   1 <1>  -0.0990 
  5 C        4.5420    -1.0810     1.3100 C.3   1 <1>   0.1400 
  6 C        3.5600     1.2250     1.4740 C.3   1 <1>   0.1400 
  7 C        0.5570    -2.2800    -0.5250 C.3   1 <1>  -0.0160 
  8 C        5.6990    -0.8830     0.3040 C.3   1 <1>   0.3430 
  9 C        4.1390     2.0820     0.3430 C.3   1 <1>  -0.1600 
 10 C        0.3810    -3.7660    -0.7870 C.ar  1 <1>  -0.1440 
 11 N        6.0820     0.5530     0.0970 N.4   1 <1>  -0.9590 
 12 C        5.0410     1.3310    -0.6360 C.3   1 <1>   0.3430 
 13 C       -0.0850    -4.6270     0.1860 C.ar  1 <1>  -0.1500 
 14 C        0.6830    -4.3320    -2.0090 C.ar  1 <1>  -0.1500 
 15 C        7.4260     0.7090    -0.5130 C.3   1 <1>   0.4860 
 16 C       -0.2140    -5.9760    -0.1000 C.ar  1 <1>   0.1600 
 17 C        0.5180    -5.6950    -2.1910 C.ar  1 <1>   0.1600 
 18 C        7.8660     2.1480    -0.3380 C.ar  1 <1>  -0.1440 
 19 N        0.0800    -6.5320    -1.2640 N.ar  1 <1>  -0.6200 
 20 C        7.8990     2.7210     0.9350 C.ar  1 <1>   0.4100 
 21 C        8.2190     2.9180    -1.4250 C.ar  1 <1>  -0.1500 
 22 N        8.2170     3.9700     1.1810 N.ar  1 <1>  -0.6200 
 23 N        7.5790     2.0370     2.0650 N.pl3 1 <1>  -0.9000 
 24 C        8.5740     4.2280    -1.1730 C.ar  1 <1>  -0.1500 
 25 C        8.5530     4.6970     0.1280 C.ar  1 <1>   0.1600 
 26 H        2.0020    -2.5670     1.0180 H     1 <1>   0.0800 
 27 H        2.6900    -2.3960    -0.5760 H     1 <1>   0.0800 
 28 H        4.2390    -2.1120     1.2880 H     1 <1>   0.0800 
 29 H        4.9020    -0.8880     2.3060 H     1 <1>   0.0800 
 30 H        4.2140     1.2520     2.3280 H     1 <1>   0.0800 
 31 H        2.6110     1.6340     1.7850 H     1 <1>   0.0800 
 32 H        0.4590    -1.7340    -1.4470 H     1 <1>   0.0800 
 33 H       -0.2130    -1.9330     0.1430 H     1 <1>   0.0800 
 34 H        5.4120    -1.3150    -0.6400 H     1 <1>   0.0800 
 35 H        6.5520    -1.4340     0.6660 H     1 <1>   0.0800 
 36 H        4.6680     2.9180     0.7630 H     1 <1>   0.0800 
 37 H        3.3160     2.4890    -0.2180 H     1 <1>   0.0800 
 38 H        6.2000     1.0120     1.0220 H     1 <1>   0.4500 
 39 H        5.5000     2.0490    -1.2960 H     1 <1>   0.0800 
 40 H        4.4390     0.6650    -1.2330 H     1 <1>   0.0800 
 41 H       -0.3490    -4.2630     1.1620 H     1 <1>   0.1500 
 42 H        1.0430    -3.7290    -2.8220 H     1 <1>   0.1500 
 43 H        7.3970     0.4500    -1.5590 H     1 <1>   0.0800 
 44 H        8.1340     0.0670    -0.0160 H     1 <1>   0.0800 
 45 H       -0.5800    -6.6340     0.6700 H     1 <1>   0.1500 
 46 H        0.7580    -6.1200    -3.1510 H     1 <1>   0.1500 
 47 H        8.2240     2.5380    -2.4340 H     1 <1>   0.1500 
 48 H        7.2890     2.7330     2.7650 H     1 <1>   0.4000 
 49 H        8.4130     1.6100     2.4810 H     1 <1>   0.4000 
 50 H        8.8630     4.8830    -1.9770 H     1 <1>   0.1500 
 51 H        8.8290     5.7230     0.3120 H     1 <1>   0.1500 
@<TRIPOS>BOND
  1   1   2  2   
  2   2   3  am  
  3   2   4  1   
  4   3   5  1   
  5   3   6  1   
  6   4   7  1   
  7   4  26  1   
  8   4  27  1   
  9   5   8  1   
 10   5  28  1   
 11   5  29  1   
 12   6   9  1   
 13   6  30  1   
 14   6  31  1   
 15   7  10  1   
 16   7  32  1   
 17   7  33  1   
 18   8  11  1   
 19   8  34  1   
 20   8  35  1   
 21   9  12  1   
 22   9  36  1   
 23   9  37  1   
 24  10  13  ar  
 25  10  14  ar  
 26  11  12  1   
 27  11  15  1   
 28  11  38  1   
 29  12  39  1   
 30  12  40  1   
 31  13  16  ar  
 32  13  41  1   
 33  14  17  ar  
 34  14  42  1   
 35  15  18  1   
 36  15  43  1   
 37  15  44  1   
 38  16  19  ar  
 39  16  45  1   
 40  17  19  ar  
 41  17  46  1   
 42  18  20  ar  
 43  18  21  ar  
 44  20  22  ar  
 45  20  23  1   
 46  21  24  ar  
 47  21  47  1   
 48  22  25  ar  
 49  23  48  1   
 50  23  49  1   
 51  24  25  ar  
 52  24  50  1   
 53  25  51  1   
@<TRIPOS>SUBSTRUCTURE
  1 ****   3 GROUP 4 **** **** 0

# MOE 2024.06 (io_trps.svl 2023.06)
