@<TRIPOS>MOLECULE
NONAME
44 46 1 0 0 
SMALL
USER_CHARGES


@<TRIPOS>ATOM
  1 O       -0.3510     0.8140     2.0410 O.3   1 <1>  -0.5600 
  2 C        0.7060     0.8190     1.1380 C.3   1 <1>   0.1200 
  3 C       -1.5680     0.8020     1.3570 C.3   1 <1>   0.1200 
  4 C        0.1950     1.6360    -0.0440 C.3   1 <1>   0.2890 
  5 C       -1.2520     1.1540    -0.1040 C.3   1 <1>  -0.0800 
  6 N        0.2600     3.0770     0.3200 N.pl3 1 <1>  -0.8690 
  7 C       -2.2770     2.1130    -0.7420 C.3   1 <1>  -0.0170 
  8 C        0.7760     4.1760    -0.2350 C.ar  1 <1>   0.7710 
  9 C       -3.6550     1.4710    -0.7940 C.ar  1 <1>  -0.1440 
 10 N        0.6550     5.2820     0.4650 N.ar  1 <1>  -0.6200 
 11 N        1.3780     4.1300    -1.4360 N.ar  1 <1>  -0.1790 
 12 C       -3.9910     0.5390    -1.7560 C.ar  1 <1>  -0.1500 
 13 C       -4.6430     1.7850     0.1190 C.ar  1 <1>  -0.1500 
 14 C        1.1470     6.4000    -0.0410 C.ar  1 <1>   0.4100 
 15 C        1.9100     5.2490    -1.9860 C.ar  1 <1>   0.2110 
 16 C       -5.2570    -0.0220    -1.7540 C.ar  1 <1>   0.1600 
 17 C       -5.8780     1.1650     0.0320 C.ar  1 <1>   0.1600 
 18 N        1.0020     7.5430     0.6820 N.pl3 1 <1>  -0.8380 
 19 C        1.8020     6.4040    -1.2890 C.ar  1 <1>  -0.1500 
 20 N       -6.2080     0.2670    -0.8810 N.ar  1 <1>  -0.6200 
 21 C        1.0490     8.9210     0.1090 C.3   1 <1>   0.1290 
 22 C        0.6780     7.5280     2.1440 C.3   1 <1>   0.1290 
 23 H        1.5760     1.2460     1.6040 H     1 <1>   0.0800 
 24 H        0.9020    -0.2000     0.8530 H     1 <1>   0.0800 
 25 H       -2.0090    -0.1770     1.4450 H     1 <1>   0.0800 
 26 H       -2.2110     1.5300     1.8220 H     1 <1>   0.0800 
 27 H        0.7420     1.4240    -0.9460 H     1 <1>   0.0800 
 28 H       -1.2700     0.2310    -0.6570 H     1 <1>   0.0800 
 29 H       -0.1300     3.2320     1.2600 H     1 <1>   0.4000 
 30 H       -1.9710     2.3610    -1.7430 H     1 <1>   0.0800 
 31 H       -2.3370     3.0300    -0.1810 H     1 <1>   0.0800 
 32 H        1.4170     3.2260    -1.8900 H     1 <1>   0.4570 
 33 H       -3.2850     0.2400    -2.5080 H     1 <1>   0.1500 
 34 H       -4.4690     2.5050     0.8980 H     1 <1>   0.1500 
 35 H        2.4000     5.1870    -2.9450 H     1 <1>   0.1500 
 36 H       -5.5020    -0.7480    -2.5110 H     1 <1>   0.1500 
 37 H       -6.6360     1.4220     0.7530 H     1 <1>   0.1500 
 38 H        2.2160     7.3220    -1.6620 H     1 <1>   0.1500 
 39 H        0.3180     9.5460     0.5930 H     1 <1>   0.0800 
 40 H        0.8270     8.9070    -0.9430 H     1 <1>   0.0800 
 41 H        2.0260     9.3460     0.2640 H     1 <1>   0.0800 
 42 H        1.2220     8.3070     2.6500 H     1 <1>   0.0800 
 43 H        0.9510     6.5870     2.5900 H     1 <1>   0.0800 
 44 H       -0.3770     7.6860     2.2840 H     1 <1>   0.0800 
@<TRIPOS>BOND
  1   1   2  1   
  2   1   3  1   
  3   2   4  1   
  4   2  23  1   
  5   2  24  1   
  6   3   5  1   
  7   3  25  1   
  8   3  26  1   
  9   4   5  1   
 10   4   6  1   
 11   4  27  1   
 12   5   7  1   
 13   5  28  1   
 14   6   8  1   
 15   6  29  1   
 16   7   9  1   
 17   7  30  1   
 18   7  31  1   
 19   8  10  ar  
 20   8  11  ar  
 21   9  12  ar  
 22   9  13  ar  
 23  10  14  ar  
 24  11  15  ar  
 25  11  32  1   
 26  12  16  ar  
 27  12  33  1   
 28  13  17  ar  
 29  13  34  1   
 30  14  18  1   
 31  14  19  ar  
 32  15  19  ar  
 33  15  35  1   
 34  16  20  ar  
 35  16  36  1   
 36  17  20  ar  
 37  17  37  1   
 38  18  21  1   
 39  18  22  1   
 40  19  38  1   
 41  21  39  1   
 42  21  40  1   
 43  21  41  1   
 44  22  42  1   
 45  22  43  1   
 46  22  44  1   
@<TRIPOS>SUBSTRUCTURE
  1 ****   6 GROUP 4 **** **** 0

# MOE 2024.06 (io_trps.svl 2023.06)
