@<TRIPOS>MOLECULE
NONAME
49 51 1 0 0 
SMALL
USER_CHARGES


@<TRIPOS>ATOM
  1 O        1.1920     0.1460    -0.9450 O.2   1 <1>  -0.5700 
  2 C        2.0150    -0.6320    -0.4900 C.2   1 <1>   0.7150 
  3 N        3.3480    -0.3990    -0.7800 N.am  1 <1>  -0.6600 
  4 C        1.5620    -1.7450     0.3280 C.2   1 <1>   0.0550 
  5 C        4.4580    -1.3650    -0.5050 C.3   1 <1>   0.1400 
  6 C        3.8010     0.8730    -1.4040 C.3   1 <1>   0.1400 
  7 O        2.2930    -2.1930     1.3490 O.3   1 <1>  -0.2800 
  8 C        0.4130    -2.4840     0.2770 C.2   1 <1>  -0.1810 
  9 C        5.2790    -0.9710     0.7330 C.3   1 <1>   0.1400 
 10 C        4.0420     1.9500    -0.3370 C.3   1 <1>  -0.1600 
 11 C        1.6540    -3.1780     1.9370 C.2   1 <1>  -0.0100 
 12 C        0.4780    -3.4090     1.3200 C.2   1 <1>  -0.1500 
 13 C       -0.7580    -2.3820    -0.6850 C.3   1 <1>  -0.0590 
 14 N        5.7790     0.4400     0.6580 N.am  1 <1>  -0.6600 
 15 C        4.7350     1.4640     0.9460 C.3   1 <1>   0.1400 
 16 C        7.0790     0.7070     0.3160 C.2   1 <1>   0.5690 
 17 O        7.8380    -0.1780    -0.0040 O.2   1 <1>  -0.5700 
 18 C        7.5930     2.1450     0.3290 C.3   1 <1>  -0.0990 
 19 C        9.0610     2.2980    -0.1120 C.3   1 <1>  -0.1600 
 20 C        9.5260     3.7610    -0.0770 C.3   1 <1>   0.0210 
 21 C       10.9710     3.9150    -0.5210 C.2   1 <1>  -0.1810 
 22 C       11.6710     5.1170    -0.5880 C.2   1 <1>   0.1390 
 23 C       11.8610     2.9850    -0.9300 C.2   1 <1>  -0.3020 
 24 N       12.8910     4.9590    -1.0020 N.2   1 <1>  -0.7070 
 25 N       13.0070     3.6350    -1.2130 N.pl3 1 <1>   0.3000 
 26 H        5.1170    -1.4050    -1.3560 H     1 <1>   0.0800 
 27 H        4.0650    -2.3570    -0.3720 H     1 <1>   0.0800 
 28 H        3.0670     1.2190    -2.1120 H     1 <1>   0.0800 
 29 H        4.7140     0.6980    -1.9460 H     1 <1>   0.0800 
 30 H        6.1090    -1.6500     0.8260 H     1 <1>   0.0800 
 31 H        4.6750    -1.0910     1.6150 H     1 <1>   0.0800 
 32 H        3.0930     2.3770    -0.0660 H     1 <1>   0.0800 
 33 H        4.6190     2.7400    -0.7790 H     1 <1>   0.0800 
 34 H        2.1020    -3.6600     2.7880 H     1 <1>   0.1500 
 35 H       -0.2710    -4.1430     1.5590 H     1 <1>   0.1500 
 36 H       -0.5430    -1.6930    -1.4810 H     1 <1>   0.0800 
 37 H       -1.6310    -2.0380    -0.1610 H     1 <1>   0.0800 
 38 H       -0.9650    -3.3460    -1.1140 H     1 <1>   0.0800 
 39 H        3.9930     1.0300     1.5940 H     1 <1>   0.0800 
 40 H        5.1620     2.3000     1.4720 H     1 <1>   0.0800 
 41 H        7.4890     2.5250     1.3290 H     1 <1>   0.0800 
 42 H        6.9740     2.7300    -0.3240 H     1 <1>   0.0800 
 43 H        9.1710     1.9150    -1.1120 H     1 <1>   0.0800 
 44 H        9.6890     1.7110     0.5370 H     1 <1>   0.0800 
 45 H        9.4320     4.1440     0.9240 H     1 <1>   0.0800 
 46 H        8.9030     4.3520    -0.7240 H     1 <1>   0.0800 
 47 H       11.2580     6.0780    -0.3290 H     1 <1>   0.1500 
 48 H       11.7500     1.9210    -1.0330 H     1 <1>   0.1500 
 49 H       13.8780     3.2070    -1.5490 H     1 <1>   0.2700 
@<TRIPOS>BOND
  1   1   2  2   
  2   2   3  am  
  3   2   4  1   
  4   3   5  1   
  5   3   6  1   
  6   4   7  1   
  7   4   8  2   
  8   5   9  1   
  9   5  26  1   
 10   5  27  1   
 11   6  10  1   
 12   6  28  1   
 13   6  29  1   
 14   7  11  1   
 15   8  12  1   
 16   8  13  1   
 17   9  14  1   
 18   9  30  1   
 19   9  31  1   
 20  10  15  1   
 21  10  32  1   
 22  10  33  1   
 23  11  12  2   
 24  11  34  1   
 25  12  35  1   
 26  13  36  1   
 27  13  37  1   
 28  13  38  1   
 29  14  15  1   
 30  14  16  am  
 31  15  39  1   
 32  15  40  1   
 33  16  17  2   
 34  16  18  1   
 35  18  19  1   
 36  18  41  1   
 37  18  42  1   
 38  19  20  1   
 39  19  43  1   
 40  19  44  1   
 41  20  21  1   
 42  20  45  1   
 43  20  46  1   
 44  21  22  1   
 45  21  23  2   
 46  22  24  2   
 47  22  47  1   
 48  23  25  1   
 49  23  48  1   
 50  24  25  1   
 51  25  49  1   
@<TRIPOS>SUBSTRUCTURE
  1 ****  14 GROUP 4 **** **** 0

# MOE 2024.06 (io_trps.svl 2023.06)
