@<TRIPOS>MOLECULE
NONAME
55 56 1 0 0 
SMALL
USER_CHARGES


@<TRIPOS>ATOM
  1 S        0.4130     0.3450    -0.7370 S.o2  1 <1>   1.3330 
  2 O       -0.7960     1.1370    -0.7380 O.2   1 <1>  -0.6500 
  3 O        0.6180    -0.6550    -1.7620 O.2   1 <1>  -0.6500 
  4 N        0.5060    -0.4310     0.7720 N.am  1 <1>  -0.8490 
  5 C        1.8320     1.4440    -0.7420 C.3   1 <1>  -0.0550 
  6 C       -0.1180    -1.7580     0.7510 C.3   1 <1>   0.1160 
  7 C       -0.0610     0.3630     1.8690 C.3   1 <1>   0.1160 
  8 C        3.1950     0.7200    -0.7840 C.3   1 <1>  -0.0800 
  9 C        4.3940     1.6330    -0.9950 C.3   1 <1>   0.2200 
 10 C        3.5710    -0.0460     0.4920 C.3   1 <1>   0.1200 
 11 N        4.2790     2.8580    -0.1680 N.am  1 <1>  -0.7300 
 12 C        5.5050     0.7670    -0.4220 C.3   1 <1>   0.1200 
 13 O        4.9390     0.1660     0.7010 O.3   1 <1>  -0.5600 
 14 C        4.0290     4.1050    -0.6460 C.2   1 <1>   0.5690 
 15 O        3.7600     4.2840    -1.8100 O.2   1 <1>  -0.5700 
 16 C        4.0760     5.3040     0.3130 C.3   1 <1>   0.1710 
 17 N        5.4190     5.9020     0.5490 N.3   1 <1>  -0.8100 
 18 C        5.9870     6.4380    -0.7060 C.3   1 <1>   0.2530 
 19 C        6.3450     4.9790     1.2230 C.3   1 <1>   0.0300 
 20 C        7.2660     7.2280    -0.4530 C.ar  1 <1>  -0.1440 
 21 C        8.4290     6.9260    -1.1450 C.ar  1 <1>  -0.1500 
 22 C        7.2810     8.2630     0.4690 C.ar  1 <1>  -0.1500 
 23 C        9.5880     7.6480    -0.9170 C.ar  1 <1>  -0.1500 
 24 C        8.4400     8.9850     0.6970 C.ar  1 <1>  -0.1500 
 25 C        9.6010     8.6800     0.0060 C.ar  1 <1>  -0.1440 
 26 C       10.8710     9.4730     0.2550 C.3   1 <1>  -0.0970 
 27 H        1.7650     2.0710    -1.6100 H     1 <1>   0.0800 
 28 H        1.7860     2.0840     0.1160 H     1 <1>   0.0800 
 29 H       -0.0340    -2.2270     1.7160 H     1 <1>   0.0800 
 30 H        0.3760    -2.3870     0.0290 H     1 <1>   0.0800 
 31 H       -1.1590    -1.6780     0.4840 H     1 <1>   0.0800 
 32 H        0.1070    -0.1330     2.8100 H     1 <1>   0.0800 
 33 H       -1.1210     0.4980     1.7280 H     1 <1>   0.0800 
 34 H        0.4070     1.3320     1.9080 H     1 <1>   0.0800 
 35 H        3.1780     0.0120    -1.5940 H     1 <1>   0.0800 
 36 H        4.5560     1.8810    -2.0310 H     1 <1>   0.0800 
 37 H        3.3910    -1.1030     0.3890 H     1 <1>   0.0800 
 38 H        3.0500     0.3280     1.3550 H     1 <1>   0.0800 
 39 H        4.5270     2.7160     0.8140 H     1 <1>   0.3700 
 40 H        6.3750     1.3320    -0.1360 H     1 <1>   0.0800 
 41 H        5.7810    -0.0120    -1.1130 H     1 <1>   0.0800 
 42 H        3.6630     5.0020     1.2580 H     1 <1>   0.0800 
 43 H        3.4280     6.0660    -0.0820 H     1 <1>   0.0800 
 44 H        6.1830     5.6320    -1.3910 H     1 <1>   0.0800 
 45 H        5.2700     7.0960    -1.1670 H     1 <1>   0.0800 
 46 H        7.2400     5.5040     1.5140 H     1 <1>   0.0800 
 47 H        6.6200     4.1690     0.5680 H     1 <1>   0.0800 
 48 H        5.8890     4.5820     2.1130 H     1 <1>   0.0800 
 49 H        8.4370     6.1270    -1.8660 H     1 <1>   0.1500 
 50 H        6.3830     8.4990     1.0130 H     1 <1>   0.1500 
 51 H       10.4810     7.4020    -1.4640 H     1 <1>   0.1500 
 52 H        8.4300     9.7840     1.4170 H     1 <1>   0.1500 
 53 H       11.7370     8.8610     0.0780 H     1 <1>   0.0800 
 54 H       10.9030     9.8190     1.2720 H     1 <1>   0.0800 
 55 H       10.9030    10.3220    -0.4030 H     1 <1>   0.0800 
@<TRIPOS>BOND
  1   1   2  2   
  2   1   3  2   
  3   1   4  am  
  4   1   5  1   
  5   4   6  1   
  6   4   7  1   
  7   5   8  1   
  8   5  27  1   
  9   5  28  1   
 10   6  29  1   
 11   6  30  1   
 12   6  31  1   
 13   7  32  1   
 14   7  33  1   
 15   7  34  1   
 16   8   9  1   
 17   8  10  1   
 18   8  35  1   
 19   9  11  1   
 20   9  12  1   
 21   9  36  1   
 22  10  13  1   
 23  10  37  1   
 24  10  38  1   
 25  11  14  am  
 26  11  39  1   
 27  12  13  1   
 28  12  40  1   
 29  12  41  1   
 30  14  15  2   
 31  14  16  1   
 32  16  17  1   
 33  16  42  1   
 34  16  43  1   
 35  17  18  1   
 36  17  19  1   
 37  18  20  1   
 38  18  44  1   
 39  18  45  1   
 40  19  46  1   
 41  19  47  1   
 42  19  48  1   
 43  20  21  ar  
 44  20  22  ar  
 45  21  23  ar  
 46  21  49  1   
 47  22  24  ar  
 48  22  50  1   
 49  23  25  ar  
 50  23  51  1   
 51  24  25  ar  
 52  24  52  1   
 53  25  26  1   
 54  26  53  1   
 55  26  54  1   
 56  26  55  1   
@<TRIPOS>SUBSTRUCTURE
  1 ****  11 GROUP 4 **** **** 0

# MOE 2024.06 (io_trps.svl 2023.06)
