@<TRIPOS>MOLECULE
NONAME
51 53 1 0 0 
SMALL
USER_CHARGES


@<TRIPOS>ATOM
  1 O        3.0380    -0.8220     2.3790 O.2   1 <1>  -0.5700 
  2 C        2.1060    -1.0510     1.6470 C.2   1 <1>   0.5690 
  3 N        1.5500    -0.1450     0.7900 N.am  1 <1>  -0.5470 
  4 C        1.4880    -2.4500     1.6480 C.3   1 <1>   0.1710 
  5 C        1.8360     1.1960     0.4940 C.ar  1 <1>   0.1170 
  6 N        0.7780    -2.8040     0.3800 N.3   1 <1>  -0.8100 
  7 C        2.6340     2.0010     1.2980 C.ar  1 <1>  -0.1500 
  8 C        1.2870     1.7480    -0.6540 C.ar  1 <1>  -0.1500 
  9 C        1.7060    -3.0300    -0.7380 C.3   1 <1>   0.1100 
 10 C        0.0250    -4.0600     0.5120 C.3   1 <1>   0.1100 
 11 C        2.8820     3.3220     0.9660 C.ar  1 <1>   0.0830 
 12 C        1.5240     3.0660    -1.0020 C.ar  1 <1>   0.0830 
 13 C        0.8770    -3.8100    -1.7500 C.3   1 <1>   0.2000 
 14 C        0.0280    -4.7330    -0.8750 C.3   1 <1>  -0.0800 
 15 O        3.6740     4.0240     1.8180 O.3   1 <1>  -0.3630 
 16 C        2.3260     3.8610    -0.1900 C.ar  1 <1>  -0.1500 
 17 O        0.9380     3.5030    -2.1460 O.3   1 <1>  -0.3630 
 18 O        0.0240    -2.9200    -2.3730 O.3   1 <1>  -0.6800 
 19 C        0.6130    -6.1570    -0.8350 C.3   1 <1>  -0.0170 
 20 C        4.0170     5.3690     1.5690 C.3   1 <1>   0.0400 
 21 C        1.1260     4.8210    -2.6120 C.3   1 <1>   0.0400 
 22 C       -0.2190    -7.0870     0.0330 C.ar  1 <1>   0.1670 
 23 N        0.1930    -7.2640     1.2790 N.ar  1 <1>  -0.6200 
 24 C       -1.3530    -7.7000    -0.4970 C.ar  1 <1>   0.1600 
 25 C       -0.5960    -8.0870     1.9500 C.ar  1 <1>   0.1600 
 26 N       -2.1440    -8.5190     0.1750 N.ar  1 <1>  -0.6200 
 27 C       -1.7260    -8.6940     1.4160 C.ar  1 <1>   0.1600 
 28 H        0.8280    -0.5850     0.2140 H     1 <1>   0.3700 
 29 H        0.7870    -2.4860     2.4630 H     1 <1>   0.0800 
 30 H        2.2630    -3.1680     1.8500 H     1 <1>   0.0800 
 31 H        3.0720     1.6090     2.1960 H     1 <1>   0.1500 
 32 H        0.6670     1.1520    -1.2950 H     1 <1>   0.1500 
 33 H        2.0780    -2.1070    -1.1530 H     1 <1>   0.0800 
 34 H        2.5360    -3.6350    -0.4150 H     1 <1>   0.0800 
 35 H        0.5010    -4.6970     1.2400 H     1 <1>   0.0800 
 36 H       -0.9800    -3.8550     0.8410 H     1 <1>   0.0800 
 37 H        1.4640    -4.3110    -2.5010 H     1 <1>   0.0800 
 38 H       -0.9780    -4.7920    -1.2560 H     1 <1>   0.0800 
 39 H        2.5130     4.8810    -0.4510 H     1 <1>   0.1500 
 40 H       -0.3970    -2.3890    -1.6650 H     1 <1>   0.4000 
 41 H        1.6220    -6.1320    -0.4620 H     1 <1>   0.0800 
 42 H        0.6490    -6.5540    -1.8340 H     1 <1>   0.0800 
 43 H        4.6540     5.7030     2.3680 H     1 <1>   0.0800 
 44 H        3.1190     5.9600     1.5480 H     1 <1>   0.0800 
 45 H        4.5440     5.4280     0.6340 H     1 <1>   0.0800 
 46 H        0.5780     4.9300    -3.5310 H     1 <1>   0.0800 
 47 H        2.1740     4.9810    -2.7910 H     1 <1>   0.0800 
 48 H        0.7470     5.5080    -1.8770 H     1 <1>   0.0800 
 49 H       -1.6180    -7.5020    -1.5200 H     1 <1>   0.1500 
 50 H       -0.3350    -8.2930     2.9740 H     1 <1>   0.1500 
 51 H       -2.3060    -9.3490     2.0420 H     1 <1>   0.1500 
@<TRIPOS>BOND
  1   1   2  2   
  2   2   3  am  
  3   2   4  1   
  4   3   5  1   
  5   3  28  1   
  6   4   6  1   
  7   4  29  1   
  8   4  30  1   
  9   5   7  ar  
 10   5   8  ar  
 11   6   9  1   
 12   6  10  1   
 13   7  11  ar  
 14   7  31  1   
 15   8  12  ar  
 16   8  32  1   
 17   9  13  1   
 18   9  33  1   
 19   9  34  1   
 20  10  14  1   
 21  10  35  1   
 22  10  36  1   
 23  11  15  1   
 24  11  16  ar  
 25  12  16  ar  
 26  12  17  1   
 27  13  14  1   
 28  13  18  1   
 29  13  37  1   
 30  14  19  1   
 31  14  38  1   
 32  15  20  1   
 33  16  39  1   
 34  17  21  1   
 35  18  40  1   
 36  19  22  1   
 37  19  41  1   
 38  19  42  1   
 39  20  43  1   
 40  20  44  1   
 41  20  45  1   
 42  21  46  1   
 43  21  47  1   
 44  21  48  1   
 45  22  23  ar  
 46  22  24  ar  
 47  23  25  ar  
 48  24  26  ar  
 49  24  49  1   
 50  25  27  ar  
 51  25  50  1   
 52  26  27  ar  
 53  27  51  1   
@<TRIPOS>SUBSTRUCTURE
  1 ****   6 GROUP 4 **** **** 0

# MOE 2024.06 (io_trps.svl 2023.06)
