@<TRIPOS>MOLECULE
NONAME
51 53 1 0 0 
SMALL
USER_CHARGES


@<TRIPOS>ATOM
  1 F        0.1460     1.3350     1.2160 F     1 <1>  -0.1900 
  2 C        1.3490     1.2280     0.7080 C.ar  1 <1>   0.1900 
  3 C        1.9870     2.3460     0.1980 C.ar  1 <1>   0.1900 
  4 C        1.9550    -0.0150     0.6860 C.ar  1 <1>  -0.1440 
  5 F        1.3960     3.5130     0.2250 F     1 <1>  -0.1900 
  6 C        3.2520     2.2480    -0.3490 C.ar  1 <1>  -0.1500 
  7 C        3.2260    -0.1240     0.1290 C.ar  1 <1>   0.0820 
  8 C        1.2420    -1.2180     1.2620 C.3   1 <1>   0.4860 
  9 C        3.8710     1.0070    -0.3820 C.ar  1 <1>  -0.1500 
 10 O        3.7790    -1.3630     0.1100 O.3   1 <1>  -0.3630 
 11 N        0.5660    -1.9330     0.1540 N.4   1 <1>  -0.9590 
 12 C        5.0090    -1.6160    -0.5390 C.3   1 <1>   0.0400 
 13 C        1.3310    -3.1970    -0.2170 C.3   1 <1>   0.3430 
 14 C       -0.8790    -2.1880     0.4770 C.3   1 <1>   0.3430 
 15 C        0.4700    -4.4810     0.0370 C.3   1 <1>  -0.1060 
 16 C       -1.5180    -3.0040    -0.6420 C.3   1 <1>  -0.1600 
 17 C       -0.4090    -5.6900     0.3410 C.2   1 <1>   0.9060 
 18 C       -0.4950    -4.0130    -1.1640 C.3   1 <1>   0.2000 
 19 C        1.4870    -4.9450     1.1840 C.3   1 <1>  -0.0170 
 20 O       -0.2820    -6.7440    -0.2940 O.co2 1 <1>  -0.9000 
 21 O       -1.2560    -5.5350     1.2280 O.co2 1 <1>  -0.9000 
 22 O       -1.1630    -4.9580    -1.9340 O.3   1 <1>  -0.6800 
 23 C        2.8970    -5.2620     0.6740 C.ar  1 <1>  -0.1440 
 24 C        3.0690    -6.0680    -0.4410 C.ar  1 <1>  -0.1500 
 25 C        4.0130    -4.7540     1.3230 C.ar  1 <1>  -0.1500 
 26 C        4.3390    -6.3450    -0.9140 C.ar  1 <1>  -0.1500 
 27 C        5.2850    -5.0360     0.8540 C.ar  1 <1>  -0.1500 
 28 C        5.4480    -5.8280    -0.2690 C.ar  1 <1>  -0.1500 
 29 H        3.7390     3.1260    -0.7390 H     1 <1>   0.1500 
 30 H        0.5200    -0.8930     1.9930 H     1 <1>   0.0800 
 31 H        1.9510    -1.8660     1.7520 H     1 <1>   0.0800 
 32 H        4.8560     0.9440    -0.8080 H     1 <1>   0.1500 
 33 H        0.6020    -1.3050    -0.6570 H     1 <1>   0.4500 
 34 H        5.2000    -2.6730    -0.5010 H     1 <1>   0.0800 
 35 H        5.7930    -1.0860    -0.0260 H     1 <1>   0.0800 
 36 H        4.9400    -1.3010    -1.5660 H     1 <1>   0.0800 
 37 H        1.6430    -3.1560    -1.2470 H     1 <1>   0.0800 
 38 H        2.2580    -3.1750     0.3290 H     1 <1>   0.0800 
 39 H       -0.9440    -2.7650     1.3880 H     1 <1>   0.0800 
 40 H       -1.4150    -1.2630     0.6200 H     1 <1>   0.0800 
 41 H       -1.8460    -2.3630    -1.4400 H     1 <1>   0.0800 
 42 H       -2.3740    -3.5200    -0.2410 H     1 <1>   0.0800 
 43 H        0.0430    -3.5030    -1.9470 H     1 <1>   0.0800 
 44 H        1.5340    -4.1900     1.9510 H     1 <1>   0.0800 
 45 H        1.2290    -5.8280     1.7580 H     1 <1>   0.0800 
 46 H       -1.0340    -5.8600    -1.5080 H     1 <1>   0.4000 
 47 H        2.2120    -6.4950    -0.9400 H     1 <1>   0.1500 
 48 H        3.9030    -4.1430     2.2010 H     1 <1>   0.1500 
 49 H        4.4600    -6.9730    -1.7800 H     1 <1>   0.1500 
 50 H        6.1470    -4.6460     1.3660 H     1 <1>   0.1500 
 51 H        6.4360    -6.0510    -0.6350 H     1 <1>   0.1500 
@<TRIPOS>BOND
  1   1   2  1   
  2   2   3  ar  
  3   2   4  ar  
  4   3   5  1   
  5   3   6  ar  
  6   4   7  ar  
  7   4   8  1   
  8   6   9  ar  
  9   6  29  1   
 10   7   9  ar  
 11   7  10  1   
 12   8  11  1   
 13   8  30  1   
 14   8  31  1   
 15   9  32  1   
 16  10  12  1   
 17  11  13  1   
 18  11  14  1   
 19  11  33  1   
 20  12  34  1   
 21  12  35  1   
 22  12  36  1   
 23  13  15  1   
 24  13  37  1   
 25  13  38  1   
 26  14  16  1   
 27  14  39  1   
 28  14  40  1   
 29  15  17  1   
 30  15  18  1   
 31  15  19  1   
 32  16  18  1   
 33  16  41  1   
 34  16  42  1   
 35  17  20  ar  
 36  17  21  ar  
 37  18  22  1   
 38  18  43  1   
 39  19  23  1   
 40  19  44  1   
 41  19  45  1   
 42  22  46  1   
 43  23  24  ar  
 44  23  25  ar  
 45  24  26  ar  
 46  24  47  1   
 47  25  27  ar  
 48  25  48  1   
 49  26  28  ar  
 50  26  49  1   
 51  27  28  ar  
 52  27  50  1   
 53  28  51  1   
@<TRIPOS>SUBSTRUCTURE
  1 ****  13 GROUP 4 **** **** 0

# MOE 2024.06 (io_trps.svl 2023.06)
