@<TRIPOS>MOLECULE
NONAME
50 52 1 0 0 
SMALL
USER_CHARGES


@<TRIPOS>ATOM
  1 S        0.2600    -0.0690     0.5200 S.3   1 <1>  -0.0800 
  2 C       -1.0600     1.0920     0.5190 C.2   1 <1>  -0.1400 
  3 C       -0.8560    -1.4120     0.3810 C.2   1 <1>  -0.1100 
  4 C       -2.2460     0.4570     0.4190 C.2   1 <1>  -0.1810 
  5 C       -0.6680     2.5550     0.6290 C.3   1 <1>   0.0200 
  6 C       -2.1250    -0.9680     0.3410 C.2   1 <1>  -0.1500 
  7 C       -3.6280     1.0850     0.3810 C.3   1 <1>  -0.0590 
  8 C        0.0080     3.0290    -0.6570 C.3   1 <1>   0.1400 
  9 N        0.2550     4.4880    -0.5910 N.am  1 <1>  -0.7300 
 10 C        1.4440     5.1130    -0.3740 C.2   1 <1>   0.7160 
 11 O        2.4360     4.4270    -0.2250 O.2   1 <1>  -0.5700 
 12 C        1.5030     6.5440    -0.3200 C.2   1 <1>  -0.0860 
 13 C        0.4040     7.4130    -0.2550 C.2   1 <1>   0.3720 
 14 C        2.5680     7.3950    -0.2970 C.2   1 <1>   0.0870 
 15 N        0.7800     8.6410    -0.1900 N.2   1 <1>  -0.4100 
 16 N       -0.9490     7.0360    -0.2390 N.pl3 1 <1>  -0.8210 
 17 O        2.0840     8.6090    -0.2140 O.3   1 <1>  -0.0190 
 18 C        3.9970     7.2130    -0.3530 C.ar  1 <1>   0.0530 
 19 C       -1.5390     7.1220     1.1250 C.3   1 <1>   0.1290 
 20 C       -1.7790     7.7770    -1.2310 C.3   1 <1>   0.1290 
 21 C        4.8390     7.9860     0.4480 C.ar  1 <1>  -0.1500 
 22 C        4.5890     6.2850    -1.2120 C.ar  1 <1>  -0.1500 
 23 C        6.2180     7.8540     0.4220 C.ar  1 <1>   0.0830 
 24 C        5.9610     6.1270    -1.2630 C.ar  1 <1>  -0.1500 
 25 O        6.9000     8.6800     1.2680 O.3   1 <1>  -0.3630 
 26 C        6.7630     6.9070    -0.4520 C.ar  1 <1>   0.1900 
 27 C        8.3030     8.6520     1.4050 C.3   1 <1>   0.0400 
 28 F        8.0530     6.7120    -0.5490 F     1 <1>  -0.1900 
 29 H       -0.4380    -2.4010     0.3450 H     1 <1>   0.1500 
 30 H        0.0080     2.6780     1.4570 H     1 <1>   0.0800 
 31 H       -1.5420     3.1490     0.8130 H     1 <1>   0.0800 
 32 H       -2.9960    -1.5940     0.2580 H     1 <1>   0.1500 
 33 H       -3.5700     2.1560     0.4220 H     1 <1>   0.0800 
 34 H       -4.2060     0.7400     1.2200 H     1 <1>   0.0800 
 35 H       -4.1300     0.8040    -0.5260 H     1 <1>   0.0800 
 36 H       -0.6250     2.8150    -1.5010 H     1 <1>   0.0800 
 37 H        0.9390     2.5040    -0.7930 H     1 <1>   0.0800 
 38 H       -0.5600     5.1190    -0.6260 H     1 <1>   0.3700 
 39 H       -0.9350     6.5650     1.8210 H     1 <1>   0.0800 
 40 H       -2.5340     6.7120     1.1250 H     1 <1>   0.0800 
 41 H       -1.5780     8.1490     1.4470 H     1 <1>   0.0800 
 42 H       -1.2920     7.7710    -2.1920 H     1 <1>   0.0800 
 43 H       -1.9090     8.8000    -0.9190 H     1 <1>   0.0800 
 44 H       -2.7430     7.3100    -1.3290 H     1 <1>   0.0800 
 45 H        4.4080     8.7110     1.1150 H     1 <1>   0.1500 
 46 H        3.9660     5.6790    -1.8460 H     1 <1>   0.1500 
 47 H        6.4070     5.4050    -1.9240 H     1 <1>   0.1500 
 48 H        8.5810     9.3780     2.1470 H     1 <1>   0.0800 
 49 H        8.7530     8.9050     0.4610 H     1 <1>   0.0800 
 50 H        8.6050     7.6700     1.7260 H     1 <1>   0.0800 
@<TRIPOS>BOND
  1   1   2  1   
  2   1   3  1   
  3   2   4  2   
  4   2   5  1   
  5   3   6  2   
  6   3  29  1   
  7   4   6  1   
  8   4   7  1   
  9   5   8  1   
 10   5  30  1   
 11   5  31  1   
 12   6  32  1   
 13   7  33  1   
 14   7  34  1   
 15   7  35  1   
 16   8   9  1   
 17   8  36  1   
 18   8  37  1   
 19   9  10  am  
 20   9  38  1   
 21  10  11  2   
 22  10  12  1   
 23  12  13  1   
 24  12  14  2   
 25  13  15  2   
 26  13  16  1   
 27  14  17  1   
 28  14  18  1   
 29  15  17  1   
 30  16  19  1   
 31  16  20  1   
 32  18  21  ar  
 33  18  22  ar  
 34  19  39  1   
 35  19  40  1   
 36  19  41  1   
 37  20  42  1   
 38  20  43  1   
 39  20  44  1   
 40  21  23  ar  
 41  21  45  1   
 42  22  24  ar  
 43  22  46  1   
 44  23  25  1   
 45  23  26  ar  
 46  24  26  ar  
 47  24  47  1   
 48  25  27  1   
 49  26  28  1   
 50  27  48  1   
 51  27  49  1   
 52  27  50  1   
@<TRIPOS>SUBSTRUCTURE
  1 ****  10 GROUP 4 **** **** 0

# MOE 2024.06 (io_trps.svl 2023.06)
