@<TRIPOS>MOLECULE
NONAME
47 51 1 0 0 
SMALL
USER_CHARGES


@<TRIPOS>ATOM
  1 S        1.1630     1.1910    -2.6500 S.3   1 <1>  -0.0800 
  2 C        0.7350     2.3460    -1.4050 C.2   1 <1>  -0.1400 
  3 C        2.8520     1.6620    -2.5330 C.2   1 <1>  -0.1100 
  4 C        1.8040     3.0090    -0.9490 C.2   1 <1>  -0.1810 
  5 C       -0.6800     2.5440    -0.9320 C.3   1 <1>   0.0200 
  6 C        3.0230     2.6220    -1.6020 C.2   1 <1>  -0.1500 
  7 C        1.6700     4.0610     0.1550 C.3   1 <1>   0.4610 
  8 C       -0.7290     3.8940    -0.1990 C.3   1 <1>   0.1200 
  9 O        0.3560     4.0350     0.6870 O.3   1 <1>  -0.5600 
 10 C        2.6060     3.7300     1.3230 C.3   1 <1>  -0.1600 
 11 C        1.9630     5.4670    -0.3880 C.3   1 <1>  -0.1600 
 12 C        2.5590     4.8040     2.4110 C.3   1 <1>   0.1400 
 13 C        1.9250     6.5200     0.7200 C.3   1 <1>   0.1400 
 14 N        2.8710     6.1240     1.7980 N.am  1 <1>  -0.6600 
 15 C        3.9580     6.8810     2.1930 C.2   1 <1>   0.5440 
 16 O        4.6100     6.5210     3.1560 O.2   1 <1>  -0.5700 
 17 C        4.3190     8.1150     1.5300 C.ar  1 <1>   0.0860 
 18 C        4.8480     8.1420     0.2370 C.ar  1 <1>   0.0830 
 19 C        4.1450     9.3330     2.1900 C.ar  1 <1>  -0.1500 
 20 O        5.0700     6.9750    -0.4200 O.3   1 <1>  -0.3630 
 21 C        5.1560     9.3590    -0.3760 C.ar  1 <1>   0.0830 
 22 C        4.4630    10.5370     1.5880 C.ar  1 <1>  -0.1500 
 23 C        5.9030     7.0080    -1.5610 C.3   1 <1>   0.1200 
 24 O        5.6420     9.4100    -1.6430 O.3   1 <1>  -0.3630 
 25 C        4.9680    10.5500     0.2990 C.ar  1 <1>  -0.1500 
 26 C        5.5620     8.2300    -2.4200 C.3   1 <1>   0.1200 
 27 H        3.5480     1.1620    -3.1820 H     1 <1>   0.1500 
 28 H       -0.9590     1.7470    -0.2660 H     1 <1>   0.0800 
 29 H       -1.3580     2.5550    -1.7650 H     1 <1>   0.0800 
 30 H        3.9630     3.0760    -1.3430 H     1 <1>   0.1500 
 31 H       -1.6350     3.9710     0.3760 H     1 <1>   0.0800 
 32 H       -0.7010     4.7050    -0.9050 H     1 <1>   0.0800 
 33 H        3.6180     3.6560     0.9710 H     1 <1>   0.0800 
 34 H        2.3340     2.7770     1.7370 H     1 <1>   0.0800 
 35 H        1.2670     5.7190    -1.1640 H     1 <1>   0.0800 
 36 H        2.9420     5.4710    -0.8290 H     1 <1>   0.0800 
 37 H        3.2650     4.5620     3.1860 H     1 <1>   0.0800 
 38 H        1.5780     4.8420     2.8530 H     1 <1>   0.0800 
 39 H        0.9320     6.5800     1.1330 H     1 <1>   0.0800 
 40 H        2.1760     7.4840     0.3160 H     1 <1>   0.0800 
 41 H        3.7560     9.3220     3.1940 H     1 <1>   0.1500 
 42 H        4.3210    11.4620     2.1190 H     1 <1>   0.1500 
 43 H        5.7520     6.0970    -2.1100 H     1 <1>   0.0800 
 44 H        6.9250     7.0560    -1.2280 H     1 <1>   0.0800 
 45 H        5.2170    11.4790    -0.1830 H     1 <1>   0.1500 
 46 H        4.5600     8.1500    -2.8050 H     1 <1>   0.0800 
 47 H        6.2490     8.3260    -3.2410 H     1 <1>   0.0800 
@<TRIPOS>BOND
  1   1   2  1   
  2   1   3  1   
  3   2   4  2   
  4   2   5  1   
  5   3   6  2   
  6   3  27  1   
  7   4   6  1   
  8   4   7  1   
  9   5   8  1   
 10   5  28  1   
 11   5  29  1   
 12   6  30  1   
 13   7   9  1   
 14   7  10  1   
 15   7  11  1   
 16   8   9  1   
 17   8  31  1   
 18   8  32  1   
 19  10  12  1   
 20  10  33  1   
 21  10  34  1   
 22  11  13  1   
 23  11  35  1   
 24  11  36  1   
 25  12  14  1   
 26  12  37  1   
 27  12  38  1   
 28  13  14  1   
 29  13  39  1   
 30  13  40  1   
 31  14  15  am  
 32  15  16  2   
 33  15  17  1   
 34  17  18  ar  
 35  17  19  ar  
 36  18  20  1   
 37  18  21  ar  
 38  19  22  ar  
 39  19  41  1   
 40  20  23  1   
 41  21  24  1   
 42  21  25  ar  
 43  22  25  ar  
 44  22  42  1   
 45  23  26  1   
 46  23  43  1   
 47  23  44  1   
 48  24  26  1   
 49  25  45  1   
 50  26  46  1   
 51  26  47  1   
@<TRIPOS>SUBSTRUCTURE
  1 ****  11 GROUP 4 **** **** 0

# MOE 2024.06 (io_trps.svl 2023.06)
