@<TRIPOS>MOLECULE
NONAME
52 56 1 0 0 
SMALL
USER_CHARGES


@<TRIPOS>ATOM
  1 F       -4.0630    -2.1500    -2.7800 F     1 <1>  -0.1900 
  2 C       -4.5510    -1.2650    -1.9560 C.ar  1 <1>   0.1900 
  3 C       -5.3540    -0.2580    -2.4550 C.ar  1 <1>  -0.1500 
  4 C       -4.2470    -1.3630    -0.6120 C.ar  1 <1>  -0.1500 
  5 C       -5.8790     0.6680    -1.5710 C.ar  1 <1>  -0.1500 
  6 C       -4.7800    -0.4280     0.2590 C.ar  1 <1>  -0.1500 
  7 C       -5.6230     0.5870    -0.2000 C.ar  1 <1>   0.0540 
  8 C       -6.2470     1.5240     0.7080 C.2   1 <1>   0.2350 
  9 N       -6.1630     2.8190     0.5730 N.2   1 <1>  -0.7070 
 10 C       -7.0470     1.1950     1.8100 C.2   1 <1>  -0.1810 
 11 N       -6.8630     3.3400     1.5910 N.pl3 1 <1>   0.3000 
 12 C       -7.4160     2.3750     2.3520 C.2   1 <1>  -0.3020 
 13 C       -7.4120    -0.2030     2.2580 C.3   1 <1>   0.5240 
 14 N       -8.6730    -0.6070     1.5840 N.4   1 <1>  -0.9590 
 15 C       -8.4800    -0.7680     0.0970 C.3   1 <1>   0.3430 
 16 C       -9.2420    -1.8600     2.1870 C.3   1 <1>   0.3430 
 17 C       -9.7430    -1.2830    -0.6190 C.3   1 <1>   0.1900 
 18 C      -10.4980    -2.3510     1.4390 C.3   1 <1>   0.1100 
 19 N      -10.2210    -2.5460    -0.0010 N.3   1 <1>  -0.8100 
 20 C       -9.4400    -1.4850    -2.1140 C.3   1 <1>   0.1200 
 21 C      -11.3780    -3.0940    -0.7650 C.3   1 <1>   0.2850 
 22 O      -10.5860    -1.9350    -2.7620 O.3   1 <1>  -0.5600 
 23 C      -11.7850    -4.4690    -0.1880 C.3   1 <1>  -0.1950 
 24 C      -11.0450    -3.1670    -2.2770 C.3   1 <1>   0.1200 
 25 C      -10.8890    -5.6680    -0.2720 C.3   1 <1>  -0.2000 
 26 C      -12.1910    -5.6530    -1.0190 C.3   1 <1>  -0.2000 
 27 H       -5.5510    -0.2000    -3.5120 H     1 <1>   0.1500 
 28 H       -3.5980    -2.1490    -0.2670 H     1 <1>   0.1500 
 29 H       -6.4900     1.4750    -1.9400 H     1 <1>   0.1500 
 30 H       -4.5250    -0.4780     1.3030 H     1 <1>   0.1500 
 31 H       -6.9440     4.3570     1.7360 H     1 <1>   0.2700 
 32 H       -8.0230     2.5990     3.2120 H     1 <1>   0.1500 
 33 H       -7.5530    -0.2000     3.3260 H     1 <1>   0.0800 
 34 H       -6.6200    -0.8950     2.0210 H     1 <1>   0.0800 
 35 H       -9.3420     0.1600     1.7220 H     1 <1>   0.4500 
 36 H       -8.2050     0.1780    -0.3380 H     1 <1>   0.0800 
 37 H       -7.6790    -1.4640    -0.0930 H     1 <1>   0.0800 
 38 H       -8.5070    -2.6470     2.1480 H     1 <1>   0.0800 
 39 H       -9.4930    -1.6910     3.2220 H     1 <1>   0.0800 
 40 H      -10.5100    -0.5310    -0.5430 H     1 <1>   0.0800 
 41 H      -11.3060    -1.6510     1.5700 H     1 <1>   0.0800 
 42 H      -10.7940    -3.2850     1.8830 H     1 <1>   0.0800 
 43 H       -8.6540    -2.2050    -2.2610 H     1 <1>   0.0800 
 44 H       -9.1550    -0.5550    -2.5750 H     1 <1>   0.0800 
 45 H      -12.2210    -2.4300    -0.6640 H     1 <1>   0.0800 
 46 H      -12.3710    -4.3500     0.7060 H     1 <1>   0.1000 
 47 H      -11.9270    -3.4240    -2.8360 H     1 <1>   0.0800 
 48 H      -10.2900    -3.9100    -2.4660 H     1 <1>   0.0800 
 49 H       -9.9700    -5.5980    -0.8290 H     1 <1>   0.1000 
 50 H      -10.7950    -6.3060     0.5900 H     1 <1>   0.1000 
 51 H      -12.9880    -6.2830    -0.6620 H     1 <1>   0.1000 
 52 H      -12.1450    -5.6400    -2.0940 H     1 <1>   0.1000 
@<TRIPOS>BOND
  1   1   2  1   
  2   2   3  ar  
  3   2   4  ar  
  4   3   5  ar  
  5   3  27  1   
  6   4   6  ar  
  7   4  28  1   
  8   5   7  ar  
  9   5  29  1   
 10   6   7  ar  
 11   6  30  1   
 12   7   8  1   
 13   8   9  2   
 14   8  10  1   
 15   9  11  1   
 16  10  12  2   
 17  10  13  1   
 18  11  12  1   
 19  11  31  1   
 20  12  32  1   
 21  13  14  1   
 22  13  33  1   
 23  13  34  1   
 24  14  15  1   
 25  14  16  1   
 26  14  35  1   
 27  15  17  1   
 28  15  36  1   
 29  15  37  1   
 30  16  18  1   
 31  16  38  1   
 32  16  39  1   
 33  17  19  1   
 34  17  20  1   
 35  17  40  1   
 36  18  19  1   
 37  18  41  1   
 38  18  42  1   
 39  19  21  1   
 40  20  22  1   
 41  20  43  1   
 42  20  44  1   
 43  21  23  1   
 44  21  24  1   
 45  21  45  1   
 46  22  24  1   
 47  23  25  1   
 48  23  26  1   
 49  23  46  1   
 50  24  47  1   
 51  24  48  1   
 52  25  26  1   
 53  25  49  1   
 54  25  50  1   
 55  26  51  1   
 56  26  52  1   
@<TRIPOS>SUBSTRUCTURE
  1 ****  15 GROUP 4 **** **** 0

# MOE 2024.06 (io_trps.svl 2023.06)
