@<TRIPOS>MOLECULE
NONAME
54 56 1 0 0 
SMALL
USER_CHARGES


@<TRIPOS>ATOM
  1 CL      -0.1760     0.7700     0.9110 Cl    1 <1>  -0.1770 
  2 C        1.4230     1.2260     0.3500 C.ar  1 <1>   0.1770 
  3 C        2.3590     0.2480    -0.0070 C.ar  1 <1>   0.1000 
  4 C        1.7010     2.5740     0.2690 C.ar  1 <1>  -0.1500 
  5 N        2.0820    -1.1200     0.0710 N.pl3 1 <1>  -0.8380 
  6 C        3.6000     0.7070    -0.4420 C.ar  1 <1>  -0.1500 
  7 C        2.9400     3.0320    -0.1800 C.ar  1 <1>   0.0860 
  8 C        1.8140    -1.7460     1.3870 C.3   1 <1>   0.2090 
  9 C        2.5900    -2.1290    -0.8930 C.3   1 <1>   0.2090 
 10 C        3.8820     2.0580    -0.5250 C.ar  1 <1>  -0.1500 
 11 C        3.2170     4.4530    -0.2770 C.2   1 <1>   0.5440 
 12 C        2.4300    -3.1360     1.2910 C.3   1 <1>  -0.1600 
 13 C        2.3840    -3.4680    -0.1970 C.3   1 <1>  -0.1600 
 14 O        2.5990     5.2590     0.3910 O.2   1 <1>  -0.5700 
 15 N        4.1730     4.9380    -1.1320 N.am  1 <1>  -0.7300 
 16 C        4.3740     6.3800    -1.4070 C.3   1 <1>   0.1400 
 17 C        5.1410     7.0380    -0.2490 C.3   1 <1>  -0.0800 
 18 C        5.2740     8.5520    -0.4180 C.3   1 <1>   0.3430 
 19 C        6.5700     6.5180    -0.0730 C.3   1 <1>  -0.1600 
 20 N        6.7280     8.8640    -0.2820 N.4   1 <1>  -0.9590 
 21 C        7.3410     7.7190     0.4410 C.3   1 <1>   0.3430 
 22 C        6.9550    10.1910     0.3820 C.3   1 <1>   0.3430 
 23 C        8.4290    10.6130     0.3830 C.3   1 <1>   0.1200 
 24 O        8.4960    11.8640     0.9800 O.3   1 <1>  -0.5600 
 25 C        9.7790    12.4040     1.0490 C.3   1 <1>   0.0400 
 26 H        0.9450     3.2830     0.5560 H     1 <1>   0.1500 
 27 H        4.3600    -0.0030    -0.7060 H     1 <1>   0.1500 
 28 H        0.7490    -1.8200     1.5280 H     1 <1>   0.0800 
 29 H        2.2460    -1.1710     2.1880 H     1 <1>   0.0800 
 30 H        3.6360    -1.9750    -1.0810 H     1 <1>   0.0800 
 31 H        2.0420    -2.0770    -1.8180 H     1 <1>   0.0800 
 32 H        4.8590     2.3580    -0.8560 H     1 <1>   0.1500 
 33 H        1.8950    -3.8510     1.8910 H     1 <1>   0.0800 
 34 H        3.4510    -3.0860     1.6260 H     1 <1>   0.0800 
 35 H        3.1300    -4.1880    -0.4820 H     1 <1>   0.0800 
 36 H        1.4110    -3.8480    -0.4560 H     1 <1>   0.0800 
 37 H        4.5690     4.2920    -1.8190 H     1 <1>   0.3700 
 38 H        3.4070     6.8460    -1.5130 H     1 <1>   0.0800 
 39 H        4.9080     6.4960    -2.3350 H     1 <1>   0.0800 
 40 H        4.5890     6.8780     0.6620 H     1 <1>   0.0800 
 41 H        4.7070     9.0440     0.3570 H     1 <1>   0.0800 
 42 H        4.9040     8.8730    -1.3780 H     1 <1>   0.0800 
 43 H        6.9870     6.2030    -1.0140 H     1 <1>   0.0800 
 44 H        6.6120     5.6930     0.6180 H     1 <1>   0.0800 
 45 H        7.1280     8.8910    -1.2300 H     1 <1>   0.4500 
 46 H        8.3970     7.6330     0.2440 H     1 <1>   0.0800 
 47 H        7.1770     7.8250     1.5020 H     1 <1>   0.0800 
 48 H        6.6070    10.1500     1.4010 H     1 <1>   0.0800 
 49 H        6.3920    10.9500    -0.1360 H     1 <1>   0.0800 
 50 H        8.8040    10.6970    -0.6220 H     1 <1>   0.0800 
 51 H        9.0290     9.9320     0.9600 H     1 <1>   0.0800 
 52 H        9.7120    13.3670     1.5260 H     1 <1>   0.0800 
 53 H       10.1730    12.5250     0.0540 H     1 <1>   0.0800 
 54 H       10.4120    11.7580     1.6320 H     1 <1>   0.0800 
@<TRIPOS>BOND
  1   1   2  1   
  2   2   3  ar  
  3   2   4  ar  
  4   3   5  1   
  5   3   6  ar  
  6   4   7  ar  
  7   4  26  1   
  8   5   8  1   
  9   5   9  1   
 10   6  10  ar  
 11   6  27  1   
 12   7  10  ar  
 13   7  11  1   
 14   8  12  1   
 15   8  28  1   
 16   8  29  1   
 17   9  13  1   
 18   9  30  1   
 19   9  31  1   
 20  10  32  1   
 21  11  14  2   
 22  11  15  am  
 23  12  13  1   
 24  12  33  1   
 25  12  34  1   
 26  13  35  1   
 27  13  36  1   
 28  15  16  1   
 29  15  37  1   
 30  16  17  1   
 31  16  38  1   
 32  16  39  1   
 33  17  18  1   
 34  17  19  1   
 35  17  40  1   
 36  18  20  1   
 37  18  41  1   
 38  18  42  1   
 39  19  21  1   
 40  19  43  1   
 41  19  44  1   
 42  20  21  1   
 43  20  22  1   
 44  20  45  1   
 45  21  46  1   
 46  21  47  1   
 47  22  23  1   
 48  22  48  1   
 49  22  49  1   
 50  23  24  1   
 51  23  50  1   
 52  23  51  1   
 53  24  25  1   
 54  25  52  1   
 55  25  53  1   
 56  25  54  1   
@<TRIPOS>SUBSTRUCTURE
  1 ****  11 GROUP 4 **** **** 0

# MOE 2024.06 (io_trps.svl 2023.06)
