@<TRIPOS>MOLECULE
NONAME
51 53 1 0 0 
SMALL
USER_CHARGES


@<TRIPOS>ATOM
  1 O       -0.4940     0.9870    -0.8590 O.2   1 <1>  -0.5700 
  2 C       -0.5380     2.1770    -0.6520 C.2   1 <1>   0.5690 
  3 N       -1.4630     2.7750     0.1680 N.am  1 <1>  -0.6600 
  4 C        0.4940     3.0520    -1.3560 C.3   1 <1>   0.1810 
  5 C       -1.4670     4.2670     0.3530 C.3   1 <1>   0.3640 
  6 C       -2.4580     2.0420     1.0000 C.3   1 <1>   0.2200 
  7 O        0.8340     4.1730    -0.5840 O.3   1 <1>  -0.5600 
  8 C       -2.7780     4.8380    -0.1930 C.ar  1 <1>  -0.1440 
  9 C       -0.2650     5.0200    -0.2860 C.3   1 <1>   0.2610 
 10 C       -1.7390     1.1890     2.0450 C.3   1 <1>  -0.2400 
 11 C       -3.4070     1.2100     0.1380 C.3   1 <1>  -0.2400 
 12 C       -3.4990     5.7560     0.5580 C.ar  1 <1>  -0.1500 
 13 C       -3.2640     4.4620    -1.4390 C.ar  1 <1>  -0.1500 
 14 C        0.1830     6.1530     0.6460 C.2   1 <1>   0.5690 
 15 C       -4.6850     6.2820     0.0780 C.ar  1 <1>  -0.1500 
 16 C       -4.4500     4.9870    -1.9210 C.ar  1 <1>  -0.1500 
 17 O       -0.5980     7.0190     0.9610 O.2   1 <1>  -0.5700 
 18 N        1.4600     6.1720     1.1040 N.am  1 <1>  -0.7300 
 19 C       -5.1620     5.8970    -1.1620 C.ar  1 <1>  -0.1500 
 20 C        2.0660     7.2570     1.9120 C.3   1 <1>   0.2840 
 21 C        2.8960     8.1710     1.0260 C.ar  1 <1>   0.1670 
 22 N        4.2130     8.0360     1.0690 N.ar  1 <1>  -0.6200 
 23 C        2.2420     9.0950     0.2160 C.ar  1 <1>   0.1600 
 24 C        4.8220     8.8840     0.2560 C.ar  1 <1>   0.1600 
 25 N        2.8540     9.9430    -0.5950 N.ar  1 <1>  -0.6200 
 26 C        4.1670     9.8110    -0.5530 C.ar  1 <1>   0.1670 
 27 C        4.9530    10.7420    -1.4530 C.3   1 <1>  -0.0970 
 28 H        0.1120     3.3830    -2.3040 H     1 <1>   0.0800 
 29 H        1.3910     2.4820    -1.5190 H     1 <1>   0.0800 
 30 H       -1.4360     4.4520     1.4130 H     1 <1>   0.0800 
 31 H       -3.0610     2.7620     1.5300 H     1 <1>   0.0800 
 32 H       -0.5790     5.4680    -1.2110 H     1 <1>   0.0800 
 33 H       -1.1770     0.4020     1.5760 H     1 <1>   0.0800 
 34 H       -2.4590     0.7390     2.7040 H     1 <1>   0.0800 
 35 H       -1.0760     1.7990     2.6310 H     1 <1>   0.0800 
 36 H       -2.8870     0.4110    -0.3570 H     1 <1>   0.0800 
 37 H       -3.8850     1.8320    -0.5960 H     1 <1>   0.0800 
 38 H       -4.1710     0.7770     0.7570 H     1 <1>   0.0800 
 39 H       -3.1390     6.0750     1.5220 H     1 <1>   0.1500 
 40 H       -2.7260     3.7500    -2.0410 H     1 <1>   0.1500 
 41 H       -5.2350     6.9940     0.6680 H     1 <1>   0.1500 
 42 H       -4.8200     4.6860    -2.8860 H     1 <1>   0.1500 
 43 H        2.1110     5.4730     0.7280 H     1 <1>   0.3700 
 44 H       -6.0850     6.3060    -1.5350 H     1 <1>   0.1500 
 45 H        1.2940     7.8300     2.3960 H     1 <1>   0.0800 
 46 H        2.6910     6.8270     2.6750 H     1 <1>   0.0800 
 47 H        1.1660     9.1300     0.2400 H     1 <1>   0.1500 
 48 H        5.8960     8.8420     0.2290 H     1 <1>   0.1500 
 49 H        6.0090    10.5720    -1.3630 H     1 <1>   0.0800 
 50 H        4.7390    11.7620    -1.1870 H     1 <1>   0.0800 
 51 H        4.6590    10.5850    -2.4750 H     1 <1>   0.0800 
@<TRIPOS>BOND
  1   1   2  2   
  2   2   3  am  
  3   2   4  1   
  4   3   5  1   
  5   3   6  1   
  6   4   7  1   
  7   4  28  1   
  8   4  29  1   
  9   5   8  1   
 10   5   9  1   
 11   5  30  1   
 12   6  10  1   
 13   6  11  1   
 14   6  31  1   
 15   7   9  1   
 16   8  12  ar  
 17   8  13  ar  
 18   9  14  1   
 19   9  32  1   
 20  10  33  1   
 21  10  34  1   
 22  10  35  1   
 23  11  36  1   
 24  11  37  1   
 25  11  38  1   
 26  12  15  ar  
 27  12  39  1   
 28  13  16  ar  
 29  13  40  1   
 30  14  17  2   
 31  14  18  am  
 32  15  19  ar  
 33  15  41  1   
 34  16  19  ar  
 35  16  42  1   
 36  18  20  1   
 37  18  43  1   
 38  19  44  1   
 39  20  21  1   
 40  20  45  1   
 41  20  46  1   
 42  21  22  ar  
 43  21  23  ar  
 44  22  24  ar  
 45  23  25  ar  
 46  23  47  1   
 47  24  26  ar  
 48  24  48  1   
 49  25  26  ar  
 50  26  27  1   
 51  27  49  1   
 52  27  50  1   
 53  27  51  1   
@<TRIPOS>SUBSTRUCTURE
  1 ****   9 GROUP 4 **** **** 0

# MOE 2024.06 (io_trps.svl 2023.06)
