@<TRIPOS>MOLECULE
NONAME
53 55 1 0 0 
SMALL
USER_CHARGES


@<TRIPOS>ATOM
  1 CL       0.8690    -0.5940    -2.8020 Cl    1 <1>  -0.1770 
  2 C        1.2020    -1.8250    -1.6050 C.ar  1 <1>   0.1770 
  3 C        2.1210    -1.5940    -0.5890 C.ar  1 <1>   0.0830 
  4 C        0.5210    -3.0240    -1.7040 C.ar  1 <1>  -0.1500 
  5 O        2.7500    -0.3900    -0.5530 O.3   1 <1>  -0.3630 
  6 C        2.3510    -2.6070     0.3390 C.ar  1 <1>  -0.1500 
  7 C        0.7440    -4.0250    -0.7700 C.ar  1 <1>  -0.1430 
  8 C        3.7640    -0.1010     0.3810 C.3   1 <1>   0.1200 
  9 C        1.6680    -3.8090     0.2460 C.ar  1 <1>  -0.1500 
 10 C       -0.0140    -5.3380    -0.8610 C.3   1 <1>   0.4870 
 11 C        4.2760     1.3070     0.0980 C.3   1 <1>  -0.2400 
 12 N       -1.0730    -5.3550     0.1860 N.4   1 <1>  -0.9590 
 13 C       -1.5730    -6.7650     0.3900 C.3   1 <1>   0.3430 
 14 C       -2.1390    -4.3460    -0.1310 C.3   1 <1>   0.3430 
 15 C       -2.7080    -6.9200     1.4240 C.3   1 <1>   0.1400 
 16 C       -2.8530    -3.9090     1.1500 C.3   1 <1>  -0.1600 
 17 N       -3.9140    -6.1680     0.9830 N.am  1 <1>  -0.6600 
 18 C       -4.0490    -4.7900     1.5270 C.3   1 <1>   0.1400 
 19 C       -4.7030    -6.5730    -0.0670 C.2   1 <1>   0.5690 
 20 O       -5.1740    -5.7560    -0.8190 O.2   1 <1>  -0.5700 
 21 C       -4.9400    -8.0590    -0.3350 C.3   1 <1>  -0.0190 
 22 C       -5.8530    -8.3390    -1.5200 C.3   1 <1>   0.1200 
 23 C       -5.6640    -8.7950     0.7900 C.3   1 <1>  -0.1600 
 24 O       -6.3080    -9.6300    -1.2930 O.3   1 <1>  -0.5600 
 25 C       -6.5350    -9.8200     0.0660 C.3   1 <1>   0.1200 
 26 H       -0.1740    -3.1490    -2.5170 H     1 <1>   0.1500 
 27 H        3.0580    -2.4730     1.1370 H     1 <1>   0.1500 
 28 H        4.5550    -0.8220     0.2630 H     1 <1>   0.0800 
 29 H        3.3460    -0.1600     1.3710 H     1 <1>   0.0800 
 30 H        1.8750    -4.5740     0.9760 H     1 <1>   0.1500 
 31 H        0.6770    -6.1500    -0.7070 H     1 <1>   0.0800 
 32 H       -0.4540    -5.4460    -1.8400 H     1 <1>   0.0800 
 33 H        4.6760     1.3610    -0.8990 H     1 <1>   0.0800 
 34 H        5.0540     1.5620     0.7940 H     1 <1>   0.0800 
 35 H        3.4760     2.0190     0.2010 H     1 <1>   0.0800 
 36 H       -0.6210    -5.0310     1.0490 H     1 <1>   0.4500 
 37 H       -0.7490    -7.3860     0.7020 H     1 <1>   0.0800 
 38 H       -1.9280    -7.1530    -0.5510 H     1 <1>   0.0800 
 39 H       -2.8500    -4.7400    -0.8410 H     1 <1>   0.0800 
 40 H       -1.6870    -3.4700    -0.5660 H     1 <1>   0.0800 
 41 H       -2.3840    -6.5690     2.3890 H     1 <1>   0.0800 
 42 H       -2.9520    -7.9620     1.5300 H     1 <1>   0.0800 
 43 H       -3.2310    -2.9140     0.9990 H     1 <1>   0.0800 
 44 H       -2.1600    -3.8490     1.9700 H     1 <1>   0.0800 
 45 H       -4.9510    -4.3420     1.1390 H     1 <1>   0.0800 
 46 H       -4.1570    -4.8320     2.5980 H     1 <1>   0.0800 
 47 H       -4.0030    -8.5400    -0.5400 H     1 <1>   0.0800 
 48 H       -5.3400    -8.3000    -2.4650 H     1 <1>   0.0800 
 49 H       -6.7060    -7.6820    -1.5320 H     1 <1>   0.0800 
 50 H       -6.2990    -8.1250     1.3450 H     1 <1>   0.0800 
 51 H       -4.9830    -9.2740     1.4700 H     1 <1>   0.0800 
 52 H       -7.5820    -9.6560     0.2590 H     1 <1>   0.0800 
 53 H       -6.2690   -10.8330     0.3150 H     1 <1>   0.0800 
@<TRIPOS>BOND
  1   1   2  1   
  2   2   3  ar  
  3   2   4  ar  
  4   3   5  1   
  5   3   6  ar  
  6   4   7  ar  
  7   4  26  1   
  8   5   8  1   
  9   6   9  ar  
 10   6  27  1   
 11   7   9  ar  
 12   7  10  1   
 13   8  11  1   
 14   8  28  1   
 15   8  29  1   
 16   9  30  1   
 17  10  12  1   
 18  10  31  1   
 19  10  32  1   
 20  11  33  1   
 21  11  34  1   
 22  11  35  1   
 23  12  13  1   
 24  12  14  1   
 25  12  36  1   
 26  13  15  1   
 27  13  37  1   
 28  13  38  1   
 29  14  16  1   
 30  14  39  1   
 31  14  40  1   
 32  15  17  1   
 33  15  41  1   
 34  15  42  1   
 35  16  18  1   
 36  16  43  1   
 37  16  44  1   
 38  17  18  1   
 39  17  19  am  
 40  18  45  1   
 41  18  46  1   
 42  19  20  2   
 43  19  21  1   
 44  21  22  1   
 45  21  23  1   
 46  21  47  1   
 47  22  24  1   
 48  22  48  1   
 49  22  49  1   
 50  23  25  1   
 51  23  50  1   
 52  23  51  1   
 53  24  25  1   
 54  25  52  1   
 55  25  53  1   
@<TRIPOS>SUBSTRUCTURE
  1 ****  14 GROUP 4 **** **** 0

# MOE 2024.06 (io_trps.svl 2023.06)
