@<TRIPOS>MOLECULE
NONAME
54 56 1 0 0 
SMALL
USER_CHARGES


@<TRIPOS>ATOM
  1 O        0.4350     0.4270    -0.8640 O.3   1 <1>  -0.5600 
  2 C        1.6580    -0.2390    -1.0820 C.3   1 <1>   0.2000 
  3 C        0.5250     1.8110    -0.6840 C.3   1 <1>   0.1200 
  4 C        2.6610     0.0400     0.0690 C.3   1 <1>   0.5660 
  5 C        1.3790    -1.7460    -1.2020 C.3   1 <1>   0.1200 
  6 C        1.4020     2.1340     0.5390 C.3   1 <1>   0.3430 
  7 N        2.7410     1.4900     0.4130 N.4   1 <1>  -0.9590 
  8 C        4.0590    -0.4590    -0.2770 C.ar  1 <1>  -0.1430 
  9 O        1.1110    -2.2890     0.0530 O.3   1 <1>  -0.6800 
 10 C        3.6520     1.8000     1.5440 C.3   1 <1>   0.5240 
 11 C        4.5500    -1.5780     0.3790 C.ar  1 <1>  -0.1500 
 12 C        4.8550     0.1760    -1.2250 C.ar  1 <1>  -0.1500 
 13 C        4.3410     3.1140     1.1880 C.2   1 <1>   0.1080 
 14 C        5.8180    -2.0620     0.1060 C.ar  1 <1>   0.0830 
 15 C        6.1290    -0.2950    -1.4940 C.ar  1 <1>  -0.1500 
 16 N        4.3560     3.5920    -0.0280 N.2   1 <1>  -0.7070 
 17 C        5.0150     3.9380     2.0820 C.2   1 <1>  -0.1500 
 18 O        6.2080    -3.1740     0.7730 O.3   1 <1>  -0.3630 
 19 C        6.6260    -1.3990    -0.8240 C.ar  1 <1>   0.0830 
 20 N        5.0560     4.7440     0.0630 N.pl3 1 <1>   0.3140 
 21 C        5.4560     4.9670     1.3300 C.2   1 <1>  -0.3020 
 22 C        6.4870    -4.3200    -0.0030 C.3   1 <1>   0.0400 
 23 O        7.8920    -1.7830    -1.1110 O.3   1 <1>  -0.3630 
 24 C        5.3240     5.6080    -1.1070 C.3   1 <1>   0.0960 
 25 C        8.8420    -1.6460    -0.0760 C.3   1 <1>   0.0400 
 26 C        4.2170     6.6540    -1.2860 C.3   1 <1>  -0.2400 
 27 H        2.0570     0.1150    -2.0160 H     1 <1>   0.0800 
 28 H        0.9270     2.2550    -1.5780 H     1 <1>   0.0800 
 29 H       -0.4720     2.1860    -0.5330 H     1 <1>   0.0800 
 30 H        2.3130    -0.5000     0.9340 H     1 <1>   0.0800 
 31 H        2.2340    -2.2600    -1.6070 H     1 <1>   0.0800 
 32 H        0.5300    -1.9150    -1.8430 H     1 <1>   0.0800 
 33 H        0.9010     1.7770     1.4250 H     1 <1>   0.0800 
 34 H        1.5180     3.2030     0.6230 H     1 <1>   0.0800 
 35 H        3.2320     1.9770    -0.3580 H     1 <1>   0.4500 
 36 H        0.7020    -3.1750    -0.0340 H     1 <1>   0.4000 
 37 H        3.1070     1.8890     2.4680 H     1 <1>   0.0800 
 38 H        4.4050     1.0360     1.6470 H     1 <1>   0.0800 
 39 H        3.9540    -2.1030     1.1060 H     1 <1>   0.1500 
 40 H        4.5090     1.0430    -1.7630 H     1 <1>   0.1500 
 41 H        6.7510     0.1950    -2.2220 H     1 <1>   0.1500 
 42 H        5.1520     3.7810     3.1390 H     1 <1>   0.1500 
 43 H        6.0260     5.8320     1.6210 H     1 <1>   0.1500 
 44 H        6.6350    -5.1500     0.6640 H     1 <1>   0.0800 
 45 H        7.3780    -4.1550    -0.5800 H     1 <1>   0.0800 
 46 H        5.6520    -4.5140    -0.6530 H     1 <1>   0.0800 
 47 H        6.2730     6.0930    -0.9640 H     1 <1>   0.0800 
 48 H        5.3880     4.9850    -1.9800 H     1 <1>   0.0800 
 49 H        9.8060    -1.9190    -0.4670 H     1 <1>   0.0800 
 50 H        8.5810    -2.2970     0.7390 H     1 <1>   0.0800 
 51 H        8.8540    -0.6220     0.2510 H     1 <1>   0.0800 
 52 H        4.1570     7.2890    -0.4200 H     1 <1>   0.0800 
 53 H        3.2690     6.1700    -1.4410 H     1 <1>   0.0800 
 54 H        4.4310     7.2670    -2.1430 H     1 <1>   0.0800 
@<TRIPOS>BOND
  1   1   2  1   
  2   1   3  1   
  3   2   4  1   
  4   2   5  1   
  5   2  27  1   
  6   3   6  1   
  7   3  28  1   
  8   3  29  1   
  9   4   7  1   
 10   4   8  1   
 11   4  30  1   
 12   5   9  1   
 13   5  31  1   
 14   5  32  1   
 15   6   7  1   
 16   6  33  1   
 17   6  34  1   
 18   7  10  1   
 19   7  35  1   
 20   8  11  ar  
 21   8  12  ar  
 22   9  36  1   
 23  10  13  1   
 24  10  37  1   
 25  10  38  1   
 26  11  14  ar  
 27  11  39  1   
 28  12  15  ar  
 29  12  40  1   
 30  13  16  2   
 31  13  17  1   
 32  14  18  1   
 33  14  19  ar  
 34  15  19  ar  
 35  15  41  1   
 36  16  20  1   
 37  17  21  2   
 38  17  42  1   
 39  18  22  1   
 40  19  23  1   
 41  20  21  1   
 42  20  24  1   
 43  21  43  1   
 44  22  44  1   
 45  22  45  1   
 46  22  46  1   
 47  23  25  1   
 48  24  26  1   
 49  24  47  1   
 50  24  48  1   
 51  25  49  1   
 52  25  50  1   
 53  25  51  1   
 54  26  52  1   
 55  26  53  1   
 56  26  54  1   
@<TRIPOS>SUBSTRUCTURE
  1 ****   8 GROUP 4 **** **** 0

# MOE 2024.06 (io_trps.svl 2023.06)
