@<TRIPOS>MOLECULE
NONAME
41 44 1 0 0 
SMALL
USER_CHARGES


@<TRIPOS>ATOM
  1 S        0.1750    -0.2480     1.8670 S.3   1 <1>  -0.0800 
  2 C        0.1520    -1.8010     1.0310 C.ar  1 <1>   0.2970 
  3 C       -1.4870    -0.4640     2.4220 C.2   1 <1>  -0.1100 
  4 N        1.1830    -2.2820     0.3720 N.ar  1 <1>  -0.5670 
  5 C       -1.0710    -2.4050     1.1780 C.ar  1 <1>   0.0000 
  6 C       -1.9850    -1.6330     1.9810 C.2   1 <1>  -0.1500 
  7 C        0.9350    -3.4600    -0.1650 C.ar  1 <1>   0.4770 
  8 C       -1.2010    -3.6390     0.5420 C.ar  1 <1>   0.4100 
  9 N       -0.1860    -4.1670    -0.1220 N.ar  1 <1>  -0.6200 
 10 C        2.0710    -4.0950    -0.9320 C.3   1 <1>  -0.0960 
 11 N       -2.3890    -4.3390     0.5640 N.pl3 1 <1>  -0.8380 
 12 C       -3.5870    -3.7530    -0.0930 C.3   1 <1>   0.2090 
 13 C       -2.4160    -5.8230     0.4270 C.3   1 <1>   0.2090 
 14 C       -4.2600    -4.9180    -0.8190 C.3   1 <1>   0.2000 
 15 C       -3.8230    -6.1650    -0.0600 C.3   1 <1>  -0.0800 
 16 O       -5.6440    -4.8110    -0.8070 O.3   1 <1>  -0.6800 
 17 C       -3.8850    -7.4400    -0.9140 C.3   1 <1>   0.0200 
 18 C       -3.3360    -8.6320    -0.1540 C.2   1 <1>  -0.0400 
 19 O       -3.9070    -9.0220     0.9540 O.3   1 <1>  -0.0190 
 20 C       -2.2930    -9.4410    -0.3880 C.2   1 <1>  -0.1500 
 21 N       -3.3000   -10.0470     1.4770 N.2   1 <1>  -0.4100 
 22 C       -2.3230   -10.3230     0.6890 C.2   1 <1>   0.1080 
 23 C       -1.3450   -11.4540     0.9120 C.3   1 <1>  -0.0590 
 24 H       -1.9060     0.3200     3.0280 H     1 <1>   0.1500 
 25 H       -2.9690    -2.0110     2.1870 H     1 <1>   0.1500 
 26 H        1.7200    -4.4180    -1.8940 H     1 <1>   0.0800 
 27 H        2.4360    -4.9440    -0.3860 H     1 <1>   0.0800 
 28 H        2.8730    -3.3940    -1.0700 H     1 <1>   0.0800 
 29 H       -4.2390    -3.3490     0.6600 H     1 <1>   0.0800 
 30 H       -3.3020    -2.9830    -0.7900 H     1 <1>   0.0800 
 31 H       -1.6860    -6.1420    -0.2980 H     1 <1>   0.0800 
 32 H       -2.2030    -6.2940     1.3720 H     1 <1>   0.0800 
 33 H       -3.9280    -4.9420    -1.8430 H     1 <1>   0.0800 
 34 H       -4.4370    -6.2890     0.8150 H     1 <1>   0.0800 
 35 H       -5.9820    -4.8750     0.1070 H     1 <1>   0.4000 
 36 H       -3.3160    -7.3050    -1.8170 H     1 <1>   0.0800 
 37 H       -4.9060    -7.6390    -1.1900 H     1 <1>   0.0800 
 38 H       -1.5840    -9.4410    -1.1950 H     1 <1>   0.1500 
 39 H       -1.3930   -12.1450     0.0910 H     1 <1>   0.0800 
 40 H       -1.5870   -11.9750     1.8200 H     1 <1>   0.0800 
 41 H       -0.3470   -11.0630     0.9900 H     1 <1>   0.0800 
@<TRIPOS>BOND
  1   1   2  1   
  2   1   3  1   
  3   2   4  ar  
  4   2   5  ar  
  5   3   6  2   
  6   3  24  1   
  7   4   7  ar  
  8   5   6  1   
  9   5   8  ar  
 10   6  25  1   
 11   7   9  ar  
 12   7  10  1   
 13   8   9  ar  
 14   8  11  1   
 15  10  26  1   
 16  10  27  1   
 17  10  28  1   
 18  11  12  1   
 19  11  13  1   
 20  12  14  1   
 21  12  29  1   
 22  12  30  1   
 23  13  15  1   
 24  13  31  1   
 25  13  32  1   
 26  14  15  1   
 27  14  16  1   
 28  14  33  1   
 29  15  17  1   
 30  15  34  1   
 31  16  35  1   
 32  17  18  1   
 33  17  36  1   
 34  17  37  1   
 35  18  19  1   
 36  18  20  2   
 37  19  21  1   
 38  20  22  1   
 39  20  38  1   
 40  21  22  2   
 41  22  23  1   
 42  23  39  1   
 43  23  40  1   
 44  23  41  1   
@<TRIPOS>SUBSTRUCTURE
  1 ****  13 GROUP 4 **** **** 0

# MOE 2024.06 (io_trps.svl 2023.06)
