@<TRIPOS>MOLECULE
NONAME
47 48 1 0 0 
SMALL
USER_CHARGES


@<TRIPOS>ATOM
  1 CL      -2.7740    -1.5360     1.3960 Cl    1 <1>  -0.1770 
  2 C       -2.8140    -0.1530     0.3240 C.ar  1 <1>   0.1770 
  3 C       -3.1750    -0.3500    -1.0060 C.ar  1 <1>   0.0860 
  4 C       -2.5110     1.1050     0.8350 C.ar  1 <1>  -0.1440 
  5 C       -3.2430     0.7900    -1.7980 C.ar  1 <1>   0.1900 
  6 C       -3.4580    -1.6600    -1.5300 C.2   1 <1>   0.5440 
  7 C       -2.5810     2.2110    -0.0010 C.ar  1 <1>  -0.1500 
  8 C       -2.0960     1.2860     2.2900 C.3   1 <1>  -0.0970 
  9 F       -3.6160     0.6770    -3.0420 F     1 <1>  -0.1900 
 10 C       -2.9520     2.0560    -1.3260 C.ar  1 <1>  -0.1500 
 11 O       -2.5390    -2.3320    -1.9500 O.2   1 <1>  -0.5700 
 12 N       -4.7370    -2.1770    -1.5480 N.am  1 <1>  -0.6600 
 13 C       -4.9980    -3.5510    -2.0900 C.3   1 <1>   0.3210 
 14 C       -5.9350    -1.4650    -1.0280 C.3   1 <1>   0.1400 
 15 C       -5.4180    -4.5090    -0.9770 C.2   1 <1>   0.0460 
 16 C       -6.0870    -1.6950     0.4910 C.3   1 <1>   0.3430 
 17 N       -6.7070    -4.6200    -0.5780 N.2   1 <1>  -0.5650 
 18 C       -4.6230    -5.3480    -0.2730 C.2   1 <1>  -0.3320 
 19 N       -7.4420    -1.3270     1.0390 N.4   1 <1>  -0.9590 
 20 C       -6.6670    -5.5450     0.3280 C.2   1 <1>   0.0360 
 21 N       -5.4280    -6.0250     0.5630 N.pl3 1 <1>   0.0330 
 22 C       -3.1200    -5.5730    -0.3340 C.3   1 <1>  -0.0600 
 23 C       -8.4880    -2.2830     0.5490 C.3   1 <1>   0.2630 
 24 C       -7.8260     0.0930     0.7670 C.3   1 <1>   0.2630 
 25 H       -2.3450     3.1950     0.3710 H     1 <1>   0.1500 
 26 H       -1.2220     0.6950     2.4990 H     1 <1>   0.0800 
 27 H       -2.8880     0.9740     2.9470 H     1 <1>   0.0800 
 28 H       -1.8640     2.3140     2.5020 H     1 <1>   0.0800 
 29 H       -3.0120     2.9040    -1.9860 H     1 <1>   0.1500 
 30 H       -4.1240    -3.9430    -2.5770 H     1 <1>   0.0800 
 31 H       -5.7760    -3.5060    -2.8310 H     1 <1>   0.0800 
 32 H       -6.8010    -1.8390    -1.5460 H     1 <1>   0.0800 
 33 H       -5.8480    -0.4130    -1.2360 H     1 <1>   0.0800 
 34 H       -5.3310    -1.1220     0.9990 H     1 <1>   0.0800 
 35 H       -5.8990    -2.7350     0.6990 H     1 <1>   0.0800 
 36 H       -7.3840    -1.4520     2.0610 H     1 <1>   0.4500 
 37 H       -7.5260    -5.9220     0.8560 H     1 <1>   0.1500 
 38 H       -5.1600    -6.7620     1.2230 H     1 <1>   0.2700 
 39 H       -2.6610    -4.9080    -1.0440 H     1 <1>   0.0800 
 40 H       -2.9050    -6.5850    -0.6280 H     1 <1>   0.0800 
 41 H       -2.6770    -5.3880     0.6290 H     1 <1>   0.0800 
 42 H       -8.5790    -2.2330    -0.5240 H     1 <1>   0.0800 
 43 H       -9.4450    -2.0530     0.9880 H     1 <1>   0.0800 
 44 H       -8.2230    -3.2930     0.8160 H     1 <1>   0.0800 
 45 H       -7.9340     0.2580    -0.2920 H     1 <1>   0.0800 
 46 H       -7.0720     0.7630     1.1480 H     1 <1>   0.0800 
 47 H       -8.7630     0.3240     1.2470 H     1 <1>   0.0800 
@<TRIPOS>BOND
  1   1   2  1   
  2   2   3  ar  
  3   2   4  ar  
  4   3   5  ar  
  5   3   6  1   
  6   4   7  ar  
  7   4   8  1   
  8   5   9  1   
  9   5  10  ar  
 10   6  11  2   
 11   6  12  am  
 12   7  10  ar  
 13   7  25  1   
 14   8  26  1   
 15   8  27  1   
 16   8  28  1   
 17  10  29  1   
 18  12  13  1   
 19  12  14  1   
 20  13  15  1   
 21  13  30  1   
 22  13  31  1   
 23  14  16  1   
 24  14  32  1   
 25  14  33  1   
 26  15  17  1   
 27  15  18  2   
 28  16  19  1   
 29  16  34  1   
 30  16  35  1   
 31  17  20  2   
 32  18  21  1   
 33  18  22  1   
 34  19  23  1   
 35  19  24  1   
 36  19  36  1   
 37  20  21  1   
 38  20  37  1   
 39  21  38  1   
 40  22  39  1   
 41  22  40  1   
 42  22  41  1   
 43  23  42  1   
 44  23  43  1   
 45  23  44  1   
 46  24  45  1   
 47  24  46  1   
 48  24  47  1   
@<TRIPOS>SUBSTRUCTURE
  1 ****  12 GROUP 4 **** **** 0

# MOE 2024.06 (io_trps.svl 2023.06)
