@<TRIPOS>MOLECULE
NONAME
37 39 1 0 0 
SMALL
USER_CHARGES


@<TRIPOS>ATOM
  1 O        0.9410     0.2770     1.0590 O.3   1 <1>  -0.6800 
  2 C        1.4360    -0.2160    -0.1460 C.3   1 <1>   0.2000 
  3 C        2.2510    -1.4740     0.1540 C.3   1 <1>  -0.0800 
  4 C        2.4880     0.7620    -0.6740 C.3   1 <1>   0.3430 
  5 C        3.6030    -0.9210     0.6390 C.3   1 <1>   0.3430 
  6 C        2.3990    -2.3640    -1.1000 C.3   1 <1>  -0.0170 
  7 N        3.7150     0.4750     0.1220 N.4   1 <1>  -0.9590 
  8 C        3.0790    -3.6900    -0.7860 C.ar  1 <1>   0.1670 
  9 C        3.8700     1.4790     1.2080 C.3   1 <1>   0.5230 
 10 N        4.3720    -3.6360    -0.5080 N.ar  1 <1>  -0.6200 
 11 C        2.3460    -4.8770    -0.8060 C.ar  1 <1>   0.1600 
 12 C        4.4290     2.7550     0.5890 C.2   1 <1>   0.0070 
 13 C        4.8790    -4.8350    -0.2630 C.ar  1 <1>   0.1600 
 14 N        2.8490    -6.0710    -0.5500 N.ar  1 <1>  -0.6200 
 15 N        4.9920     2.7950    -0.5810 N.2   1 <1>  -0.5650 
 16 N        4.3880     3.9590     1.2070 N.pl3 1 <1>   0.0330 
 17 C        4.1420    -6.0130    -0.2820 C.ar  1 <1>   0.1600 
 18 C        5.3370     4.0880    -0.7320 C.2   1 <1>   0.0770 
 19 C        4.9740     4.8120     0.3480 C.2   1 <1>  -0.3020 
 20 H        0.1440    -0.2210     1.3440 H     1 <1>   0.4000 
 21 H        0.6160    -0.3590    -0.8300 H     1 <1>   0.0800 
 22 H        1.7870    -2.0600     0.9290 H     1 <1>   0.0800 
 23 H        2.1660     1.7860    -0.5780 H     1 <1>   0.0800 
 24 H        2.6810     0.5510    -1.7120 H     1 <1>   0.0800 
 25 H        4.4280    -1.5180     0.2900 H     1 <1>   0.0800 
 26 H        3.6170    -0.9160     1.7160 H     1 <1>   0.0800 
 27 H        2.9720    -1.8600    -1.8590 H     1 <1>   0.0800 
 28 H        1.4260    -2.5630    -1.5130 H     1 <1>   0.0800 
 29 H        4.5420     0.6310    -0.4810 H     1 <1>   0.4500 
 30 H        2.9200     1.6670     1.6810 H     1 <1>   0.0800 
 31 H        4.5660     1.1180     1.9460 H     1 <1>   0.0800 
 32 H        1.2970    -4.8430    -1.0420 H     1 <1>   0.1500 
 33 H        5.9300    -4.8930    -0.0360 H     1 <1>   0.1500 
 34 H        4.0030     4.1970     2.1280 H     1 <1>   0.2700 
 35 H        4.6420    -6.9420    -0.0690 H     1 <1>   0.1500 
 36 H        5.8360     4.4390    -1.6220 H     1 <1>   0.1500 
 37 H        5.1020     5.8620     0.5440 H     1 <1>   0.1500 
@<TRIPOS>BOND
  1   1   2  1   
  2   1  20  1   
  3   2   3  1   
  4   2   4  1   
  5   2  21  1   
  6   3   5  1   
  7   3   6  1   
  8   3  22  1   
  9   4   7  1   
 10   4  23  1   
 11   4  24  1   
 12   5   7  1   
 13   5  25  1   
 14   5  26  1   
 15   6   8  1   
 16   6  27  1   
 17   6  28  1   
 18   7   9  1   
 19   7  29  1   
 20   8  10  ar  
 21   8  11  ar  
 22   9  12  1   
 23   9  30  1   
 24   9  31  1   
 25  10  13  ar  
 26  11  14  ar  
 27  11  32  1   
 28  12  15  2   
 29  12  16  1   
 30  13  17  ar  
 31  13  33  1   
 32  14  17  ar  
 33  15  18  1   
 34  16  19  1   
 35  16  34  1   
 36  17  35  1   
 37  18  19  2   
 38  18  36  1   
 39  19  37  1   
@<TRIPOS>SUBSTRUCTURE
  1 ****   5 GROUP 4 **** **** 0

# MOE 2024.06 (io_trps.svl 2023.06)
