@<TRIPOS>MOLECULE
NONAME
48 49 1 0 0 
SMALL
USER_CHARGES


@<TRIPOS>ATOM
  1 S       -0.0700     0.4940    -0.6640 S.o2  1 <1>   1.3330 
  2 O       -0.6660    -0.7480    -1.1000 O.2   1 <1>  -0.6500 
  3 O        0.3640     1.4580    -1.6500 O.2   1 <1>  -0.6500 
  4 N        1.2790     0.0840     0.2850 N.am  1 <1>  -0.8490 
  5 C       -1.1970     1.2950     0.4910 C.3   1 <1>  -0.0550 
  6 C        1.0810    -1.1320     1.0840 C.3   1 <1>   0.1160 
  7 C        2.4920    -0.0630    -0.5270 C.3   1 <1>   0.1160 
  8 C       -0.9260     2.7680     0.8750 C.3   1 <1>  -0.0800 
  9 C       -1.0790     3.7540    -0.2940 C.3   1 <1>   0.2000 
 10 C        0.4570     3.0740     1.4680 C.3   1 <1>   0.1100 
 11 O       -2.0640     4.6650     0.0440 O.3   1 <1>  -0.6800 
 12 C        0.2590     4.4900    -0.3440 C.3   1 <1>   0.1100 
 13 N        0.7600     4.4380     1.0360 N.3   1 <1>  -0.8100 
 14 C        2.2090     4.7370     1.1110 C.3   1 <1>   0.2480 
 15 C        2.4960     6.2220     0.8570 C.2   1 <1>  -0.0380 
 16 N        1.5090     7.0780     1.2810 N.pl3 1 <1>  -0.6000 
 17 C        3.6230     6.7340     0.2760 C.2   1 <1>  -0.1240 
 18 C        1.5970     8.4380     1.1390 C.2   1 <1>  -0.0500 
 19 C        3.7540     8.1510     0.1010 C.2   1 <1>   0.5410 
 20 C        4.7890     5.8710    -0.2090 C.3   1 <1>  -0.1020 
 21 C        2.6940     8.9910     0.5620 C.2   1 <1>  -0.1240 
 22 O        4.7530     8.6390    -0.4300 O.2   1 <1>  -0.5700 
 23 C        2.8160    10.5000     0.3910 C.3   1 <1>  -0.1020 
 24 H       -2.1800     1.2630     0.0610 H     1 <1>   0.0800 
 25 H       -1.2390     0.7130     1.3890 H     1 <1>   0.0800 
 26 H        1.9320    -1.2970     1.7230 H     1 <1>   0.0800 
 27 H        0.9560    -1.9900     0.4420 H     1 <1>   0.0800 
 28 H        0.2070    -1.0360     1.7030 H     1 <1>   0.0800 
 29 H        3.3320    -0.3170     0.0970 H     1 <1>   0.0800 
 30 H        2.7150     0.8640    -1.0290 H     1 <1>   0.0800 
 31 H        2.3550    -0.8330    -1.2690 H     1 <1>   0.0800 
 32 H       -1.6470     3.0180     1.6340 H     1 <1>   0.0800 
 33 H       -1.3400     3.3030    -1.2360 H     1 <1>   0.0800 
 34 H        1.2050     2.4110     1.0760 H     1 <1>   0.0800 
 35 H        0.4530     3.0060     2.5430 H     1 <1>   0.0800 
 36 H       -1.7230     5.2000     0.7880 H     1 <1>   0.4000 
 37 H        0.1540     5.5030    -0.6980 H     1 <1>   0.0800 
 38 H        0.9270     3.9560    -0.9990 H     1 <1>   0.0800 
 39 H        2.5580     4.5000     2.1010 H     1 <1>   0.0800 
 40 H        2.7380     4.1180     0.4100 H     1 <1>   0.0800 
 41 H        0.6670     6.6160     1.6590 H     1 <1>   0.4000 
 42 H        0.7700     9.0290     1.4980 H     1 <1>   0.1500 
 43 H        5.7160     6.2710     0.1660 H     1 <1>   0.0800 
 44 H        4.8270     5.8870    -1.2830 H     1 <1>   0.0800 
 45 H        4.7200     4.8530     0.1200 H     1 <1>   0.0800 
 46 H        3.6870    10.8560     0.9120 H     1 <1>   0.0800 
 47 H        1.9500    11.0060     0.7790 H     1 <1>   0.0800 
 48 H        2.9190    10.7420    -0.6520 H     1 <1>   0.0800 
@<TRIPOS>BOND
  1   1   2  2   
  2   1   3  2   
  3   1   4  am  
  4   1   5  1   
  5   4   6  1   
  6   4   7  1   
  7   5   8  1   
  8   5  24  1   
  9   5  25  1   
 10   6  26  1   
 11   6  27  1   
 12   6  28  1   
 13   7  29  1   
 14   7  30  1   
 15   7  31  1   
 16   8   9  1   
 17   8  10  1   
 18   8  32  1   
 19   9  11  1   
 20   9  12  1   
 21   9  33  1   
 22  10  13  1   
 23  10  34  1   
 24  10  35  1   
 25  11  36  1   
 26  12  13  1   
 27  12  37  1   
 28  12  38  1   
 29  13  14  1   
 30  14  15  1   
 31  14  39  1   
 32  14  40  1   
 33  15  16  1   
 34  15  17  2   
 35  16  18  1   
 36  16  41  1   
 37  17  19  1   
 38  17  20  1   
 39  18  21  2   
 40  18  42  1   
 41  19  21  1   
 42  19  22  2   
 43  20  43  1   
 44  20  44  1   
 45  20  45  1   
 46  21  23  1   
 47  23  46  1   
 48  23  47  1   
 49  23  48  1   
@<TRIPOS>SUBSTRUCTURE
  1 ****  13 GROUP 4 **** **** 0

# MOE 2024.06 (io_trps.svl 2023.06)
