@<TRIPOS>MOLECULE
NONAME
38 40 1 0 0 
SMALL
USER_CHARGES


@<TRIPOS>ATOM
  1 S       -0.8690     0.3830     2.5650 S.3   1 <1>  -0.0800 
  2 C       -0.9580     0.2150     0.8330 C.2   1 <1>   0.1980 
  3 C       -0.3140     2.0140     2.3520 C.2   1 <1>  -0.1100 
  4 N       -0.6150     1.2600     0.1920 N.2   1 <1>  -0.5650 
  5 C       -1.4290    -1.1210     0.2660 C.3   1 <1>   0.5230 
  6 C       -0.2350     2.3210     1.0350 C.2   1 <1>   0.1410 
  7 N       -1.2730    -1.1290    -1.2290 N.4   1 <1>  -0.9590 
  8 C        0.1970     3.5980     0.4730 C.2   1 <1>   0.7160 
  9 C       -2.1600    -2.1250    -1.9000 C.3   1 <1>   0.2630 
 10 C        0.1590    -1.2940    -1.6320 C.3   1 <1>   0.2630 
 11 O        0.4680     3.7090    -0.7070 O.2   1 <1>  -0.5700 
 12 N        0.2930     4.6990     1.2820 N.am  1 <1>  -0.4940 
 13 C        0.6200     6.0260     0.9850 C.2   1 <1>   0.2510 
 14 N        0.0870     6.9860     1.6720 N.2   1 <1>  -0.3380 
 15 N        1.4790     6.4960     0.0490 N.pl3 1 <1>   0.3340 
 16 N        0.5620     8.1350     1.1970 N.2   1 <1>  -0.3380 
 17 C        1.3880     7.8450     0.2350 C.2   1 <1>   0.3120 
 18 C        2.4000     6.0010    -0.8690 C.2   1 <1>  -0.1810 
 19 N        2.1080     8.7560    -0.5060 N.2   1 <1>  -0.5760 
 20 C        3.1220     6.8930    -1.5900 C.2   1 <1>  -0.1360 
 21 C        2.9310     8.2880    -1.3790 C.2   1 <1>   0.3750 
 22 C        3.7380     9.2560    -2.2160 C.3   1 <1>  -0.1790 
 23 H       -0.0970     2.5790     3.2420 H     1 <1>   0.1500 
 24 H       -2.4650    -1.2510     0.5270 H     1 <1>   0.0800 
 25 H       -0.8610    -1.9240     0.7050 H     1 <1>   0.0800 
 26 H       -1.5420    -0.1690    -1.5160 H     1 <1>   0.4500 
 27 H       -1.8970    -3.1270    -1.6010 H     1 <1>   0.0800 
 28 H       -2.0610    -2.0490    -2.9710 H     1 <1>   0.0800 
 29 H       -3.1910    -1.9450    -1.6410 H     1 <1>   0.0800 
 30 H        0.5340    -2.2540    -1.3160 H     1 <1>   0.0800 
 31 H        0.7630    -0.5200    -1.1850 H     1 <1>   0.0800 
 32 H        0.2560    -1.2200    -2.7030 H     1 <1>   0.0800 
 33 H       -0.1750     4.6220     2.1820 H     1 <1>   0.3700 
 34 H        2.4970     4.9360    -0.9640 H     1 <1>   0.1500 
 35 H        3.8440     6.5840    -2.3240 H     1 <1>   0.1500 
 36 H        3.5250     9.1050    -3.2580 H     1 <1>   0.0800 
 37 H        4.7870     9.1050    -2.0410 H     1 <1>   0.0800 
 38 H        3.4880    10.2690    -1.9560 H     1 <1>   0.0800 
@<TRIPOS>BOND
  1   1   2  1   
  2   1   3  1   
  3   2   4  2   
  4   2   5  1   
  5   3   6  2   
  6   3  23  1   
  7   4   6  1   
  8   5   7  1   
  9   5  24  1   
 10   5  25  1   
 11   6   8  1   
 12   7   9  1   
 13   7  10  1   
 14   7  26  1   
 15   8  11  2   
 16   8  12  am  
 17   9  27  1   
 18   9  28  1   
 19   9  29  1   
 20  10  30  1   
 21  10  31  1   
 22  10  32  1   
 23  12  13  1   
 24  12  33  1   
 25  13  14  2   
 26  13  15  1   
 27  14  16  1   
 28  15  17  1   
 29  15  18  1   
 30  16  17  2   
 31  17  19  1   
 32  18  20  2   
 33  18  34  1   
 34  19  21  2   
 35  20  21  1   
 36  20  35  1   
 37  21  22  1   
 38  22  36  1   
 39  22  37  1   
 40  22  38  1   
@<TRIPOS>SUBSTRUCTURE
  1 ****   8 GROUP 4 **** **** 0

# MOE 2024.06 (io_trps.svl 2023.06)
