@<TRIPOS>MOLECULE
NONAME
43 44 1 0 0 
SMALL
USER_CHARGES


@<TRIPOS>ATOM
  1 O        0.1170     1.1120     0.0490 O.co2 1 <1>  -0.9000 
  2 C        0.2240     2.2270     0.5960 C.2   1 <1>   1.0330 
  3 O        0.1040     2.2920     1.8350 O.co2 1 <1>  -0.9000 
  4 C        0.5210     3.4030    -0.2250 C.2   1 <1>  -0.0060 
  5 N        0.5090     4.7280     0.1500 N.2   1 <1>  -0.5650 
  6 C        0.8790     3.3710    -1.5260 C.2   1 <1>  -0.0100 
  7 C        0.8590     5.3540    -0.9110 C.2   1 <1>   0.2980 
  8 O        1.0940     4.5860    -1.9470 O.3   1 <1>  -0.2800 
  9 C        1.0280     6.8650    -1.0310 C.3   1 <1>   0.2900 
 10 N        2.4180     7.3410    -0.7580 N.3   1 <1>  -0.8100 
 11 C        2.5070     8.8270    -0.8490 C.3   1 <1>   0.1100 
 12 C        2.9120     6.8440     0.5640 C.3   1 <1>   0.1100 
 13 C        3.8610     9.3960    -0.3210 C.3   1 <1>   0.4230 
 14 C        4.3780     7.2630     0.8320 C.3   1 <1>   0.3430 
 15 N        4.8130     8.2390    -0.2160 N.4   1 <1>  -0.9590 
 16 C        3.6500    10.1340     1.0200 C.3   1 <1>  -0.1600 
 17 C        6.2780     8.4260    -0.3530 C.3   1 <1>   0.4230 
 18 C        3.0190    11.5210     0.8210 C.3   1 <1>  -0.2400 
 19 C        6.8860     9.2430     0.7820 C.3   1 <1>  -0.2400 
 20 C        6.5790     9.0610    -1.7070 C.3   1 <1>  -0.2400 
 21 H        0.9960     2.5280    -2.1830 H     1 <1>   0.1500 
 22 H        0.3490     7.3220    -0.3310 H     1 <1>   0.0800 
 23 H        0.7330     7.1590    -2.0220 H     1 <1>   0.0800 
 24 H        1.6900     9.2720    -0.3070 H     1 <1>   0.0800 
 25 H        2.3940     9.1160    -1.8800 H     1 <1>   0.0800 
 26 H        2.8730     5.7680     0.5990 H     1 <1>   0.0800 
 27 H        2.2790     7.2090     1.3550 H     1 <1>   0.0800 
 28 H        4.2350    10.1050    -1.0390 H     1 <1>   0.0800 
 29 H        4.9990     6.3830     0.7950 H     1 <1>   0.0800 
 30 H        4.4660     7.6920     1.8160 H     1 <1>   0.0800 
 31 H        4.5280     7.7110    -1.0580 H     1 <1>   0.4500 
 32 H        4.5810    10.2800     1.5290 H     1 <1>   0.0800 
 33 H        3.0130     9.5600     1.6690 H     1 <1>   0.0800 
 34 H        6.7390     7.4500    -0.3390 H     1 <1>   0.0800 
 35 H        3.6420    12.1370     0.1960 H     1 <1>   0.0800 
 36 H        2.9120    12.0130     1.7730 H     1 <1>   0.0800 
 37 H        2.0430    11.4510     0.3740 H     1 <1>   0.0800 
 38 H        6.6200    10.2800     0.7020 H     1 <1>   0.0800 
 39 H        7.9580     9.1830     0.7200 H     1 <1>   0.0800 
 40 H        6.5920     8.8560     1.7400 H     1 <1>   0.0800 
 41 H        6.2190    10.0730    -1.7580 H     1 <1>   0.0800 
 42 H        6.1470     8.4820    -2.5030 H     1 <1>   0.0800 
 43 H        7.6430     9.0850    -1.8590 H     1 <1>   0.0800 
@<TRIPOS>BOND
  1   1   2  ar  
  2   2   3  ar  
  3   2   4  1   
  4   4   5  1   
  5   4   6  2   
  6   5   7  2   
  7   6   8  1   
  8   6  21  1   
  9   7   8  1   
 10   7   9  1   
 11   9  10  1   
 12   9  22  1   
 13   9  23  1   
 14  10  11  1   
 15  10  12  1   
 16  11  13  1   
 17  11  24  1   
 18  11  25  1   
 19  12  14  1   
 20  12  26  1   
 21  12  27  1   
 22  13  15  1   
 23  13  16  1   
 24  13  28  1   
 25  14  15  1   
 26  14  29  1   
 27  14  30  1   
 28  15  17  1   
 29  15  31  1   
 30  16  18  1   
 31  16  32  1   
 32  16  33  1   
 33  17  19  1   
 34  17  20  1   
 35  17  34  1   
 36  18  35  1   
 37  18  36  1   
 38  18  37  1   
 39  19  38  1   
 40  19  39  1   
 41  19  40  1   
 42  20  41  1   
 43  20  42  1   
 44  20  43  1   
@<TRIPOS>SUBSTRUCTURE
  1 ****  12 GROUP 4 **** **** 0

# MOE 2024.06 (io_trps.svl 2023.06)
