@<TRIPOS>MOLECULE
NONAME
53 55 1 0 0 
SMALL
USER_CHARGES


@<TRIPOS>ATOM
  1 O        2.1720     0.2500     0.4520 O.2   1 <1>  -0.5700 
  2 C        2.9500    -0.6010     0.8280 C.2   1 <1>   0.5690 
  3 N        3.7380    -0.3550     1.9340 N.am  1 <1>  -0.6600 
  4 C        2.9570    -1.9370     0.0330 C.3   1 <1>   0.0610 
  5 C        4.9790    -1.0880     2.3400 C.3   1 <1>   0.1400 
  6 C        3.4710     0.8350     2.7960 C.3   1 <1>   0.1400 
  7 C        1.9650    -1.8140    -1.1390 C.3   1 <1>   0.3430 
  8 C        4.2510    -2.2200    -0.7410 C.3   1 <1>  -0.1600 
  9 C        2.5480    -3.1290     0.9270 C.3   1 <1>  -0.2400 
 10 C        6.2800    -0.3020     2.0570 C.3   1 <1>   0.1400 
 11 C        4.0840     2.1140     2.2120 C.3   1 <1>  -0.1600 
 12 N        2.7320    -1.3100    -2.3290 N.4   1 <1>  -0.9590 
 13 C        4.1710    -1.3080    -1.9520 C.3   1 <1>   0.3430 
 14 N        6.0820     0.9360     1.2300 N.am  1 <1>  -0.6600 
 15 C        5.6090     2.1110     2.0200 C.3   1 <1>   0.1400 
 16 C        2.2890     0.0610    -2.7220 C.3   1 <1>   0.2630 
 17 C        6.3070     0.9120    -0.1260 C.2   1 <1>   0.5690 
 18 O        6.6140    -0.1240    -0.6730 O.2   1 <1>  -0.5700 
 19 C        6.1360     2.1610    -1.0030 C.3   1 <1>  -0.0190 
 20 C        4.6460     2.5270    -1.2080 C.3   1 <1>  -0.0220 
 21 C        6.7610     2.0640    -2.4240 C.3   1 <1>  -0.0220 
 22 C        4.5130     2.7350    -2.6940 C.2   1 <1>  -0.2880 
 23 C        5.6410     2.4860    -3.3420 C.2   1 <1>  -0.2880 
 24 H        5.0390    -2.0430     1.8620 H     1 <1>   0.0800 
 25 H        4.9290    -1.2970     3.3940 H     1 <1>   0.0800 
 26 H        3.8560     0.6640     3.7860 H     1 <1>   0.0800 
 27 H        2.4050     0.9680     2.8860 H     1 <1>   0.0800 
 28 H        1.1390    -1.1670    -0.8940 H     1 <1>   0.0800 
 29 H        1.5710    -2.7910    -1.3660 H     1 <1>   0.0800 
 30 H        4.2770    -3.2400    -1.0830 H     1 <1>   0.0800 
 31 H        5.1500    -2.0400    -0.1920 H     1 <1>   0.0800 
 32 H        1.5970    -2.9320     1.3920 H     1 <1>   0.0800 
 33 H        3.2660    -3.2980     1.7070 H     1 <1>   0.0800 
 34 H        2.4630    -4.0350     0.3520 H     1 <1>   0.0800 
 35 H        6.9810    -0.9580     1.5710 H     1 <1>   0.0800 
 36 H        6.7300    -0.0290     2.9950 H     1 <1>   0.0800 
 37 H        3.8420     2.9240     2.8770 H     1 <1>   0.0800 
 38 H        3.5930     2.3370     1.2870 H     1 <1>   0.0800 
 39 H        2.5960    -1.9570    -3.1180 H     1 <1>   0.4500 
 40 H        4.8030    -1.6510    -2.7550 H     1 <1>   0.0800 
 41 H        4.4750    -0.3130    -1.6670 H     1 <1>   0.0800 
 42 H        6.0860     2.0980     2.9850 H     1 <1>   0.0800 
 43 H        5.9060     3.0270     1.5410 H     1 <1>   0.0800 
 44 H        2.3700     0.7330    -1.8830 H     1 <1>   0.0800 
 45 H        1.2610     0.0450    -3.0470 H     1 <1>   0.0800 
 46 H        2.9020     0.4390    -3.5250 H     1 <1>   0.0800 
 47 H        6.6220     2.9830    -0.5130 H     1 <1>   0.0800 
 48 H        4.3990     3.4320    -0.6810 H     1 <1>   0.0800 
 49 H        3.9990     1.7330    -0.8870 H     1 <1>   0.0800 
 50 H        7.0880     1.0750    -2.6890 H     1 <1>   0.0800 
 51 H        7.5930     2.7390    -2.5160 H     1 <1>   0.0800 
 52 H        3.5660     3.0630    -3.0910 H     1 <1>   0.1500 
 53 H        5.8420     2.5540    -4.3990 H     1 <1>   0.1500 
@<TRIPOS>BOND
  1   1   2  2   
  2   2   3  am  
  3   2   4  1   
  4   3   5  1   
  5   3   6  1   
  6   4   7  1   
  7   4   8  1   
  8   4   9  1   
  9   5  10  1   
 10   5  24  1   
 11   5  25  1   
 12   6  11  1   
 13   6  26  1   
 14   6  27  1   
 15   7  12  1   
 16   7  28  1   
 17   7  29  1   
 18   8  13  1   
 19   8  30  1   
 20   8  31  1   
 21   9  32  1   
 22   9  33  1   
 23   9  34  1   
 24  10  14  1   
 25  10  35  1   
 26  10  36  1   
 27  11  15  1   
 28  11  37  1   
 29  11  38  1   
 30  12  13  1   
 31  12  16  1   
 32  12  39  1   
 33  13  40  1   
 34  13  41  1   
 35  14  15  1   
 36  14  17  am  
 37  15  42  1   
 38  15  43  1   
 39  16  44  1   
 40  16  45  1   
 41  16  46  1   
 42  17  18  2   
 43  17  19  1   
 44  19  20  1   
 45  19  21  1   
 46  19  47  1   
 47  20  22  1   
 48  20  48  1   
 49  20  49  1   
 50  21  23  1   
 51  21  50  1   
 52  21  51  1   
 53  22  23  2   
 54  22  52  1   
 55  23  53  1   
@<TRIPOS>SUBSTRUCTURE
  1 ****   2 GROUP 4 **** **** 0

# MOE 2024.06 (io_trps.svl 2023.06)
