@<TRIPOS>MOLECULE
NONAME
42 44 1 0 0 
SMALL
USER_CHARGES


@<TRIPOS>ATOM
  1 CL       0.1900    -0.2350     1.0710 Cl    1 <1>  -0.1770 
  2 C       -1.1450     0.8640     0.8430 C.ar  1 <1>   0.1770 
  3 C       -2.3340     0.3790     0.3370 C.ar  1 <1>  -0.1500 
  4 C       -0.9840     2.1950     1.1690 C.ar  1 <1>  -0.1500 
  5 C       -3.3940     1.2620     0.1550 C.ar  1 <1>   0.0830 
  6 C       -2.0310     3.0930     0.9830 C.ar  1 <1>   0.0860 
  7 O       -4.6030     0.8910    -0.3320 O.3   1 <1>  -0.3630 
  8 C       -3.2330     2.5990     0.4790 C.ar  1 <1>  -0.1500 
  9 C       -1.8710     4.4980     1.2960 C.2   1 <1>   0.5440 
 10 C       -4.9030    -0.4600    -0.6040 C.3   1 <1>   0.0400 
 11 O       -2.3110     4.9140     2.3510 O.2   1 <1>  -0.5700 
 12 N       -1.2400     5.3700     0.4290 N.am  1 <1>  -0.6600 
 13 C       -0.8190     6.7310     0.9040 C.3   1 <1>   0.1400 
 14 C       -0.8590     4.9860    -0.9690 C.3   1 <1>   0.1400 
 15 C        0.7030     7.0010     0.8740 C.3   1 <1>   0.2200 
 16 C        0.6470     5.0530    -1.2900 C.3   1 <1>  -0.0190 
 17 N        1.1530     7.3640    -0.5010 N.am  1 <1>  -0.6600 
 18 C        1.5960     5.8960     1.4930 C.3   1 <1>   0.1200 
 19 C        1.0930     6.4760    -1.5340 C.2   1 <1>   0.5690 
 20 C        1.6150     4.3340    -0.3320 C.3   1 <1>   0.1200 
 21 C        1.6130     8.7700    -0.6920 C.3   1 <1>   0.0600 
 22 O        1.3710     4.5960     1.0160 O.3   1 <1>  -0.5600 
 23 O        1.3940     6.7840    -2.6640 O.2   1 <1>  -0.5700 
 24 H       -2.4080    -0.6640     0.0990 H     1 <1>   0.1500 
 25 H       -0.0490     2.5420     1.5700 H     1 <1>   0.1500 
 26 H       -4.0590     3.2730     0.3410 H     1 <1>   0.1500 
 27 H       -5.9230    -0.5140    -0.9400 H     1 <1>   0.0800 
 28 H       -4.7870    -1.0330     0.3000 H     1 <1>   0.0800 
 29 H       -4.2450    -0.8180    -1.3760 H     1 <1>   0.0800 
 30 H       -1.3210     7.4770     0.3130 H     1 <1>   0.0800 
 31 H       -1.1430     6.8720     1.9190 H     1 <1>   0.0800 
 32 H       -1.1970     3.9880    -1.1780 H     1 <1>   0.0800 
 33 H       -1.3840     5.6350    -1.6490 H     1 <1>   0.0800 
 34 H        0.8550     7.8730     1.4860 H     1 <1>   0.0800 
 35 H        0.7620     4.5580    -2.2370 H     1 <1>   0.0800 
 36 H        1.4050     5.8600     2.5510 H     1 <1>   0.0800 
 37 H        2.6350     6.1350     1.3510 H     1 <1>   0.0800 
 38 H        2.6350     4.5970    -0.5510 H     1 <1>   0.0800 
 39 H        1.5080     3.2710    -0.4580 H     1 <1>   0.0800 
 40 H        2.4450     8.9730    -0.0410 H     1 <1>   0.0800 
 41 H        0.8090     9.4500    -0.4680 H     1 <1>   0.0800 
 42 H        1.9270     8.9360    -1.7080 H     1 <1>   0.0800 
@<TRIPOS>BOND
  1   1   2  1   
  2   2   3  ar  
  3   2   4  ar  
  4   3   5  ar  
  5   3  24  1   
  6   4   6  ar  
  7   4  25  1   
  8   5   7  1   
  9   5   8  ar  
 10   6   8  ar  
 11   6   9  1   
 12   7  10  1   
 13   8  26  1   
 14   9  11  2   
 15   9  12  am  
 16  10  27  1   
 17  10  28  1   
 18  10  29  1   
 19  12  13  1   
 20  12  14  1   
 21  13  15  1   
 22  13  30  1   
 23  13  31  1   
 24  14  16  1   
 25  14  32  1   
 26  14  33  1   
 27  15  17  1   
 28  15  18  1   
 29  15  34  1   
 30  16  19  1   
 31  16  20  1   
 32  16  35  1   
 33  17  19  am  
 34  17  21  1   
 35  18  22  1   
 36  18  36  1   
 37  18  37  1   
 38  19  23  2   
 39  20  22  1   
 40  20  38  1   
 41  20  39  1   
 42  21  40  1   
 43  21  41  1   
 44  21  42  1   
@<TRIPOS>SUBSTRUCTURE
  1 ****  12 GROUP 4 **** **** 0

# MOE 2024.06 (io_trps.svl 2023.06)
