@<TRIPOS>MOLECULE
NONAME
27 28 1 0 0 
SMALL
USER_CHARGES


@<TRIPOS>ATOM
  1 O       -0.2370    -0.2620    -0.0330 O.2   1 <1>  -0.5700 
  2 C       -1.2740    -0.8900     0.0310 C.2   1 <1>   0.6340 
  3 O       -2.4090    -0.2280     0.2860 O.3   1 <1>  -0.4300 
  4 C       -1.3450    -2.3270    -0.1560 C.ar  1 <1>   0.0860 
  5 C       -2.4290     1.1720     0.4810 C.3   1 <1>   0.0400 
  6 C       -2.5500    -3.0290    -0.0650 C.ar  1 <1>  -0.1500 
  7 C       -0.1960    -3.0710    -0.4370 C.ar  1 <1>  -0.1500 
  8 C       -2.6030    -4.3990    -0.2450 C.ar  1 <1>  -0.1500 
  9 C       -0.2460    -4.4410    -0.6170 C.ar  1 <1>  -0.1500 
 10 C       -1.4500    -5.1120    -0.5200 C.ar  1 <1>  -0.0320 
 11 C       -1.5230    -6.6140    -0.7170 C.3   1 <1>  -0.0680 
 12 C       -2.1690    -7.4420     0.3530 C.3   1 <1>  -0.2470 
 13 C       -0.6920    -7.5570     0.0970 C.3   1 <1>  -0.2000 
 14 C       -3.2020    -8.4730    -0.0680 C.2   1 <1>   0.9470 
 15 O       -2.8670    -9.3900    -0.8250 O.co2 1 <1>  -0.9000 
 16 O       -4.3560    -8.3430     0.3540 O.co2 1 <1>  -0.9000 
 17 H       -3.4430     1.4760     0.6690 H     1 <1>   0.0800 
 18 H       -2.0560     1.6520    -0.4070 H     1 <1>   0.0800 
 19 H       -1.8050     1.4140     1.3240 H     1 <1>   0.0800 
 20 H       -3.4630    -2.5010     0.1490 H     1 <1>   0.1500 
 21 H        0.7500    -2.5640    -0.5150 H     1 <1>   0.1500 
 22 H       -3.5410    -4.9260    -0.1700 H     1 <1>   0.1500 
 23 H        0.6510    -4.9940    -0.8330 H     1 <1>   0.1500 
 24 H       -1.7300    -6.8930    -1.7370 H     1 <1>   0.1000 
 25 H       -2.4710    -6.9550     1.2590 H     1 <1>   0.1000 
 26 H       -0.0160    -7.1650     0.8350 H     1 <1>   0.1000 
 27 H       -0.3390    -8.4680    -0.3560 H     1 <1>   0.1000 
@<TRIPOS>BOND
  1   1   2  2   
  2   2   3  1   
  3   2   4  1   
  4   3   5  1   
  5   4   6  ar  
  6   4   7  ar  
  7   5  17  1   
  8   5  18  1   
  9   5  19  1   
 10   6   8  ar  
 11   6  20  1   
 12   7   9  ar  
 13   7  21  1   
 14   8  10  ar  
 15   8  22  1   
 16   9  10  ar  
 17   9  23  1   
 18  10  11  1   
 19  11  12  1   
 20  11  13  1   
 21  11  24  1   
 22  12  13  1   
 23  12  14  1   
 24  12  25  1   
 25  13  26  1   
 26  13  27  1   
 27  14  15  ar  
 28  14  16  ar  
@<TRIPOS>SUBSTRUCTURE
  1 ****   8 GROUP 4 **** **** 0

# MOE 2024.06 (io_trps.svl 2023.06)
