@<TRIPOS>MOLECULE
NONAME
46 48 1 0 0 
SMALL
USER_CHARGES


@<TRIPOS>ATOM
  1 O       -0.0750    -0.5550     0.6160 O.3   1 <1>  -0.5600 
  2 C        1.0520    -1.0130    -0.0680 C.3   1 <1>   0.2000 
  3 C        0.1100     0.6280     1.3320 C.3   1 <1>   0.1200 
  4 C        1.4500     0.0230    -1.1320 C.3   1 <1>  -0.1600 
  5 C        0.7160    -2.3680    -0.6930 C.3   1 <1>  -0.1600 
  6 C        0.4520     1.7670     0.3630 C.3   1 <1>  -0.1600 
  7 C        1.6660     1.4030    -0.5000 C.3   1 <1>  -0.1600 
  8 C        0.2630    -3.3810     0.3590 C.3   1 <1>   0.2090 
  9 N        0.0320    -4.6960    -0.2950 N.pl3 1 <1>  -0.8380 
 10 C       -1.2440    -5.2380    -0.3320 C.ar  1 <1>   0.4100 
 11 C        1.2090    -5.6110    -0.2970 C.3   1 <1>   0.1290 
 12 N       -1.3830    -6.5070    -0.0530 N.ar  1 <1>  -0.6200 
 13 C       -2.3410    -4.4190    -0.6670 C.ar  1 <1>  -0.1500 
 14 C       -2.6300    -7.0530    -0.0740 C.ar  1 <1>   0.3100 
 15 C       -3.6000    -4.9250    -0.6960 C.ar  1 <1>  -0.1500 
 16 C       -2.8150    -8.4320     0.2260 C.ar  1 <1>   0.0820 
 17 C       -3.7750    -6.2850    -0.3890 C.ar  1 <1>   0.0000 
 18 O       -1.7070    -9.1700     0.5250 O.3   1 <1>  -0.3630 
 19 C       -4.0770    -8.9900     0.2120 C.ar  1 <1>  -0.1500 
 20 C       -5.0450    -6.8890    -0.3930 C.ar  1 <1>  -0.1500 
 21 C       -1.7680   -10.5420     0.8440 C.3   1 <1>   0.0400 
 22 C       -5.1950    -8.2150    -0.0980 C.ar  1 <1>  -0.1500 
 23 H        1.8490    -1.1340     0.6470 H     1 <1>   0.0800 
 24 H        0.8980     0.4770     2.0500 H     1 <1>   0.0800 
 25 H       -0.8060     0.8420     1.8550 H     1 <1>   0.0800 
 26 H        0.6700     0.0830    -1.8710 H     1 <1>   0.0800 
 27 H        2.3510    -0.2940    -1.6270 H     1 <1>   0.0800 
 28 H        1.5890    -2.7460    -1.1910 H     1 <1>   0.0800 
 29 H       -0.0610    -2.2410    -1.4240 H     1 <1>   0.0800 
 30 H        0.6520     2.6660     0.9180 H     1 <1>   0.0800 
 31 H       -0.4020     1.9500    -0.2660 H     1 <1>   0.0800 
 32 H        1.8120     2.1440    -1.2670 H     1 <1>   0.0800 
 33 H        2.5470     1.3790     0.1180 H     1 <1>   0.0800 
 34 H       -0.6390    -3.0400     0.8380 H     1 <1>   0.0800 
 35 H        1.0150    -3.4850     1.1220 H     1 <1>   0.0800 
 36 H        2.0960    -5.0790    -0.5910 H     1 <1>   0.0800 
 37 H        1.0440    -6.4170    -0.9920 H     1 <1>   0.0800 
 38 H        1.3460    -6.0260     0.6860 H     1 <1>   0.0800 
 39 H       -2.1530    -3.3910    -0.9040 H     1 <1>   0.1500 
 40 H       -4.4500    -4.3180    -0.9470 H     1 <1>   0.1500 
 41 H       -4.2420   -10.0270     0.4360 H     1 <1>   0.1500 
 42 H       -5.9020    -6.2860    -0.6330 H     1 <1>   0.1500 
 43 H       -0.7670   -10.8820     1.0390 H     1 <1>   0.0800 
 44 H       -2.1790   -11.0770     0.0070 H     1 <1>   0.0800 
 45 H       -2.3750   -10.6690     1.7230 H     1 <1>   0.0800 
 46 H       -6.1690    -8.6740    -0.1020 H     1 <1>   0.1500 
@<TRIPOS>BOND
  1   1   2  1   
  2   1   3  1   
  3   2   4  1   
  4   2   5  1   
  5   2  23  1   
  6   3   6  1   
  7   3  24  1   
  8   3  25  1   
  9   4   7  1   
 10   4  26  1   
 11   4  27  1   
 12   5   8  1   
 13   5  28  1   
 14   5  29  1   
 15   6   7  1   
 16   6  30  1   
 17   6  31  1   
 18   7  32  1   
 19   7  33  1   
 20   8   9  1   
 21   8  34  1   
 22   8  35  1   
 23   9  10  1   
 24   9  11  1   
 25  10  12  ar  
 26  10  13  ar  
 27  11  36  1   
 28  11  37  1   
 29  11  38  1   
 30  12  14  ar  
 31  13  15  ar  
 32  13  39  1   
 33  14  16  ar  
 34  14  17  ar  
 35  15  17  ar  
 36  15  40  1   
 37  16  18  1   
 38  16  19  ar  
 39  17  20  ar  
 40  18  21  1   
 41  19  22  ar  
 42  19  41  1   
 43  20  22  ar  
 44  20  42  1   
 45  21  43  1   
 46  21  44  1   
 47  21  45  1   
 48  22  46  1   
@<TRIPOS>SUBSTRUCTURE
  1 ****  10 GROUP 4 **** **** 0

# MOE 2024.06 (io_trps.svl 2023.06)
