@<TRIPOS>MOLECULE
NONAME
45 47 1 0 0 
SMALL
USER_CHARGES


@<TRIPOS>ATOM
  1 S       -0.1670     0.0430    -0.3370 S.o2  1 <1>   1.2040 
  2 O       -1.4940     0.6140    -0.3920 O.2   1 <1>  -0.6500 
  3 O        0.7650     0.2690    -1.4170 O.2   1 <1>  -0.6500 
  4 C       -0.2930    -1.7360    -0.0170 C.ar  1 <1>  -0.0090 
  5 C        0.6010     0.6370     1.1570 C.3   1 <1>  -0.1350 
  6 C        0.7640    -2.5930    -0.2990 C.ar  1 <1>  -0.1500 
  7 C       -1.4350    -2.2880     0.5480 C.ar  1 <1>  -0.1500 
  8 C        0.6800    -3.9480    -0.0300 C.ar  1 <1>  -0.1500 
  9 C       -1.5210    -3.6420     0.8170 C.ar  1 <1>  -0.1500 
 10 C       -0.4680    -4.5060     0.5250 C.ar  1 <1>   0.0860 
 11 C       -0.5500    -5.9300     0.7910 C.2   1 <1>   0.5440 
 12 O        0.3040    -6.4660     1.4690 O.2   1 <1>  -0.5700 
 13 N       -1.5680    -6.7010     0.2790 N.am  1 <1>  -0.6600 
 14 C       -2.4310    -6.3140    -0.8680 C.3   1 <1>   0.1400 
 15 C       -1.6570    -8.1650     0.5150 C.3   1 <1>   0.1400 
 16 C       -3.3690    -7.5040    -1.0580 C.3   1 <1>   0.2000 
 17 C       -2.5210    -8.7060    -0.6300 C.3   1 <1>  -0.0800 
 18 O       -4.4340    -7.3520    -0.1840 O.3   1 <1>  -0.6800 
 19 C       -3.3230    -9.9700    -0.2660 C.3   1 <1>   0.0200 
 20 C       -2.4420   -11.1760     0.0160 C.2   1 <1>  -0.0400 
 21 O       -3.0040   -12.2710     0.4570 O.3   1 <1>  -0.0190 
 22 C       -1.1240   -11.4100    -0.0900 C.2   1 <1>  -0.1500 
 23 N       -2.1350   -13.2200     0.6550 N.2   1 <1>  -0.4100 
 24 C       -0.9930   -12.7290     0.3350 C.2   1 <1>   0.1080 
 25 C        0.3120   -13.4900     0.4120 C.3   1 <1>  -0.0590 
 26 H       -0.0140     0.4180     2.0080 H     1 <1>   0.0800 
 27 H        0.7380     1.6990     1.1000 H     1 <1>   0.0800 
 28 H        1.5610     0.1770     1.2940 H     1 <1>   0.0800 
 29 H        1.6650    -2.1960    -0.7380 H     1 <1>   0.1500 
 30 H       -2.2720    -1.6480     0.7800 H     1 <1>   0.1500 
 31 H        1.5140    -4.5920    -0.2510 H     1 <1>   0.1500 
 32 H       -2.4160    -4.0420     1.2620 H     1 <1>   0.1500 
 33 H       -2.9800    -5.4080    -0.6790 H     1 <1>   0.0800 
 34 H       -1.8160    -6.1870    -1.7420 H     1 <1>   0.0800 
 35 H       -0.6770    -8.6130     0.5200 H     1 <1>   0.0800 
 36 H       -2.1260    -8.3370     1.4690 H     1 <1>   0.0800 
 37 H       -3.7560    -7.5830    -2.0600 H     1 <1>   0.0800 
 38 H       -1.8650    -8.9450    -1.4490 H     1 <1>   0.0800 
 39 H       -4.0850    -7.1610     0.7100 H     1 <1>   0.4000 
 40 H       -3.9860   -10.2170    -1.0760 H     1 <1>   0.0800 
 41 H       -3.9290    -9.7840     0.6030 H     1 <1>   0.0800 
 42 H       -0.3240   -10.7730    -0.4160 H     1 <1>   0.1500 
 43 H        0.7640   -13.5390    -0.5600 H     1 <1>   0.0800 
 44 H        0.1320   -14.4900     0.7640 H     1 <1>   0.0800 
 45 H        0.9810   -12.9970     1.0920 H     1 <1>   0.0800 
@<TRIPOS>BOND
  1   1   2  2   
  2   1   3  2   
  3   1   4  1   
  4   1   5  1   
  5   4   6  ar  
  6   4   7  ar  
  7   5  26  1   
  8   5  27  1   
  9   5  28  1   
 10   6   8  ar  
 11   6  29  1   
 12   7   9  ar  
 13   7  30  1   
 14   8  10  ar  
 15   8  31  1   
 16   9  10  ar  
 17   9  32  1   
 18  10  11  1   
 19  11  12  2   
 20  11  13  am  
 21  13  14  1   
 22  13  15  1   
 23  14  16  1   
 24  14  33  1   
 25  14  34  1   
 26  15  17  1   
 27  15  35  1   
 28  15  36  1   
 29  16  17  1   
 30  16  18  1   
 31  16  37  1   
 32  17  19  1   
 33  17  38  1   
 34  18  39  1   
 35  19  20  1   
 36  19  40  1   
 37  19  41  1   
 38  20  21  1   
 39  20  22  2   
 40  21  23  1   
 41  22  24  1   
 42  22  42  1   
 43  23  24  2   
 44  24  25  1   
 45  25  43  1   
 46  25  44  1   
 47  25  45  1   
@<TRIPOS>SUBSTRUCTURE
  1 ****  13 GROUP 4 **** **** 0

# MOE 2024.06 (io_trps.svl 2023.06)
