@<TRIPOS>MOLECULE
NONAME
56 58 1 0 0 
SMALL
USER_CHARGES


@<TRIPOS>ATOM
  1 O        0.6310     2.0500    -0.6900 O.2   1 <1>  -0.5700 
  2 C       -0.0870     3.0180    -0.7760 C.2   1 <1>   0.5690 
  3 N       -0.9860     3.3980     0.1800 N.am  1 <1>  -0.6600 
  4 C        0.1030     3.9650    -1.9530 C.3   1 <1>   0.1810 
  5 C       -1.4630     4.8220     0.1870 C.3   1 <1>   0.3640 
  6 C       -1.5380     2.5260     1.2540 C.3   1 <1>   0.2200 
  7 O        0.4390     5.2350    -1.4610 O.3   1 <1>  -0.5600 
  8 C       -2.8970     4.9290    -0.3390 C.ar  1 <1>  -0.1440 
  9 C       -0.5340     5.8120    -0.5860 C.3   1 <1>   0.2610 
 10 C       -0.5060     2.3490     2.3660 C.3   1 <1>  -0.2400 
 11 C       -1.9990     1.1780     0.6980 C.3   1 <1>  -0.2400 
 12 C       -3.4400     4.0320    -1.2520 C.ar  1 <1>  -0.1500 
 13 C       -3.6840     5.9810     0.1110 C.ar  1 <1>  -0.1500 
 14 C        0.1500     6.7640     0.4020 C.2   1 <1>   0.5690 
 15 C       -4.7410     4.1830    -1.7010 C.ar  1 <1>  -0.1500 
 16 C       -4.9840     6.1340    -0.3380 C.ar  1 <1>  -0.1500 
 17 O       -0.3600     7.8490     0.5430 O.2   1 <1>  -0.5700 
 18 N        1.3180     6.4460     1.0710 N.am  1 <1>  -0.6600 
 19 C       -5.5140     5.2350    -1.2440 C.ar  1 <1>  -0.1500 
 20 C        1.9010     5.0700     1.2270 C.3   1 <1>   0.1400 
 21 C        2.1490     7.5200     1.6750 C.3   1 <1>   0.1400 
 22 C        2.9340     4.7080     0.1400 C.3   1 <1>   0.3430 
 23 C        3.1890     7.9980     0.6550 C.3   1 <1>  -0.1600 
 24 N        3.3550     5.8960    -0.6730 N.4   1 <1>  -0.9590 
 25 C        4.1190     6.9060     0.1150 C.3   1 <1>   0.3430 
 26 C        4.0740     5.4760    -1.9090 C.3   1 <1>   0.2630 
 27 H       -0.7980     4.0390    -2.5350 H     1 <1>   0.0800 
 28 H        0.9030     3.6200    -2.5810 H     1 <1>   0.0800 
 29 H       -1.4930     5.1450     1.2140 H     1 <1>   0.0800 
 30 H       -2.4070     3.0070     1.6750 H     1 <1>   0.0800 
 31 H       -1.1610     6.4250    -1.2100 H     1 <1>   0.0800 
 32 H        0.3820     1.8760     1.9880 H     1 <1>   0.0800 
 33 H       -0.9140     1.7250     3.1410 H     1 <1>   0.0800 
 34 H       -0.2580     3.2990     2.8020 H     1 <1>   0.0800 
 35 H       -1.1690     0.5930     0.3460 H     1 <1>   0.0800 
 36 H       -2.7010     1.3220    -0.1020 H     1 <1>   0.0800 
 37 H       -2.4890     0.6170     1.4730 H     1 <1>   0.0800 
 38 H       -2.8680     3.2020    -1.6240 H     1 <1>   0.1500 
 39 H       -3.2930     6.6990     0.8140 H     1 <1>   0.1500 
 40 H       -5.1530     3.4820    -2.4060 H     1 <1>   0.1500 
 41 H       -5.5830     6.9540     0.0180 H     1 <1>   0.1500 
 42 H       -6.5250     5.3530    -1.5930 H     1 <1>   0.1500 
 43 H        2.3750     4.9950     2.1910 H     1 <1>   0.0800 
 44 H        1.1240     4.3340     1.2260 H     1 <1>   0.0800 
 45 H        1.5260     8.3510     1.9660 H     1 <1>   0.0800 
 46 H        2.6330     7.1590     2.5660 H     1 <1>   0.0800 
 47 H        2.4810     3.9780    -0.5110 H     1 <1>   0.0800 
 48 H        3.7900     4.2400     0.5960 H     1 <1>   0.0800 
 49 H        3.7960     8.7450     1.1340 H     1 <1>   0.0800 
 50 H        2.6880     8.4880    -0.1620 H     1 <1>   0.0800 
 51 H        2.4590     6.3410    -0.9440 H     1 <1>   0.4500 
 52 H        4.6420     6.4270     0.9270 H     1 <1>   0.0800 
 53 H        4.8530     7.3750    -0.5210 H     1 <1>   0.0800 
 54 H        4.9980     4.9800    -1.6570 H     1 <1>   0.0800 
 55 H        4.2960     6.3350    -2.5220 H     1 <1>   0.0800 
 56 H        3.4610     4.7980    -2.4820 H     1 <1>   0.0800 
@<TRIPOS>BOND
  1   1   2  2   
  2   2   3  am  
  3   2   4  1   
  4   3   5  1   
  5   3   6  1   
  6   4   7  1   
  7   4  27  1   
  8   4  28  1   
  9   5   8  1   
 10   5   9  1   
 11   5  29  1   
 12   6  10  1   
 13   6  11  1   
 14   6  30  1   
 15   7   9  1   
 16   8  12  ar  
 17   8  13  ar  
 18   9  14  1   
 19   9  31  1   
 20  10  32  1   
 21  10  33  1   
 22  10  34  1   
 23  11  35  1   
 24  11  36  1   
 25  11  37  1   
 26  12  15  ar  
 27  12  38  1   
 28  13  16  ar  
 29  13  39  1   
 30  14  17  2   
 31  14  18  am  
 32  15  19  ar  
 33  15  40  1   
 34  16  19  ar  
 35  16  41  1   
 36  18  20  1   
 37  18  21  1   
 38  19  42  1   
 39  20  22  1   
 40  20  43  1   
 41  20  44  1   
 42  21  23  1   
 43  21  45  1   
 44  21  46  1   
 45  22  24  1   
 46  22  47  1   
 47  22  48  1   
 48  23  25  1   
 49  23  49  1   
 50  23  50  1   
 51  24  25  1   
 52  24  26  1   
 53  24  51  1   
 54  25  52  1   
 55  25  53  1   
 56  26  54  1   
 57  26  55  1   
 58  26  56  1   
@<TRIPOS>SUBSTRUCTURE
  1 ****   9 GROUP 4 **** **** 0

# MOE 2024.06 (io_trps.svl 2023.06)
