@<TRIPOS>MOLECULE
NONAME
50 53 1 0 0 
SMALL
USER_CHARGES


@<TRIPOS>ATOM
  1 O       -1.0050    -1.0690    -2.6680 O.2   1 <1>  -0.5700 
  2 C       -1.8480    -1.3450    -1.8350 C.2   1 <1>   0.5410 
  3 C       -1.8930    -2.6060    -1.1920 C.2   1 <1>  -0.1360 
  4 C       -2.8580    -0.4230    -1.4510 C.2   1 <1>  -0.1360 
  5 C       -2.8570    -2.9150    -0.2800 C.2   1 <1>   0.0910 
  6 C       -3.7900    -0.7680    -0.5340 C.2   1 <1>  -0.0620 
  7 O       -3.7810    -1.9800     0.0290 O.3   1 <1>  -0.1530 
  8 C       -2.9510    -4.1840     0.4140 C.2   1 <1>   0.6160 
  9 C       -4.9080     0.1320    -0.0470 C.3   1 <1>  -0.1020 
 10 O       -1.9200    -4.7800     0.6710 O.2   1 <1>  -0.5700 
 11 N       -4.1520    -4.7620     0.7780 N.am  1 <1>  -0.6600 
 12 C       -5.4470    -4.5040     0.0920 C.3   1 <1>   0.1400 
 13 C       -4.2200    -5.8480     1.7960 C.3   1 <1>   0.1400 
 14 C       -5.9140    -5.7890    -0.5970 C.3   1 <1>  -0.1600 
 15 C       -4.6770    -7.1450     1.1250 C.3   1 <1>  -0.1600 
 16 C       -6.0120    -6.9680     0.3870 C.3   1 <1>   0.4240 
 17 O       -6.9460    -6.6250     1.3840 O.3   1 <1>  -0.5600 
 18 C       -6.4010    -8.2730    -0.3420 C.ar  1 <1>  -0.1430 
 19 C       -8.2940    -6.8470     1.1100 C.3   1 <1>   0.1200 
 20 C       -7.5950    -8.9290    -0.0570 C.ar  1 <1>  -0.1430 
 21 C       -5.5620    -8.8170    -1.3090 C.ar  1 <1>  -0.1500 
 22 C       -8.5310    -8.3490     0.9840 C.3   1 <1>  -0.0170 
 23 C       -7.9340   -10.1010    -0.7140 C.ar  1 <1>  -0.1500 
 24 C       -5.9000    -9.9850    -1.9670 C.ar  1 <1>  -0.1500 
 25 C       -7.0840   -10.6370    -1.6760 C.ar  1 <1>   0.0830 
 26 O       -7.3410   -11.7770    -2.3640 O.3   1 <1>  -0.3630 
 27 C       -8.5100   -12.5290    -2.1290 C.3   1 <1>   0.0400 
 28 H       -1.1240    -3.3080    -1.4590 H     1 <1>   0.1500 
 29 H       -2.8280     0.5380    -1.9280 H     1 <1>   0.1500 
 30 H       -5.8610    -0.3180    -0.2600 H     1 <1>   0.0800 
 31 H       -4.8630     1.0910    -0.5310 H     1 <1>   0.0800 
 32 H       -4.8230     0.2770     1.0150 H     1 <1>   0.0800 
 33 H       -5.3480    -3.7310    -0.6480 H     1 <1>   0.0800 
 34 H       -6.1750    -4.1870     0.8200 H     1 <1>   0.0800 
 35 H       -4.9200    -5.5660     2.5640 H     1 <1>   0.0800 
 36 H       -3.2610    -5.9970     2.2610 H     1 <1>   0.0800 
 37 H       -5.2090    -6.0270    -1.3710 H     1 <1>   0.0800 
 38 H       -6.8620    -5.6280    -1.0740 H     1 <1>   0.0800 
 39 H       -4.7820    -7.9190     1.8620 H     1 <1>   0.0800 
 40 H       -3.9090    -7.4520     0.4410 H     1 <1>   0.0800 
 41 H       -8.5620    -6.3350     0.2030 H     1 <1>   0.0800 
 42 H       -8.8670    -6.4430     1.9260 H     1 <1>   0.0800 
 43 H       -4.6330    -8.3370    -1.5600 H     1 <1>   0.1500 
 44 H       -9.5540    -8.5230     0.7050 H     1 <1>   0.0800 
 45 H       -8.3530    -8.8190     1.9350 H     1 <1>   0.0800 
 46 H       -8.8580   -10.5860    -0.4680 H     1 <1>   0.1500 
 47 H       -5.2450   -10.4000    -2.7120 H     1 <1>   0.1500 
 48 H       -8.4930   -13.3850    -2.7780 H     1 <1>   0.0800 
 49 H       -9.3680   -11.9190    -2.3520 H     1 <1>   0.0800 
 50 H       -8.5190   -12.8480    -1.1020 H     1 <1>   0.0800 
@<TRIPOS>BOND
  1   1   2  2   
  2   2   3  1   
  3   2   4  1   
  4   3   5  2   
  5   3  28  1   
  6   4   6  2   
  7   4  29  1   
  8   5   7  1   
  9   5   8  1   
 10   6   7  1   
 11   6   9  1   
 12   8  10  2   
 13   8  11  am  
 14   9  30  1   
 15   9  31  1   
 16   9  32  1   
 17  11  12  1   
 18  11  13  1   
 19  12  14  1   
 20  12  33  1   
 21  12  34  1   
 22  13  15  1   
 23  13  35  1   
 24  13  36  1   
 25  14  16  1   
 26  14  37  1   
 27  14  38  1   
 28  15  16  1   
 29  15  39  1   
 30  15  40  1   
 31  16  17  1   
 32  16  18  1   
 33  17  19  1   
 34  18  20  ar  
 35  18  21  ar  
 36  19  22  1   
 37  19  41  1   
 38  19  42  1   
 39  20  22  1   
 40  20  23  ar  
 41  21  24  ar  
 42  21  43  1   
 43  22  44  1   
 44  22  45  1   
 45  23  25  ar  
 46  23  46  1   
 47  24  25  ar  
 48  24  47  1   
 49  25  26  1   
 50  26  27  1   
 51  27  48  1   
 52  27  49  1   
 53  27  50  1   
@<TRIPOS>SUBSTRUCTURE
  1 ****  14 GROUP 4 **** **** 0

# MOE 2024.06 (io_trps.svl 2023.06)
