@<TRIPOS>MOLECULE
NONAME
52 55 1 0 0 
SMALL
USER_CHARGES


@<TRIPOS>ATOM
  1 O        0.9620    -0.4430     1.8040 O.2   1 <1>  -0.5700 
  2 C        1.4420    -0.6790     0.7200 C.2   1 <1>   0.5690 
  3 N        2.0750     0.2930    -0.0150 N.am  1 <1>  -0.6600 
  4 C        1.3250    -2.0960     0.1880 C.3   1 <1>  -0.0990 
  5 C        2.1560     1.7010     0.4820 C.3   1 <1>   0.1400 
  6 C        2.7360     0.0820    -1.3330 C.3   1 <1>   0.1400 
  7 C        0.7630    -3.0750     1.2280 C.3   1 <1>   0.0960 
  8 C        3.5900     2.2320     0.6730 C.3   1 <1>   0.1900 
  9 C        4.2690     0.1920    -1.2460 C.3   1 <1>  -0.0800 
 10 N        0.6270    -4.4250     0.6520 N.pl3 1 <1>   0.3140 
 11 N        4.1710     2.6680    -0.6340 N.3   1 <1>  -0.8100 
 12 C        4.4670     1.3070     1.5630 C.3   1 <1>   0.1200 
 13 C        4.8900    -0.4460     0.0170 C.3   1 <1>   0.1200 
 14 C        4.7830     1.6230    -1.4810 C.3   1 <1>   0.1100 
 15 N        1.6810    -5.1080     0.1660 N.2   1 <1>  -0.7070 
 16 C       -0.5130    -5.1350     0.5250 C.2   1 <1>  -0.3020 
 17 C        5.1180     3.7900    -0.4530 C.3   1 <1>   0.2900 
 18 O        5.4050     0.5200     0.8810 O.3   1 <1>  -0.5600 
 19 C        1.1860    -6.2330    -0.2520 C.2   1 <1>   0.1390 
 20 C       -0.1860    -6.3090    -0.0550 C.2   1 <1>  -0.1500 
 21 C        4.4100     5.0880    -0.0920 C.2   1 <1>  -0.0400 
 22 O        5.1240     6.0700     0.4240 O.3   1 <1>  -0.2800 
 23 C        3.1160     5.4610    -0.2070 C.2   1 <1>  -0.1500 
 24 C        4.3120     7.0820     0.6520 C.2   1 <1>  -0.0400 
 25 C        3.0520     6.7710     0.2840 C.2   1 <1>  -0.1500 
 26 C        4.8850     8.3470     1.2500 C.3   1 <1>  -0.0600 
 27 H        0.6810    -2.0840    -0.6710 H     1 <1>   0.0800 
 28 H        2.3000    -2.4370    -0.1060 H     1 <1>   0.0800 
 29 H        1.6370     2.3460    -0.2030 H     1 <1>   0.0800 
 30 H        1.6500     1.7790     1.4280 H     1 <1>   0.0800 
 31 H        2.4810    -0.8840    -1.7270 H     1 <1>   0.0800 
 32 H        2.3640     0.8130    -2.0320 H     1 <1>   0.0800 
 33 H       -0.2020    -2.7440     1.5670 H     1 <1>   0.0800 
 34 H        1.4230    -3.1330     2.0740 H     1 <1>   0.0800 
 35 H        3.4400     3.1200     1.2620 H     1 <1>   0.0800 
 36 H        4.6400    -0.3840    -2.0740 H     1 <1>   0.0800 
 37 H        3.8470     0.6590     2.1580 H     1 <1>   0.0800 
 38 H        5.0280     1.9250     2.2400 H     1 <1>   0.0800 
 39 H        5.7230    -1.0620    -0.2730 H     1 <1>   0.0800 
 40 H        4.1970    -1.0650     0.5580 H     1 <1>   0.0800 
 41 H        4.6080     1.8930    -2.5080 H     1 <1>   0.0800 
 42 H        5.8510     1.6170    -1.3330 H     1 <1>   0.0800 
 43 H       -1.4720    -4.7740     0.8480 H     1 <1>   0.1500 
 44 H        5.8280     3.5400     0.3170 H     1 <1>   0.0800 
 45 H        5.6620     3.9610    -1.3650 H     1 <1>   0.0800 
 46 H        1.7810    -7.0120    -0.7000 H     1 <1>   0.1500 
 47 H       -0.8210    -7.1360    -0.3180 H     1 <1>   0.1500 
 48 H        2.2930     4.8900    -0.5960 H     1 <1>   0.1500 
 49 H        2.1630     7.3730     0.3380 H     1 <1>   0.1500 
 50 H        4.1110     9.0810     1.3780 H     1 <1>   0.0800 
 51 H        5.6410     8.7440     0.5980 H     1 <1>   0.0800 
 52 H        5.3250     8.1290     2.2050 H     1 <1>   0.0800 
@<TRIPOS>BOND
  1   1   2  2   
  2   2   3  am  
  3   2   4  1   
  4   3   5  1   
  5   3   6  1   
  6   4   7  1   
  7   4  27  1   
  8   4  28  1   
  9   5   8  1   
 10   5  29  1   
 11   5  30  1   
 12   6   9  1   
 13   6  31  1   
 14   6  32  1   
 15   7  10  1   
 16   7  33  1   
 17   7  34  1   
 18   8  11  1   
 19   8  12  1   
 20   8  35  1   
 21   9  13  1   
 22   9  14  1   
 23   9  36  1   
 24  10  15  1   
 25  10  16  1   
 26  11  14  1   
 27  11  17  1   
 28  12  18  1   
 29  12  37  1   
 30  12  38  1   
 31  13  18  1   
 32  13  39  1   
 33  13  40  1   
 34  14  41  1   
 35  14  42  1   
 36  15  19  2   
 37  16  20  2   
 38  16  43  1   
 39  17  21  1   
 40  17  44  1   
 41  17  45  1   
 42  19  20  1   
 43  19  46  1   
 44  20  47  1   
 45  21  22  1   
 46  21  23  2   
 47  22  24  1   
 48  23  25  1   
 49  23  48  1   
 50  24  25  2   
 51  24  26  1   
 52  25  49  1   
 53  26  50  1   
 54  26  51  1   
 55  26  52  1   
@<TRIPOS>SUBSTRUCTURE
  1 ****   3 GROUP 4 **** **** 0

# MOE 2024.06 (io_trps.svl 2023.06)
