@<TRIPOS>MOLECULE
NONAME
39 40 1 0 0 
SMALL
USER_CHARGES


@<TRIPOS>ATOM
  1 S        0.2970    -0.5270    -0.2620 S.o2  1 <1>   1.0900 
  2 O        1.1630    -1.0580     0.7630 O.2   1 <1>  -0.6500 
  3 O        0.5330    -0.8580    -1.6480 O.2   1 <1>  -0.6500 
  4 C       -1.3820    -0.9840     0.1280 C.3   1 <1>  -0.0550 
  5 C        0.2900     1.2490    -0.1130 C.3   1 <1>  -0.1350 
  6 C       -1.5470    -2.4990     0.0770 C.3   1 <1>   0.1100 
  7 N       -2.9400    -2.8630     0.3640 N.3   1 <1>  -0.8100 
  8 C       -3.8630    -2.6030    -0.7510 C.3   1 <1>   0.1100 
  9 C       -3.0880    -4.2940     0.6880 C.3   1 <1>   0.1100 
 10 C       -5.0700    -3.4790    -0.4440 C.3   1 <1>   0.2000 
 11 C       -4.4370    -4.7560     0.1040 C.3   1 <1>  -0.0800 
 12 O       -5.7660    -2.8770     0.5860 O.3   1 <1>  -0.6800 
 13 C       -4.2580    -5.8050    -1.0090 C.3   1 <1>  -0.0170 
 14 C       -3.6280    -7.0870    -0.4830 C.ar  1 <1>  -0.1440 
 15 C       -2.3340    -7.4520    -0.7960 C.ar  1 <1>  -0.1500 
 16 C       -4.3240    -7.9540     0.3350 C.ar  1 <1>  -0.1500 
 17 C       -1.8120    -8.6290    -0.2860 C.ar  1 <1>   0.1600 
 18 C       -3.7080    -9.1080     0.7910 C.ar  1 <1>   0.1600 
 19 N       -2.4680    -9.4660     0.5020 N.ar  1 <1>  -0.6200 
 20 H       -1.6350    -0.6470     1.1140 H     1 <1>   0.0800 
 21 H       -2.0480    -0.5300    -0.5780 H     1 <1>   0.0800 
 22 H        0.0280     1.5430     0.8860 H     1 <1>   0.0800 
 23 H       -0.4100     1.6840    -0.8000 H     1 <1>   0.0800 
 24 H        1.2650     1.6370    -0.3330 H     1 <1>   0.0800 
 25 H       -0.9030    -2.9370     0.8220 H     1 <1>   0.0800 
 26 H       -1.2510    -2.8790    -0.8880 H     1 <1>   0.0800 
 27 H       -4.1360    -1.5640    -0.8130 H     1 <1>   0.0800 
 28 H       -3.4200    -2.9160    -1.6810 H     1 <1>   0.0800 
 29 H       -2.2750    -4.8630     0.2680 H     1 <1>   0.0800 
 30 H       -3.0750    -4.4210     1.7570 H     1 <1>   0.0800 
 31 H       -5.7350    -3.6260    -1.2770 H     1 <1>   0.0800 
 32 H       -5.0540    -5.1820     0.8770 H     1 <1>   0.0800 
 33 H       -5.0940    -2.5990     1.2450 H     1 <1>   0.4000 
 34 H       -3.6510    -5.4020    -1.8010 H     1 <1>   0.0800 
 35 H       -5.2200    -6.0450    -1.4290 H     1 <1>   0.0800 
 36 H       -1.7240    -6.8340    -1.4290 H     1 <1>   0.1500 
 37 H       -5.3380    -7.7450     0.6210 H     1 <1>   0.1500 
 38 H       -0.8000    -8.8970    -0.5400 H     1 <1>   0.1500 
 39 H       -4.2670    -9.7720     1.4290 H     1 <1>   0.1500 
@<TRIPOS>BOND
  1   1   2  2   
  2   1   3  2   
  3   1   4  1   
  4   1   5  1   
  5   4   6  1   
  6   4  20  1   
  7   4  21  1   
  8   5  22  1   
  9   5  23  1   
 10   5  24  1   
 11   6   7  1   
 12   6  25  1   
 13   6  26  1   
 14   7   8  1   
 15   7   9  1   
 16   8  10  1   
 17   8  27  1   
 18   8  28  1   
 19   9  11  1   
 20   9  29  1   
 21   9  30  1   
 22  10  11  1   
 23  10  12  1   
 24  10  31  1   
 25  11  13  1   
 26  11  32  1   
 27  12  33  1   
 28  13  14  1   
 29  13  34  1   
 30  13  35  1   
 31  14  15  ar  
 32  14  16  ar  
 33  15  17  ar  
 34  15  36  1   
 35  16  18  ar  
 36  16  37  1   
 37  17  19  ar  
 38  17  38  1   
 39  18  19  ar  
 40  18  39  1   
@<TRIPOS>SUBSTRUCTURE
  1 ****   9 GROUP 4 **** **** 0

# MOE 2024.06 (io_trps.svl 2023.06)
