@<TRIPOS>MOLECULE
NONAME
51 54 1 0 0 
SMALL
USER_CHARGES


@<TRIPOS>ATOM
  1 O       -0.5550     0.4080    -0.5220 O.2   1 <1>  -0.5700 
  2 C       -1.6370     0.9110    -0.3390 C.2   1 <1>   0.5690 
  3 N       -2.7690     0.1550    -0.2250 N.am  1 <1>  -0.6600 
  4 C       -1.7320     2.4220    -0.2510 C.3   1 <1>  -0.0990 
  5 C       -4.1530     0.6530    -0.0220 C.3   1 <1>   0.1400 
  6 C       -2.7500    -1.3260    -0.2960 C.3   1 <1>   0.1400 
  7 C       -0.3710     3.0700     0.0360 C.3   1 <1>   0.0960 
  8 C       -5.0310    -0.6000    -0.0240 C.3   1 <1>   0.2000 
  9 C       -4.0930    -1.7650     0.2900 C.3   1 <1>  -0.0800 
 10 N       -0.5040     4.5360     0.1040 N.pl3 1 <1>   0.3140 
 11 O       -6.0290    -0.5230     0.9350 O.3   1 <1>  -0.6800 
 12 C       -4.6060    -3.1060    -0.2610 C.3   1 <1>  -0.0160 
 13 N       -1.2480     5.1440     1.0480 N.2   1 <1>  -0.7070 
 14 C        0.0540     5.4350    -0.7310 C.2   1 <1>  -0.3020 
 15 C       -3.6460    -4.2390     0.0600 C.ar  1 <1>   0.1670 
 16 C       -1.1400     6.4110     0.7920 C.2   1 <1>   0.1390 
 17 C       -0.3350     6.6580    -0.3150 C.2   1 <1>  -0.1810 
 18 N       -2.6820    -4.4600    -0.7790 N.ar  1 <1>  -0.6200 
 19 C       -3.8380    -4.9790     1.2380 C.ar  1 <1>  -0.1500 
 20 C        0.0110     8.0100    -0.9030 C.3   1 <1>  -0.0590 
 21 C       -1.8110    -5.4620    -0.4930 C.ar  1 <1>   0.3100 
 22 C       -2.9810    -5.9900     1.5490 C.ar  1 <1>  -0.1500 
 23 C       -1.9210    -6.2590     0.6670 C.ar  1 <1>   0.0000 
 24 C       -0.7540    -5.7180    -1.3820 C.ar  1 <1>  -0.1500 
 25 C       -0.9740    -7.2780     0.8910 C.ar  1 <1>  -0.1500 
 26 C        0.1570    -6.7130    -1.1460 C.ar  1 <1>  -0.1500 
 27 C        0.0450    -7.5010     0.0040 C.ar  1 <1>  -0.1500 
 28 H       -2.1160     2.7920    -1.1830 H     1 <1>   0.0800 
 29 H       -2.4090     2.6880     0.5390 H     1 <1>   0.0800 
 30 H       -4.2140     1.1620     0.9230 H     1 <1>   0.0800 
 31 H       -4.4340     1.3140    -0.8230 H     1 <1>   0.0800 
 32 H       -2.6610    -1.6280    -1.3260 H     1 <1>   0.0800 
 33 H       -1.9220    -1.7320     0.2610 H     1 <1>   0.0800 
 34 H        0.3330     2.8210    -0.7360 H     1 <1>   0.0800 
 35 H        0.0120     2.7220     0.9780 H     1 <1>   0.0800 
 36 H       -5.4940    -0.7190    -0.9890 H     1 <1>   0.0800 
 37 H       -3.9620    -1.8440     1.3550 H     1 <1>   0.0800 
 38 H       -5.6380    -0.4350     1.8260 H     1 <1>   0.4000 
 39 H       -4.7250    -3.0420    -1.3290 H     1 <1>   0.0800 
 40 H       -5.5720    -3.3220     0.1590 H     1 <1>   0.0800 
 41 H        0.6850     5.1590    -1.5560 H     1 <1>   0.1500 
 42 H       -1.6230     7.1760     1.3760 H     1 <1>   0.1500 
 43 H       -4.6620    -4.7360     1.8830 H     1 <1>   0.1500 
 44 H        0.5180     8.6090    -0.1680 H     1 <1>   0.0800 
 45 H       -0.8860     8.5160    -1.2100 H     1 <1>   0.0800 
 46 H        0.6520     7.8900    -1.7570 H     1 <1>   0.0800 
 47 H       -3.0950    -6.5790     2.4410 H     1 <1>   0.1500 
 48 H       -0.6850    -5.1000    -2.2580 H     1 <1>   0.1500 
 49 H       -1.0650    -7.8800     1.7770 H     1 <1>   0.1500 
 50 H        0.9630    -6.8970    -1.8360 H     1 <1>   0.1500 
 51 H        0.7680    -8.2800     0.1770 H     1 <1>   0.1500 
@<TRIPOS>BOND
  1   1   2  2   
  2   2   3  am  
  3   2   4  1   
  4   3   5  1   
  5   3   6  1   
  6   4   7  1   
  7   4  28  1   
  8   4  29  1   
  9   5   8  1   
 10   5  30  1   
 11   5  31  1   
 12   6   9  1   
 13   6  32  1   
 14   6  33  1   
 15   7  10  1   
 16   7  34  1   
 17   7  35  1   
 18   8   9  1   
 19   8  11  1   
 20   8  36  1   
 21   9  12  1   
 22   9  37  1   
 23  10  13  1   
 24  10  14  1   
 25  11  38  1   
 26  12  15  1   
 27  12  39  1   
 28  12  40  1   
 29  13  16  2   
 30  14  17  2   
 31  14  41  1   
 32  15  18  ar  
 33  15  19  ar  
 34  16  17  1   
 35  16  42  1   
 36  17  20  1   
 37  18  21  ar  
 38  19  22  ar  
 39  19  43  1   
 40  20  44  1   
 41  20  45  1   
 42  20  46  1   
 43  21  23  ar  
 44  21  24  ar  
 45  22  23  ar  
 46  22  47  1   
 47  23  25  ar  
 48  24  26  ar  
 49  24  48  1   
 50  25  27  ar  
 51  25  49  1   
 52  26  27  ar  
 53  26  50  1   
 54  27  51  1   
@<TRIPOS>SUBSTRUCTURE
  1 ****   6 GROUP 4 **** **** 0

# MOE 2024.06 (io_trps.svl 2023.06)
