@<TRIPOS>MOLECULE
NONAME
47 49 1 0 0 
SMALL
USER_CHARGES


@<TRIPOS>ATOM
  1 O        1.2970     0.4170     0.9550 O.3   1 <1>  -0.3630 
  2 C        1.6410    -0.6470     0.1840 C.ar  1 <1>   0.0830 
  3 C        0.3080     1.2650     0.4010 C.3   1 <1>   0.1200 
  4 C        0.7770    -1.7450     0.1180 C.ar  1 <1>   0.0830 
  5 C        2.8360    -0.6330    -0.5380 C.ar  1 <1>  -0.1440 
  6 C        0.9620     2.5310    -0.1740 C.3   1 <1>  -0.1600 
  7 O       -0.3720    -1.7030     0.8520 O.3   1 <1>  -0.3620 
  8 C        1.1090    -2.8260    -0.6890 C.ar  1 <1>  -0.1500 
  9 C        3.1400    -1.7280    -1.3370 C.ar  1 <1>  -0.1500 
 10 C        3.8670     0.4930    -0.5070 C.3   1 <1>   0.4860 
 11 C        2.2350     2.2800    -0.9950 C.3   1 <1>   0.3430 
 12 C       -1.1980    -2.8390     0.9960 C.3   1 <1>   0.0400 
 13 C        2.2860    -2.8120    -1.4140 C.ar  1 <1>  -0.1500 
 14 N        3.3180     1.8080    -0.0790 N.4   1 <1>  -0.9590 
 15 C        4.4180     2.8050     0.1780 C.3   1 <1>   0.3430 
 16 C        3.9950     4.1090     0.8890 C.3   1 <1>   0.2000 
 17 O        3.1320     4.8270     0.0320 O.3   1 <1>  -0.2170 
 18 C        5.1590     5.0800     1.1130 C.3   1 <1>  -0.0990 
 19 N        3.6830     5.9310    -0.4220 N.2   1 <1>  -0.5130 
 20 C        4.7870     6.1490     0.1320 C.2   1 <1>   0.3280 
 21 C        5.7330     7.3230    -0.0870 C.3   1 <1>  -0.0990 
 22 C        5.2310     8.3290    -1.1330 C.3   1 <1>  -0.2400 
 23 H       -0.3860     1.5170     1.1850 H     1 <1>   0.0800 
 24 H       -0.2290     0.7300    -0.3650 H     1 <1>   0.0800 
 25 H        1.1630     3.2200     0.6250 H     1 <1>   0.0800 
 26 H        0.2410     3.0120    -0.8110 H     1 <1>   0.0800 
 27 H        0.4690    -3.6850    -0.7700 H     1 <1>   0.1500 
 28 H        4.0520    -1.7570    -1.9110 H     1 <1>   0.1500 
 29 H        4.3020     0.5930    -1.4870 H     1 <1>   0.0800 
 30 H        4.6510     0.2000     0.1720 H     1 <1>   0.0800 
 31 H        2.5360     3.1870    -1.4940 H     1 <1>   0.0800 
 32 H        2.0260     1.5360    -1.7470 H     1 <1>   0.0800 
 33 H       -1.9900    -2.5910     1.6800 H     1 <1>   0.0800 
 34 H       -0.6130    -3.6490     1.3960 H     1 <1>   0.0800 
 35 H       -1.6120    -3.0970     0.0380 H     1 <1>   0.0800 
 36 H        2.5370    -3.6540    -2.0390 H     1 <1>   0.1500 
 37 H        2.8160     1.5790     0.7990 H     1 <1>   0.4500 
 38 H        4.8850     3.0710    -0.7560 H     1 <1>   0.0800 
 39 H        5.1700     2.3350     0.7900 H     1 <1>   0.0800 
 40 H        3.4750     3.9080     1.8080 H     1 <1>   0.0800 
 41 H        6.1170     4.6470     0.8870 H     1 <1>   0.0800 
 42 H        5.1530     5.4690     2.1150 H     1 <1>   0.0800 
 43 H        6.6890     6.9440    -0.4000 H     1 <1>   0.0800 
 44 H        5.8680     7.8340     0.8490 H     1 <1>   0.0800 
 45 H        5.1040     7.8460    -2.0870 H     1 <1>   0.0800 
 46 H        5.9350     9.1340    -1.2450 H     1 <1>   0.0800 
 47 H        4.2830     8.7400    -0.8300 H     1 <1>   0.0800 
@<TRIPOS>BOND
  1   1   2  1   
  2   1   3  1   
  3   2   4  ar  
  4   2   5  ar  
  5   3   6  1   
  6   3  23  1   
  7   3  24  1   
  8   4   7  1   
  9   4   8  ar  
 10   5   9  ar  
 11   5  10  1   
 12   6  11  1   
 13   6  25  1   
 14   6  26  1   
 15   7  12  1   
 16   8  13  ar  
 17   8  27  1   
 18   9  13  ar  
 19   9  28  1   
 20  10  14  1   
 21  10  29  1   
 22  10  30  1   
 23  11  14  1   
 24  11  31  1   
 25  11  32  1   
 26  12  33  1   
 27  12  34  1   
 28  12  35  1   
 29  13  36  1   
 30  14  15  1   
 31  14  37  1   
 32  15  16  1   
 33  15  38  1   
 34  15  39  1   
 35  16  17  1   
 36  16  18  1   
 37  16  40  1   
 38  17  19  1   
 39  18  20  1   
 40  18  41  1   
 41  18  42  1   
 42  19  20  2   
 43  20  21  1   
 44  21  22  1   
 45  21  43  1   
 46  21  44  1   
 47  22  45  1   
 48  22  46  1   
 49  22  47  1   
@<TRIPOS>SUBSTRUCTURE
  1 ****  14 GROUP 4 **** **** 0

# MOE 2024.06 (io_trps.svl 2023.06)
