@<TRIPOS>MOLECULE
NONAME
45 47 1 0 0 
SMALL
USER_CHARGES


@<TRIPOS>ATOM
  1 S        1.1310    -0.0280     2.1350 S.3   1 <1>  -0.0800 
  2 C        1.6390     0.2060     0.4680 C.2   1 <1>   0.1980 
  3 C        0.4330     1.5640     2.1250 C.2   1 <1>  -0.1100 
  4 N        1.3250     1.3490    -0.0080 N.2   1 <1>  -0.5650 
  5 C        2.4060    -0.9220    -0.2290 C.3   1 <1>   0.4000 
  6 C        0.6390     2.1150     0.9210 C.2   1 <1>   0.0770 
  7 N        1.9670    -2.2950     0.2060 N.am  1 <1>  -0.6600 
  8 C        3.9260    -0.7370    -0.0340 C.3   1 <1>  -0.1600 
  9 C        0.8610    -2.8560    -0.3740 C.2   1 <1>   0.5690 
 10 C        2.8660    -2.9730     1.1820 C.3   1 <1>   0.1400 
 11 C        4.7050    -2.0230    -0.3500 C.3   1 <1>  -0.1600 
 12 O        0.2020    -2.2490    -1.1850 O.2   1 <1>  -0.5700 
 13 C        0.4250    -4.2630     0.0010 C.3   1 <1>  -0.0990 
 14 C        4.2460    -3.1920     0.5440 C.3   1 <1>  -0.1600 
 15 C       -0.6570    -4.8160    -0.9280 C.3   1 <1>   0.1400 
 16 N       -1.0790    -6.1560    -0.4540 N.am  1 <1>  -0.7300 
 17 C       -0.4330    -7.3330    -0.7120 C.2   1 <1>   0.5440 
 18 O        0.6060    -7.2780    -1.3420 O.2   1 <1>  -0.5700 
 19 C       -0.9510    -8.6180    -0.2670 C.ar  1 <1>   0.0860 
 20 C       -1.9100    -8.7800     0.7380 C.ar  1 <1>   0.1900 
 21 C       -0.4880    -9.8010    -0.8520 C.ar  1 <1>  -0.1500 
 22 F       -2.4000    -7.7390     1.3560 F     1 <1>  -0.1900 
 23 C       -2.3900   -10.0130     1.1410 C.ar  1 <1>  -0.1500 
 24 C       -0.9540   -11.0460    -0.4640 C.ar  1 <1>  -0.1500 
 25 C       -1.9070   -11.1560     0.5340 C.ar  1 <1>  -0.1500 
 26 H       -0.0550     1.9120     3.0170 H     1 <1>   0.1500 
 27 H        2.2090    -0.8330    -1.2840 H     1 <1>   0.0800 
 28 H        0.3180     3.0970     0.6170 H     1 <1>   0.1500 
 29 H        4.1240    -0.4360     0.9790 H     1 <1>   0.0800 
 30 H        4.2590     0.0630    -0.6730 H     1 <1>   0.0800 
 31 H        2.4630    -3.9110     1.5180 H     1 <1>   0.0800 
 32 H        2.9690    -2.3420     2.0480 H     1 <1>   0.0800 
 33 H        5.7620    -1.8590    -0.2290 H     1 <1>   0.0800 
 34 H        4.5310    -2.2830    -1.3810 H     1 <1>   0.0800 
 35 H        0.0560    -4.2440     1.0090 H     1 <1>   0.0800 
 36 H        1.2750    -4.9150    -0.0590 H     1 <1>   0.0800 
 37 H        4.2250    -4.0960    -0.0400 H     1 <1>   0.0800 
 38 H        4.9600    -3.3420     1.3350 H     1 <1>   0.0800 
 39 H       -0.2690    -4.8910    -1.9300 H     1 <1>   0.0800 
 40 H       -1.5100    -4.1570    -0.9440 H     1 <1>   0.0800 
 41 H       -1.9140    -6.1770     0.1380 H     1 <1>   0.3700 
 42 H        0.2550    -9.7410    -1.6310 H     1 <1>   0.1500 
 43 H       -3.1300   -10.0750     1.9200 H     1 <1>   0.1500 
 44 H       -0.5720   -11.9340    -0.9400 H     1 <1>   0.1500 
 45 H       -2.2680   -12.1260     0.8340 H     1 <1>   0.1500 
@<TRIPOS>BOND
  1   1   2  1   
  2   1   3  1   
  3   2   4  2   
  4   2   5  1   
  5   3   6  2   
  6   3  26  1   
  7   4   6  1   
  8   5   7  1   
  9   5   8  1   
 10   5  27  1   
 11   6  28  1   
 12   7   9  am  
 13   7  10  1   
 14   8  11  1   
 15   8  29  1   
 16   8  30  1   
 17   9  12  2   
 18   9  13  1   
 19  10  14  1   
 20  10  31  1   
 21  10  32  1   
 22  11  14  1   
 23  11  33  1   
 24  11  34  1   
 25  13  15  1   
 26  13  35  1   
 27  13  36  1   
 28  14  37  1   
 29  14  38  1   
 30  15  16  1   
 31  15  39  1   
 32  15  40  1   
 33  16  17  am  
 34  16  41  1   
 35  17  18  2   
 36  17  19  1   
 37  19  20  ar  
 38  19  21  ar  
 39  20  22  1   
 40  20  23  ar  
 41  21  24  ar  
 42  21  42  1   
 43  23  25  ar  
 44  23  43  1   
 45  24  25  ar  
 46  24  44  1   
 47  25  45  1   
@<TRIPOS>SUBSTRUCTURE
  1 ****  13 GROUP 4 **** **** 0

# MOE 2024.06 (io_trps.svl 2023.06)
