@<TRIPOS>MOLECULE
NONAME
38 38 1 0 0 
SMALL
USER_CHARGES


@<TRIPOS>ATOM
  1 S        0.5840     0.1160    -0.2190 S.3   1 <1>  -0.4600 
  2 C        0.2120     1.8710    -0.4680 C.3   1 <1>   0.0700 
  3 C       -1.0540    -0.6250    -0.0180 C.3   1 <1>   0.0700 
  4 C        1.5270     2.5940    -0.7570 C.3   1 <1>  -0.0990 
  5 C       -0.8560    -2.1210     0.2100 C.3   1 <1>  -0.2400 
  6 C        1.3010     4.0820    -0.8950 C.2   1 <1>   0.5690 
  7 O        0.4440     4.4810    -1.6450 O.2   1 <1>  -0.5700 
  8 N        2.0660     4.9270    -0.1700 N.am  1 <1>  -0.7300 
  9 C        2.0200     6.3870    -0.2840 C.3   1 <1>   0.4010 
 10 C        3.4070     6.9060     0.0510 C.2   1 <1>  -0.1810 
 11 C        0.9350     6.9350     0.6550 C.3   1 <1>  -0.1600 
 12 C        4.0060     6.9360     1.3060 C.2   1 <1>   0.1390 
 13 C        4.3370     7.4320    -0.7760 C.2   1 <1>  -0.3020 
 14 C        0.8160     8.4670     0.6060 C.3   1 <1>  -0.2400 
 15 N        5.2040     7.4310     1.2680 N.2   1 <1>  -0.7070 
 16 N        5.4090     7.7410    -0.0220 N.pl3 1 <1>   0.3140 
 17 C        6.6670     8.3420    -0.4760 C.3   1 <1>   0.0160 
 18 H       -0.2520     2.2360     0.4310 H     1 <1>   0.0800 
 19 H       -0.4690     1.9500    -1.2980 H     1 <1>   0.0800 
 20 H       -1.6110    -0.4310    -0.9180 H     1 <1>   0.0800 
 21 H       -1.5240    -0.1520     0.8260 H     1 <1>   0.0800 
 22 H        1.9450     2.2240    -1.6750 H     1 <1>   0.0800 
 23 H        2.2220     2.4020     0.0390 H     1 <1>   0.0800 
 24 H       -0.3530    -2.5600    -0.6330 H     1 <1>   0.0800 
 25 H       -1.8090    -2.6030     0.3350 H     1 <1>   0.0800 
 26 H       -0.2660    -2.2850     1.0950 H     1 <1>   0.0800 
 27 H        2.8490     4.5820     0.3840 H     1 <1>   0.3700 
 28 H        1.7770     6.6550    -1.3000 H     1 <1>   0.0800 
 29 H        1.1420     6.6300     1.6650 H     1 <1>   0.0800 
 30 H       -0.0100     6.5110     0.3640 H     1 <1>   0.0800 
 31 H        3.5420     6.5920     2.2150 H     1 <1>   0.1500 
 32 H        4.2950     7.5970    -1.8370 H     1 <1>   0.1500 
 33 H        1.7290     8.9330     0.9330 H     1 <1>   0.0800 
 34 H        0.0190     8.7940     1.2490 H     1 <1>   0.0800 
 35 H        0.6020     8.7940    -0.3970 H     1 <1>   0.0800 
 36 H        6.7270     8.2890    -1.5460 H     1 <1>   0.0800 
 37 H        7.4870     7.8040    -0.0370 H     1 <1>   0.0800 
 38 H        6.6970     9.3660    -0.1560 H     1 <1>   0.0800 
@<TRIPOS>BOND
  1   1   2  1   
  2   1   3  1   
  3   2   4  1   
  4   2  18  1   
  5   2  19  1   
  6   3   5  1   
  7   3  20  1   
  8   3  21  1   
  9   4   6  1   
 10   4  22  1   
 11   4  23  1   
 12   5  24  1   
 13   5  25  1   
 14   5  26  1   
 15   6   7  2   
 16   6   8  am  
 17   8   9  1   
 18   8  27  1   
 19   9  10  1   
 20   9  11  1   
 21   9  28  1   
 22  10  12  1   
 23  10  13  2   
 24  11  14  1   
 25  11  29  1   
 26  11  30  1   
 27  12  15  2   
 28  12  31  1   
 29  13  16  1   
 30  13  32  1   
 31  14  33  1   
 32  14  34  1   
 33  14  35  1   
 34  15  16  1   
 35  16  17  1   
 36  17  36  1   
 37  17  37  1   
 38  17  38  1   
@<TRIPOS>SUBSTRUCTURE
  1 ****   8 GROUP 4 **** **** 0

# MOE 2024.06 (io_trps.svl 2023.06)
