@<TRIPOS>MOLECULE
NONAME
45 47 1 0 0 
SMALL
USER_CHARGES


@<TRIPOS>ATOM
  1 O        3.8690    -1.6940    -1.6720 O.2   1 <1>  -0.5700 
  2 C        3.0000    -1.5510    -0.8300 C.2   1 <1>   0.5440 
  3 N        2.9910    -0.3430    -0.1820 N.am  1 <1>  -0.6600 
  4 C        2.0840    -2.6230    -0.4770 C.ar  1 <1>   0.0860 
  5 C        3.6810    -0.2790     1.1550 C.3   1 <1>   0.2200 
  6 C        2.8760     0.9000    -1.0050 C.3   1 <1>   0.1400 
  7 C        1.0290    -2.4170     0.4140 C.ar  1 <1>  -0.1500 
  8 C        2.2240    -3.9070    -1.0110 C.ar  1 <1>  -0.1500 
  9 C        3.2130     0.9050     2.0160 C.3   1 <1>   0.1200 
 10 C        5.2230    -0.2630     0.9850 C.3   1 <1>   0.3430 
 11 C        3.9140     1.9930    -0.6860 C.3   1 <1>  -0.0800 
 12 C        0.1810    -3.4470     0.7620 C.ar  1 <1>   0.0820 
 13 C        1.3700    -4.9430    -0.6700 C.ar  1 <1>  -0.1500 
 14 O        3.9630     2.0480     1.7300 O.3   1 <1>  -0.5600 
 15 N        5.6540     0.1240    -0.4040 N.4   1 <1>  -0.9590 
 16 C        3.5760     2.7580     0.6030 C.3   1 <1>   0.1200 
 17 C        5.3950     1.5580    -0.7440 C.3   1 <1>   0.3430 
 18 O       -0.8120    -3.2120     1.6340 O.3   1 <1>  -0.5330 
 19 C        0.3330    -4.7230     0.2290 C.ar  1 <1>   0.0830 
 20 C        7.0640    -0.2670    -0.6760 C.3   1 <1>   0.2630 
 21 O       -0.5490    -5.6810     0.6230 O.3   1 <1>  -0.3630 
 22 C       -0.4840    -6.9950     0.1110 C.3   1 <1>   0.0400 
 23 H        3.4200    -1.1700     1.7000 H     1 <1>   0.0800 
 24 H        2.9610     0.6390    -2.0470 H     1 <1>   0.0800 
 25 H        1.8850     1.3030    -0.8690 H     1 <1>   0.0800 
 26 H        0.8540    -1.4490     0.8450 H     1 <1>   0.1500 
 27 H        3.0210    -4.0970    -1.7110 H     1 <1>   0.1500 
 28 H        3.3890     0.6780     3.0530 H     1 <1>   0.0800 
 29 H        2.1620     1.1050     1.8900 H     1 <1>   0.0800 
 30 H        5.5840    -1.2550     1.1980 H     1 <1>   0.0800 
 31 H        5.6610     0.4030     1.7100 H     1 <1>   0.0800 
 32 H        3.7990     2.7270    -1.4630 H     1 <1>   0.0800 
 33 H        1.5270    -5.9090    -1.1130 H     1 <1>   0.1500 
 34 H        5.0320    -0.4440    -1.0270 H     1 <1>   0.4500 
 35 H        2.5240     2.9820     0.6720 H     1 <1>   0.0800 
 36 H        4.1150     3.6910     0.6250 H     1 <1>   0.0800 
 37 H        5.9690     2.1920    -0.0870 H     1 <1>   0.0800 
 38 H        5.7470     1.7310    -1.7480 H     1 <1>   0.0800 
 39 H       -1.3290    -4.0330     1.7660 H     1 <1>   0.4500 
 40 H        7.7350     0.2800    -0.0330 H     1 <1>   0.0800 
 41 H        7.3170    -0.0580    -1.7020 H     1 <1>   0.0800 
 42 H        7.1960    -1.3220    -0.5020 H     1 <1>   0.0800 
 43 H       -1.2790    -7.5670     0.5540 H     1 <1>   0.0800 
 44 H        0.4660    -7.4260     0.3720 H     1 <1>   0.0800 
 45 H       -0.6110    -6.9610    -0.9570 H     1 <1>   0.0800 
@<TRIPOS>BOND
  1   1   2  2   
  2   2   3  am  
  3   2   4  1   
  4   3   5  1   
  5   3   6  1   
  6   4   7  ar  
  7   4   8  ar  
  8   5   9  1   
  9   5  10  1   
 10   5  23  1   
 11   6  11  1   
 12   6  24  1   
 13   6  25  1   
 14   7  12  ar  
 15   7  26  1   
 16   8  13  ar  
 17   8  27  1   
 18   9  14  1   
 19   9  28  1   
 20   9  29  1   
 21  10  15  1   
 22  10  30  1   
 23  10  31  1   
 24  11  16  1   
 25  11  17  1   
 26  11  32  1   
 27  12  18  1   
 28  12  19  ar  
 29  13  19  ar  
 30  13  33  1   
 31  14  16  1   
 32  15  17  1   
 33  15  20  1   
 34  15  34  1   
 35  16  35  1   
 36  16  36  1   
 37  17  37  1   
 38  17  38  1   
 39  18  39  1   
 40  19  21  1   
 41  20  40  1   
 42  20  41  1   
 43  20  42  1   
 44  21  22  1   
 45  22  43  1   
 46  22  44  1   
 47  22  45  1   
@<TRIPOS>SUBSTRUCTURE
  1 ****   2 GROUP 4 **** **** 0

# MOE 2024.06 (io_trps.svl 2023.06)
