@<TRIPOS>MOLECULE
NONAME
44 46 1 0 0 
SMALL
USER_CHARGES


@<TRIPOS>ATOM
  1 O       -0.8790    -1.4810    -0.9400 O.3   1 <1>  -0.6800 
  2 C        0.3580    -2.0700    -1.1520 C.3   1 <1>   0.1200 
  3 C        1.2510    -1.9440     0.1160 C.3   1 <1>   0.0000 
  4 C        2.6720    -2.5150    -0.1590 C.3   1 <1>   0.4230 
  5 C        1.4090    -0.4480     0.5090 C.3   1 <1>  -0.1600 
  6 C        0.6170    -2.7010     1.3220 C.3   1 <1>  -0.1600 
  7 N        2.7010    -4.0180    -0.4260 N.4   1 <1>  -0.9590 
  8 C        3.4470    -1.6670    -1.1980 C.3   1 <1>   0.2090 
  9 C        2.1860     0.3860    -0.5170 C.3   1 <1>   0.2090 
 10 C        1.2230    -4.0920     1.5770 C.3   1 <1>  -0.1600 
 11 C        1.6190    -4.7820     0.2760 C.3   1 <1>   0.3430 
 12 C        2.7620    -4.4210    -1.8670 C.3   1 <1>   0.2630 
 13 N        3.5130    -0.2450    -0.7580 N.pl3 1 <1>  -0.8380 
 14 C        4.5560     0.1350     0.0670 C.ar  1 <1>   0.4100 
 15 N        5.0340    -0.7860     0.8970 N.ar  1 <1>  -0.6200 
 16 C        5.0440     1.4340     0.0050 C.ar  1 <1>  -0.1500 
 17 C        6.0190    -0.3930     1.6870 C.ar  1 <1>   0.1600 
 18 C        6.0680     1.8400     0.8320 C.ar  1 <1>   0.0730 
 19 C        6.5600     0.8770     1.6970 C.ar  1 <1>  -0.1500 
 20 C        6.5900     3.1750     0.7990 C.1   1 <1>   0.4840 
 21 N        7.0030     4.2370     0.7790 N.1   1 <1>  -0.5570 
 22 H       -1.4450    -1.5160    -1.7390 H     1 <1>   0.4000 
 23 H        0.1810    -3.1000    -1.4020 H     1 <1>   0.0800 
 24 H        0.8020    -1.5770    -1.9990 H     1 <1>   0.0800 
 25 H        3.2080    -2.3700     0.7650 H     1 <1>   0.0800 
 26 H        1.9360    -0.3700     1.4440 H     1 <1>   0.0800 
 27 H        0.4430     0.0030     0.6620 H     1 <1>   0.0800 
 28 H        0.7290    -2.1320     2.2300 H     1 <1>   0.0800 
 29 H       -0.4450    -2.8040     1.1720 H     1 <1>   0.0800 
 30 H        3.5840    -4.3250     0.0090 H     1 <1>   0.4500 
 31 H        2.9760    -1.7030    -2.1620 H     1 <1>   0.0800 
 32 H        4.4500    -2.0460    -1.2970 H     1 <1>   0.0800 
 33 H        2.3140     1.3870    -0.1400 H     1 <1>   0.0800 
 34 H        1.6420     0.4540    -1.4440 H     1 <1>   0.0800 
 35 H        0.5010    -4.6990     2.0970 H     1 <1>   0.0800 
 36 H        2.0860    -4.0120     2.2150 H     1 <1>   0.0800 
 37 H        0.7460    -4.8440    -0.3550 H     1 <1>   0.0800 
 38 H        1.9530    -5.7870     0.4810 H     1 <1>   0.0800 
 39 H        1.8810    -4.0870    -2.3900 H     1 <1>   0.0800 
 40 H        2.8240    -5.4940    -1.9510 H     1 <1>   0.0800 
 41 H        3.6310    -3.9960    -2.3430 H     1 <1>   0.0800 
 42 H        4.6110     2.1150    -0.7030 H     1 <1>   0.1500 
 43 H        6.4200    -1.1250     2.3690 H     1 <1>   0.1500 
 44 H        7.3620     1.1170     2.3740 H     1 <1>   0.1500 
@<TRIPOS>BOND
  1   1   2  1   
  2   1  22  1   
  3   2   3  1   
  4   2  23  1   
  5   2  24  1   
  6   3   4  1   
  7   3   5  1   
  8   3   6  1   
  9   4   7  1   
 10   4   8  1   
 11   4  25  1   
 12   5   9  1   
 13   5  26  1   
 14   5  27  1   
 15   6  10  1   
 16   6  28  1   
 17   6  29  1   
 18   7  11  1   
 19   7  12  1   
 20   7  30  1   
 21   8  13  1   
 22   8  31  1   
 23   8  32  1   
 24   9  13  1   
 25   9  33  1   
 26   9  34  1   
 27  10  11  1   
 28  10  35  1   
 29  10  36  1   
 30  11  37  1   
 31  11  38  1   
 32  12  39  1   
 33  12  40  1   
 34  12  41  1   
 35  13  14  1   
 36  14  15  ar  
 37  14  16  ar  
 38  15  17  ar  
 39  16  18  ar  
 40  16  42  1   
 41  17  19  ar  
 42  17  43  1   
 43  18  19  ar  
 44  18  20  1   
 45  19  44  1   
 46  20  21  3   
@<TRIPOS>SUBSTRUCTURE
  1 ****  13 GROUP 4 **** **** 0

# MOE 2024.06 (io_trps.svl 2023.06)
