@<TRIPOS>MOLECULE
NONAME
54 56 1 0 0 
SMALL
USER_CHARGES


@<TRIPOS>ATOM
  1 O       -1.2260    -2.0710    -2.4390 O.2   1 <1>  -0.5700 
  2 C       -1.0210    -2.3130    -1.2650 C.2   1 <1>   0.5440 
  3 N        0.2380    -2.1020    -0.7680 N.am  1 <1>  -0.7300 
  4 C       -2.0870    -2.7930    -0.4150 C.ar  1 <1>   0.0860 
  5 C        1.3950    -1.6360    -1.5560 C.3   1 <1>   0.1400 
  6 C       -3.4200    -2.5840    -0.7630 C.ar  1 <1>   0.1600 
  7 C       -1.8590    -3.4780     0.7770 C.ar  1 <1>  -0.1500 
  8 C        2.6480    -2.3280    -1.0340 C.3   1 <1>  -0.2400 
  9 N       -4.4790    -2.9600    -0.0670 N.ar  1 <1>  -0.6200 
 10 C       -2.9480    -3.8780     1.5130 C.ar  1 <1>  -0.1500 
 11 C       -4.2410    -3.6110     1.0680 C.ar  1 <1>   0.4100 
 12 N       -5.3300    -4.0240     1.8070 N.pl3 1 <1>  -0.8380 
 13 C       -6.6050    -3.2570     1.7780 C.3   1 <1>   0.2090 
 14 C       -5.4690    -5.4440     2.2210 C.3   1 <1>   0.2090 
 15 C       -7.6120    -3.9560     0.8600 C.3   1 <1>  -0.1600 
 16 C       -6.4720    -6.1530     1.3070 C.3   1 <1>  -0.1600 
 17 C       -7.8280    -5.4250     1.2620 C.3   1 <1>  -0.0800 
 18 C       -8.8030    -6.1040     0.2900 C.3   1 <1>   0.1200 
 19 O       -9.0580    -7.4210     0.7290 O.3   1 <1>  -0.3630 
 20 C       -9.9030    -8.2350     0.0450 C.ar  1 <1>   0.0820 
 21 C      -10.5490    -7.8710    -1.1330 C.ar  1 <1>  -0.1500 
 22 C      -10.1170    -9.4970     0.5770 C.ar  1 <1>  -0.1500 
 23 C      -11.3970    -8.7680    -1.7610 C.ar  1 <1>  -0.1500 
 24 C      -10.9650   -10.3940    -0.0500 C.ar  1 <1>  -0.1500 
 25 C      -11.6110   -10.0300    -1.2290 C.ar  1 <1>   0.0820 
 26 O      -12.4590   -10.8440    -1.9110 O.3   1 <1>  -0.3620 
 27 C      -12.7420   -12.1460    -1.4510 C.3   1 <1>   0.0400 
 28 H        0.3940    -2.1630     0.2380 H     1 <1>   0.3700 
 29 H        1.4870    -0.5680    -1.4580 H     1 <1>   0.0800 
 30 H        1.2500    -1.8730    -2.5980 H     1 <1>   0.0800 
 31 H       -3.6160    -2.0630    -1.6860 H     1 <1>   0.1500 
 32 H       -0.8610    -3.6930     1.1130 H     1 <1>   0.1500 
 33 H        2.8190    -2.0760    -0.0030 H     1 <1>   0.0800 
 34 H        3.5000    -2.0080    -1.6080 H     1 <1>   0.0800 
 35 H        2.5520    -3.3950    -1.1360 H     1 <1>   0.0800 
 36 H       -2.8200    -4.3960     2.4430 H     1 <1>   0.1500 
 37 H       -6.4260    -2.2530     1.4300 H     1 <1>   0.0800 
 38 H       -6.9990    -3.1960     2.7770 H     1 <1>   0.0800 
 39 H       -5.8110    -5.4810     3.2410 H     1 <1>   0.0800 
 40 H       -4.5200    -5.9470     2.1630 H     1 <1>   0.0800 
 41 H       -7.2400    -3.9010    -0.1480 H     1 <1>   0.0800 
 42 H       -8.5450    -3.4230     0.8980 H     1 <1>   0.0800 
 43 H       -6.6080    -7.1610     1.6570 H     1 <1>   0.0800 
 44 H       -6.0520    -6.2040     0.3170 H     1 <1>   0.0800 
 45 H       -8.2690    -5.4440     2.2450 H     1 <1>   0.0800 
 46 H       -8.3780    -6.1510    -0.6980 H     1 <1>   0.0800 
 47 H       -9.7390    -5.5730     0.2650 H     1 <1>   0.0800 
 48 H      -10.4070    -6.9040    -1.5760 H     1 <1>   0.1500 
 49 H       -9.6140    -9.7700     1.4870 H     1 <1>   0.1500 
 50 H      -11.9000    -8.4960    -2.6710 H     1 <1>   0.1500 
 51 H      -11.1070   -11.3620     0.3900 H     1 <1>   0.1500 
 52 H      -13.4290   -12.6010    -2.1410 H     1 <1>   0.0800 
 53 H      -13.1920   -12.0820    -0.4760 H     1 <1>   0.0800 
 54 H      -11.8280   -12.7120    -1.4190 H     1 <1>   0.0800 
@<TRIPOS>BOND
  1   1   2  2   
  2   2   3  am  
  3   2   4  1   
  4   3   5  1   
  5   3  28  1   
  6   4   6  ar  
  7   4   7  ar  
  8   5   8  1   
  9   5  29  1   
 10   5  30  1   
 11   6   9  ar  
 12   6  31  1   
 13   7  10  ar  
 14   7  32  1   
 15   8  33  1   
 16   8  34  1   
 17   8  35  1   
 18   9  11  ar  
 19  10  11  ar  
 20  10  36  1   
 21  11  12  1   
 22  12  13  1   
 23  12  14  1   
 24  13  15  1   
 25  13  37  1   
 26  13  38  1   
 27  14  16  1   
 28  14  39  1   
 29  14  40  1   
 30  15  17  1   
 31  15  41  1   
 32  15  42  1   
 33  16  17  1   
 34  16  43  1   
 35  16  44  1   
 36  17  18  1   
 37  17  45  1   
 38  18  19  1   
 39  18  46  1   
 40  18  47  1   
 41  19  20  1   
 42  20  21  ar  
 43  20  22  ar  
 44  21  23  ar  
 45  21  48  1   
 46  22  24  ar  
 47  22  49  1   
 48  23  25  ar  
 49  23  50  1   
 50  24  25  ar  
 51  24  51  1   
 52  25  26  1   
 53  26  27  1   
 54  27  52  1   
 55  27  53  1   
 56  27  54  1   
@<TRIPOS>SUBSTRUCTURE
  1 ****  16 GROUP 4 **** **** 0

# MOE 2024.06 (io_trps.svl 2023.06)
