@<TRIPOS>MOLECULE
NONAME
49 51 1 0 0 
SMALL
USER_CHARGES


@<TRIPOS>ATOM
  1 O       -0.5380    -1.3000    -1.5170 O.2   1 <1>  -0.5700 
  2 C        0.2300    -1.9960    -0.8980 C.2   1 <1>   0.5690 
  3 N       -0.1720    -2.9540    -0.0070 N.am  1 <1>  -0.6600 
  4 C        1.7220    -1.8090    -1.0980 C.3   1 <1>  -0.0990 
  5 C        0.8330    -3.7740     0.7150 C.3   1 <1>   0.1400 
  6 C       -1.6030    -3.2040     0.3120 C.3   1 <1>   0.0600 
  7 C        2.4270    -3.1700    -1.2490 C.3   1 <1>  -0.0800 
  8 C        1.9220    -4.2480    -0.2650 C.3   1 <1>  -0.0800 
  9 C        3.9470    -3.0940    -1.0560 C.3   1 <1>  -0.1600 
 10 C        3.1710    -4.7850     0.4470 C.3   1 <1>  -0.1600 
 11 C        4.3310    -4.4610    -0.4910 C.3   1 <1>   0.2200 
 12 N        5.6390    -4.4840     0.2190 N.am  1 <1>  -0.6600 
 13 C        6.6730    -3.7000    -0.2300 C.2   1 <1>   0.5440 
 14 C        5.9970    -5.8230     0.7660 C.3   1 <1>   0.0600 
 15 O        7.4140    -4.1560    -1.0810 O.2   1 <1>  -0.5700 
 16 C        6.9150    -2.3690     0.3050 C.ar  1 <1>   0.0860 
 17 C        7.7910    -1.4960    -0.3430 C.ar  1 <1>  -0.1500 
 18 C        6.3160    -1.9110     1.4790 C.ar  1 <1>  -0.1500 
 19 C        8.0800    -0.2360     0.1570 C.ar  1 <1>  -0.1440 
 20 C        6.5820    -0.6500     1.9810 C.ar  1 <1>  -0.1500 
 21 C        7.4650     0.1890     1.3250 C.ar  1 <1>  -0.1500 
 22 C        9.0710     0.6490    -0.5630 C.3   1 <1>   0.4860 
 23 N       10.4120     0.1370    -0.2230 N.4   1 <1>  -0.8530 
 24 H        1.8950    -1.2040    -1.9700 H     1 <1>   0.0800 
 25 H        2.0980    -1.2800    -0.2430 H     1 <1>   0.0800 
 26 H        1.2670    -3.1690     1.4920 H     1 <1>   0.0800 
 27 H        0.3600    -4.6260     1.1720 H     1 <1>   0.0800 
 28 H       -1.8610    -4.2170     0.0550 H     1 <1>   0.0800 
 29 H       -2.2370    -2.5370    -0.2470 H     1 <1>   0.0800 
 30 H       -1.7760    -3.0450     1.3610 H     1 <1>   0.0800 
 31 H        2.2300    -3.5320    -2.2450 H     1 <1>   0.0800 
 32 H        1.5030    -5.0490    -0.8500 H     1 <1>   0.0800 
 33 H        4.1760    -2.3290    -0.3380 H     1 <1>   0.0800 
 34 H        4.4530    -2.8910    -1.9840 H     1 <1>   0.0800 
 35 H        3.0900    -5.8420     0.6310 H     1 <1>   0.0800 
 36 H        3.3190    -4.2650     1.3780 H     1 <1>   0.0800 
 37 H        4.3500    -5.1780    -1.2960 H     1 <1>   0.0800 
 38 H        5.4010    -6.0380     1.6350 H     1 <1>   0.0800 
 39 H        7.0360    -5.8430     1.0480 H     1 <1>   0.0800 
 40 H        5.8310    -6.5820     0.0210 H     1 <1>   0.0800 
 41 H        8.2450    -1.8370    -1.2590 H     1 <1>   0.1500 
 42 H        5.6330    -2.5550     2.0060 H     1 <1>   0.1500 
 43 H        6.1000    -0.3240     2.8880 H     1 <1>   0.1500 
 44 H        7.6570     1.1660     1.7390 H     1 <1>   0.1500 
 45 H        8.9610     1.6720    -0.2380 H     1 <1>   0.0800 
 46 H        8.9040     0.6000    -1.6280 H     1 <1>   0.0800 
 47 H       10.5360     0.1590     0.7940 H     1 <1>   0.4500 
 48 H       11.1590     0.6750    -0.6730 H     1 <1>   0.4500 
 49 H       10.4800    -0.8460    -0.5100 H     1 <1>   0.4500 
@<TRIPOS>BOND
  1   1   2  2   
  2   2   3  am  
  3   2   4  1   
  4   3   5  1   
  5   3   6  1   
  6   4   7  1   
  7   4  24  1   
  8   4  25  1   
  9   5   8  1   
 10   5  26  1   
 11   5  27  1   
 12   6  28  1   
 13   6  29  1   
 14   6  30  1   
 15   7   8  1   
 16   7   9  1   
 17   7  31  1   
 18   8  10  1   
 19   8  32  1   
 20   9  11  1   
 21   9  33  1   
 22   9  34  1   
 23  10  11  1   
 24  10  35  1   
 25  10  36  1   
 26  11  12  1   
 27  11  37  1   
 28  12  13  am  
 29  12  14  1   
 30  13  15  2   
 31  13  16  1   
 32  14  38  1   
 33  14  39  1   
 34  14  40  1   
 35  16  17  ar  
 36  16  18  ar  
 37  17  19  ar  
 38  17  41  1   
 39  18  20  ar  
 40  18  42  1   
 41  19  21  ar  
 42  19  22  1   
 43  20  21  ar  
 44  20  43  1   
 45  21  44  1   
 46  22  23  1   
 47  22  45  1   
 48  22  46  1   
 49  23  47  1   
 50  23  48  1   
 51  23  49  1   
@<TRIPOS>SUBSTRUCTURE
  1 ****   9 GROUP 4 **** **** 0

# MOE 2024.06 (io_trps.svl 2023.06)
