@<TRIPOS>MOLECULE
NONAME
50 51 1 0 0 
SMALL
USER_CHARGES


@<TRIPOS>ATOM
  1 O        4.8820    -1.1640    -1.2890 O.2   1 <1>  -0.5700 
  2 C        3.6880    -1.0770    -1.0720 C.2   1 <1>   0.5440 
  3 N        3.0370     0.0110    -1.6080 N.am  1 <1>  -0.6600 
  4 C        3.0160    -2.0380    -0.2180 C.ar  1 <1>   0.0860 
  5 C        3.5100     0.6300    -2.8920 C.3   1 <1>   0.1400 
  6 C        2.1910     0.8890    -0.7590 C.3   1 <1>   0.1400 
  7 C        1.6910    -2.4080    -0.3940 C.ar  1 <1>  -0.1500 
  8 C        3.6600    -2.6580     0.8420 C.ar  1 <1>  -0.1500 
  9 C        4.8330     1.4120    -2.7350 C.3   1 <1>   0.3430 
 10 C        3.0710     1.8160     0.0930 C.3   1 <1>  -0.1600 
 11 C        1.0950    -3.3120     0.4650 C.ar  1 <1>   0.1670 
 12 C        2.9820    -3.5520     1.6490 C.ar  1 <1>   0.1660 
 13 N        5.1110     1.7690    -1.3110 N.4   1 <1>  -0.9590 
 14 C        4.0860     2.6530    -0.6930 C.3   1 <1>   0.3430 
 15 N        1.7150    -3.8800     1.4820 N.ar  1 <1>  -0.6200 
 16 C       -0.3530    -3.7130     0.2740 C.3   1 <1>  -0.0970 
 17 C        3.6870    -4.2260     2.8070 C.3   1 <1>  -0.0970 
 18 C        6.5060     2.1950    -1.0900 C.3   1 <1>   0.4810 
 19 C        6.7660     2.0870     0.3940 C.2   1 <1>  -0.2880 
 20 C        7.2380     1.0200     1.0490 C.2   1 <1>  -0.2760 
 21 C        7.4640     1.0320     2.5530 C.3   1 <1>  -0.1020 
 22 C        7.6070    -0.3170     0.4180 C.3   1 <1>  -0.1020 
 23 H        3.6540    -0.1480    -3.6230 H     1 <1>   0.0800 
 24 H        2.7500     1.2860    -3.2770 H     1 <1>   0.0800 
 25 H        1.5310     1.4690    -1.3820 H     1 <1>   0.0800 
 26 H        1.5750     0.2890    -0.1080 H     1 <1>   0.0800 
 27 H        1.1280    -1.9890    -1.2070 H     1 <1>   0.1500 
 28 H        4.6950    -2.4390     1.0310 H     1 <1>   0.1500 
 29 H        4.8130     2.2940    -3.3530 H     1 <1>   0.0800 
 30 H        5.6270     0.7770    -3.0930 H     1 <1>   0.0800 
 31 H        3.5850     1.2400     0.8420 H     1 <1>   0.0800 
 32 H        2.4200     2.4910     0.6190 H     1 <1>   0.0800 
 33 H        5.0440     0.8540    -0.8240 H     1 <1>   0.4500 
 34 H        4.5620     3.3380    -0.0110 H     1 <1>   0.0800 
 35 H        3.5850     3.2330    -1.4510 H     1 <1>   0.0800 
 36 H       -0.7890    -3.2160    -0.5720 H     1 <1>   0.0800 
 37 H       -0.9140    -3.4600     1.1550 H     1 <1>   0.0800 
 38 H       -0.4120    -4.7750     0.1220 H     1 <1>   0.0800 
 39 H        4.7100    -3.9070     2.8820 H     1 <1>   0.0800 
 40 H        3.6650    -5.2910     2.6680 H     1 <1>   0.0800 
 41 H        3.1790    -3.9880     3.7240 H     1 <1>   0.0800 
 42 H        7.1730     1.5310    -1.6140 H     1 <1>   0.0800 
 43 H        6.6710     3.2010    -1.4400 H     1 <1>   0.0800 
 44 H        6.5240     3.0010     0.9090 H     1 <1>   0.1500 
 45 H        6.8650     0.2740     3.0270 H     1 <1>   0.0800 
 46 H        7.2010     1.9850     2.9770 H     1 <1>   0.0800 
 47 H        8.4990     0.8400     2.7750 H     1 <1>   0.0800 
 48 H        8.6450    -0.5350     0.5980 H     1 <1>   0.0800 
 49 H        7.4440    -0.3270    -0.6430 H     1 <1>   0.0800 
 50 H        7.0160    -1.1050     0.8490 H     1 <1>   0.0800 
@<TRIPOS>BOND
  1   1   2  2   
  2   2   3  am  
  3   2   4  1   
  4   3   5  1   
  5   3   6  1   
  6   4   7  ar  
  7   4   8  ar  
  8   5   9  1   
  9   5  23  1   
 10   5  24  1   
 11   6  10  1   
 12   6  25  1   
 13   6  26  1   
 14   7  11  ar  
 15   7  27  1   
 16   8  12  ar  
 17   8  28  1   
 18   9  13  1   
 19   9  29  1   
 20   9  30  1   
 21  10  14  1   
 22  10  31  1   
 23  10  32  1   
 24  11  15  ar  
 25  11  16  1   
 26  12  15  ar  
 27  12  17  1   
 28  13  14  1   
 29  13  18  1   
 30  13  33  1   
 31  14  34  1   
 32  14  35  1   
 33  16  36  1   
 34  16  37  1   
 35  16  38  1   
 36  17  39  1   
 37  17  40  1   
 38  17  41  1   
 39  18  19  1   
 40  18  42  1   
 41  18  43  1   
 42  19  20  2   
 43  19  44  1   
 44  20  21  1   
 45  20  22  1   
 46  21  45  1   
 47  21  46  1   
 48  21  47  1   
 49  22  48  1   
 50  22  49  1   
 51  22  50  1   
@<TRIPOS>SUBSTRUCTURE
  1 ****   2 GROUP 4 **** **** 0

# MOE 2024.06 (io_trps.svl 2023.06)
