@<TRIPOS>MOLECULE
NONAME
51 53 1 0 0 
SMALL
USER_CHARGES


@<TRIPOS>ATOM
  1 O       -1.3880    -1.0800    -0.5590 O.3   1 <1>  -0.5600 
  2 C       -2.2790    -2.0640    -0.1170 C.3   1 <1>   0.1200 
  3 C       -0.2800    -1.5810    -1.2420 C.3   1 <1>   0.1200 
  4 C       -1.5790    -3.0300     0.8540 C.3   1 <1>   0.2090 
  5 C        0.5390    -2.5140    -0.3290 C.3   1 <1>   0.2090 
  6 N       -0.3230    -3.6080     0.2440 N.pl3 1 <1>  -0.8380 
  7 C       -0.0850    -4.9480     0.2290 C.ar  1 <1>   0.7710 
  8 N       -1.0320    -5.7830     0.6370 N.ar  1 <1>  -0.6200 
  9 N        1.1100    -5.3990    -0.1950 N.ar  1 <1>  -0.1790 
 10 C       -0.7820    -7.0710     0.6040 C.ar  1 <1>   0.4100 
 11 C        1.4130    -6.7180    -0.2370 C.ar  1 <1>   0.2180 
 12 N       -1.7900    -7.8510     1.0230 N.pl3 1 <1>  -0.8690 
 13 C        0.4530    -7.5830     0.1690 C.ar  1 <1>  -0.1500 
 14 C        2.7900    -7.1510    -0.7240 C.3   1 <1>  -0.0170 
 15 C       -1.9110    -9.3240     1.0500 C.3   1 <1>   0.2090 
 16 C        3.9120    -6.6460     0.1930 C.3   1 <1>  -0.2400 
 17 C       -3.3750    -9.6980     0.8320 C.3   1 <1>  -0.1600 
 18 C       -3.5670   -11.2180     0.8160 C.3   1 <1>   0.0210 
 19 C       -5.0230   -11.5640     0.5790 C.2   1 <1>  -0.1810 
 20 C       -6.0520   -11.5400     1.5150 C.2   1 <1>   0.1390 
 21 C       -5.6160   -11.9610    -0.5650 C.2   1 <1>  -0.3020 
 22 N       -7.1910   -11.8920     1.0020 N.2   1 <1>  -0.7070 
 23 N       -6.9210   -12.1520    -0.2870 N.pl3 1 <1>   0.3140 
 24 C       -7.9690   -12.5830    -1.2170 C.3   1 <1>   0.0160 
 25 H       -2.6640    -2.5940    -0.9710 H     1 <1>   0.0800 
 26 H       -3.0960    -1.5680     0.3770 H     1 <1>   0.0800 
 27 H        0.3180    -0.7410    -1.5500 H     1 <1>   0.0800 
 28 H       -0.6230    -2.1020    -2.1190 H     1 <1>   0.0800 
 29 H       -2.2830    -3.7940     1.1350 H     1 <1>   0.0800 
 30 H       -1.3220    -2.4900     1.7490 H     1 <1>   0.0800 
 31 H        0.9500    -1.9270     0.4760 H     1 <1>   0.0800 
 32 H        1.3570    -2.9110    -0.9010 H     1 <1>   0.0800 
 33 H        1.7860    -4.6920    -0.4480 H     1 <1>   0.4570 
 34 H       -2.6250    -7.3580     1.3550 H     1 <1>   0.4000 
 35 H        0.6090    -8.6440     0.1740 H     1 <1>   0.1500 
 36 H        2.9510    -6.7920    -1.7260 H     1 <1>   0.0800 
 37 H        2.8340    -8.2270    -0.7600 H     1 <1>   0.0800 
 38 H       -1.5740    -9.6920     2.0050 H     1 <1>   0.0800 
 39 H       -1.3080    -9.7620     0.2730 H     1 <1>   0.0800 
 40 H        3.9630    -5.5720     0.2050 H     1 <1>   0.0800 
 41 H        4.8610    -7.0200    -0.1540 H     1 <1>   0.0800 
 42 H        3.7650    -6.9990     1.2000 H     1 <1>   0.0800 
 43 H       -3.7110    -9.2960    -0.1090 H     1 <1>   0.0800 
 44 H       -3.9760    -9.2770     1.6190 H     1 <1>   0.0800 
 45 H       -3.2510   -11.6450     1.7520 H     1 <1>   0.0800 
 46 H       -2.9740   -11.6530     0.0310 H     1 <1>   0.0800 
 47 H       -5.9330   -11.2650     2.5490 H     1 <1>   0.1500 
 48 H       -5.1950   -12.1150    -1.5410 H     1 <1>   0.1500 
 49 H       -7.5230   -12.9270    -2.1310 H     1 <1>   0.0800 
 50 H       -8.6200   -11.7520    -1.4150 H     1 <1>   0.0800 
 51 H       -8.5300   -13.3790    -0.7630 H     1 <1>   0.0800 
@<TRIPOS>BOND
  1   1   2  1   
  2   1   3  1   
  3   2   4  1   
  4   2  25  1   
  5   2  26  1   
  6   3   5  1   
  7   3  27  1   
  8   3  28  1   
  9   4   6  1   
 10   4  29  1   
 11   4  30  1   
 12   5   6  1   
 13   5  31  1   
 14   5  32  1   
 15   6   7  1   
 16   7   8  ar  
 17   7   9  ar  
 18   8  10  ar  
 19   9  11  ar  
 20   9  33  1   
 21  10  12  1   
 22  10  13  ar  
 23  11  13  ar  
 24  11  14  1   
 25  12  15  1   
 26  12  34  1   
 27  13  35  1   
 28  14  16  1   
 29  14  36  1   
 30  14  37  1   
 31  15  17  1   
 32  15  38  1   
 33  15  39  1   
 34  16  40  1   
 35  16  41  1   
 36  16  42  1   
 37  17  18  1   
 38  17  43  1   
 39  17  44  1   
 40  18  19  1   
 41  18  45  1   
 42  18  46  1   
 43  19  20  1   
 44  19  21  2   
 45  20  22  2   
 46  20  47  1   
 47  21  23  1   
 48  21  48  1   
 49  22  23  1   
 50  23  24  1   
 51  24  49  1   
 52  24  50  1   
 53  24  51  1   
@<TRIPOS>SUBSTRUCTURE
  1 ****  12 GROUP 4 **** **** 0

# MOE 2024.06 (io_trps.svl 2023.06)
