@<TRIPOS>MOLECULE
NONAME
47 49 1 0 0 
SMALL
USER_CHARGES


@<TRIPOS>ATOM
  1 CL      -0.8220    -1.1480    -1.2830 Cl    1 <1>  -0.1770 
  2 C       -2.2050    -1.3290    -0.2300 C.ar  1 <1>   0.1770 
  3 C       -2.0360    -1.7660     1.0760 C.ar  1 <1>  -0.1440 
  4 C       -3.4550    -1.0250    -0.7350 C.ar  1 <1>  -0.1500 
  5 C       -3.1620    -1.8930     1.8730 C.ar  1 <1>  -0.1500 
  6 C       -0.6580    -2.1000     1.6260 C.3   1 <1>  -0.0960 
  7 C       -4.5880    -1.1490     0.0590 C.ar  1 <1>  -0.0090 
  8 C       -4.4150    -1.5880     1.3670 C.ar  1 <1>  -0.1500 
  9 S       -6.2380    -0.7490    -0.5790 S.o2  1 <1>   1.4470 
 10 O       -7.0830    -1.9110    -0.4000 O.2   1 <1>  -0.6500 
 11 O       -6.1070    -0.1570    -1.8940 O.2   1 <1>  -0.6500 
 12 N       -6.7490     0.4540     0.5050 N.am  1 <1>  -0.8490 
 13 C       -8.1240     0.3690     1.0380 C.3   1 <1>   0.1960 
 14 C       -6.3060     1.8200     0.2240 C.3   1 <1>   0.1960 
 15 C       -9.1920     1.1190     0.1910 C.3   1 <1>   0.0000 
 16 C       -7.2970     2.5690    -0.6760 C.3   1 <1>  -0.1600 
 17 C      -10.5570     1.1130     0.9070 C.3   1 <1>   0.2000 
 18 C       -8.7130     2.5590    -0.0830 C.3   1 <1>  -0.1600 
 19 C       -9.5480     0.3700    -1.1060 C.3   1 <1>  -0.1600 
 20 O      -10.4230     1.3150     2.2820 O.3   1 <1>  -0.5600 
 21 C      -11.1800    -0.2540     0.6030 C.3   1 <1>  -0.1600 
 22 C      -10.5050    -0.7470    -0.6830 C.3   1 <1>  -0.1600 
 23 C      -11.6050     1.6340     2.9470 C.3   1 <1>   0.0400 
 24 H       -3.5420    -0.6910    -1.7540 H     1 <1>   0.1500 
 25 H       -3.0720    -2.2300     2.8920 H     1 <1>   0.1500 
 26 H       -0.7170    -2.4200     2.6510 H     1 <1>   0.0800 
 27 H       -0.0220    -1.2330     1.5760 H     1 <1>   0.0800 
 28 H       -0.2130    -2.8890     1.0470 H     1 <1>   0.0800 
 29 H       -5.2820    -1.6920     1.9990 H     1 <1>   0.1500 
 30 H       -8.4110    -0.6580     1.1820 H     1 <1>   0.0800 
 31 H       -8.1000     0.8150     2.0170 H     1 <1>   0.0800 
 32 H       -6.2210     2.3480     1.1580 H     1 <1>   0.0800 
 33 H       -5.3300     1.8060    -0.2330 H     1 <1>   0.0800 
 34 H       -6.9660     3.5850    -0.7880 H     1 <1>   0.0800 
 35 H       -7.3040     2.1260    -1.6560 H     1 <1>   0.0800 
 36 H      -11.1730     1.8950     0.4950 H     1 <1>   0.0800 
 37 H       -9.3910     3.0630    -0.7490 H     1 <1>   0.0800 
 38 H       -8.7040     3.1030     0.8460 H     1 <1>   0.0800 
 39 H      -10.0730     1.0340    -1.7710 H     1 <1>   0.0800 
 40 H       -8.6990    -0.0140    -1.6360 H     1 <1>   0.0800 
 41 H      -10.9780    -0.9460     1.4020 H     1 <1>   0.0800 
 42 H      -12.2420    -0.1600     0.4640 H     1 <1>   0.0800 
 43 H       -9.9450    -1.6450    -0.4790 H     1 <1>   0.0800 
 44 H      -11.2220    -0.9560    -1.4580 H     1 <1>   0.0800 
 45 H      -11.3730     1.7840     3.9860 H     1 <1>   0.0800 
 46 H      -12.3040     0.8210     2.8480 H     1 <1>   0.0800 
 47 H      -12.0140     2.5390     2.5330 H     1 <1>   0.0800 
@<TRIPOS>BOND
  1   1   2  1   
  2   2   3  ar  
  3   2   4  ar  
  4   3   5  ar  
  5   3   6  1   
  6   4   7  ar  
  7   4  24  1   
  8   5   8  ar  
  9   5  25  1   
 10   6  26  1   
 11   6  27  1   
 12   6  28  1   
 13   7   8  ar  
 14   7   9  1   
 15   8  29  1   
 16   9  10  2   
 17   9  11  2   
 18   9  12  am  
 19  12  13  1   
 20  12  14  1   
 21  13  15  1   
 22  13  30  1   
 23  13  31  1   
 24  14  16  1   
 25  14  32  1   
 26  14  33  1   
 27  15  17  1   
 28  15  18  1   
 29  15  19  1   
 30  16  18  1   
 31  16  34  1   
 32  16  35  1   
 33  17  20  1   
 34  17  21  1   
 35  17  36  1   
 36  18  37  1   
 37  18  38  1   
 38  19  22  1   
 39  19  39  1   
 40  19  40  1   
 41  20  23  1   
 42  21  22  1   
 43  21  41  1   
 44  21  42  1   
 45  22  43  1   
 46  22  44  1   
 47  23  45  1   
 48  23  46  1   
 49  23  47  1   
@<TRIPOS>SUBSTRUCTURE
  1 ****  12 GROUP 4 **** **** 0

# MOE 2024.06 (io_trps.svl 2023.06)
