@<TRIPOS>MOLECULE
NONAME
42 44 1 0 0 
SMALL
USER_CHARGES


@<TRIPOS>ATOM
  1 F       -1.2760     0.8060    -0.5050 F     1 <1>  -0.3400 
  2 C       -1.0190     1.9750     0.0780 C.3   1 <1>   1.1640 
  3 F       -2.0150     2.7710    -0.2950 F     1 <1>  -0.3400 
  4 F       -1.1660     1.7480     1.3800 F     1 <1>  -0.3400 
  5 C        0.3680     2.5070    -0.2990 C.ar  1 <1>  -0.1440 
  6 C        0.7880     3.7420     0.2440 C.ar  1 <1>   0.3100 
  7 C        1.1950     1.8050    -1.1490 C.ar  1 <1>  -0.1500 
  8 N       -0.0420     4.4210     1.0780 N.ar  1 <1>  -0.6200 
  9 C        2.0700     4.2380    -0.0990 C.ar  1 <1>   0.0000 
 10 C        2.4550     2.2960    -1.4890 C.ar  1 <1>  -0.1500 
 11 C        0.3750     5.5540     1.5610 C.ar  1 <1>   0.1600 
 12 C        2.4910     5.4750     0.4500 C.ar  1 <1>   0.1000 
 13 C        2.8790     3.4880    -0.9730 C.ar  1 <1>  -0.1500 
 14 C        1.6150     6.1160     1.2850 C.ar  1 <1>  -0.1500 
 15 N        3.7410     6.0070     0.1700 N.pl3 1 <1>  -0.8380 
 16 C        3.8330     7.3580    -0.4480 C.3   1 <1>   0.2090 
 17 C        4.8040     5.8470     1.1910 C.3   1 <1>   0.2090 
 18 C        5.1710     7.9200     0.0180 C.3   1 <1>  -0.0190 
 19 C        5.4080     7.2350     1.3630 C.3   1 <1>  -0.1600 
 20 C        5.1780     9.4390     0.0900 C.2   1 <1>   0.5690 
 21 O        4.2610    10.0130     0.6250 O.2   1 <1>  -0.5700 
 22 N        6.2300    10.1090    -0.4480 N.am  1 <1>  -0.7300 
 23 C        6.3960    11.5760    -0.4340 C.3   1 <1>   0.1400 
 24 C        7.8040    11.9000     0.0490 C.3   1 <1>  -0.2400 
 25 H        0.9000     0.8610    -1.5780 H     1 <1>   0.1500 
 26 H        3.0820     1.7300    -2.1570 H     1 <1>   0.1500 
 27 H       -0.2870     6.0900     2.2210 H     1 <1>   0.1500 
 28 H        3.8480     3.8750    -1.2330 H     1 <1>   0.1500 
 29 H        1.8800     7.0530     1.7340 H     1 <1>   0.1500 
 30 H        3.0170     7.9720    -0.1070 H     1 <1>   0.0800 
 31 H        3.7930     7.2850    -1.5210 H     1 <1>   0.0800 
 32 H        5.5420     5.1580     0.8190 H     1 <1>   0.0800 
 33 H        4.4030     5.4730     2.1190 H     1 <1>   0.0800 
 34 H        5.9210     7.5920    -0.6780 H     1 <1>   0.0800 
 35 H        6.4500     7.1900     1.6250 H     1 <1>   0.0800 
 36 H        4.8720     7.7520     2.1400 H     1 <1>   0.0800 
 37 H        6.9920     9.5930    -0.8880 H     1 <1>   0.3700 
 38 H        5.6680    12.0250     0.2220 H     1 <1>   0.0800 
 39 H        6.2430    11.9620    -1.4280 H     1 <1>   0.0800 
 40 H        7.9530    11.5160     1.0420 H     1 <1>   0.0800 
 41 H        7.9370    12.9670     0.0760 H     1 <1>   0.0800 
 42 H        8.5390    11.4830    -0.6150 H     1 <1>   0.0800 
@<TRIPOS>BOND
  1   1   2  1   
  2   2   3  1   
  3   2   4  1   
  4   2   5  1   
  5   5   6  ar  
  6   5   7  ar  
  7   6   8  ar  
  8   6   9  ar  
  9   7  10  ar  
 10   7  25  1   
 11   8  11  ar  
 12   9  12  ar  
 13   9  13  ar  
 14  10  13  ar  
 15  10  26  1   
 16  11  14  ar  
 17  11  27  1   
 18  12  14  ar  
 19  12  15  1   
 20  13  28  1   
 21  14  29  1   
 22  15  16  1   
 23  15  17  1   
 24  16  18  1   
 25  16  30  1   
 26  16  31  1   
 27  17  19  1   
 28  17  32  1   
 29  17  33  1   
 30  18  19  1   
 31  18  20  1   
 32  18  34  1   
 33  19  35  1   
 34  19  36  1   
 35  20  21  2   
 36  20  22  am  
 37  22  23  1   
 38  22  37  1   
 39  23  24  1   
 40  23  38  1   
 41  23  39  1   
 42  24  40  1   
 43  24  41  1   
 44  24  42  1   
@<TRIPOS>SUBSTRUCTURE
  1 ****  12 GROUP 4 **** **** 0

# MOE 2024.06 (io_trps.svl 2023.06)
