@<TRIPOS>MOLECULE
NONAME
55 58 1 0 0 
SMALL
USER_CHARGES


@<TRIPOS>ATOM
  1 O       -2.3410    -0.2610     0.4690 O.2   1 <1>  -0.5700 
  2 C       -2.3700     0.6320    -0.3500 C.2   1 <1>   0.9370 
  3 N       -2.0340     1.9570     0.0400 N.pl3 1 <1>  -0.5760 
  4 C       -2.6870     0.3430    -1.7030 C.2   1 <1>   0.0290 
  5 C       -1.6850     2.8290    -0.9520 C.cat 1 <1>   0.7390 
  6 C       -1.9850     2.4090     1.3540 C.2   1 <1>   0.2030 
  7 C       -3.2250    -0.9320    -2.0490 C.2   1 <1>   0.6160 
  8 C       -2.3800     1.2710    -2.6380 C.2   1 <1>   0.1910 
  9 N       -1.8500     2.4690    -2.2490 N.pl3 1 <1>  -0.6450 
 10 C       -1.1870     4.1000    -0.6510 C.2   1 <1>  -0.1800 
 11 C       -1.5090     3.6610     1.6470 C.2   1 <1>  -0.1500 
 12 C       -2.4690     1.5670     2.5330 C.3   1 <1>  -0.1020 
 13 O       -2.6960    -1.5230    -2.9660 O.2   1 <1>  -0.5700 
 14 N       -4.3180    -1.5170    -1.4390 N.am  1 <1>  -0.6600 
 15 C       -1.0860     4.5270     0.6410 C.2   1 <1>  -0.1500 
 16 C       -4.6110    -2.9720    -1.6360 C.3   1 <1>   0.1400 
 17 C       -5.3430    -0.7960    -0.6280 C.3   1 <1>   0.1400 
 18 C       -4.7950    -3.6840    -0.2740 C.3   1 <1>   0.4230 
 19 C       -5.4890    -1.4890     0.7320 C.3   1 <1>  -0.1600 
 20 N       -4.9680    -5.1940    -0.3900 N.4   1 <1>  -0.9590 
 21 C       -5.8680    -2.9930     0.6180 C.3   1 <1>   0.0000 
 22 C       -5.5500    -5.8410     0.8320 C.3   1 <1>   0.3430 
 23 C       -5.6990    -5.6710    -1.6110 C.3   1 <1>   0.2630 
 24 C       -5.8360    -3.6200     2.0430 C.3   1 <1>  -0.1600 
 25 C       -7.2810    -3.1560    -0.0130 C.3   1 <1>   0.1200 
 26 C       -5.2250    -5.0340     2.0870 C.3   1 <1>  -0.1600 
 27 O       -8.2120    -2.3430     0.6090 O.3   1 <1>  -0.6800 
 28 H       -2.5340     1.0890    -3.6940 H     1 <1>   0.1500 
 29 H       -1.5760     3.1550    -2.9640 H     1 <1>   0.4500 
 30 H       -0.8850     4.7510    -1.4510 H     1 <1>   0.1500 
 31 H       -1.4520     4.0100     2.6650 H     1 <1>   0.1500 
 32 H       -3.4550     1.1830     2.3460 H     1 <1>   0.0800 
 33 H       -2.5150     2.1520     3.4350 H     1 <1>   0.0800 
 34 H       -1.7940     0.7490     2.7120 H     1 <1>   0.0800 
 35 H       -0.7040     5.5040     0.8960 H     1 <1>   0.1500 
 36 H       -5.4940    -3.0570    -2.2430 H     1 <1>   0.0800 
 37 H       -3.7970    -3.4440    -2.1590 H     1 <1>   0.0800 
 38 H       -5.0710     0.2340    -0.4810 H     1 <1>   0.0800 
 39 H       -6.2870    -0.8060    -1.1500 H     1 <1>   0.0800 
 40 H       -3.8630    -3.5310     0.2460 H     1 <1>   0.0800 
 41 H       -4.5580    -1.3880     1.2600 H     1 <1>   0.0800 
 42 H       -6.2260    -0.9600     1.3120 H     1 <1>   0.0800 
 43 H       -4.0070    -5.5610    -0.4650 H     1 <1>   0.4500 
 44 H       -6.6220    -5.9040     0.7360 H     1 <1>   0.0800 
 45 H       -5.1680    -6.8450     0.9330 H     1 <1>   0.0800 
 46 H       -6.7070    -5.2910    -1.6220 H     1 <1>   0.0800 
 47 H       -5.7390    -6.7490    -1.6240 H     1 <1>   0.0800 
 48 H       -5.1960    -5.3440    -2.5070 H     1 <1>   0.0800 
 49 H       -5.2640    -3.0040     2.7180 H     1 <1>   0.0800 
 50 H       -6.8320    -3.6570     2.4510 H     1 <1>   0.0800 
 51 H       -7.6360    -4.1680     0.0590 H     1 <1>   0.0800 
 52 H       -7.2820    -2.8720    -1.0500 H     1 <1>   0.0800 
 53 H       -5.6040    -5.5540     2.9510 H     1 <1>   0.0800 
 54 H       -4.1560    -4.9750     2.2020 H     1 <1>   0.0800 
 55 H       -8.4100    -2.6340     1.5220 H     1 <1>   0.4000 
@<TRIPOS>BOND
  1   1   2  2   
  2   2   3  1   
  3   2   4  1   
  4   3   5  ar  
  5   3   6  1   
  6   4   7  1   
  7   4   8  2   
  8   5   9  ar  
  9   5  10  1   
 10   6  11  2   
 11   6  12  1   
 12   7  13  2   
 13   7  14  am  
 14   8   9  1   
 15   8  28  1   
 16   9  29  1   
 17  10  15  2   
 18  10  30  1   
 19  11  15  1   
 20  11  31  1   
 21  12  32  1   
 22  12  33  1   
 23  12  34  1   
 24  14  16  1   
 25  14  17  1   
 26  15  35  1   
 27  16  18  1   
 28  16  36  1   
 29  16  37  1   
 30  17  19  1   
 31  17  38  1   
 32  17  39  1   
 33  18  20  1   
 34  18  21  1   
 35  18  40  1   
 36  19  21  1   
 37  19  41  1   
 38  19  42  1   
 39  20  22  1   
 40  20  23  1   
 41  20  43  1   
 42  21  24  1   
 43  21  25  1   
 44  22  26  1   
 45  22  44  1   
 46  22  45  1   
 47  23  46  1   
 48  23  47  1   
 49  23  48  1   
 50  24  26  1   
 51  24  49  1   
 52  24  50  1   
 53  25  27  1   
 54  25  51  1   
 55  25  52  1   
 56  26  53  1   
 57  26  54  1   
 58  27  55  1   
@<TRIPOS>SUBSTRUCTURE
  1 ****  14 GROUP 4 **** **** 0

# MOE 2024.06 (io_trps.svl 2023.06)
