@<TRIPOS>MOLECULE
NONAME
38 40 1 0 0 
SMALL
USER_CHARGES


@<TRIPOS>ATOM
  1 CL      -0.1590     0.7000     2.2230 Cl    1 <1>  -0.1770 
  2 C        0.0550     2.1300     1.2570 C.ar  1 <1>   0.1770 
  3 C        0.8850     3.1280     1.6990 C.ar  1 <1>  -0.1500 
  4 C       -0.6240     2.2370     0.0500 C.ar  1 <1>  -0.1500 
  5 C        1.0580     4.2780     0.9240 C.ar  1 <1>   0.3610 
  6 C       -0.4610     3.3640    -0.7200 C.ar  1 <1>  -0.1500 
  7 N        1.8900     5.3000     1.3490 N.ar  1 <1>  -0.1790 
  8 C        0.3820     4.4130    -0.3070 C.ar  1 <1>   0.0000 
  9 C        2.1010     6.4270     0.6670 C.ar  1 <1>   0.4610 
 10 C        0.5970     5.6090    -1.0580 C.ar  1 <1>  -0.1430 
 11 N        2.9250     7.3510     1.1780 N.pl3 1 <1>  -0.8690 
 12 C        1.4310     6.5700    -0.5730 C.ar  1 <1>  -0.1500 
 13 C       -0.1010     5.8110    -2.3990 C.3   1 <1>  -0.0970 
 14 C        3.2400     8.7120     0.6330 C.3   1 <1>   0.2890 
 15 C        4.5820     8.7010    -0.0920 C.3   1 <1>   0.2000 
 16 C        3.5630     9.6370     1.8000 C.3   1 <1>   0.1200 
 17 O        4.5770     9.7550    -1.0140 O.3   1 <1>  -0.5600 
 18 C        5.5910     8.9730     1.0410 C.3   1 <1>   0.1200 
 19 O        4.8400     9.2470     2.1920 O.3   1 <1>  -0.5600 
 20 C        5.6000     9.7210    -1.9620 C.3   1 <1>   0.0400 
 21 H        1.3910     3.0060     2.6390 H     1 <1>   0.1500 
 22 H       -1.2680     1.4320    -0.2630 H     1 <1>   0.1500 
 23 H       -0.9920     3.4340    -1.6540 H     1 <1>   0.1500 
 24 H        2.3630     5.1950     2.2410 H     1 <1>   0.4570 
 25 H        3.4590     7.2300     2.0510 H     1 <1>   0.4000 
 26 H        1.6030     7.4690    -1.1360 H     1 <1>   0.1500 
 27 H        0.1640     6.7560    -2.8390 H     1 <1>   0.0800 
 28 H       -1.1690     5.7930    -2.2700 H     1 <1>   0.0800 
 29 H        0.1800     5.0340    -3.0880 H     1 <1>   0.0800 
 30 H        2.4410     9.0970     0.0240 H     1 <1>   0.0800 
 31 H        4.7580     7.7770    -0.6130 H     1 <1>   0.0800 
 32 H        2.8780     9.5380     2.6240 H     1 <1>   0.0800 
 33 H        3.6080    10.6630     1.4760 H     1 <1>   0.0800 
 34 H        6.2120     9.8260     0.8280 H     1 <1>   0.0800 
 35 H        6.2000     8.1110     1.2420 H     1 <1>   0.0800 
 36 H        5.4870    10.5760    -2.6050 H     1 <1>   0.0800 
 37 H        5.5180     8.8200    -2.5450 H     1 <1>   0.0800 
 38 H        6.5550     9.7680    -1.4690 H     1 <1>   0.0800 
@<TRIPOS>BOND
  1   1   2  1   
  2   2   3  ar  
  3   2   4  ar  
  4   3   5  ar  
  5   3  21  1   
  6   4   6  ar  
  7   4  22  1   
  8   5   7  ar  
  9   5   8  ar  
 10   6   8  ar  
 11   6  23  1   
 12   7   9  ar  
 13   7  24  1   
 14   8  10  ar  
 15   9  11  1   
 16   9  12  ar  
 17  10  12  ar  
 18  10  13  1   
 19  11  14  1   
 20  11  25  1   
 21  12  26  1   
 22  13  27  1   
 23  13  28  1   
 24  13  29  1   
 25  14  15  1   
 26  14  16  1   
 27  14  30  1   
 28  15  17  1   
 29  15  18  1   
 30  15  31  1   
 31  16  19  1   
 32  16  32  1   
 33  16  33  1   
 34  17  20  1   
 35  18  19  1   
 36  18  34  1   
 37  18  35  1   
 38  20  36  1   
 39  20  37  1   
 40  20  38  1   
@<TRIPOS>SUBSTRUCTURE
  1 ****   9 GROUP 4 **** **** 0

# MOE 2024.06 (io_trps.svl 2023.06)
