@<TRIPOS>MOLECULE
NONAME
54 56 1 0 0 
SMALL
USER_CHARGES


@<TRIPOS>ATOM
  1 O       -0.8530     1.2200    -0.0720 O.3   1 <1>  -0.6800 
  2 C       -0.4610     2.3960     0.5340 C.3   1 <1>   0.2000 
  3 C       -1.5110     3.4690     0.2500 C.3   1 <1>  -0.1600 
  4 C        0.9010     2.7920    -0.0310 C.3   1 <1>  -0.1600 
  5 C       -1.0580     4.8180     0.8120 C.3   1 <1>   0.2090 
  6 C        1.3390     4.1430     0.5340 C.3   1 <1>   0.2090 
  7 N        0.2880     5.1610     0.2750 N.pl3 1 <1>  -0.8380 
  8 C        0.6630     6.4860     0.2150 C.ar  1 <1>   0.4100 
  9 N        0.1800     7.3070     1.1280 N.ar  1 <1>  -0.6200 
 10 C        1.5170     6.9380    -0.7600 C.ar  1 <1>  -0.1500 
 11 C        0.5810     8.5560     1.0370 C.ar  1 <1>   0.4700 
 12 C        1.8650     8.2660    -0.7600 C.ar  1 <1>   0.4100 
 13 N        1.4000     9.1020     0.1530 N.ar  1 <1>  -0.6200 
 14 N        2.7190     8.7650    -1.7170 N.pl3 1 <1>  -0.8690 
 15 C        2.8760    10.2160    -1.9790 C.3   1 <1>   0.2090 
 16 C        3.7270    10.8590    -0.8630 C.3   1 <1>   0.3430 
 17 N        3.2790    12.2420    -0.4650 N.4   1 <1>  -0.9590 
 18 C        4.2800    12.9490     0.4140 C.3   1 <1>   0.4230 
 19 C        1.9550    12.1300     0.2270 C.3   1 <1>   0.3430 
 20 C        3.7460    14.3560     0.7450 C.3   1 <1>  -0.1600 
 21 C        5.6870    13.0410    -0.2340 C.3   1 <1>   0.1200 
 22 C        1.3900    13.5170     0.5240 C.3   1 <1>  -0.1600 
 23 C        2.3560    14.3290     1.3880 C.3   1 <1>  -0.1600 
 24 O        6.5720    13.6610     0.6380 O.3   1 <1>  -0.6800 
 25 H       -1.7430     0.9620     0.2320 H     1 <1>   0.4000 
 26 H       -0.3850     2.2170     1.5930 H     1 <1>   0.0800 
 27 H       -2.4480     3.2010     0.7020 H     1 <1>   0.0800 
 28 H       -1.6530     3.5730    -0.8120 H     1 <1>   0.0800 
 29 H        0.8460     2.8660    -1.1030 H     1 <1>   0.0800 
 30 H        1.6300     2.0460     0.2260 H     1 <1>   0.0800 
 31 H       -1.0100     4.7790     1.8870 H     1 <1>   0.0800 
 32 H       -1.7640     5.5820     0.5330 H     1 <1>   0.0800 
 33 H        2.2680     4.4410     0.0800 H     1 <1>   0.0800 
 34 H        1.4960     4.0630     1.5970 H     1 <1>   0.0800 
 35 H        1.8910     6.2620    -1.4990 H     1 <1>   0.1500 
 36 H        0.1850     9.2180     1.7880 H     1 <1>   0.1500 
 37 H        2.8360     8.1640    -2.5410 H     1 <1>   0.4000 
 38 H        1.8980    10.6600    -2.0340 H     1 <1>   0.0800 
 39 H        3.3640    10.3540    -2.9290 H     1 <1>   0.0800 
 40 H        4.7470    10.8750    -1.2020 H     1 <1>   0.0800 
 41 H        3.6790    10.2180     0.0030 H     1 <1>   0.0800 
 42 H        3.1430    12.8220    -1.3000 H     1 <1>   0.4500 
 43 H        4.3800    12.3940     1.3330 H     1 <1>   0.0800 
 44 H        2.0730    11.5830     1.1480 H     1 <1>   0.0800 
 45 H        1.2530    11.5890    -0.3870 H     1 <1>   0.0800 
 46 H        3.7220    14.9530    -0.1490 H     1 <1>   0.0800 
 47 H        4.4220    14.8400     1.4300 H     1 <1>   0.0800 
 48 H        5.6530    13.6250    -1.1380 H     1 <1>   0.0800 
 49 H        6.0900    12.0660    -0.4390 H     1 <1>   0.0800 
 50 H        0.4530    13.4100     1.0420 H     1 <1>   0.0800 
 51 H        1.1910    14.0320    -0.4000 H     1 <1>   0.0800 
 52 H        1.9870    15.3340     1.5080 H     1 <1>   0.0800 
 53 H        2.4230    13.8850     2.3680 H     1 <1>   0.0800 
 54 H        7.4670    13.7580     0.2480 H     1 <1>   0.4000 
@<TRIPOS>BOND
  1   1   2  1   
  2   1  25  1   
  3   2   3  1   
  4   2   4  1   
  5   2  26  1   
  6   3   5  1   
  7   3  27  1   
  8   3  28  1   
  9   4   6  1   
 10   4  29  1   
 11   4  30  1   
 12   5   7  1   
 13   5  31  1   
 14   5  32  1   
 15   6   7  1   
 16   6  33  1   
 17   6  34  1   
 18   7   8  1   
 19   8   9  ar  
 20   8  10  ar  
 21   9  11  ar  
 22  10  12  ar  
 23  10  35  1   
 24  11  13  ar  
 25  11  36  1   
 26  12  13  ar  
 27  12  14  1   
 28  14  15  1   
 29  14  37  1   
 30  15  16  1   
 31  15  38  1   
 32  15  39  1   
 33  16  17  1   
 34  16  40  1   
 35  16  41  1   
 36  17  18  1   
 37  17  19  1   
 38  17  42  1   
 39  18  20  1   
 40  18  21  1   
 41  18  43  1   
 42  19  22  1   
 43  19  44  1   
 44  19  45  1   
 45  20  23  1   
 46  20  46  1   
 47  20  47  1   
 48  21  24  1   
 49  21  48  1   
 50  21  49  1   
 51  22  23  1   
 52  22  50  1   
 53  22  51  1   
 54  23  52  1   
 55  23  53  1   
 56  24  54  1   
@<TRIPOS>SUBSTRUCTURE
  1 ****  13 GROUP 4 **** **** 0

# MOE 2024.06 (io_trps.svl 2023.06)
