@<TRIPOS>MOLECULE
NONAME
48 51 1 0 0 
SMALL
USER_CHARGES


@<TRIPOS>ATOM
  1 O        0.2720     0.0760     0.5030 O.2   1 <1>  -0.5700 
  2 C       -0.2400     1.0540     0.0140 C.2   1 <1>   0.5690 
  3 N       -1.5970     1.2570     0.0530 N.am  1 <1>  -0.6600 
  4 C        0.6840     2.0720    -0.6280 C.3   1 <1>  -0.0990 
  5 C       -2.2760     2.5140    -0.4160 C.3   1 <1>   0.1400 
  6 C       -2.4810     0.2110     0.6530 C.3   1 <1>   0.1400 
  7 C        1.1050     3.1460     0.3840 C.3   1 <1>  -0.0170 
  8 C       -3.4760     2.8810     0.4750 C.3   1 <1>   0.1440 
  9 C       -3.9290     0.3520     0.1650 C.3   1 <1>  -0.1600 
 10 C        1.7550     4.3210    -0.3260 C.ar  1 <1>  -0.1440 
 11 C       -4.0070     4.2240     0.0000 C.ar  1 <1>   0.1660 
 12 C       -4.5360     1.7500     0.4130 C.3   1 <1>  -0.1600 
 13 C       -3.0290     3.1980     1.9340 C.3   1 <1>  -0.1600 
 14 C        3.1300     4.3680    -0.5140 C.ar  1 <1>   0.1600 
 15 C        0.9840     5.3630    -0.8010 C.ar  1 <1>  -0.1500 
 16 N       -4.6430     4.4340    -1.1280 N.ar  1 <1>  -0.6200 
 17 C       -3.7080     5.2260     0.8760 C.ar  1 <1>  -0.1440 
 18 C       -2.9360     4.7270     2.0700 C.3   1 <1>  -0.0170 
 19 N        3.7790     5.3470    -1.1230 N.ar  1 <1>  -0.6200 
 20 C        1.6450     6.3920    -1.4380 C.ar  1 <1>  -0.1500 
 21 C       -4.9760     5.6990    -1.3350 C.ar  1 <1>   0.7200 
 22 C       -4.1170     6.4990     0.5610 C.ar  1 <1>   0.1600 
 23 C        3.0210     6.3350    -1.5700 C.ar  1 <1>   0.1600 
 24 N       -4.7640     6.7490    -0.5550 N.ar  1 <1>  -0.6200 
 25 N       -5.6260     5.9460    -2.4710 N.pl3 1 <1>  -0.9000 
 26 H        0.2030     2.5150    -1.4790 H     1 <1>   0.0800 
 27 H        1.5600     1.5640    -0.9900 H     1 <1>   0.0800 
 28 H       -2.6210     2.3670    -1.4260 H     1 <1>   0.0800 
 29 H       -1.5910     3.3400    -0.4230 H     1 <1>   0.0800 
 30 H       -2.4470     0.2990     1.7250 H     1 <1>   0.0800 
 31 H       -2.1090    -0.7650     0.3900 H     1 <1>   0.0800 
 32 H        1.7860     2.7160     1.0980 H     1 <1>   0.0800 
 33 H        0.2480     3.4960     0.9320 H     1 <1>   0.0800 
 34 H       -4.5410    -0.3960     0.6380 H     1 <1>   0.0800 
 35 H       -3.9400     0.1460    -0.8920 H     1 <1>   0.0800 
 36 H       -5.2230     1.9490    -0.3910 H     1 <1>   0.0800 
 37 H       -5.1220     1.7390     1.3140 H     1 <1>   0.0800 
 38 H       -2.0950     2.7320     2.1950 H     1 <1>   0.0800 
 39 H       -3.7710     2.8520     2.6310 H     1 <1>   0.0800 
 40 H        3.7300     3.5530    -0.1450 H     1 <1>   0.1500 
 41 H       -0.0860     5.3820    -0.6870 H     1 <1>   0.1500 
 42 H       -1.9130     5.0550     2.0040 H     1 <1>   0.0800 
 43 H       -3.3700     5.0680     2.9940 H     1 <1>   0.0800 
 44 H        1.1000     7.2310    -1.8310 H     1 <1>   0.1500 
 45 H       -3.9090     7.3200     1.2260 H     1 <1>   0.1500 
 46 H        3.5250     7.1450    -2.0690 H     1 <1>   0.1500 
 47 H       -6.1430     6.8210    -2.4880 H     1 <1>   0.4000 
 48 H       -6.0750     5.1410    -2.8970 H     1 <1>   0.4000 
@<TRIPOS>BOND
  1   1   2  2   
  2   2   3  am  
  3   2   4  1   
  4   3   5  1   
  5   3   6  1   
  6   4   7  1   
  7   4  26  1   
  8   4  27  1   
  9   5   8  1   
 10   5  28  1   
 11   5  29  1   
 12   6   9  1   
 13   6  30  1   
 14   6  31  1   
 15   7  10  1   
 16   7  32  1   
 17   7  33  1   
 18   8  11  1   
 19   8  12  1   
 20   8  13  1   
 21   9  12  1   
 22   9  34  1   
 23   9  35  1   
 24  10  14  ar  
 25  10  15  ar  
 26  11  16  ar  
 27  11  17  ar  
 28  12  36  1   
 29  12  37  1   
 30  13  18  1   
 31  13  38  1   
 32  13  39  1   
 33  14  19  ar  
 34  14  40  1   
 35  15  20  ar  
 36  15  41  1   
 37  16  21  ar  
 38  17  18  1   
 39  17  22  ar  
 40  18  42  1   
 41  18  43  1   
 42  19  23  ar  
 43  20  23  ar  
 44  20  44  1   
 45  21  24  ar  
 46  21  25  1   
 47  22  24  ar  
 48  22  45  1   
 49  23  46  1   
 50  25  47  1   
 51  25  48  1   
@<TRIPOS>SUBSTRUCTURE
  1 ****   5 GROUP 4 **** **** 0

# MOE 2024.06 (io_trps.svl 2023.06)
