@<TRIPOS>MOLECULE
NONAME
62 64 1 0 0 
SMALL
USER_CHARGES


@<TRIPOS>ATOM
  1 O        1.0390     1.0710     0.1640 O.2   1 <1>  -0.5700 
  2 C        1.3850    -0.0800     0.0380 C.2   1 <1>   0.5690 
  3 N        2.6510    -0.4460    -0.3040 N.am  1 <1>  -0.7300 
  4 C        0.3420    -1.1640     0.2750 C.3   1 <1>   0.1810 
  5 C        3.8230     0.3860    -0.5820 C.3   1 <1>   0.3000 
  6 O        0.8760    -2.4660     0.0550 O.3   1 <1>  -0.3620 
  7 C        4.9690    -0.5690    -0.9100 C.3   1 <1>  -0.2400 
  8 C        3.5410     1.2850    -1.7850 C.3   1 <1>  -0.2400 
  9 C        4.1760     1.2070     0.6580 C.3   1 <1>  -0.2400 
 10 C        0.1130    -3.5750     0.2020 C.ar  1 <1>   0.0820 
 11 C        0.7360    -4.7920    -0.0160 C.ar  1 <1>  -0.1500 
 12 C       -1.2330    -3.5500     0.5550 C.ar  1 <1>  -0.1500 
 13 C        0.0310    -5.9750     0.1050 C.ar  1 <1>  -0.1500 
 14 C       -1.9390    -4.7340     0.6760 C.ar  1 <1>  -0.1500 
 15 C       -1.3140    -5.9520     0.4440 C.ar  1 <1>  -0.1430 
 16 C       -2.0960    -7.2460     0.5570 C.3   1 <1>   0.4860 
 17 N       -2.9690    -7.3750    -0.6440 N.4   1 <1>  -0.9590 
 18 C       -3.9770    -8.4540    -0.4690 C.3   1 <1>   0.4230 
 19 C       -2.1410    -7.5790    -1.8760 C.3   1 <1>   0.2630 
 20 C       -4.9210    -8.5560    -1.6600 C.3   1 <1>  -0.1600 
 21 C       -4.9150    -8.1800     0.7060 C.3   1 <1>  -0.1600 
 22 C       -6.1670    -9.2620    -1.1130 C.3   1 <1>  -0.0800 
 23 C       -6.2210    -8.9280     0.3880 C.3   1 <1>  -0.0800 
 24 C       -6.0790   -10.7970    -1.2130 C.3   1 <1>  -0.1600 
 25 C       -6.3440   -10.2760     1.1180 C.3   1 <1>  -0.1600 
 26 C       -5.7570   -11.3220     0.1810 C.3   1 <1>   0.2000 
 27 O       -4.3830   -11.3420     0.3480 O.3   1 <1>  -0.6800 
 28 H        2.8260    -1.4490    -0.3840 H     1 <1>   0.3700 
 29 H       -0.4780    -1.0130    -0.4020 H     1 <1>   0.0800 
 30 H       -0.0020    -1.1040     1.2910 H     1 <1>   0.0800 
 31 H        5.8630    -0.0120    -1.1240 H     1 <1>   0.0800 
 32 H        4.7290    -1.1640    -1.7730 H     1 <1>   0.0800 
 33 H        5.1700    -1.2180    -0.0770 H     1 <1>   0.0800 
 34 H        4.4200     1.8480    -2.0410 H     1 <1>   0.0800 
 35 H        2.7550     1.9830    -1.5600 H     1 <1>   0.0800 
 36 H        3.2520     0.6960    -2.6360 H     1 <1>   0.0800 
 37 H        5.0770     1.7680     0.4870 H     1 <1>   0.0800 
 38 H        4.3280     0.5640     1.5050 H     1 <1>   0.0800 
 39 H        3.3910     1.9050     0.8860 H     1 <1>   0.0800 
 40 H        1.7790    -4.8040    -0.2800 H     1 <1>   0.1500 
 41 H       -1.7450    -2.6240     0.7400 H     1 <1>   0.1500 
 42 H        0.5460    -6.9060    -0.0660 H     1 <1>   0.1500 
 43 H       -2.9780    -4.6910     0.9560 H     1 <1>   0.1500 
 44 H       -2.6920    -7.2140     1.4540 H     1 <1>   0.0800 
 45 H       -1.4250    -8.0860     0.6240 H     1 <1>   0.0800 
 46 H       -3.4700    -6.4850    -0.7410 H     1 <1>   0.4500 
 47 H       -3.4890    -9.4040    -0.3280 H     1 <1>   0.0800 
 48 H       -1.5990    -8.5090    -1.8140 H     1 <1>   0.0800 
 49 H       -1.4340    -6.7730    -1.9900 H     1 <1>   0.0800 
 50 H       -2.7680    -7.6040    -2.7520 H     1 <1>   0.0800 
 51 H       -5.2050    -7.5730    -1.9910 H     1 <1>   0.0800 
 52 H       -4.4860    -9.1000    -2.4780 H     1 <1>   0.0800 
 53 H       -4.4890    -8.5100     1.6360 H     1 <1>   0.0800 
 54 H       -5.1360    -7.1290     0.7650 H     1 <1>   0.0800 
 55 H       -7.0500    -8.9160    -1.6270 H     1 <1>   0.0800 
 56 H       -7.0690    -8.3040     0.6220 H     1 <1>   0.0800 
 57 H       -5.3760   -11.1510    -1.9470 H     1 <1>   0.0800 
 58 H       -7.0510   -11.1690    -1.4860 H     1 <1>   0.0800 
 59 H       -7.3910   -10.4960     1.2390 H     1 <1>   0.0800 
 60 H       -5.8900   -10.2880     2.0930 H     1 <1>   0.0800 
 61 H       -6.1430   -12.3150     0.3490 H     1 <1>   0.0800 
 62 H       -4.1610   -11.9040     1.1180 H     1 <1>   0.4000 
@<TRIPOS>BOND
  1   1   2  2   
  2   2   3  am  
  3   2   4  1   
  4   3   5  1   
  5   3  28  1   
  6   4   6  1   
  7   4  29  1   
  8   4  30  1   
  9   5   7  1   
 10   5   8  1   
 11   5   9  1   
 12   6  10  1   
 13   7  31  1   
 14   7  32  1   
 15   7  33  1   
 16   8  34  1   
 17   8  35  1   
 18   8  36  1   
 19   9  37  1   
 20   9  38  1   
 21   9  39  1   
 22  10  11  ar  
 23  10  12  ar  
 24  11  13  ar  
 25  11  40  1   
 26  12  14  ar  
 27  12  41  1   
 28  13  15  ar  
 29  13  42  1   
 30  14  15  ar  
 31  14  43  1   
 32  15  16  1   
 33  16  17  1   
 34  16  44  1   
 35  16  45  1   
 36  17  18  1   
 37  17  19  1   
 38  17  46  1   
 39  18  20  1   
 40  18  21  1   
 41  18  47  1   
 42  19  48  1   
 43  19  49  1   
 44  19  50  1   
 45  20  22  1   
 46  20  51  1   
 47  20  52  1   
 48  21  23  1   
 49  21  53  1   
 50  21  54  1   
 51  22  23  1   
 52  22  24  1   
 53  22  55  1   
 54  23  25  1   
 55  23  56  1   
 56  24  26  1   
 57  24  57  1   
 58  24  58  1   
 59  25  26  1   
 60  25  59  1   
 61  25  60  1   
 62  26  27  1   
 63  26  61  1   
 64  27  62  1   
@<TRIPOS>SUBSTRUCTURE
  1 ****  15 GROUP 4 **** **** 0

# MOE 2024.06 (io_trps.svl 2023.06)
