@<TRIPOS>MOLECULE
NONAME
44 45 1 0 0 
SMALL
USER_CHARGES


@<TRIPOS>ATOM
  1 F        0.2860    -2.0270     1.4180 F     1 <1>  -0.1900 
  2 C       -0.5720    -2.8470     0.8660 C.ar  1 <1>   0.1900 
  3 C       -0.1640    -3.9540     0.1140 C.ar  1 <1>   0.0830 
  4 C       -1.9090    -2.5620     1.0640 C.ar  1 <1>  -0.1500 
  5 O        1.1180    -4.3380    -0.1540 O.3   1 <1>  -0.3630 
  6 C       -1.1500    -4.7630    -0.4260 C.ar  1 <1>  -0.1500 
  7 C       -2.8680    -3.3900     0.5100 C.ar  1 <1>  -0.1500 
  8 C        2.2450    -3.6000     0.2660 C.3   1 <1>   0.0400 
  9 C       -2.5130    -4.5120    -0.2430 C.ar  1 <1>   0.0530 
 10 C       -3.5110    -5.3850    -0.8150 C.2   1 <1>   0.0870 
 11 O       -3.2100    -6.1950    -1.8030 O.3   1 <1>  -0.0190 
 12 C       -4.8180    -5.6000    -0.5290 C.2   1 <1>  -0.2330 
 13 N       -4.2280    -6.9190    -2.1940 N.2   1 <1>  -0.4100 
 14 C       -5.2180    -6.5500    -1.4620 C.2   1 <1>   0.3720 
 15 C       -5.6270    -5.1020     0.5250 C.2   1 <1>   1.0330 
 16 N       -6.4830    -7.1320    -1.6060 N.pl3 1 <1>  -0.8210 
 17 O       -6.3760    -4.1310     0.3610 O.co2 1 <1>  -0.9000 
 18 O       -5.6100    -5.6950     1.6180 O.co2 1 <1>  -0.9000 
 19 C       -7.0250    -7.8870    -0.4240 C.3   1 <1>   0.2090 
 20 C       -7.4710    -6.1250    -2.0920 C.3   1 <1>   0.1290 
 21 C       -6.3260    -9.2500    -0.2230 C.3   1 <1>   0.3430 
 22 N       -4.8350    -9.1350    -0.1720 N.4   1 <1>  -0.9590 
 23 C       -4.1330   -10.3940    -0.5300 C.3   1 <1>   0.2630 
 24 C       -4.3590    -8.5560     1.1240 C.3   1 <1>   0.2630 
 25 H       -2.1990    -1.7050     1.6450 H     1 <1>   0.1500 
 26 H       -0.8430    -5.6140    -1.0060 H     1 <1>   0.1500 
 27 H       -3.9070    -3.1530     0.6660 H     1 <1>   0.1500 
 28 H        3.1250    -4.0970    -0.1000 H     1 <1>   0.0800 
 29 H        2.2630    -3.5710     1.3410 H     1 <1>   0.0800 
 30 H        2.1880    -2.6080    -0.1470 H     1 <1>   0.0800 
 31 H       -8.0730    -8.0740    -0.5820 H     1 <1>   0.0800 
 32 H       -6.9510    -7.3050     0.4740 H     1 <1>   0.0800 
 33 H       -7.0090    -5.4710    -2.8130 H     1 <1>   0.0800 
 34 H       -7.8340    -5.5250    -1.2730 H     1 <1>   0.0800 
 35 H       -8.3010    -6.6210    -2.5640 H     1 <1>   0.0800 
 36 H       -6.6030    -9.8770    -1.0540 H     1 <1>   0.0800 
 37 H       -6.6910    -9.7110     0.6790 H     1 <1>   0.0800 
 38 H       -4.6260    -8.4280    -0.9140 H     1 <1>   0.4500 
 39 H       -4.3450   -11.1610     0.1970 H     1 <1>   0.0800 
 40 H       -3.0680   -10.2260    -0.5600 H     1 <1>   0.0800 
 41 H       -4.4530   -10.7320    -1.5020 H     1 <1>   0.0800 
 42 H       -4.4600    -9.2730     1.9200 H     1 <1>   0.0800 
 43 H       -4.9370    -7.6870     1.3790 H     1 <1>   0.0800 
 44 H       -3.3260    -8.2600     1.0450 H     1 <1>   0.0800 
@<TRIPOS>BOND
  1   1   2  1   
  2   2   3  ar  
  3   2   4  ar  
  4   3   5  1   
  5   3   6  ar  
  6   4   7  ar  
  7   4  25  1   
  8   5   8  1   
  9   6   9  ar  
 10   6  26  1   
 11   7   9  ar  
 12   7  27  1   
 13   8  28  1   
 14   8  29  1   
 15   8  30  1   
 16   9  10  1   
 17  10  11  1   
 18  10  12  2   
 19  11  13  1   
 20  12  14  1   
 21  12  15  1   
 22  13  14  2   
 23  14  16  1   
 24  15  17  ar  
 25  15  18  ar  
 26  16  19  1   
 27  16  20  1   
 28  19  21  1   
 29  19  31  1   
 30  19  32  1   
 31  20  33  1   
 32  20  34  1   
 33  20  35  1   
 34  21  22  1   
 35  21  36  1   
 36  21  37  1   
 37  22  23  1   
 38  22  24  1   
 39  22  38  1   
 40  23  39  1   
 41  23  40  1   
 42  23  41  1   
 43  24  42  1   
 44  24  43  1   
 45  24  44  1   
@<TRIPOS>SUBSTRUCTURE
  1 ****  10 GROUP 4 **** **** 0

# MOE 2024.06 (io_trps.svl 2023.06)
