@<TRIPOS>MOLECULE
NONAME
52 54 1 0 0 
SMALL
USER_CHARGES


@<TRIPOS>ATOM
  1 F        1.9730    -1.3100     1.8260 F     1 <1>  -0.3400 
  2 C        0.9310    -1.8110     1.1780 C.3   1 <1>   1.3000 
  3 F       -0.0690    -0.9440     1.2890 F     1 <1>  -0.3400 
  4 F        1.2600    -1.9070    -0.1050 F     1 <1>  -0.3400 
  5 O        0.5850    -3.0690     1.7180 O.3   1 <1>  -0.3630 
  6 C       -0.4640    -3.7190     1.1810 C.ar  1 <1>   0.0830 
  7 C       -1.7360    -3.5310     1.6990 C.ar  1 <1>  -0.1500 
  8 C       -0.2720    -4.5890     0.1190 C.ar  1 <1>  -0.1500 
  9 C       -2.8090    -4.2070     1.1490 C.ar  1 <1>  -0.1500 
 10 C       -1.3530    -5.2600    -0.4230 C.ar  1 <1>  -0.1500 
 11 C       -2.6450    -5.0920     0.0800 C.ar  1 <1>   0.0860 
 12 C       -3.7690    -5.8090    -0.4980 C.2   1 <1>   0.5440 
 13 O       -3.8150    -5.9740    -1.7030 O.2   1 <1>  -0.5700 
 14 N       -4.7870    -6.3230     0.2850 N.am  1 <1>  -0.6600 
 15 C       -6.0930    -6.6820    -0.3490 C.3   1 <1>   0.2200 
 16 C       -4.4650    -6.9400     1.6080 C.3   1 <1>   0.0600 
 17 C       -6.7370    -5.4710    -1.0290 C.3   1 <1>  -0.1600 
 18 C       -7.1800    -7.1390     0.6300 C.3   1 <1>  -0.1600 
 19 C       -8.2210    -5.8300    -1.1610 C.3   1 <1>  -0.0800 
 20 C       -8.4990    -6.9180    -0.1210 C.3   1 <1>  -0.0800 
 21 C       -9.2020    -4.6920    -0.8500 C.3   1 <1>  -0.1600 
 22 C       -9.6660    -6.3970     0.7320 C.3   1 <1>  -0.1600 
 23 C      -10.3840    -5.3650    -0.1460 C.3   1 <1>   0.4230 
 24 N      -11.2770    -6.0450    -1.1400 N.4   1 <1>  -0.9590 
 25 C      -11.8850    -5.0900    -2.1220 C.3   1 <1>   0.2630 
 26 C      -12.3790    -6.8250    -0.4900 C.3   1 <1>   0.2630 
 27 H       -1.8830    -2.8590     2.5270 H     1 <1>   0.1500 
 28 H        0.7150    -4.7400    -0.2810 H     1 <1>   0.1500 
 29 H       -3.7960    -4.0490     1.5470 H     1 <1>   0.1500 
 30 H       -1.2060    -5.9290    -1.2540 H     1 <1>   0.1500 
 31 H       -5.9280    -7.4540    -1.0840 H     1 <1>   0.0800 
 32 H       -4.9890    -6.4230     2.3920 H     1 <1>   0.0800 
 33 H       -3.4090    -6.8900     1.8090 H     1 <1>   0.0800 
 34 H       -4.7510    -7.9770     1.6100 H     1 <1>   0.0800 
 35 H       -6.6020    -4.6080    -0.4020 H     1 <1>   0.0800 
 36 H       -6.2970    -5.2820    -1.9930 H     1 <1>   0.0800 
 37 H       -7.0560    -8.1710     0.9070 H     1 <1>   0.0800 
 38 H       -7.1490    -6.5180     1.5070 H     1 <1>   0.0800 
 39 H       -8.4060    -6.2290    -2.1450 H     1 <1>   0.0800 
 40 H       -8.7780    -7.8260    -0.6320 H     1 <1>   0.0800 
 41 H       -9.4530    -4.1180    -1.7200 H     1 <1>   0.0800 
 42 H       -8.7520    -4.0170    -0.1420 H     1 <1>   0.0800 
 43 H       -9.2790    -5.8700     1.5860 H     1 <1>   0.0800 
 44 H      -10.2870    -7.1890     1.1030 H     1 <1>   0.0800 
 45 H      -10.9460    -4.6610     0.4480 H     1 <1>   0.0800 
 46 H      -10.6730    -6.7010    -1.6570 H     1 <1>   0.4500 
 47 H      -12.4450    -4.3270    -1.6050 H     1 <1>   0.0800 
 48 H      -12.5520    -5.6140    -2.7880 H     1 <1>   0.0800 
 49 H      -11.1230    -4.6170    -2.7180 H     1 <1>   0.0800 
 50 H      -12.9750    -6.1810     0.1360 H     1 <1>   0.0800 
 51 H      -11.9800    -7.6220     0.1140 H     1 <1>   0.0800 
 52 H      -13.0180    -7.2630    -1.2400 H     1 <1>   0.0800 
@<TRIPOS>BOND
  1   1   2  1   
  2   2   3  1   
  3   2   4  1   
  4   2   5  1   
  5   5   6  1   
  6   6   7  ar  
  7   6   8  ar  
  8   7   9  ar  
  9   7  27  1   
 10   8  10  ar  
 11   8  28  1   
 12   9  11  ar  
 13   9  29  1   
 14  10  11  ar  
 15  10  30  1   
 16  11  12  1   
 17  12  13  2   
 18  12  14  am  
 19  14  15  1   
 20  14  16  1   
 21  15  17  1   
 22  15  18  1   
 23  15  31  1   
 24  16  32  1   
 25  16  33  1   
 26  16  34  1   
 27  17  19  1   
 28  17  35  1   
 29  17  36  1   
 30  18  20  1   
 31  18  37  1   
 32  18  38  1   
 33  19  20  1   
 34  19  21  1   
 35  19  39  1   
 36  20  22  1   
 37  20  40  1   
 38  21  23  1   
 39  21  41  1   
 40  21  42  1   
 41  22  23  1   
 42  22  43  1   
 43  22  44  1   
 44  23  24  1   
 45  23  45  1   
 46  24  25  1   
 47  24  26  1   
 48  24  46  1   
 49  25  47  1   
 50  25  48  1   
 51  25  49  1   
 52  26  50  1   
 53  26  51  1   
 54  26  52  1   
@<TRIPOS>SUBSTRUCTURE
  1 ****  14 GROUP 4 **** **** 0

# MOE 2024.06 (io_trps.svl 2023.06)
