@<TRIPOS>MOLECULE
NONAME
48 51 1 0 0 
SMALL
USER_CHARGES


@<TRIPOS>ATOM
  1 F        0.7790     3.1660    -1.4560 F     1 <1>  -0.1900 
  2 C        2.0210     2.9060    -1.1590 C.ar  1 <1>   0.1900 
  3 C        2.6520     1.8530    -1.7760 C.ar  1 <1>  -0.1500 
  4 C        2.6590     3.7030    -0.2230 C.ar  1 <1>  -0.1500 
  5 C        3.9780     1.5810    -1.4580 C.ar  1 <1>   0.1170 
  6 C        3.9760     3.4350     0.0880 C.ar  1 <1>  -0.1500 
  7 N        4.6270     0.5010    -2.0420 N.am  1 <1>  -0.5470 
  8 C        4.6750     2.3870    -0.5320 C.ar  1 <1>   0.0280 
  9 C        5.9050     0.1560    -1.7470 C.2   1 <1>   0.6160 
 10 C        6.0640     2.0800    -0.2580 C.2   1 <1>  -0.0140 
 11 O        6.3940    -0.8130    -2.2930 O.2   1 <1>  -0.5700 
 12 C        6.6160     0.9740    -0.8360 C.2   1 <1>  -0.1360 
 13 C        6.8610     2.9300     0.5990 C.2   1 <1>   0.6160 
 14 O        7.4440     2.4510     1.5500 O.2   1 <1>  -0.5700 
 15 N        7.0540     4.2650     0.3270 N.am  1 <1>  -0.6600 
 16 C        7.5960     5.1690     1.4140 C.3   1 <1>   0.2200 
 17 C        6.9940     4.7720    -1.0810 C.3   1 <1>   0.1400 
 18 C        6.9470     6.5630     1.4010 C.3   1 <1>   0.1200 
 19 C        9.1400     5.2620     1.3660 C.3   1 <1>   0.3430 
 20 C        7.9130     5.9710    -1.3810 C.3   1 <1>  -0.0800 
 21 O        7.6100     7.4270     0.5310 O.3   1 <1>  -0.5600 
 22 N        9.6960     4.8050     0.0480 N.4   1 <1>  -0.9590 
 23 C        7.3440     7.2850    -0.8220 C.3   1 <1>   0.1200 
 24 C        9.4100     5.7930    -1.0410 C.3   1 <1>   0.3430 
 25 C       11.2040     4.6530     0.1920 C.3   1 <1>   0.2370 
 26 C       11.9480     5.9580     0.4980 C.2   1 <1>   0.9060 
 27 O       12.2710     6.6690    -0.4570 O.co2 1 <1>  -0.9000 
 28 O       12.0650     6.2910     1.6800 O.co2 1 <1>  -0.9000 
 29 H        2.1200     1.2520    -2.4890 H     1 <1>   0.1500 
 30 H        2.1200     4.5070     0.2460 H     1 <1>   0.1500 
 31 H        4.4600     4.0470     0.8270 H     1 <1>   0.1500 
 32 H        4.1500    -0.1220    -2.6940 H     1 <1>   0.3700 
 33 H        7.6270     0.6730    -0.6340 H     1 <1>   0.1500 
 34 H        7.3350     4.7400     2.3660 H     1 <1>   0.0800 
 35 H        7.2620     3.9700    -1.7490 H     1 <1>   0.0800 
 36 H        5.9760     5.0440    -1.3050 H     1 <1>   0.0800 
 37 H        7.0390     6.9970     2.3810 H     1 <1>   0.0800 
 38 H        5.9020     6.5160     1.1490 H     1 <1>   0.0800 
 39 H        9.5370     4.6380     2.1500 H     1 <1>   0.0800 
 40 H        9.4590     6.2710     1.5740 H     1 <1>   0.0800 
 41 H        7.8760     6.1030    -2.4470 H     1 <1>   0.0800 
 42 H        9.2500     3.9040    -0.1560 H     1 <1>   0.4500 
 43 H        6.2810     7.3620    -0.9790 H     1 <1>   0.0800 
 44 H        7.8160     8.1190    -1.3140 H     1 <1>   0.0800 
 45 H        9.8260     6.7530    -0.7700 H     1 <1>   0.0800 
 46 H        9.9270     5.4730    -1.9310 H     1 <1>   0.0800 
 47 H       11.4280     3.9670     0.9880 H     1 <1>   0.0800 
 48 H       11.6200     4.2630    -0.7190 H     1 <1>   0.0800 
@<TRIPOS>BOND
  1   1   2  1   
  2   2   3  ar  
  3   2   4  ar  
  4   3   5  ar  
  5   3  29  1   
  6   4   6  ar  
  7   4  30  1   
  8   5   7  1   
  9   5   8  ar  
 10   6   8  ar  
 11   6  31  1   
 12   7   9  am  
 13   7  32  1   
 14   8  10  1   
 15   9  11  2   
 16   9  12  1   
 17  10  12  2   
 18  10  13  1   
 19  12  33  1   
 20  13  14  2   
 21  13  15  am  
 22  15  16  1   
 23  15  17  1   
 24  16  18  1   
 25  16  19  1   
 26  16  34  1   
 27  17  20  1   
 28  17  35  1   
 29  17  36  1   
 30  18  21  1   
 31  18  37  1   
 32  18  38  1   
 33  19  22  1   
 34  19  39  1   
 35  19  40  1   
 36  20  23  1   
 37  20  24  1   
 38  20  41  1   
 39  21  23  1   
 40  22  24  1   
 41  22  25  1   
 42  22  42  1   
 43  23  43  1   
 44  23  44  1   
 45  24  45  1   
 46  24  46  1   
 47  25  26  1   
 48  25  47  1   
 49  25  48  1   
 50  26  27  ar  
 51  26  28  ar  
@<TRIPOS>SUBSTRUCTURE
  1 ****  15 GROUP 4 **** **** 0

# MOE 2024.06 (io_trps.svl 2023.06)
