@<TRIPOS>MOLECULE
NONAME
51 52 1 0 0 
SMALL
USER_CHARGES


@<TRIPOS>ATOM
  1 S       -0.4790    -0.0620     0.4390 S.o2  1 <1>   1.3330 
  2 O       -0.4120    -0.3500     1.8510 O.2   1 <1>  -0.6500 
  3 O        0.0080     1.1790    -0.1080 O.2   1 <1>  -0.6500 
  4 N       -2.0880    -0.1620    -0.0280 N.am  1 <1>  -0.9140 
  5 C        0.3120    -1.3910    -0.4470 C.3   1 <1>  -0.1350 
  6 C       -2.7640    -1.4160     0.2650 C.3   1 <1>   0.1960 
  7 C       -4.2690    -1.2240     0.0900 C.3   1 <1>  -0.0990 
  8 C       -5.0320    -2.5120     0.3500 C.2   1 <1>   0.5690 
  9 O       -4.4360    -3.5560     0.2160 O.2   1 <1>  -0.5700 
 10 N       -6.3570    -2.4900     0.7070 N.am  1 <1>  -0.6600 
 11 C       -7.0230    -3.7630     1.1190 C.3   1 <1>   0.1400 
 12 C       -7.2230    -1.2730     0.6840 C.3   1 <1>   0.1400 
 13 C       -7.5600    -4.5310    -0.0970 C.3   1 <1>   0.1400 
 14 C       -8.5920    -1.5080     0.0290 C.3   1 <1>  -0.1600 
 15 N       -8.7540    -3.8680    -0.7110 N.am  1 <1>  -0.6600 
 16 C       -8.5660    -2.4630    -1.1700 C.3   1 <1>   0.1400 
 17 C      -10.0050    -4.4540    -0.7500 C.2   1 <1>   0.5440 
 18 O      -10.9820    -3.7410    -0.8780 O.2   1 <1>  -0.5700 
 19 C      -10.1910    -5.8880    -0.6390 C.ar  1 <1>   0.0860 
 20 C      -11.0850    -6.4220     0.2900 C.ar  1 <1>  -0.1500 
 21 C       -9.4950    -6.7770    -1.4610 C.ar  1 <1>  -0.1500 
 22 C      -11.2860    -7.7860     0.4270 C.ar  1 <1>   0.0820 
 23 C       -9.6710    -8.1450    -1.3510 C.ar  1 <1>  -0.1500 
 24 O      -12.1880    -8.1510     1.3820 O.3   1 <1>  -0.3620 
 25 C      -10.5570    -8.6370    -0.4120 C.ar  1 <1>   0.1900 
 26 C      -12.6480    -9.4750     1.5370 C.3   1 <1>   0.0400 
 27 F      -10.6730    -9.9380    -0.3480 F     1 <1>  -0.1900 
 28 H       -2.1390     0.0970    -1.0100 H     1 <1>   0.4200 
 29 H        1.3670    -1.3720    -0.2570 H     1 <1>   0.0800 
 30 H        0.1540    -1.2840    -1.5020 H     1 <1>   0.0800 
 31 H       -0.0710    -2.3390    -0.1260 H     1 <1>   0.0800 
 32 H       -2.5650    -1.7100     1.2840 H     1 <1>   0.0800 
 33 H       -2.4090    -2.1920    -0.3930 H     1 <1>   0.0800 
 34 H       -4.4830    -0.9020    -0.9110 H     1 <1>   0.0800 
 35 H       -4.5890    -0.4730     0.7870 H     1 <1>   0.0800 
 36 H       -7.8220    -3.5650     1.8120 H     1 <1>   0.0800 
 37 H       -6.3040    -4.3840     1.6260 H     1 <1>   0.0800 
 38 H       -6.7320    -0.4910     0.1320 H     1 <1>   0.0800 
 39 H       -7.3640    -0.9220     1.6920 H     1 <1>   0.0800 
 40 H       -7.8180    -5.5200     0.2340 H     1 <1>   0.0800 
 41 H       -6.7810    -4.6270    -0.8330 H     1 <1>   0.0800 
 42 H       -8.9580    -0.5550    -0.3060 H     1 <1>   0.0800 
 43 H       -9.2980    -1.8650     0.7580 H     1 <1>   0.0800 
 44 H       -7.6420    -2.3730    -1.7150 H     1 <1>   0.0800 
 45 H       -9.3660    -2.2020    -1.8430 H     1 <1>   0.0800 
 46 H      -11.6410    -5.7490     0.9190 H     1 <1>   0.1500 
 47 H       -8.8130    -6.3830    -2.1960 H     1 <1>   0.1500 
 48 H       -9.1300    -8.8250    -1.9850 H     1 <1>   0.1500 
 49 H      -13.4180    -9.4750     2.2880 H     1 <1>   0.0800 
 50 H      -11.8300   -10.0960     1.8570 H     1 <1>   0.0800 
 51 H      -13.0520    -9.8190     0.6010 H     1 <1>   0.0800 
@<TRIPOS>BOND
  1   1   2  2   
  2   1   3  2   
  3   1   4  am  
  4   1   5  1   
  5   4   6  1   
  6   4  28  1   
  7   5  29  1   
  8   5  30  1   
  9   5  31  1   
 10   6   7  1   
 11   6  32  1   
 12   6  33  1   
 13   7   8  1   
 14   7  34  1   
 15   7  35  1   
 16   8   9  2   
 17   8  10  am  
 18  10  11  1   
 19  10  12  1   
 20  11  13  1   
 21  11  36  1   
 22  11  37  1   
 23  12  14  1   
 24  12  38  1   
 25  12  39  1   
 26  13  15  1   
 27  13  40  1   
 28  13  41  1   
 29  14  16  1   
 30  14  42  1   
 31  14  43  1   
 32  15  16  1   
 33  15  17  am  
 34  16  44  1   
 35  16  45  1   
 36  17  18  2   
 37  17  19  1   
 38  19  20  ar  
 39  19  21  ar  
 40  20  22  ar  
 41  20  46  1   
 42  21  23  ar  
 43  21  47  1   
 44  22  24  1   
 45  22  25  ar  
 46  23  25  ar  
 47  23  48  1   
 48  24  26  1   
 49  25  27  1   
 50  26  49  1   
 51  26  50  1   
 52  26  51  1   
@<TRIPOS>SUBSTRUCTURE
  1 ****  13 GROUP 4 **** **** 0

# MOE 2024.06 (io_trps.svl 2023.06)
