@<TRIPOS>MOLECULE
NONAME
51 53 1 0 0 
SMALL
USER_CHARGES


@<TRIPOS>ATOM
  1 O       -0.3490     0.3070     1.6110 O.2   1 <1>  -0.5700 
  2 C       -1.2810     0.9280     1.1380 C.2   1 <1>   0.5440 
  3 N       -2.2990     0.2330     0.5280 N.am  1 <1>  -0.6600 
  4 C       -1.2960     2.3760     1.2110 C.ar  1 <1>   0.0860 
  5 C       -3.3060     0.8310    -0.3840 C.3   1 <1>   0.1400 
  6 C       -2.2850    -1.2450     0.3950 C.3   1 <1>   0.1400 
  7 C       -0.2330     3.1240     0.7120 C.ar  1 <1>  -0.1500 
  8 C       -2.3670     3.0680     1.7750 C.ar  1 <1>  -0.1500 
  9 C       -3.8380    -0.3420    -1.2070 C.3   1 <1>   0.2000 
 10 C       -3.5650    -1.5890    -0.3690 C.3   1 <1>  -0.0800 
 11 C       -0.2300     4.5100     0.7450 C.ar  1 <1>   0.0730 
 12 C       -2.3820     4.4500     1.8200 C.ar  1 <1>  -0.1500 
 13 O       -5.1980    -0.2200    -1.4490 O.3   1 <1>  -0.6800 
 14 C       -3.4670    -2.8660    -1.2210 C.3   1 <1>  -0.0170 
 15 C        0.8720     5.2530     0.2140 C.1   1 <1>  -0.0730 
 16 C       -1.3170     5.1650     1.3030 C.ar  1 <1>  -0.1500 
 17 C       -3.2430    -4.0980    -0.3610 C.ar  1 <1>   0.1670 
 18 C        1.7810     5.8840    -0.2270 C.1   1 <1>  -0.2000 
 19 N       -1.9910    -4.3550    -0.0160 N.ar  1 <1>  -0.6200 
 20 C       -4.3260    -4.8770     0.0190 C.ar  1 <1>  -0.1500 
 21 C        2.9180     6.6750    -0.7720 C.3   1 <1>   0.4800 
 22 C       -1.8100    -5.4270     0.7390 C.ar  1 <1>   0.1600 
 23 C       -4.1240    -5.9920     0.8050 C.ar  1 <1>  -0.1500 
 24 O        2.4880     7.9660    -0.9290 O.3   1 <1>  -0.6800 
 25 C        4.0860     6.7020     0.2070 C.3   1 <1>  -0.2400 
 26 C        3.3350     6.1660    -2.1460 C.3   1 <1>  -0.2400 
 27 C       -2.8240    -6.2650     1.1700 C.ar  1 <1>  -0.1500 
 28 H       -4.0930     1.2750     0.2000 H     1 <1>   0.0800 
 29 H       -2.8500     1.5690    -1.0210 H     1 <1>   0.0800 
 30 H       -1.4110    -1.5400    -0.1620 H     1 <1>   0.0800 
 31 H       -2.2580    -1.7180     1.3620 H     1 <1>   0.0800 
 32 H        0.6100     2.6050     0.2900 H     1 <1>   0.1500 
 33 H       -3.1900     2.5110     2.1850 H     1 <1>   0.1500 
 34 H       -3.3250    -0.3850    -2.1530 H     1 <1>   0.0800 
 35 H       -4.3450    -1.7090     0.3620 H     1 <1>   0.0800 
 36 H       -3.2170     4.9700     2.2570 H     1 <1>   0.1500 
 37 H       -5.6950    -0.2280    -0.6080 H     1 <1>   0.4000 
 38 H       -2.6580    -2.7790    -1.9250 H     1 <1>   0.0800 
 39 H       -4.3740    -2.9860    -1.7860 H     1 <1>   0.0800 
 40 H       -1.3230     6.2410     1.3340 H     1 <1>   0.1500 
 41 H       -5.3200    -4.6160    -0.2950 H     1 <1>   0.1500 
 42 H       -0.7980    -5.6490     1.0300 H     1 <1>   0.1500 
 43 H       -4.9420    -6.6180     1.1180 H     1 <1>   0.1500 
 44 H        3.2170     8.5010    -1.2830 H     1 <1>   0.4000 
 45 H        4.4390     5.7010     0.3750 H     1 <1>   0.0800 
 46 H        3.7660     7.1070     1.1510 H     1 <1>   0.0800 
 47 H        4.8980     7.2900    -0.1800 H     1 <1>   0.0800 
 48 H        3.6630     5.1450    -2.0690 H     1 <1>   0.0800 
 49 H        4.1400     6.7530    -2.5450 H     1 <1>   0.0800 
 50 H        2.4970     6.1990    -2.8200 H     1 <1>   0.0800 
 51 H       -2.5950    -7.1180     1.7830 H     1 <1>   0.1500 
@<TRIPOS>BOND
  1   1   2  2   
  2   2   3  am  
  3   2   4  1   
  4   3   5  1   
  5   3   6  1   
  6   4   7  ar  
  7   4   8  ar  
  8   5   9  1   
  9   5  28  1   
 10   5  29  1   
 11   6  10  1   
 12   6  30  1   
 13   6  31  1   
 14   7  11  ar  
 15   7  32  1   
 16   8  12  ar  
 17   8  33  1   
 18   9  10  1   
 19   9  13  1   
 20   9  34  1   
 21  10  14  1   
 22  10  35  1   
 23  11  15  1   
 24  11  16  ar  
 25  12  16  ar  
 26  12  36  1   
 27  13  37  1   
 28  14  17  1   
 29  14  38  1   
 30  14  39  1   
 31  15  18  3   
 32  16  40  1   
 33  17  19  ar  
 34  17  20  ar  
 35  18  21  1   
 36  19  22  ar  
 37  20  23  ar  
 38  20  41  1   
 39  21  24  1   
 40  21  25  1   
 41  21  26  1   
 42  22  27  ar  
 43  22  42  1   
 44  23  27  ar  
 45  23  43  1   
 46  24  44  1   
 47  25  45  1   
 48  25  46  1   
 49  25  47  1   
 50  26  48  1   
 51  26  49  1   
 52  26  50  1   
 53  27  51  1   
@<TRIPOS>SUBSTRUCTURE
  1 ****   2 GROUP 4 **** **** 0

# MOE 2024.06 (io_trps.svl 2023.06)
