@<TRIPOS>MOLECULE
NONAME
43 45 1 0 0 
SMALL
USER_CHARGES


@<TRIPOS>ATOM
  1 O       -0.0120     0.8480    -1.2000 O.2   1 <1>  -0.5700 
  2 C       -0.0780     1.8420    -0.4920 C.2   1 <1>   0.5440 
  3 N       -1.3410     2.2960    -0.1320 N.am  1 <1>  -0.6600 
  4 C        1.1730     2.5150    -0.1260 C.ar  1 <1>   0.3960 
  5 C       -1.5530     3.5360     0.6810 C.3   1 <1>   0.1400 
  6 C       -2.5740     1.6290    -0.6540 C.3   1 <1>   0.1400 
  7 N        1.4550     2.8150     1.1550 N.ar  1 <1>  -0.6200 
  8 C        2.0720     2.8200    -1.1510 C.ar  1 <1>  -0.1500 
  9 C       -2.9700     3.5700     1.2550 C.3   1 <1>  -0.1600 
 10 C       -3.6050     2.6890    -1.0470 C.3   1 <1>  -0.1600 
 11 C        2.6090     3.4110     1.3950 C.ar  1 <1>   0.1600 
 12 C        3.2700     3.4470    -0.8890 C.ar  1 <1>  -0.1500 
 13 C       -4.0440     3.5700     0.1510 C.3   1 <1>   0.2800 
 14 C        3.5370     3.7470     0.4270 C.ar  1 <1>  -0.1500 
 15 O       -4.1260     4.9000    -0.2890 O.3   1 <1>  -0.5600 
 16 C       -5.4070     3.1380     0.7590 C.3   1 <1>  -0.1600 
 17 C       -5.0650     5.2200    -1.2850 C.3   1 <1>   0.1200 
 18 C       -6.5660     4.0810     0.4210 C.3   1 <1>   0.2800 
 19 C       -6.4320     4.5670    -1.0200 C.3   1 <1>  -0.1600 
 20 O       -6.4500     5.1790     1.2330 O.3   1 <1>  -0.6800 
 21 C       -7.9300     3.4600     0.7080 C.3   1 <1>  -0.2400 
 22 H       -1.3910     4.4010     0.0600 H     1 <1>   0.0800 
 23 H       -0.8590     3.5670     1.5010 H     1 <1>   0.0800 
 24 H       -2.9730     0.9790     0.1060 H     1 <1>   0.0800 
 25 H       -2.3430     1.0290    -1.5170 H     1 <1>   0.0800 
 26 H        1.8140     2.5520    -2.1600 H     1 <1>   0.1500 
 27 H       -3.0930     4.4380     1.8780 H     1 <1>   0.0800 
 28 H       -3.0800     2.7070     1.8860 H     1 <1>   0.0800 
 29 H       -4.4520     2.2040    -1.4950 H     1 <1>   0.0800 
 30 H       -3.1420     3.2970    -1.8030 H     1 <1>   0.0800 
 31 H        2.8310     3.6470     2.4220 H     1 <1>   0.1500 
 32 H        3.9650     3.6860    -1.6760 H     1 <1>   0.1500 
 33 H        4.4550     4.2340     0.7030 H     1 <1>   0.1500 
 34 H       -5.3440     3.0530     1.8300 H     1 <1>   0.0800 
 35 H       -5.6440     2.1510     0.4080 H     1 <1>   0.0800 
 36 H       -4.6760     4.9230    -2.2430 H     1 <1>   0.0800 
 37 H       -5.1670     6.2910    -1.2810 H     1 <1>   0.0800 
 38 H       -6.5460     3.7300    -1.6830 H     1 <1>   0.0800 
 39 H       -7.2200     5.2610    -1.2550 H     1 <1>   0.0800 
 40 H       -5.5610     5.5570     1.0610 H     1 <1>   0.4000 
 41 H       -8.0850     2.5960     0.0880 H     1 <1>   0.0800 
 42 H       -8.7110     4.1700     0.5070 H     1 <1>   0.0800 
 43 H       -7.9890     3.1560     1.7380 H     1 <1>   0.0800 
@<TRIPOS>BOND
  1   1   2  2   
  2   2   3  am  
  3   2   4  1   
  4   3   5  1   
  5   3   6  1   
  6   4   7  ar  
  7   4   8  ar  
  8   5   9  1   
  9   5  22  1   
 10   5  23  1   
 11   6  10  1   
 12   6  24  1   
 13   6  25  1   
 14   7  11  ar  
 15   8  12  ar  
 16   8  26  1   
 17   9  13  1   
 18   9  27  1   
 19   9  28  1   
 20  10  13  1   
 21  10  29  1   
 22  10  30  1   
 23  11  14  ar  
 24  11  31  1   
 25  12  14  ar  
 26  12  32  1   
 27  13  15  1   
 28  13  16  1   
 29  14  33  1   
 30  15  17  1   
 31  16  18  1   
 32  16  34  1   
 33  16  35  1   
 34  17  19  1   
 35  17  36  1   
 36  17  37  1   
 37  18  19  1   
 38  18  20  1   
 39  18  21  1   
 40  19  38  1   
 41  19  39  1   
 42  20  40  1   
 43  21  41  1   
 44  21  42  1   
 45  21  43  1   
@<TRIPOS>SUBSTRUCTURE
  1 ****   5 GROUP 4 **** **** 0

# MOE 2024.06 (io_trps.svl 2023.06)
