@<TRIPOS>MOLECULE
NONAME
41 41 1 0 0 
SMALL
USER_CHARGES


@<TRIPOS>ATOM
  1 O       -1.1120    -0.9890     0.3750 O.2   1 <1>  -0.5700 
  2 C       -1.6480     0.0770     0.5990 C.2   1 <1>   0.5690 
  3 N       -2.9040     0.0670     1.1730 N.am  1 <1>  -0.6600 
  4 C       -0.8610     1.3760     0.2260 C.3   1 <1>   0.0610 
  5 C       -3.3680    -1.1740     1.8720 C.3   1 <1>   0.3200 
  6 C       -3.9520     1.1330     1.0750 C.3   1 <1>   0.1400 
  7 C       -1.4590     2.0070    -1.0680 C.3   1 <1>  -0.1600 
  8 C       -0.8060     2.3490     1.4280 C.3   1 <1>  -0.2400 
  9 C        0.6220     1.0250    -0.0700 C.3   1 <1>  -0.2400 
 10 C       -4.0390    -2.1330     0.9030 C.2   1 <1>   0.0060 
 11 C       -4.9590     0.8270    -0.0410 C.3   1 <1>   0.1200 
 12 C       -0.9560     3.4030    -1.4960 C.3   1 <1>  -0.1600 
 13 N       -5.2660    -2.5440     0.9830 N.2   1 <1>  -0.5650 
 14 N       -3.3680    -2.6370    -0.1530 N.pl3 1 <1>   0.0330 
 15 O       -5.7850     1.9280    -0.2180 O.3   1 <1>  -0.6800 
 16 C       -1.8070     4.5470    -0.9300 C.3   1 <1>  -0.2400 
 17 C       -5.3990    -3.3610    -0.0800 C.2   1 <1>   0.0770 
 18 C       -4.2490    -3.4300    -0.7870 C.2   1 <1>  -0.3020 
 19 H       -4.0600    -0.9190     2.6550 H     1 <1>   0.0800 
 20 H       -2.5290    -1.6690     2.3290 H     1 <1>   0.0800 
 21 H       -3.5090     2.0840     0.8660 H     1 <1>   0.0800 
 22 H       -4.4690     1.2100     2.0150 H     1 <1>   0.0800 
 23 H       -2.5280     2.0470    -1.0140 H     1 <1>   0.0800 
 24 H       -1.2470     1.3270    -1.8750 H     1 <1>   0.0800 
 25 H       -1.7620     2.7650     1.6690 H     1 <1>   0.0800 
 26 H       -0.1350     3.1650     1.2310 H     1 <1>   0.0800 
 27 H       -0.4440     1.8290     2.2980 H     1 <1>   0.0800 
 28 H        0.6960     0.3720    -0.9220 H     1 <1>   0.0800 
 29 H        1.0580     0.5160     0.7720 H     1 <1>   0.0800 
 30 H        1.2120     1.9000    -0.2670 H     1 <1>   0.0800 
 31 H       -5.5760    -0.0220     0.1980 H     1 <1>   0.0800 
 32 H       -4.4470     0.6500    -0.9710 H     1 <1>   0.0800 
 33 H       -1.0140     3.4610    -2.5700 H     1 <1>   0.0800 
 34 H        0.0750     3.5490    -1.2320 H     1 <1>   0.0800 
 35 H       -2.3890    -2.4080    -0.3820 H     1 <1>   0.2700 
 36 H       -6.5010     1.9310     0.4480 H     1 <1>   0.4000 
 37 H       -2.8370     4.4300    -1.2210 H     1 <1>   0.0800 
 38 H       -1.4540     5.4870    -1.3170 H     1 <1>   0.0800 
 39 H       -1.7540     4.5860     0.1410 H     1 <1>   0.0800 
 40 H       -6.3290    -3.8650    -0.2840 H     1 <1>   0.1500 
 41 H       -4.0160    -3.9810    -1.6790 H     1 <1>   0.1500 
@<TRIPOS>BOND
  1   1   2  2   
  2   2   3  am  
  3   2   4  1   
  4   3   5  1   
  5   3   6  1   
  6   4   7  1   
  7   4   8  1   
  8   4   9  1   
  9   5  10  1   
 10   5  19  1   
 11   5  20  1   
 12   6  11  1   
 13   6  21  1   
 14   6  22  1   
 15   7  12  1   
 16   7  23  1   
 17   7  24  1   
 18   8  25  1   
 19   8  26  1   
 20   8  27  1   
 21   9  28  1   
 22   9  29  1   
 23   9  30  1   
 24  10  13  2   
 25  10  14  1   
 26  11  15  1   
 27  11  31  1   
 28  11  32  1   
 29  12  16  1   
 30  12  33  1   
 31  12  34  1   
 32  13  17  1   
 33  14  18  1   
 34  14  35  1   
 35  15  36  1   
 36  16  37  1   
 37  16  38  1   
 38  16  39  1   
 39  17  18  2   
 40  17  40  1   
 41  18  41  1   
@<TRIPOS>SUBSTRUCTURE
  1 ****   3 GROUP 4 **** **** 0

# MOE 2024.06 (io_trps.svl 2023.06)
