@<TRIPOS>MOLECULE
NONAME
52 55 1 0 0 
SMALL
USER_CHARGES


@<TRIPOS>ATOM
  1 O       -1.0890     0.5460    -3.0350 O.2   1 <1>  -0.5700 
  2 C       -1.8240     1.0390    -2.2000 C.2   1 <1>   0.5440 
  3 N       -3.0160     0.4100    -1.9030 N.am  1 <1>  -0.6600 
  4 C       -1.4440     2.2940    -1.5980 C.ar  1 <1>   0.0860 
  5 C       -4.0200     0.9130    -0.9180 C.3   1 <1>   0.1400 
  6 C       -3.3380    -0.9630    -2.3980 C.3   1 <1>   0.1400 
  7 C       -1.0960     2.3980    -0.2450 C.ar  1 <1>   0.3920 
  8 C       -1.4070     3.4520    -2.3610 C.ar  1 <1>  -0.1500 
  9 C       -4.1800    -0.0910     0.2380 C.3   1 <1>   0.1900 
 10 C       -3.5560    -1.9290    -1.2210 C.3   1 <1>   0.1100 
 11 O       -1.1010     1.2730     0.5010 O.3   1 <1>  -0.3630 
 12 N       -0.7630     3.5350     0.3670 N.ar  1 <1>  -0.6200 
 13 C       -1.0540     4.6290    -1.7410 C.ar  1 <1>  -0.1500 
 14 N       -4.5810    -1.4250    -0.2760 N.3   1 <1>  -0.8100 
 15 C       -5.1970     0.4280     1.2720 C.3   1 <1>   0.1200 
 16 C       -0.6540     1.2660     1.8410 C.3   1 <1>   0.1200 
 17 C       -0.7470     4.6160    -0.3920 C.ar  1 <1>   0.1600 
 18 C       -4.7840    -2.3570     0.8590 C.3   1 <1>   0.3330 
 19 O       -5.3380    -0.4870     2.3220 O.3   1 <1>  -0.5600 
 20 C       -0.7340    -0.1630     2.3720 C.3   1 <1>  -0.2400 
 21 C       -5.3250    -3.7020     0.3770 C.ar  1 <1>  -0.1430 
 22 C       -5.7590    -1.7560     1.8940 C.3   1 <1>   0.1200 
 23 C       -6.3850    -3.7650    -0.5180 C.ar  1 <1>  -0.1500 
 24 C       -4.7630    -4.8840     0.8380 C.ar  1 <1>  -0.1500 
 25 C       -6.8760    -4.9860    -0.9440 C.ar  1 <1>  -0.1500 
 26 C       -5.2530    -6.1070     0.4140 C.ar  1 <1>  -0.1500 
 27 C       -6.3100    -6.1590    -0.4770 C.ar  1 <1>  -0.1500 
 28 H       -3.7290     1.8690    -0.5250 H     1 <1>   0.0800 
 29 H       -4.9670     1.0340    -1.4140 H     1 <1>   0.0800 
 30 H       -4.2320    -0.9230    -2.9940 H     1 <1>   0.0800 
 31 H       -2.5450    -1.3410    -3.0200 H     1 <1>   0.0800 
 32 H       -1.6490     3.4170    -3.4100 H     1 <1>   0.1500 
 33 H       -3.2290    -0.1730     0.7320 H     1 <1>   0.0800 
 34 H       -2.6190    -2.0690    -0.7080 H     1 <1>   0.0800 
 35 H       -3.8630    -2.8810    -1.6170 H     1 <1>   0.0800 
 36 H       -1.0130     5.5500    -2.2950 H     1 <1>   0.1500 
 37 H       -6.1600     0.5800     0.8160 H     1 <1>   0.0800 
 38 H       -4.8590     1.3570     1.6950 H     1 <1>   0.0800 
 39 H        0.3630     1.6220     1.8580 H     1 <1>   0.0800 
 40 H       -1.2800     1.9270     2.4150 H     1 <1>   0.0800 
 41 H       -0.4730     5.5420     0.0850 H     1 <1>   0.1500 
 42 H       -3.8400    -2.5160     1.3510 H     1 <1>   0.0800 
 43 H       -0.1620    -0.8230     1.7450 H     1 <1>   0.0800 
 44 H       -1.7560    -0.4930     2.4100 H     1 <1>   0.0800 
 45 H       -0.3310    -0.1990     3.3680 H     1 <1>   0.0800 
 46 H       -5.8150    -2.3930     2.7570 H     1 <1>   0.0800 
 47 H       -6.7430    -1.6650     1.4690 H     1 <1>   0.0800 
 48 H       -6.8230    -2.8530    -0.8880 H     1 <1>   0.1500 
 49 H       -3.9410    -4.8600     1.5320 H     1 <1>   0.1500 
 50 H       -7.6970    -5.0230    -1.6380 H     1 <1>   0.1500 
 51 H       -4.8120    -7.0190     0.7770 H     1 <1>   0.1500 
 52 H       -6.6910    -7.1100    -0.8070 H     1 <1>   0.1500 
@<TRIPOS>BOND
  1   1   2  2   
  2   2   3  am  
  3   2   4  1   
  4   3   5  1   
  5   3   6  1   
  6   4   7  ar  
  7   4   8  ar  
  8   5   9  1   
  9   5  28  1   
 10   5  29  1   
 11   6  10  1   
 12   6  30  1   
 13   6  31  1   
 14   7  11  1   
 15   7  12  ar  
 16   8  13  ar  
 17   8  32  1   
 18   9  14  1   
 19   9  15  1   
 20   9  33  1   
 21  10  14  1   
 22  10  34  1   
 23  10  35  1   
 24  11  16  1   
 25  12  17  ar  
 26  13  17  ar  
 27  13  36  1   
 28  14  18  1   
 29  15  19  1   
 30  15  37  1   
 31  15  38  1   
 32  16  20  1   
 33  16  39  1   
 34  16  40  1   
 35  17  41  1   
 36  18  21  1   
 37  18  22  1   
 38  18  42  1   
 39  19  22  1   
 40  20  43  1   
 41  20  44  1   
 42  20  45  1   
 43  21  23  ar  
 44  21  24  ar  
 45  22  46  1   
 46  22  47  1   
 47  23  25  ar  
 48  23  48  1   
 49  24  26  ar  
 50  24  49  1   
 51  25  27  ar  
 52  25  50  1   
 53  26  27  ar  
 54  26  51  1   
 55  27  52  1   
@<TRIPOS>SUBSTRUCTURE
  1 ****   9 GROUP 4 **** **** 0

# MOE 2024.06 (io_trps.svl 2023.06)
