@<TRIPOS>MOLECULE
NONAME
59 61 1 0 0 
SMALL
USER_CHARGES


@<TRIPOS>ATOM
  1 O       -3.1920     1.3890    -2.0870 O.2   1 <1>  -0.5700 
  2 C       -2.0020     1.4070    -1.8840 C.2   1 <1>   0.5690 
  3 N       -1.2980     0.2870    -1.5830 N.am  1 <1>  -0.7300 
  4 C       -1.2410     2.7370    -1.9550 C.3   1 <1>   0.1710 
  5 C       -1.8440    -1.0800    -1.4440 C.3   1 <1>   0.1400 
  6 N        0.0210     2.7740    -1.1500 N.3   1 <1>  -0.8100 
  7 C       -2.0160    -1.4190     0.0360 C.3   1 <1>  -0.0170 
  8 C        0.8670     3.9050    -1.5910 C.3   1 <1>   0.1100 
  9 C       -0.2860     2.8240     0.2900 C.3   1 <1>   0.1100 
 10 C       -2.4890    -2.8540     0.1980 C.ar  1 <1>  -0.1430 
 11 C        2.2530     3.9610    -0.9250 C.3   1 <1>   0.2090 
 12 C        0.9140     2.3370     1.1060 C.3   1 <1>  -0.1600 
 13 C       -3.8360    -3.1600     0.0860 C.ar  1 <1>  -0.1500 
 14 C       -1.5800    -3.8700     0.4550 C.ar  1 <1>  -0.1500 
 15 N        2.1720     4.4560     0.4860 N.pl3 1 <1>  -0.8380 
 16 C        1.8900     3.4370     1.5380 C.3   1 <1>   0.2090 
 17 C       -4.2690    -4.4660     0.2290 C.ar  1 <1>  -0.1500 
 18 C       -2.0100    -5.1780     0.5990 C.ar  1 <1>  -0.1500 
 19 C        2.6530     5.6760     0.8300 C.ar  1 <1>   0.1000 
 20 C       -3.3640    -5.4830     0.4870 C.ar  1 <1>   0.0830 
 21 C        1.8380     6.7110     1.3260 C.ar  1 <1>  -0.1430 
 22 C        4.0220     5.9380     0.7010 C.ar  1 <1>  -0.1500 
 23 O       -3.8700    -6.7350     0.6140 O.3   1 <1>  -0.3630 
 24 C        2.4020     7.9140     1.6730 C.ar  1 <1>   0.2110 
 25 C        0.3320     6.5070     1.4630 C.3   1 <1>  -0.0970 
 26 C        4.5450     7.1520     1.0560 C.ar  1 <1>   0.2110 
 27 C       -3.0350    -7.8380     0.8860 C.3   1 <1>   0.0400 
 28 N        3.7360     8.1260     1.5390 N.ar  1 <1>  -0.1790 
 29 H       -0.3070     0.4340    -1.3620 H     1 <1>   0.3700 
 30 H       -1.8990     3.5270    -1.6390 H     1 <1>   0.0800 
 31 H       -1.0080     2.9000    -2.9910 H     1 <1>   0.0800 
 32 H       -1.1730    -1.7820    -1.9100 H     1 <1>   0.0800 
 33 H       -2.7980    -1.1430    -1.9430 H     1 <1>   0.0800 
 34 H       -2.7380    -0.7510     0.4710 H     1 <1>   0.0800 
 35 H       -1.0800    -1.2860     0.5480 H     1 <1>   0.0800 
 36 H        0.3580     4.8380    -1.4250 H     1 <1>   0.0800 
 37 H        1.0290     3.8070    -2.6510 H     1 <1>   0.0800 
 38 H       -1.1100     2.1620     0.5000 H     1 <1>   0.0800 
 39 H       -0.5800     3.8160     0.5860 H     1 <1>   0.0800 
 40 H        2.8660     4.6360    -1.4940 H     1 <1>   0.0800 
 41 H        2.7160     2.9900    -0.9610 H     1 <1>   0.0800 
 42 H        1.4370     1.5720     0.5610 H     1 <1>   0.0800 
 43 H        0.5440     1.8750     2.0030 H     1 <1>   0.0800 
 44 H       -4.5540    -2.3830    -0.1150 H     1 <1>   0.1500 
 45 H       -0.5310    -3.6470     0.5440 H     1 <1>   0.1500 
 46 H        2.8180     2.9800     1.8360 H     1 <1>   0.0800 
 47 H        1.4890     3.9380     2.4010 H     1 <1>   0.0800 
 48 H       -5.3130    -4.7060     0.1430 H     1 <1>   0.1500 
 49 H       -1.2820    -5.9400     0.7980 H     1 <1>   0.1500 
 50 H        4.6550     5.1550     0.3220 H     1 <1>   0.1500 
 51 H        1.7950     8.7180     2.0560 H     1 <1>   0.1500 
 52 H       -0.0770     6.1680     0.5270 H     1 <1>   0.0800 
 53 H       -0.1690     7.4190     1.7360 H     1 <1>   0.0800 
 54 H        0.1220     5.7680     2.2140 H     1 <1>   0.0800 
 55 H        5.6010     7.3500     0.9590 H     1 <1>   0.1500 
 56 H       -3.6520    -8.7170     0.9470 H     1 <1>   0.0800 
 57 H       -2.5360    -7.6740     1.8250 H     1 <1>   0.0800 
 58 H       -2.3260    -7.9440     0.0840 H     1 <1>   0.0800 
 59 H        4.1340     9.0330     1.8050 H     1 <1>   0.4570 
@<TRIPOS>BOND
  1   1   2  2   
  2   2   3  am  
  3   2   4  1   
  4   3   5  1   
  5   3  29  1   
  6   4   6  1   
  7   4  30  1   
  8   4  31  1   
  9   5   7  1   
 10   5  32  1   
 11   5  33  1   
 12   6   8  1   
 13   6   9  1   
 14   7  10  1   
 15   7  34  1   
 16   7  35  1   
 17   8  11  1   
 18   8  36  1   
 19   8  37  1   
 20   9  12  1   
 21   9  38  1   
 22   9  39  1   
 23  10  13  ar  
 24  10  14  ar  
 25  11  15  1   
 26  11  40  1   
 27  11  41  1   
 28  12  16  1   
 29  12  42  1   
 30  12  43  1   
 31  13  17  ar  
 32  13  44  1   
 33  14  18  ar  
 34  14  45  1   
 35  15  16  1   
 36  15  19  1   
 37  16  46  1   
 38  16  47  1   
 39  17  20  ar  
 40  17  48  1   
 41  18  20  ar  
 42  18  49  1   
 43  19  21  ar  
 44  19  22  ar  
 45  20  23  1   
 46  21  24  ar  
 47  21  25  1   
 48  22  26  ar  
 49  22  50  1   
 50  23  27  1   
 51  24  28  ar  
 52  24  51  1   
 53  25  52  1   
 54  25  53  1   
 55  25  54  1   
 56  26  28  ar  
 57  26  55  1   
 58  27  56  1   
 59  27  57  1   
 60  27  58  1   
 61  28  59  1   
@<TRIPOS>SUBSTRUCTURE
  1 ****   9 GROUP 4 **** **** 0

# MOE 2024.06 (io_trps.svl 2023.06)
