@<TRIPOS>MOLECULE
NONAME
49 51 1 0 0 
SMALL
USER_CHARGES


@<TRIPOS>ATOM
  1 O       -0.4820    -0.5590     2.2400 O.2   1 <1>  -0.5700 
  2 C       -1.0310     0.3380     1.6460 C.2   1 <1>   0.5690 
  3 N       -2.1340     0.0780     0.8580 N.am  1 <1>  -0.6600 
  4 C       -0.4490     1.7330     1.8260 C.3   1 <1>   0.1570 
  5 C       -2.4880    -1.3340     0.5080 C.3   1 <1>   0.1400 
  6 C       -2.9690     1.1240     0.1930 C.3   1 <1>   0.1400 
  7 N       -0.1270     2.3610     0.5260 N.pl3 1 <1>   0.0480 
  8 C       -3.9830    -1.5950     0.7710 C.3   1 <1>   0.4230 
  9 C       -4.4640     0.8200     0.3860 C.3   1 <1>  -0.1600 
 10 C       -0.4360     3.6080     0.0880 C.2   1 <1>   0.0060 
 11 C        0.4890     1.7770    -0.5200 C.2   1 <1>  -0.3020 
 12 N       -4.3820    -3.0630     0.7300 N.4   1 <1>  -0.9590 
 13 C       -4.8850    -0.6120    -0.0380 C.3   1 <1>   0.0000 
 14 N       -0.0860     3.8290    -1.1350 N.2   1 <1>  -0.5650 
 15 C       -1.1230     4.6630     0.9340 C.3   1 <1>  -0.0600 
 16 C        0.5040     2.6840    -1.5190 C.2   1 <1>   0.0770 
 17 C       -5.8470    -3.2750     0.5040 C.3   1 <1>   0.3430 
 18 C       -3.6140    -3.8960    -0.2510 C.3   1 <1>   0.2630 
 19 C       -6.3830    -0.8060     0.3480 C.3   1 <1>  -0.1600 
 20 C       -4.7060    -0.6940    -1.5830 C.3   1 <1>   0.1200 
 21 C       -6.6650    -2.1250     1.0890 C.3   1 <1>  -0.1600 
 22 O       -5.1040    -1.9180    -2.0980 O.3   1 <1>  -0.6800 
 23 H        0.4560     1.6660     2.4010 H     1 <1>   0.0800 
 24 H       -1.1500     2.3410     2.3630 H     1 <1>   0.0800 
 25 H       -2.2480    -1.5020    -0.5270 H     1 <1>   0.0800 
 26 H       -1.9090    -2.0190     1.1020 H     1 <1>   0.0800 
 27 H       -2.7680     2.0930     0.6110 H     1 <1>   0.0800 
 28 H       -2.7150     1.1680    -0.8540 H     1 <1>   0.0800 
 29 H       -4.1260    -1.2990     1.7970 H     1 <1>   0.0800 
 30 H       -4.6900     0.9730     1.4280 H     1 <1>   0.0800 
 31 H       -5.0350     1.5490    -0.1650 H     1 <1>   0.0800 
 32 H        0.8760     0.7740    -0.5010 H     1 <1>   0.1500 
 33 H       -4.1750    -3.4290     1.6680 H     1 <1>   0.4500 
 34 H       -1.1930     5.5810     0.3780 H     1 <1>   0.0800 
 35 H       -0.5540     4.8500     1.8260 H     1 <1>   0.0800 
 36 H       -2.1150     4.3500     1.1990 H     1 <1>   0.0800 
 37 H        0.9160     2.5730    -2.5090 H     1 <1>   0.1500 
 38 H       -6.0500    -3.3330    -0.5530 H     1 <1>   0.0800 
 39 H       -6.1550    -4.2070     0.9500 H     1 <1>   0.0800 
 40 H       -3.7520    -3.5260    -1.2520 H     1 <1>   0.0800 
 41 H       -3.9530    -4.9190    -0.2170 H     1 <1>   0.0800 
 42 H       -2.5620    -3.8810    -0.0200 H     1 <1>   0.0800 
 43 H       -6.7350     0.0000     0.9700 H     1 <1>   0.0800 
 44 H       -6.9900    -0.7790    -0.5420 H     1 <1>   0.0800 
 45 H       -3.6840    -0.5350    -1.8810 H     1 <1>   0.0800 
 46 H       -5.3110     0.0620    -2.0570 H     1 <1>   0.0800 
 47 H       -7.7120    -2.3580     1.0010 H     1 <1>   0.0800 
 48 H       -6.4480    -2.0260     2.1390 H     1 <1>   0.0800 
 49 H       -5.1860    -1.8650    -3.0750 H     1 <1>   0.4000 
@<TRIPOS>BOND
  1   1   2  2   
  2   2   3  am  
  3   2   4  1   
  4   3   5  1   
  5   3   6  1   
  6   4   7  1   
  7   4  23  1   
  8   4  24  1   
  9   5   8  1   
 10   5  25  1   
 11   5  26  1   
 12   6   9  1   
 13   6  27  1   
 14   6  28  1   
 15   7  10  1   
 16   7  11  1   
 17   8  12  1   
 18   8  13  1   
 19   8  29  1   
 20   9  13  1   
 21   9  30  1   
 22   9  31  1   
 23  10  14  2   
 24  10  15  1   
 25  11  16  2   
 26  11  32  1   
 27  12  17  1   
 28  12  18  1   
 29  12  33  1   
 30  13  19  1   
 31  13  20  1   
 32  14  16  1   
 33  15  34  1   
 34  15  35  1   
 35  15  36  1   
 36  16  37  1   
 37  17  21  1   
 38  17  38  1   
 39  17  39  1   
 40  18  40  1   
 41  18  41  1   
 42  18  42  1   
 43  19  21  1   
 44  19  43  1   
 45  19  44  1   
 46  20  22  1   
 47  20  45  1   
 48  20  46  1   
 49  21  47  1   
 50  21  48  1   
 51  22  49  1   
@<TRIPOS>SUBSTRUCTURE
  1 ****   3 GROUP 4 **** **** 0

# MOE 2024.06 (io_trps.svl 2023.06)
