@<TRIPOS>MOLECULE
NONAME
45 47 1 0 0 
SMALL
USER_CHARGES


@<TRIPOS>ATOM
  1 CL      -0.0990     1.2830    -1.5470 Cl    1 <1>  -0.1770 
  2 C       -1.7210     1.3670    -0.9130 C.ar  1 <1>   0.1770 
  3 C       -2.4070     0.2000    -0.6400 C.ar  1 <1>  -0.1500 
  4 C       -2.3010     2.6000    -0.6880 C.ar  1 <1>  -0.1500 
  5 C       -3.6930     0.2730    -0.1340 C.ar  1 <1>  -0.1500 
  6 C       -3.5880     2.6600    -0.1840 C.ar  1 <1>  -0.1500 
  7 C       -4.3150     1.5010     0.1010 C.ar  1 <1>   0.0530 
  8 C       -5.6510     1.5930     0.6370 C.2   1 <1>   0.0870 
  9 O       -5.9270     2.5350     1.5060 O.3   1 <1>  -0.0190 
 10 C       -6.7930     0.8720     0.4600 C.2   1 <1>  -0.0860 
 11 N       -7.1620     2.4990     1.9270 N.2   1 <1>  -0.4100 
 12 C       -7.7030     1.5180     1.3050 C.2   1 <1>   0.3720 
 13 C       -7.0730    -0.2680    -0.3590 C.2   1 <1>   0.7160 
 14 N       -9.0420     1.2140     1.4960 N.pl3 1 <1>  -0.8520 
 15 O       -6.3810    -0.5490    -1.3170 O.2   1 <1>  -0.5700 
 16 N       -8.1230    -1.0810    -0.0690 N.am  1 <1>  -0.7300 
 17 C       -9.9320     1.7740     0.4410 C.3   1 <1>   0.2090 
 18 C       -8.5930    -2.2120    -0.9180 C.3   1 <1>   0.2810 
 19 C      -11.2950     1.0870     0.4720 C.3   1 <1>   0.1200 
 20 C       -9.9680    -2.7310    -0.5040 C.2   1 <1>   0.5690 
 21 C       -7.6990    -3.4440    -0.6800 C.3   1 <1>  -0.1600 
 22 O      -12.0800     1.6170    -0.5490 O.3   1 <1>  -0.5600 
 23 O      -11.0170    -2.1720    -0.7100 O.2   1 <1>  -0.5700 
 24 N       -9.8560    -3.9030     0.1430 N.am  1 <1>  -0.7300 
 25 C       -8.4710    -4.3700     0.2730 C.3   1 <1>   0.1400 
 26 C      -13.2120     0.8570    -0.8290 C.3   1 <1>   0.0400 
 27 H       -1.9390    -0.7500    -0.8220 H     1 <1>   0.1500 
 28 H       -1.7490     3.4970    -0.9070 H     1 <1>   0.1500 
 29 H       -4.2230    -0.6380     0.0800 H     1 <1>   0.1500 
 30 H       -4.0410     3.6210    -0.0100 H     1 <1>   0.1500 
 31 H       -9.3160     1.6380     2.3900 H     1 <1>   0.4000 
 32 H       -8.7940    -0.7220     0.6230 H     1 <1>   0.3700 
 33 H       -9.4890     1.6230    -0.5290 H     1 <1>   0.0800 
 34 H      -10.0590     2.8310     0.6030 H     1 <1>   0.0800 
 35 H       -8.5950    -1.9220    -1.9550 H     1 <1>   0.0800 
 36 H      -11.7940     1.2640     1.4090 H     1 <1>   0.0800 
 37 H      -11.1730     0.0330     0.3090 H     1 <1>   0.0800 
 38 H       -6.7260    -3.1890    -0.2980 H     1 <1>   0.0800 
 39 H       -7.5670    -3.9570    -1.6160 H     1 <1>   0.0800 
 40 H      -10.6600    -4.4010     0.5330 H     1 <1>   0.3700 
 41 H       -8.1400    -4.2380     1.2900 H     1 <1>   0.0800 
 42 H       -8.3800    -5.4030    -0.0170 H     1 <1>   0.0800 
 43 H      -13.7600     1.3460    -1.6140 H     1 <1>   0.0800 
 44 H      -13.8220     0.7870     0.0540 H     1 <1>   0.0800 
 45 H      -12.9080    -0.1240    -1.1570 H     1 <1>   0.0800 
@<TRIPOS>BOND
  1   1   2  1   
  2   2   3  ar  
  3   2   4  ar  
  4   3   5  ar  
  5   3  27  1   
  6   4   6  ar  
  7   4  28  1   
  8   5   7  ar  
  9   5  29  1   
 10   6   7  ar  
 11   6  30  1   
 12   7   8  1   
 13   8   9  1   
 14   8  10  2   
 15   9  11  1   
 16  10  12  1   
 17  10  13  1   
 18  11  12  2   
 19  12  14  1   
 20  13  15  2   
 21  13  16  am  
 22  14  17  1   
 23  14  31  1   
 24  16  18  1   
 25  16  32  1   
 26  17  19  1   
 27  17  33  1   
 28  17  34  1   
 29  18  20  1   
 30  18  21  1   
 31  18  35  1   
 32  19  22  1   
 33  19  36  1   
 34  19  37  1   
 35  20  23  2   
 36  20  24  am  
 37  21  25  1   
 38  21  38  1   
 39  21  39  1   
 40  22  26  1   
 41  24  25  1   
 42  24  40  1   
 43  25  41  1   
 44  25  42  1   
 45  26  43  1   
 46  26  44  1   
 47  26  45  1   
@<TRIPOS>SUBSTRUCTURE
  1 ****  13 GROUP 4 **** **** 0

# MOE 2024.06 (io_trps.svl 2023.06)
