@<TRIPOS>MOLECULE
NONAME
37 38 1 0 0 
SMALL
USER_CHARGES


@<TRIPOS>ATOM
  1 CL      -1.0720    -0.0790     0.9370 Cl    1 <1>  -0.1230 
  2 C       -1.6430    -1.5900     0.2490 C.2   1 <1>   0.1230 
  3 C       -2.6680    -1.7260    -0.6730 C.2   1 <1>   0.1390 
  4 C       -1.1890    -2.8300     0.5010 C.2   1 <1>  -0.3020 
  5 N       -2.8540    -2.9760    -0.9870 N.2   1 <1>  -0.7070 
  6 N       -1.9360    -3.6570    -0.2610 N.pl3 1 <1>   0.3140 
  7 C       -1.8280    -5.1260    -0.3310 C.3   1 <1>   0.0960 
  8 C       -3.0120    -5.7850     0.3820 C.3   1 <1>  -0.0990 
  9 C       -2.8810    -7.2860     0.3110 C.2   1 <1>   0.5690 
 10 O       -1.9170    -7.7940     0.8250 O.2   1 <1>  -0.5700 
 11 N       -3.8490    -7.9880    -0.3290 N.am  1 <1>  -0.7300 
 12 C       -4.0080    -9.4570    -0.5540 C.3   1 <1>   0.2200 
 13 C       -5.3950    -9.8920    -0.0550 C.3   1 <1>   0.2000 
 14 C       -2.9380   -10.3520     0.0950 C.3   1 <1>   0.1200 
 15 O       -6.3730    -9.1620    -0.7460 O.3   1 <1>  -0.5600 
 16 C       -5.5950   -11.3950    -0.2730 C.3   1 <1>  -0.1600 
 17 O       -3.2220   -11.7000    -0.1730 O.3   1 <1>  -0.5600 
 18 C       -7.6130    -9.0740    -0.1160 C.3   1 <1>   0.0400 
 19 C       -4.4270   -12.1710     0.3470 C.3   1 <1>   0.1200 
 20 H       -3.2380    -0.9080    -1.0790 H     1 <1>   0.1500 
 21 H       -0.4050    -3.1570     1.1570 H     1 <1>   0.1500 
 22 H       -1.8140    -5.4130    -1.3670 H     1 <1>   0.0800 
 23 H       -0.9030    -5.4290     0.1230 H     1 <1>   0.0800 
 24 H       -3.9330    -5.4740    -0.0780 H     1 <1>   0.0800 
 25 H       -3.0230    -5.4940     1.4160 H     1 <1>   0.0800 
 26 H       -4.6620    -7.4850    -0.7000 H     1 <1>   0.3700 
 27 H       -3.9620    -9.6330    -1.6150 H     1 <1>   0.0800 
 28 H       -5.4650    -9.6620     0.9950 H     1 <1>   0.0800 
 29 H       -2.9050   -10.2130     1.1620 H     1 <1>   0.0800 
 30 H       -1.9700   -10.1370    -0.3220 H     1 <1>   0.0800 
 31 H       -6.5090   -11.7240     0.1840 H     1 <1>   0.0800 
 32 H       -5.6370   -11.6120    -1.3260 H     1 <1>   0.0800 
 33 H       -8.2500    -8.4530    -0.7200 H     1 <1>   0.0800 
 34 H       -7.4900    -8.6270     0.8560 H     1 <1>   0.0800 
 35 H       -8.0460   -10.0550    -0.0310 H     1 <1>   0.0800 
 36 H       -4.5000   -13.2180     0.1070 H     1 <1>   0.0800 
 37 H       -4.4040   -12.0600     1.4180 H     1 <1>   0.0800 
@<TRIPOS>BOND
  1   1   2  1   
  2   2   3  1   
  3   2   4  2   
  4   3   5  2   
  5   3  20  1   
  6   4   6  1   
  7   4  21  1   
  8   5   6  1   
  9   6   7  1   
 10   7   8  1   
 11   7  22  1   
 12   7  23  1   
 13   8   9  1   
 14   8  24  1   
 15   8  25  1   
 16   9  10  2   
 17   9  11  am  
 18  11  12  1   
 19  11  26  1   
 20  12  13  1   
 21  12  14  1   
 22  12  27  1   
 23  13  15  1   
 24  13  16  1   
 25  13  28  1   
 26  14  17  1   
 27  14  29  1   
 28  14  30  1   
 29  15  18  1   
 30  16  19  1   
 31  16  31  1   
 32  16  32  1   
 33  17  19  1   
 34  18  33  1   
 35  18  34  1   
 36  18  35  1   
 37  19  36  1   
 38  19  37  1   
@<TRIPOS>SUBSTRUCTURE
  1 ****   9 GROUP 4 **** **** 0

# MOE 2024.06 (io_trps.svl 2023.06)
