@<TRIPOS>MOLECULE
NONAME
43 45 1 0 0 
SMALL
USER_CHARGES


@<TRIPOS>ATOM
  1 S       -1.8610    -1.1650     2.1190 S.3   1 <1>  -0.2820 
  2 C       -1.7730     0.4670     1.4790 C.2   1 <1>   0.7320 
  3 C       -2.3030    -1.7220     0.5270 C.2   1 <1>   0.6510 
  4 S       -1.3210     1.7360     2.6510 S.3   1 <1>  -0.3710 
  5 N       -2.0400     0.6000     0.2480 N.2   1 <1>  -0.5120 
  6 N       -2.5480    -2.9670     0.2600 N.2   1 <1>  -0.6210 
  7 N       -2.3490    -0.6470    -0.3250 N.am  1 <1>  -0.0580 
  8 C       -1.3270     3.2860     1.6440 C.3   1 <1>  -0.0100 
  9 C       -2.8820    -3.2390    -1.0410 C.2   1 <1>   0.0330 
 10 C       -2.7050    -0.9020    -1.6400 C.2   1 <1>   0.6160 
 11 C       -2.9680    -2.2550    -1.9760 C.2   1 <1>  -0.1360 
 12 C       -3.1510    -4.7090    -1.3690 C.3   1 <1>   0.4810 
 13 O       -2.7980    -0.0170    -2.4750 O.2   1 <1>  -0.5700 
 14 N       -3.9110    -5.3140    -0.2420 N.4   1 <1>  -0.9590 
 15 C       -3.6860    -6.8030    -0.2030 C.3   1 <1>   0.3430 
 16 C       -5.3420    -4.8750    -0.2600 C.3   1 <1>   0.3430 
 17 C       -4.4500    -7.5300     0.9170 C.3   1 <1>   0.1400 
 18 C       -5.9730    -5.0000     1.1320 C.3   1 <1>  -0.1600 
 19 N       -5.9190    -7.4440     0.6810 N.am  1 <1>  -0.6600 
 20 C       -6.6330    -6.3610     1.4020 C.3   1 <1>   0.1400 
 21 C       -6.4820    -8.2420    -0.2800 C.2   1 <1>   0.5690 
 22 O       -5.7890    -8.8000    -1.0960 O.2   1 <1>  -0.5700 
 23 C       -7.9790    -8.4190    -0.3770 C.3   1 <1>  -0.1790 
 24 H       -1.0630     4.1020     2.2930 H     1 <1>   0.0800 
 25 H       -2.3160     3.4200     1.2430 H     1 <1>   0.0800 
 26 H       -0.6060     3.1740     0.8540 H     1 <1>   0.0800 
 27 H       -3.2290    -2.4360    -3.0040 H     1 <1>   0.1500 
 28 H       -2.2020    -5.2090    -1.4730 H     1 <1>   0.0800 
 29 H       -3.6940    -4.8060    -2.2950 H     1 <1>   0.0800 
 30 H       -3.4760    -4.8790     0.5890 H     1 <1>   0.4500 
 31 H       -2.6340    -6.9990    -0.0740 H     1 <1>   0.0800 
 32 H       -3.9830    -7.2420    -1.1420 H     1 <1>   0.0800 
 33 H       -5.9040    -5.4510    -0.9790 H     1 <1>   0.0800 
 34 H       -5.3860    -3.8390    -0.5530 H     1 <1>   0.0800 
 35 H       -4.1920    -7.1280     1.8800 H     1 <1>   0.0800 
 36 H       -4.1620    -8.5690     0.9100 H     1 <1>   0.0800 
 37 H       -6.7410    -4.2530     1.2230 H     1 <1>   0.0800 
 38 H       -5.2460    -4.7820     1.8940 H     1 <1>   0.0800 
 39 H       -7.6590    -6.3190     1.0780 H     1 <1>   0.0800 
 40 H       -6.6360    -6.5710     2.4590 H     1 <1>   0.0800 
 41 H       -8.3970    -8.5740     0.5990 H     1 <1>   0.0800 
 42 H       -8.1990    -9.2790    -0.9830 H     1 <1>   0.0800 
 43 H       -8.4230    -7.5550    -0.8330 H     1 <1>   0.0800 
@<TRIPOS>BOND
  1   1   2  1   
  2   1   3  1   
  3   2   4  1   
  4   2   5  2   
  5   3   6  2   
  6   3   7  1   
  7   4   8  1   
  8   5   7  1   
  9   6   9  1   
 10   7  10  am  
 11   8  24  1   
 12   8  25  1   
 13   8  26  1   
 14   9  11  2   
 15   9  12  1   
 16  10  11  1   
 17  10  13  2   
 18  11  27  1   
 19  12  14  1   
 20  12  28  1   
 21  12  29  1   
 22  14  15  1   
 23  14  16  1   
 24  14  30  1   
 25  15  17  1   
 26  15  31  1   
 27  15  32  1   
 28  16  18  1   
 29  16  33  1   
 30  16  34  1   
 31  17  19  1   
 32  17  35  1   
 33  17  36  1   
 34  18  20  1   
 35  18  37  1   
 36  18  38  1   
 37  19  20  1   
 38  19  21  am  
 39  20  39  1   
 40  20  40  1   
 41  21  22  2   
 42  21  23  1   
 43  23  41  1   
 44  23  42  1   
 45  23  43  1   
@<TRIPOS>SUBSTRUCTURE
  1 ****   6 GROUP 4 **** **** 0

# MOE 2024.06 (io_trps.svl 2023.06)
