@<TRIPOS>MOLECULE
NONAME
56 57 1 0 0 
SMALL
USER_CHARGES


@<TRIPOS>ATOM
  1 O       -0.4010    -0.8650    -0.7590 O.2   1 <1>  -0.5700 
  2 C       -1.0190     0.1430    -0.5210 C.2   1 <1>   0.5690 
  3 N       -2.3200     0.2960    -0.9360 N.am  1 <1>  -0.6600 
  4 C       -0.3060     1.2160     0.2900 C.3   1 <1>  -0.0990 
  5 C       -2.9530    -0.7540    -1.8010 C.3   1 <1>   0.3210 
  6 C       -3.2270     1.4230    -0.5780 C.3   1 <1>   0.1400 
  7 C        0.6840     2.1040    -0.5010 C.3   1 <1>   0.1440 
  8 C       -4.0540    -1.5100    -1.0570 C.2   1 <1>   0.0460 
  9 C       -3.8540     1.1820     0.8090 C.3   1 <1>   0.3430 
 10 C        1.0680     3.2900     0.4130 C.ar  1 <1>  -0.1440 
 11 C        1.9550     1.3150    -0.8630 C.3   1 <1>  -0.2400 
 12 C        0.0590     2.5710    -1.8320 C.3   1 <1>  -0.2400 
 13 N       -5.3050    -1.0050    -0.9220 N.2   1 <1>  -0.5650 
 14 C       -3.9660    -2.7310    -0.4800 C.2   1 <1>  -0.3320 
 15 N       -4.9920     2.1160     1.1050 N.4   1 <1>  -0.9590 
 16 C        1.7020     3.0360     1.6270 C.ar  1 <1>  -0.1500 
 17 C        0.8000     4.6200     0.0930 C.ar  1 <1>  -0.1500 
 18 C       -5.9480    -1.9430    -0.3020 C.2   1 <1>   0.0360 
 19 N       -5.1890    -3.0160    -0.0010 N.pl3 1 <1>   0.0330 
 20 C       -2.7890    -3.6860    -0.3510 C.3   1 <1>  -0.0600 
 21 C       -5.3400     2.0550     2.5560 C.3   1 <1>   0.2630 
 22 C       -6.1910     1.7580     0.2780 C.3   1 <1>   0.2630 
 23 C        2.0460     4.0610     2.4910 C.ar  1 <1>  -0.1500 
 24 C        1.1440     5.6480     0.9540 C.ar  1 <1>  -0.1500 
 25 C        1.7660     5.3710     2.1560 C.ar  1 <1>  -0.1500 
 26 H        0.2280     0.7090     1.0720 H     1 <1>   0.0800 
 27 H       -1.0170     1.8480     0.7800 H     1 <1>   0.0800 
 28 H       -2.2160    -1.4580    -2.1440 H     1 <1>   0.0800 
 29 H       -3.3740    -0.2930    -2.6760 H     1 <1>   0.0800 
 30 H       -3.9970     1.4900    -1.3250 H     1 <1>   0.0800 
 31 H       -2.6830     2.3490    -0.5790 H     1 <1>   0.0800 
 32 H       -3.0850     1.3030     1.5530 H     1 <1>   0.0800 
 33 H       -4.2070     0.1660     0.8610 H     1 <1>   0.0800 
 34 H        2.4040     0.8710     0.0060 H     1 <1>   0.0800 
 35 H        2.6790     1.9690    -1.3160 H     1 <1>   0.0800 
 36 H        1.7330     0.5240    -1.5570 H     1 <1>   0.0800 
 37 H       -0.8500     3.1170    -1.6640 H     1 <1>   0.0800 
 38 H       -0.1600     1.7350    -2.4730 H     1 <1>   0.0800 
 39 H        0.7480     3.2060    -2.3620 H     1 <1>   0.0800 
 40 H       -4.7030     3.0800     0.8770 H     1 <1>   0.4500 
 41 H        1.9400     2.0290     1.9200 H     1 <1>   0.1500 
 42 H        0.3230     4.8950    -0.8280 H     1 <1>   0.1500 
 43 H       -6.9920    -1.9020    -0.0450 H     1 <1>   0.1500 
 44 H       -5.4860    -3.8760     0.4730 H     1 <1>   0.2700 
 45 H       -1.8900    -3.2440    -0.7420 H     1 <1>   0.0800 
 46 H       -2.9850    -4.5940    -0.8930 H     1 <1>   0.0800 
 47 H       -2.6180    -3.9280     0.6830 H     1 <1>   0.0800 
 48 H       -5.6410     1.0560     2.8260 H     1 <1>   0.0800 
 49 H       -6.1500     2.7310     2.7770 H     1 <1>   0.0800 
 50 H       -4.4890     2.3320     3.1580 H     1 <1>   0.0800 
 51 H       -6.5030     0.7490     0.4930 H     1 <1>   0.0800 
 52 H       -5.9610     1.8180    -0.7730 H     1 <1>   0.0800 
 53 H       -7.0100     2.4260     0.4890 H     1 <1>   0.0800 
 54 H        2.5360     3.8380     3.4220 H     1 <1>   0.1500 
 55 H        0.9300     6.6680     0.6870 H     1 <1>   0.1500 
 56 H        2.0340     6.1700     2.8240 H     1 <1>   0.1500 
@<TRIPOS>BOND
  1   1   2  2   
  2   2   3  am  
  3   2   4  1   
  4   3   5  1   
  5   3   6  1   
  6   4   7  1   
  7   4  26  1   
  8   4  27  1   
  9   5   8  1   
 10   5  28  1   
 11   5  29  1   
 12   6   9  1   
 13   6  30  1   
 14   6  31  1   
 15   7  10  1   
 16   7  11  1   
 17   7  12  1   
 18   8  13  1   
 19   8  14  2   
 20   9  15  1   
 21   9  32  1   
 22   9  33  1   
 23  10  16  ar  
 24  10  17  ar  
 25  11  34  1   
 26  11  35  1   
 27  11  36  1   
 28  12  37  1   
 29  12  38  1   
 30  12  39  1   
 31  13  18  2   
 32  14  19  1   
 33  14  20  1   
 34  15  21  1   
 35  15  22  1   
 36  15  40  1   
 37  16  23  ar  
 38  16  41  1   
 39  17  24  ar  
 40  17  42  1   
 41  18  19  1   
 42  18  43  1   
 43  19  44  1   
 44  20  45  1   
 45  20  46  1   
 46  20  47  1   
 47  21  48  1   
 48  21  49  1   
 49  21  50  1   
 50  22  51  1   
 51  22  52  1   
 52  22  53  1   
 53  23  25  ar  
 54  23  54  1   
 55  24  25  ar  
 56  24  55  1   
 57  25  56  1   
@<TRIPOS>SUBSTRUCTURE
  1 ****   3 GROUP 4 **** **** 0

# MOE 2024.06 (io_trps.svl 2023.06)
