@<TRIPOS>MOLECULE
NONAME
41 42 1 0 0 
SMALL
USER_CHARGES


@<TRIPOS>ATOM
  1 CL       0.9470     0.5600    -0.5420 Cl    1 <1>  -0.1770 
  2 C        1.3160    -0.9250     0.2950 C.ar  1 <1>   0.1770 
  3 C        1.1060    -2.1320    -0.3440 C.ar  1 <1>  -0.1500 
  4 C        1.8140    -0.8620     1.5850 C.ar  1 <1>  -0.1500 
  5 C        1.3930    -3.3450     0.2910 C.ar  1 <1>   0.0860 
  6 C        2.1060    -2.0420     2.2450 C.ar  1 <1>  -0.1500 
  7 C        1.8920    -3.2470     1.5960 C.ar  1 <1>   0.1900 
  8 C        1.1670    -4.6000    -0.4030 C.2   1 <1>   0.5440 
  9 F        2.1750    -4.3280     2.2700 F     1 <1>  -0.1900 
 10 O        0.3520    -4.6620    -1.3040 O.2   1 <1>  -0.5700 
 11 N        1.8460    -5.7410    -0.0850 N.am  1 <1>  -0.7300 
 12 C        1.6100    -7.0570    -0.7170 C.3   1 <1>   0.2200 
 13 C        0.3650    -7.6920    -0.1040 C.3   1 <1>  -0.0800 
 14 C        2.7230    -8.0450    -0.3780 C.3   1 <1>   0.1200 
 15 C        0.8880    -8.9560     0.5830 C.3   1 <1>   0.1200 
 16 C       -0.7160    -7.9560    -1.1670 C.3   1 <1>  -0.0550 
 17 O        2.2600    -8.7650     0.7160 O.3   1 <1>  -0.5600 
 18 S       -2.3020    -8.4490    -0.4910 S.o2  1 <1>   1.3330 
 19 O       -2.1050    -9.6580     0.2770 O.2   1 <1>  -0.6500 
 20 O       -3.2900    -8.4300    -1.5460 O.2   1 <1>  -0.6500 
 21 N       -2.6950    -7.2050     0.5960 N.am  1 <1>  -0.8490 
 22 C       -3.0380    -5.9400    -0.0650 C.3   1 <1>   0.1160 
 23 C       -3.7730    -7.6030     1.5040 C.3   1 <1>   0.1160 
 24 H        0.7160    -2.1330    -1.3470 H     1 <1>   0.1500 
 25 H        1.9660     0.0930     2.0560 H     1 <1>   0.1500 
 26 H        2.4930    -2.0310     3.2490 H     1 <1>   0.1500 
 27 H        2.3500    -5.7850     0.8070 H     1 <1>   0.3700 
 28 H        1.5330    -6.9320    -1.7850 H     1 <1>   0.0800 
 29 H       -0.0410    -7.0460     0.6550 H     1 <1>   0.0800 
 30 H        3.6520    -7.5640    -0.1280 H     1 <1>   0.0800 
 31 H        2.8730    -8.7400    -1.1860 H     1 <1>   0.0800 
 32 H        0.7310    -9.8350    -0.0180 H     1 <1>   0.0800 
 33 H        0.4550    -9.1010     1.5580 H     1 <1>   0.0800 
 34 H       -0.3730    -8.7100    -1.8480 H     1 <1>   0.0800 
 35 H       -0.8570    -7.0560    -1.7340 H     1 <1>   0.0800 
 36 H       -3.2430    -5.1830     0.6710 H     1 <1>   0.0800 
 37 H       -3.9060    -6.0640    -0.6920 H     1 <1>   0.0800 
 38 H       -2.2170    -5.5990    -0.6720 H     1 <1>   0.0800 
 39 H       -3.9820    -6.8120     2.2040 H     1 <1>   0.0800 
 40 H       -3.4810    -8.4780     2.0600 H     1 <1>   0.0800 
 41 H       -4.6670    -7.8300     0.9470 H     1 <1>   0.0800 
@<TRIPOS>BOND
  1   1   2  1   
  2   2   3  ar  
  3   2   4  ar  
  4   3   5  ar  
  5   3  24  1   
  6   4   6  ar  
  7   4  25  1   
  8   5   7  ar  
  9   5   8  1   
 10   6   7  ar  
 11   6  26  1   
 12   7   9  1   
 13   8  10  2   
 14   8  11  am  
 15  11  12  1   
 16  11  27  1   
 17  12  13  1   
 18  12  14  1   
 19  12  28  1   
 20  13  15  1   
 21  13  16  1   
 22  13  29  1   
 23  14  17  1   
 24  14  30  1   
 25  14  31  1   
 26  15  17  1   
 27  15  32  1   
 28  15  33  1   
 29  16  18  1   
 30  16  34  1   
 31  16  35  1   
 32  18  19  2   
 33  18  20  2   
 34  18  21  am  
 35  21  22  1   
 36  21  23  1   
 37  22  36  1   
 38  22  37  1   
 39  22  38  1   
 40  23  39  1   
 41  23  40  1   
 42  23  41  1   
@<TRIPOS>SUBSTRUCTURE
  1 ****   8 GROUP 4 **** **** 0

# MOE 2024.06 (io_trps.svl 2023.06)
