@<TRIPOS>MOLECULE
NONAME
54 57 1 0 0 
SMALL
USER_CHARGES


@<TRIPOS>ATOM
  1 O       -1.1340     0.8610    -1.6100 O.2   1 <1>  -0.5700 
  2 C       -1.4460     0.8220    -0.4350 C.2   1 <1>   0.7160 
  3 N       -1.8900    -0.3780     0.0890 N.am  1 <1>  -0.6600 
  4 C       -1.4170     2.0080     0.3520 C.2   1 <1>  -0.0860 
  5 C       -2.1050    -1.5710    -0.7850 C.3   1 <1>   0.1400 
  6 C       -2.6240    -0.4600     1.3890 C.3   1 <1>   0.1400 
  7 C       -2.5440     2.7640     0.6810 C.2   1 <1>   0.3720 
  8 C       -0.4050     2.6250     1.0150 C.2   1 <1>   0.0870 
  9 C       -3.6150    -1.7450    -1.0650 C.3   1 <1>   0.4230 
 10 C       -4.1330    -0.6280     1.1170 C.3   1 <1>   0.3430 
 11 N       -2.2380     3.7070     1.5000 N.2   1 <1>  -0.4100 
 12 N       -3.8400     2.5000     0.1990 N.pl3 1 <1>  -0.8210 
 13 O       -0.9450     3.6150     1.6800 O.3   1 <1>  -0.0190 
 14 C        1.0070     2.3550     1.1090 C.ar  1 <1>   0.0530 
 15 N       -4.4100    -1.7900     0.1990 N.4   1 <1>  -0.9060 
 16 C       -3.9000    -3.0280    -1.8360 C.3   1 <1>  -0.2400 
 17 C       -3.9600     2.6510    -1.2840 C.3   1 <1>   0.2090 
 18 C       -4.9480     3.2810     0.8240 C.3   1 <1>   0.2090 
 19 C        1.7180     1.7780     0.0550 C.ar  1 <1>  -0.1500 
 20 C        1.7190     2.6630     2.2690 C.ar  1 <1>  -0.1500 
 21 C       -5.2290     3.4570    -1.5400 C.3   1 <1>  -0.1600 
 22 C       -6.0230     3.3610    -0.2460 C.3   1 <1>  -0.1600 
 23 C        3.0700     1.5050     0.1570 C.ar  1 <1>  -0.1500 
 24 C        3.0700     2.3940     2.3770 C.ar  1 <1>  -0.1500 
 25 C        3.7580     1.8100     1.3270 C.ar  1 <1>   0.0820 
 26 O        5.0780     1.5750     1.5110 O.3   1 <1>  -0.3620 
 27 C        5.8730     0.9930     0.5030 C.3   1 <1>   0.0400 
 28 H       -1.5770    -1.4620    -1.7180 H     1 <1>   0.0800 
 29 H       -1.7110    -2.4460    -0.2960 H     1 <1>   0.0800 
 30 H       -2.2560    -1.2980     1.9550 H     1 <1>   0.0800 
 31 H       -2.4650     0.4200     1.9870 H     1 <1>   0.0800 
 32 H       -3.9370    -0.9030    -1.6580 H     1 <1>   0.0800 
 33 H       -4.5010     0.2810     0.6700 H     1 <1>   0.0800 
 34 H       -4.6500    -0.7640     2.0530 H     1 <1>   0.0800 
 35 H       -5.4080    -1.8130    -0.0380 H     1 <1>   0.4500 
 36 H       -4.1930    -2.6670     0.6840 H     1 <1>   0.4500 
 37 H       -3.5800    -3.8950    -1.2850 H     1 <1>   0.0800 
 38 H       -3.3650    -3.0120    -2.7700 H     1 <1>   0.0800 
 39 H       -4.9480    -3.1120    -2.0630 H     1 <1>   0.0800 
 40 H       -3.1030     3.1560    -1.7000 H     1 <1>   0.0800 
 41 H       -4.0430     1.6770    -1.7340 H     1 <1>   0.0800 
 42 H       -5.3070     2.7990     1.7160 H     1 <1>   0.0800 
 43 H       -4.6190     4.2790     1.0680 H     1 <1>   0.0800 
 44 H        1.2140     1.5470    -0.8650 H     1 <1>   0.1500 
 45 H        1.2070     3.1180     3.0990 H     1 <1>   0.1500 
 46 H       -4.9560     4.4810    -1.7250 H     1 <1>   0.0800 
 47 H       -5.7770     3.0860    -2.3880 H     1 <1>   0.0800 
 48 H       -6.6100     2.4610    -0.2310 H     1 <1>   0.0800 
 49 H       -6.6690     4.2090    -0.0980 H     1 <1>   0.0800 
 50 H        3.5700     1.0590    -0.6810 H     1 <1>   0.1500 
 51 H        3.6040     2.6350     3.2790 H     1 <1>   0.1500 
 52 H        6.8770     0.9060     0.8770 H     1 <1>   0.0800 
 53 H        5.8590     1.6300    -0.3640 H     1 <1>   0.0800 
 54 H        5.4830     0.0170     0.2710 H     1 <1>   0.0800 
@<TRIPOS>BOND
  1   1   2  2   
  2   2   3  am  
  3   2   4  1   
  4   3   5  1   
  5   3   6  1   
  6   4   7  1   
  7   4   8  2   
  8   5   9  1   
  9   5  28  1   
 10   5  29  1   
 11   6  10  1   
 12   6  30  1   
 13   6  31  1   
 14   7  11  2   
 15   7  12  1   
 16   8  13  1   
 17   8  14  1   
 18   9  15  1   
 19   9  16  1   
 20   9  32  1   
 21  10  15  1   
 22  10  33  1   
 23  10  34  1   
 24  11  13  1   
 25  12  17  1   
 26  12  18  1   
 27  14  19  ar  
 28  14  20  ar  
 29  15  35  1   
 30  15  36  1   
 31  16  37  1   
 32  16  38  1   
 33  16  39  1   
 34  17  21  1   
 35  17  40  1   
 36  17  41  1   
 37  18  22  1   
 38  18  42  1   
 39  18  43  1   
 40  19  23  ar  
 41  19  44  1   
 42  20  24  ar  
 43  20  45  1   
 44  21  22  1   
 45  21  46  1   
 46  21  47  1   
 47  22  48  1   
 48  22  49  1   
 49  23  25  ar  
 50  23  50  1   
 51  24  25  ar  
 52  24  51  1   
 53  25  26  1   
 54  26  27  1   
 55  27  52  1   
 56  27  53  1   
 57  27  54  1   
@<TRIPOS>SUBSTRUCTURE
  1 ****   4 GROUP 4 **** **** 0

# MOE 2024.06 (io_trps.svl 2023.06)
