@<TRIPOS>MOLECULE
NONAME
32 34 1 0 0 
SMALL
USER_CHARGES


@<TRIPOS>ATOM
  1 F       -0.7390     0.1630     0.6480 F     1 <1>  -0.1900 
  2 C       -1.9280     0.5830     0.3070 C.ar  1 <1>   0.1900 
  3 C       -2.9310    -0.3440     0.0210 C.ar  1 <1>   0.0860 
  4 C       -2.1340     1.9560     0.2770 C.ar  1 <1>  -0.1500 
  5 C       -2.8120    -1.7820     0.1930 C.2   1 <1>   0.5440 
  6 C       -4.1490     0.2010    -0.3730 C.ar  1 <1>  -0.1500 
  7 C       -3.3990     2.4470    -0.0120 C.ar  1 <1>  -0.1500 
  8 O       -1.9330    -2.3980    -0.3820 O.2   1 <1>  -0.5700 
  9 N       -3.7090    -2.4710     0.9890 N.am  1 <1>  -0.6600 
 10 C       -4.4120     1.5480    -0.3000 C.ar  1 <1>   0.0820 
 11 C       -4.8440    -1.8190     1.6940 C.3   1 <1>   0.2350 
 12 C       -4.1920    -3.8420     0.6510 C.3   1 <1>   0.2350 
 13 O       -5.6920     1.9300    -0.4260 O.3   1 <1>  -0.5320 
 14 C       -6.0690    -2.2460     0.9030 C.3   1 <1>  -0.2420 
 15 C       -5.7050    -3.6670     0.4870 C.3   1 <1>  -0.2420 
 16 C       -7.1320    -1.1780     1.1710 C.2   1 <1>   0.9470 
 17 C       -6.1740    -2.7190    -0.5460 C.3   1 <1>  -0.2000 
 18 C       -6.4580    -4.9640     0.7790 C.2   1 <1>   0.9470 
 19 O       -7.0690    -0.1210     0.5060 O.co2 1 <1>  -0.9000 
 20 O       -7.9220    -1.2930     2.1100 O.co2 1 <1>  -0.9000 
 21 O       -7.1710    -5.4670    -0.1000 O.co2 1 <1>  -0.9000 
 22 O       -6.2340    -5.5520     1.8460 O.co2 1 <1>  -0.9000 
 23 H       -1.3220     2.6250     0.4990 H     1 <1>   0.1500 
 24 H       -4.9400    -0.4400    -0.6910 H     1 <1>   0.1500 
 25 H       -3.6140     3.5010     0.0020 H     1 <1>   0.1500 
 26 H       -4.9210    -2.2210     2.6900 H     1 <1>   0.0800 
 27 H       -4.7460    -0.7540     1.7830 H     1 <1>   0.0800 
 28 H       -3.7440    -4.2120    -0.2540 H     1 <1>   0.0800 
 29 H       -3.9710    -4.5090     1.4670 H     1 <1>   0.0800 
 30 H       -6.3220     1.1830    -0.1410 H     1 <1>   0.4500 
 31 H       -5.4810    -2.4150    -1.3060 H     1 <1>   0.1000 
 32 H       -7.1610    -2.8750    -0.9490 H     1 <1>   0.1000 
@<TRIPOS>BOND
  1   1   2  1   
  2   2   3  ar  
  3   2   4  ar  
  4   3   5  1   
  5   3   6  ar  
  6   4   7  ar  
  7   4  23  1   
  8   5   8  2   
  9   5   9  am  
 10   6  10  ar  
 11   6  24  1   
 12   7  10  ar  
 13   7  25  1   
 14   9  11  1   
 15   9  12  1   
 16  10  13  1   
 17  11  14  1   
 18  11  26  1   
 19  11  27  1   
 20  12  15  1   
 21  12  28  1   
 22  12  29  1   
 23  13  30  1   
 24  14  15  1   
 25  14  16  1   
 26  14  17  1   
 27  15  17  1   
 28  15  18  1   
 29  16  19  ar  
 30  16  20  ar  
 31  17  31  1   
 32  17  32  1   
 33  18  21  ar  
 34  18  22  ar  
@<TRIPOS>SUBSTRUCTURE
  1 ****  11 GROUP 4 **** **** 0

# MOE 2024.06 (io_trps.svl 2023.06)
