@<TRIPOS>MOLECULE
NONAME
44 47 1 0 0 
SMALL
USER_CHARGES


@<TRIPOS>ATOM
  1 O       -2.1630     0.7420    -1.6520 O.2   1 <1>  -0.5700 
  2 C       -2.1270    -0.2710    -1.0000 C.2   1 <1>   0.5690 
  3 N       -2.0750    -0.2150     0.3470 N.am  1 <1>  -0.7300 
  4 C       -2.1050    -1.6190    -1.6960 C.3   1 <1>  -0.0190 
  5 C       -2.1070    -1.4170     1.2210 C.3   1 <1>   0.2200 
  6 C       -0.8080    -2.3760    -1.3640 C.3   1 <1>   0.1200 
  7 C       -3.3770    -2.4560    -1.4420 C.3   1 <1>   0.1100 
  8 C       -0.8350    -2.2660     1.0100 C.3   1 <1>   0.1200 
  9 C       -3.4040    -2.2560     1.0460 C.3   1 <1>   0.1100 
 10 O       -0.8850    -3.0530    -0.1450 O.3   1 <1>  -0.5600 
 11 N       -4.1360    -2.0600    -0.2340 N.3   1 <1>  -0.8100 
 12 C       -5.5030    -2.6050    -0.2090 C.3   1 <1>   0.2530 
 13 C       -5.5320    -4.1190    -0.0710 C.ar  1 <1>  -0.1440 
 14 C       -5.5920    -4.7310     1.1570 C.ar  1 <1>   0.1600 
 15 C       -5.5180    -4.9460    -1.1670 C.ar  1 <1>   0.1600 
 16 N       -5.6240    -6.0340     1.2940 N.ar  1 <1>  -0.6200 
 17 N       -5.5530    -6.2530    -1.0630 N.ar  1 <1>  -0.6200 
 18 C       -5.6020    -6.7620     0.1730 C.ar  1 <1>   0.6200 
 19 C       -5.6370    -8.2130     0.3070 C.ar  1 <1>   0.0000 
 20 C       -6.1800    -9.0290    -0.6910 C.ar  1 <1>  -0.1500 
 21 C       -5.1320    -8.8570     1.4400 C.ar  1 <1>  -0.1500 
 22 C       -6.2170   -10.4060    -0.5660 C.ar  1 <1>  -0.1500 
 23 C       -5.1650   -10.2340     1.5720 C.ar  1 <1>  -0.1500 
 24 C       -5.7090   -11.0130     0.5680 C.ar  1 <1>  -0.1500 
 25 H       -2.2270     0.6990     0.7720 H     1 <1>   0.3700 
 26 H       -2.0640    -1.4160    -2.7500 H     1 <1>   0.0800 
 27 H       -2.0760    -1.0740     2.2400 H     1 <1>   0.0800 
 28 H        0.0390    -1.7100    -1.3460 H     1 <1>   0.0800 
 29 H       -0.6330    -3.1230    -2.1180 H     1 <1>   0.0800 
 30 H       -3.1200    -3.5010    -1.3860 H     1 <1>   0.0800 
 31 H       -4.0190    -2.3240    -2.2950 H     1 <1>   0.0800 
 32 H       -0.7310    -2.9470     1.8360 H     1 <1>   0.0800 
 33 H        0.0420    -1.6430     0.9770 H     1 <1>   0.0800 
 34 H       -4.0620    -1.9840     1.8520 H     1 <1>   0.0800 
 35 H       -3.1680    -3.3000     1.1710 H     1 <1>   0.0800 
 36 H       -6.0420    -2.1570     0.6090 H     1 <1>   0.0800 
 37 H       -6.0120    -2.3150    -1.1130 H     1 <1>   0.0800 
 38 H       -5.6140    -4.1350     2.0540 H     1 <1>   0.1500 
 39 H       -5.4770    -4.5260    -2.1570 H     1 <1>   0.1500 
 40 H       -6.5800    -8.5760    -1.5810 H     1 <1>   0.1500 
 41 H       -4.7040    -8.2680     2.2320 H     1 <1>   0.1500 
 42 H       -6.6410   -11.0070    -1.3520 H     1 <1>   0.1500 
 43 H       -4.7680   -10.6980     2.4580 H     1 <1>   0.1500 
 44 H       -5.7370   -12.0840     0.6680 H     1 <1>   0.1500 
@<TRIPOS>BOND
  1   1   2  2   
  2   2   3  am  
  3   2   4  1   
  4   3   5  1   
  5   3  25  1   
  6   4   6  1   
  7   4   7  1   
  8   4  26  1   
  9   5   8  1   
 10   5   9  1   
 11   5  27  1   
 12   6  10  1   
 13   6  28  1   
 14   6  29  1   
 15   7  11  1   
 16   7  30  1   
 17   7  31  1   
 18   8  10  1   
 19   8  32  1   
 20   8  33  1   
 21   9  11  1   
 22   9  34  1   
 23   9  35  1   
 24  11  12  1   
 25  12  13  1   
 26  12  36  1   
 27  12  37  1   
 28  13  14  ar  
 29  13  15  ar  
 30  14  16  ar  
 31  14  38  1   
 32  15  17  ar  
 33  15  39  1   
 34  16  18  ar  
 35  17  18  ar  
 36  18  19  1   
 37  19  20  ar  
 38  19  21  ar  
 39  20  22  ar  
 40  20  40  1   
 41  21  23  ar  
 42  21  41  1   
 43  22  24  ar  
 44  22  42  1   
 45  23  24  ar  
 46  23  43  1   
 47  24  44  1   
@<TRIPOS>SUBSTRUCTURE
  1 ****  13 GROUP 4 **** **** 0

# MOE 2024.06 (io_trps.svl 2023.06)
