@<TRIPOS>MOLECULE
NONAME
53 55 1 0 0 
SMALL
USER_CHARGES


@<TRIPOS>ATOM
  1 S       -0.5550     0.5150     0.4940 S.3   1 <1>  -0.4600 
  2 C       -0.6340     2.3100     0.3060 C.3   1 <1>   0.0700 
  3 C       -2.2570    -0.0330     0.1840 C.3   1 <1>  -0.0100 
  4 C        0.7750     2.8380     0.5960 C.3   1 <1>   0.3430 
  5 N        0.8630     4.3310     0.5050 N.4   1 <1>  -0.9590 
  6 C        0.6720     4.8250    -0.8950 C.3   1 <1>   0.3430 
  7 C        2.1620     4.7960     1.0770 C.3   1 <1>   0.3430 
  8 C        0.6890     6.3490    -0.9130 C.3   1 <1>  -0.1600 
  9 C        2.2000     6.3170     1.0950 C.3   1 <1>  -0.1600 
 10 C        1.9880     6.8700    -0.3100 C.3   1 <1>   0.2890 
 11 N        1.9080     8.3270    -0.2240 N.pl3 1 <1>  -0.8690 
 12 C        2.9720     9.1580    -0.4860 C.ar  1 <1>   0.4100 
 13 N        4.1810     8.6200    -0.3240 N.ar  1 <1>  -0.6200 
 14 C        2.7480    10.4860    -0.8970 C.ar  1 <1>   0.0860 
 15 C        5.2100     9.4010    -0.5910 C.ar  1 <1>   0.1600 
 16 C        1.4050    11.0060    -1.0230 C.2   1 <1>   0.5440 
 17 C        3.8600    11.2680    -1.1810 C.ar  1 <1>  -0.1500 
 18 C        5.1080    10.7120    -1.0200 C.ar  1 <1>  -0.1500 
 19 O        0.5440    10.3510    -1.5920 O.2   1 <1>  -0.5700 
 20 N        1.0500    12.2300    -0.5010 N.am  1 <1>  -0.6600 
 21 C       -0.3110    12.7910    -0.6620 C.3   1 <1>   0.1400 
 22 C        1.7720    12.9160     0.5950 C.3   1 <1>   0.1400 
 23 C       -0.3500    14.0080     0.2550 C.3   1 <1>  -0.1600 
 24 C        0.7010    13.7200     1.3220 C.3   1 <1>  -0.1600 
 25 H       -1.3550     2.6710     1.0170 H     1 <1>   0.0800 
 26 H       -0.9480     2.5040    -0.7030 H     1 <1>   0.0800 
 27 H       -2.2770    -1.1050     0.2820 H     1 <1>   0.0800 
 28 H       -2.5320     0.2610    -0.8130 H     1 <1>   0.0800 
 29 H       -2.8990     0.4240     0.9160 H     1 <1>   0.0800 
 30 H        1.4670     2.3870    -0.0970 H     1 <1>   0.0800 
 31 H        1.0500     2.5210     1.5890 H     1 <1>   0.0800 
 32 H        0.1190     4.7390     1.0890 H     1 <1>   0.4500 
 33 H       -0.2690     4.4770    -1.2890 H     1 <1>   0.0800 
 34 H        1.4630     4.4490    -1.5250 H     1 <1>   0.0800 
 35 H        2.9810     4.4240     0.4810 H     1 <1>   0.0800 
 36 H        2.2800     4.4250     2.0830 H     1 <1>   0.0800 
 37 H       -0.1570     6.7260    -0.3650 H     1 <1>   0.0800 
 38 H        0.6110     6.6900    -1.9300 H     1 <1>   0.0800 
 39 H        3.1610     6.6410     1.4560 H     1 <1>   0.0800 
 40 H        1.4480     6.6960     1.7640 H     1 <1>   0.0800 
 41 H        2.8140     6.5860    -0.9430 H     1 <1>   0.0800 
 42 H        1.0180     8.7200    -0.5720 H     1 <1>   0.4000 
 43 H        6.1920     8.9760    -0.4640 H     1 <1>   0.1500 
 44 H        3.7420    12.2820    -1.5220 H     1 <1>   0.1500 
 45 H        5.9960    11.2820    -1.2250 H     1 <1>   0.1500 
 46 H       -1.0350    12.0580    -0.3460 H     1 <1>   0.0800 
 47 H       -0.4940    13.0570    -1.6890 H     1 <1>   0.0800 
 48 H        2.5080    13.5780     0.1730 H     1 <1>   0.0800 
 49 H        2.2490    12.2100     1.2550 H     1 <1>   0.0800 
 50 H       -1.3290    14.1620     0.6720 H     1 <1>   0.0800 
 51 H       -0.0690    14.8800    -0.3110 H     1 <1>   0.0800 
 52 H        1.1010    14.6170     1.7600 H     1 <1>   0.0800 
 53 H        0.2740    13.1100     2.1000 H     1 <1>   0.0800 
@<TRIPOS>BOND
  1   1   2  1   
  2   1   3  1   
  3   2   4  1   
  4   2  25  1   
  5   2  26  1   
  6   3  27  1   
  7   3  28  1   
  8   3  29  1   
  9   4   5  1   
 10   4  30  1   
 11   4  31  1   
 12   5   6  1   
 13   5   7  1   
 14   5  32  1   
 15   6   8  1   
 16   6  33  1   
 17   6  34  1   
 18   7   9  1   
 19   7  35  1   
 20   7  36  1   
 21   8  10  1   
 22   8  37  1   
 23   8  38  1   
 24   9  10  1   
 25   9  39  1   
 26   9  40  1   
 27  10  11  1   
 28  10  41  1   
 29  11  12  1   
 30  11  42  1   
 31  12  13  ar  
 32  12  14  ar  
 33  13  15  ar  
 34  14  16  1   
 35  14  17  ar  
 36  15  18  ar  
 37  15  43  1   
 38  16  19  2   
 39  16  20  am  
 40  17  18  ar  
 41  17  44  1   
 42  18  45  1   
 43  20  21  1   
 44  20  22  1   
 45  21  23  1   
 46  21  46  1   
 47  21  47  1   
 48  22  24  1   
 49  22  48  1   
 50  22  49  1   
 51  23  24  1   
 52  23  50  1   
 53  23  51  1   
 54  24  52  1   
 55  24  53  1   
@<TRIPOS>SUBSTRUCTURE
  1 ****  11 GROUP 4 **** **** 0

# MOE 2024.06 (io_trps.svl 2023.06)
