@<TRIPOS>MOLECULE
NONAME
43 44 1 0 0 
SMALL
USER_CHARGES


@<TRIPOS>ATOM
  1 S        0.4360     0.3920    -1.5880 S.o2  1 <1>   1.3330 
  2 O        0.7330    -0.8410    -2.2830 O.2   1 <1>  -0.6500 
  3 O       -0.3150     1.4270    -2.2620 O.2   1 <1>  -0.6500 
  4 N       -0.4240    -0.0080    -0.1780 N.am  1 <1>  -0.8490 
  5 C        1.9800     1.0740    -0.9800 C.3   1 <1>  -0.0550 
  6 C       -1.4300    -1.0450    -0.4240 C.3   1 <1>   0.1160 
  7 C       -1.0540     1.1520     0.4640 C.3   1 <1>   0.1160 
  8 C        2.9050     0.0440    -0.2940 C.3   1 <1>  -0.0800 
  9 C        4.2800     0.5710     0.0850 C.3   1 <1>   0.2200 
 10 C        2.3820    -0.5170     1.0340 C.3   1 <1>   0.1200 
 11 N        4.1790     1.9240     0.6790 N.am  1 <1>  -0.7300 
 12 C        4.6720    -0.4200     1.1720 C.3   1 <1>   0.1200 
 13 O        3.4930    -0.6970     1.8650 O.3   1 <1>  -0.5600 
 14 C        4.4040     3.1150     0.0430 C.2   1 <1>   0.5440 
 15 O        4.7430     3.0600    -1.1270 O.2   1 <1>  -0.5700 
 16 C        4.1920     4.3800     0.7620 C.ar  1 <1>   0.3960 
 17 N        3.2770     4.3520     1.7530 N.ar  1 <1>  -0.6200 
 18 C        4.9010     5.5580     0.4570 C.ar  1 <1>  -0.1440 
 19 C        3.0590     5.4710     2.4130 C.ar  1 <1>   0.1600 
 20 C        4.6480     6.7160     1.1650 C.ar  1 <1>  -0.1500 
 21 C        5.9660     5.6250    -0.6350 C.3   1 <1>  -0.0970 
 22 C        3.7050     6.6650     2.1630 C.ar  1 <1>  -0.1500 
 23 H        2.5140     1.4910    -1.8130 H     1 <1>   0.0800 
 24 H        1.7690     1.8800    -0.3050 H     1 <1>   0.0800 
 25 H       -1.9490    -1.2870     0.4870 H     1 <1>   0.0800 
 26 H       -0.9550    -1.9400    -0.7890 H     1 <1>   0.0800 
 27 H       -2.1420    -0.7080    -1.1600 H     1 <1>   0.0800 
 28 H       -1.5140     0.8560     1.3910 H     1 <1>   0.0800 
 29 H       -1.8070     1.5770    -0.1800 H     1 <1>   0.0800 
 30 H       -0.3170     1.9070     0.6780 H     1 <1>   0.0800 
 31 H        3.0450    -0.7870    -0.9640 H     1 <1>   0.0800 
 32 H        4.9720     0.5690    -0.7400 H     1 <1>   0.0800 
 33 H        1.8830    -1.4620     0.9020 H     1 <1>   0.0800 
 34 H        1.7220     0.1760     1.5250 H     1 <1>   0.0800 
 35 H        3.7890     1.9570     1.6270 H     1 <1>   0.3700 
 36 H        5.4090    -0.0270     1.8490 H     1 <1>   0.0800 
 37 H        5.0230    -1.3410     0.7390 H     1 <1>   0.0800 
 38 H        2.3240     5.4400     3.2000 H     1 <1>   0.1500 
 39 H        5.1680     7.6360     0.9540 H     1 <1>   0.1500 
 40 H        6.5150     6.5480    -0.5930 H     1 <1>   0.0800 
 41 H        5.5030     5.5510    -1.6040 H     1 <1>   0.0800 
 42 H        6.6660     4.8160    -0.5250 H     1 <1>   0.0800 
 43 H        3.4720     7.5390     2.7440 H     1 <1>   0.1500 
@<TRIPOS>BOND
  1   1   2  2   
  2   1   3  2   
  3   1   4  am  
  4   1   5  1   
  5   4   6  1   
  6   4   7  1   
  7   5   8  1   
  8   5  23  1   
  9   5  24  1   
 10   6  25  1   
 11   6  26  1   
 12   6  27  1   
 13   7  28  1   
 14   7  29  1   
 15   7  30  1   
 16   8   9  1   
 17   8  10  1   
 18   8  31  1   
 19   9  11  1   
 20   9  12  1   
 21   9  32  1   
 22  10  13  1   
 23  10  33  1   
 24  10  34  1   
 25  11  14  am  
 26  11  35  1   
 27  12  13  1   
 28  12  36  1   
 29  12  37  1   
 30  14  15  2   
 31  14  16  1   
 32  16  17  ar  
 33  16  18  ar  
 34  17  19  ar  
 35  18  20  ar  
 36  18  21  1   
 37  19  22  ar  
 38  19  38  1   
 39  20  22  ar  
 40  20  39  1   
 41  21  40  1   
 42  21  41  1   
 43  21  42  1   
 44  22  43  1   
@<TRIPOS>SUBSTRUCTURE
  1 ****  11 GROUP 4 **** **** 0

# MOE 2024.06 (io_trps.svl 2023.06)
