@<TRIPOS>MOLECULE
NONAME
54 57 1 0 0 
SMALL
USER_CHARGES


@<TRIPOS>ATOM
  1 F       -2.5920    -2.7080     2.3010 F     1 <1>  -0.1900 
  2 C       -2.4810    -3.8390     1.6630 C.ar  1 <1>   0.1900 
  3 C       -3.3980    -4.8400     1.9090 C.ar  1 <1>  -0.1500 
  4 C       -1.4470    -4.0020     0.7630 C.ar  1 <1>  -0.1500 
  5 C       -3.2740    -6.0360     1.2230 C.ar  1 <1>  -0.1500 
  6 C       -1.3360    -5.2050     0.0870 C.ar  1 <1>  -0.1500 
  7 C       -2.2500    -6.2470     0.2910 C.ar  1 <1>   0.0860 
  8 C       -2.1490    -7.5060    -0.4320 C.2   1 <1>   0.5440 
  9 O       -2.6800    -8.5170    -0.0070 O.2   1 <1>  -0.5700 
 10 N       -1.4980    -7.5770    -1.6310 N.am  1 <1>  -0.7300 
 11 C       -0.8780    -8.7970    -2.2100 C.3   1 <1>   0.1400 
 12 C       -1.6670    -9.3190    -3.4140 C.3   1 <1>  -0.0990 
 13 C       -2.5740   -10.4640    -3.0120 C.2   1 <1>   0.5690 
 14 O       -2.0400   -11.5240    -2.7950 O.2   1 <1>  -0.5700 
 15 N       -3.9330   -10.3270    -2.8750 N.am  1 <1>  -0.6600 
 16 C       -4.6450    -9.0280    -2.6430 C.3   1 <1>   0.1400 
 17 C       -4.7390   -11.5060    -2.4490 C.3   1 <1>   0.1400 
 18 C       -5.4100    -9.0030    -1.2900 C.3   1 <1>   0.4230 
 19 C       -4.9370   -11.4740    -0.9210 C.3   1 <1>   0.3430 
 20 N       -4.9370   -10.0760    -0.3420 N.4   1 <1>  -0.9590 
 21 C       -6.9450    -9.0780    -1.4540 C.3   1 <1>   0.1200 
 22 C       -5.6520    -9.9440     0.9570 C.3   1 <1>   0.5180 
 23 O       -7.5700    -8.9820    -0.2010 O.3   1 <1>  -0.5600 
 24 C       -5.1860   -11.0380     1.9260 C.3   1 <1>  -0.1950 
 25 C       -7.1840    -9.9470     0.7480 C.3   1 <1>   0.1200 
 26 C       -4.9680   -10.7180     3.3730 C.3   1 <1>  -0.2000 
 27 C       -3.7970   -11.0320     2.4880 C.3   1 <1>  -0.2000 
 28 H       -4.1860    -4.6780     2.6230 H     1 <1>   0.1500 
 29 H       -0.7450    -3.2010     0.6040 H     1 <1>   0.1500 
 30 H       -3.9810    -6.8220     1.4180 H     1 <1>   0.1500 
 31 H       -0.5190    -5.3300    -0.6000 H     1 <1>   0.1500 
 32 H       -1.1530    -6.7050    -2.0400 H     1 <1>   0.3700 
 33 H        0.1210    -8.5490    -2.5270 H     1 <1>   0.0800 
 34 H       -0.7930    -9.5650    -1.4570 H     1 <1>   0.0800 
 35 H       -0.9640    -9.7260    -4.1180 H     1 <1>   0.0800 
 36 H       -2.1960    -8.5350    -3.9200 H     1 <1>   0.0800 
 37 H       -3.9410    -8.2180    -2.6320 H     1 <1>   0.0800 
 38 H       -5.3230    -8.8440    -3.4580 H     1 <1>   0.0800 
 39 H       -5.6930   -11.4820    -2.9440 H     1 <1>   0.0800 
 40 H       -4.2600   -12.4280    -2.7330 H     1 <1>   0.0800 
 41 H       -5.2070    -8.0430    -0.8450 H     1 <1>   0.0800 
 42 H       -4.1400   -12.0380    -0.4640 H     1 <1>   0.0800 
 43 H       -5.8610   -11.9750    -0.6880 H     1 <1>   0.0800 
 44 H       -3.9410    -9.8310    -0.1610 H     1 <1>   0.4500 
 45 H       -7.2510    -9.9950    -1.9250 H     1 <1>   0.0800 
 46 H       -7.2960    -8.2530    -2.0510 H     1 <1>   0.0800 
 47 H       -5.3860    -8.9940     1.3900 H     1 <1>   0.0800 
 48 H       -5.6420   -11.9930     1.7310 H     1 <1>   0.1000 
 49 H       -7.6790    -9.7100     1.6730 H     1 <1>   0.0800 
 50 H       -7.5290   -10.9100     0.4170 H     1 <1>   0.0800 
 51 H       -5.0700    -9.7080     3.7310 H     1 <1>   0.1000 
 52 H       -5.2460   -11.4440     4.1200 H     1 <1>   0.1000 
 53 H       -3.2840   -11.9680     2.6320 H     1 <1>   0.1000 
 54 H       -3.1170   -10.2310     2.2430 H     1 <1>   0.1000 
@<TRIPOS>BOND
  1   1   2  1   
  2   2   3  ar  
  3   2   4  ar  
  4   3   5  ar  
  5   3  28  1   
  6   4   6  ar  
  7   4  29  1   
  8   5   7  ar  
  9   5  30  1   
 10   6   7  ar  
 11   6  31  1   
 12   7   8  1   
 13   8   9  2   
 14   8  10  am  
 15  10  11  1   
 16  10  32  1   
 17  11  12  1   
 18  11  33  1   
 19  11  34  1   
 20  12  13  1   
 21  12  35  1   
 22  12  36  1   
 23  13  14  2   
 24  13  15  am  
 25  15  16  1   
 26  15  17  1   
 27  16  18  1   
 28  16  37  1   
 29  16  38  1   
 30  17  19  1   
 31  17  39  1   
 32  17  40  1   
 33  18  20  1   
 34  18  21  1   
 35  18  41  1   
 36  19  20  1   
 37  19  42  1   
 38  19  43  1   
 39  20  22  1   
 40  20  44  1   
 41  21  23  1   
 42  21  45  1   
 43  21  46  1   
 44  22  24  1   
 45  22  25  1   
 46  22  47  1   
 47  23  25  1   
 48  24  26  1   
 49  24  27  1   
 50  24  48  1   
 51  25  49  1   
 52  25  50  1   
 53  26  27  1   
 54  26  51  1   
 55  26  52  1   
 56  27  53  1   
 57  27  54  1   
@<TRIPOS>SUBSTRUCTURE
  1 ****   9 GROUP 4 **** **** 0

# MOE 2024.06 (io_trps.svl 2023.06)
