@<TRIPOS>MOLECULE
NONAME
53 56 1 0 0 
SMALL
USER_CHARGES


@<TRIPOS>ATOM
  1 CL       0.7830     0.2850     1.6790 Cl    1 <1>  -0.1770 
  2 C        2.1040     1.2160     1.0100 C.ar  1 <1>   0.1770 
  3 C        3.3750     1.1060     1.5440 C.ar  1 <1>   0.1600 
  4 C        1.8700     2.0600    -0.0540 C.ar  1 <1>  -0.1500 
  5 N        4.4330     1.7730     1.1020 N.ar  1 <1>  -0.6200 
  6 C        2.9630     2.7570    -0.5210 C.ar  1 <1>  -0.1500 
  7 C        4.2130     2.5900     0.0760 C.ar  1 <1>   0.4100 
  8 N        5.2880     3.3110    -0.3990 N.pl3 1 <1>  -0.8380 
  9 C        6.6200     2.6290    -0.4050 C.3   1 <1>   0.2090 
 10 C        5.3810     4.7240     0.0770 C.3   1 <1>   0.2090 
 11 C        7.6630     3.4310    -1.2060 C.3   1 <1>   0.2090 
 12 C        6.4360     5.5320    -0.7070 C.3   1 <1>   0.2090 
 13 N        7.7770     4.8460    -0.7070 N.pl3 1 <1>  -0.8380 
 14 C        8.9290     5.4820    -0.3660 C.ar  1 <1>   0.4100 
 15 N        8.9550     6.7960    -0.4780 N.ar  1 <1>  -0.6200 
 16 C       10.0540     4.7710     0.0950 C.ar  1 <1>  -0.1500 
 17 C       10.0700     7.4430    -0.1780 C.ar  1 <1>   0.7710 
 18 C       11.1900     5.4450     0.3960 C.ar  1 <1>   0.2180 
 19 N       11.1680     6.7890     0.2410 N.ar  1 <1>  -0.1790 
 20 N       10.1110     8.7970    -0.3010 N.pl3 1 <1>  -0.8380 
 21 C       12.4640     4.7760     0.8970 C.3   1 <1>  -0.0170 
 22 C       11.1860     9.7330     0.1850 C.3   1 <1>   0.2090 
 23 C        8.9900     9.5700    -0.9560 C.3   1 <1>   0.2090 
 24 C       13.6380     4.9650    -0.0730 C.3   1 <1>  -0.2400 
 25 C       10.5870    10.8810     1.0210 C.3   1 <1>   0.1200 
 26 C        8.5130    10.7270    -0.0620 C.3   1 <1>   0.1200 
 27 O        9.5900    11.5410     0.3010 O.3   1 <1>  -0.5600 
 28 H        3.5240     0.4390     2.3740 H     1 <1>   0.1500 
 29 H        0.8910     2.1590    -0.4860 H     1 <1>   0.1500 
 30 H        2.8750     3.4320    -1.3500 H     1 <1>   0.1500 
 31 H        6.5120     1.6490    -0.8370 H     1 <1>   0.0800 
 32 H        6.9650     2.5090     0.6080 H     1 <1>   0.0800 
 33 H        5.6420     4.7260     1.1210 H     1 <1>   0.0800 
 34 H        4.4230     5.2020    -0.0260 H     1 <1>   0.0800 
 35 H        7.3520     3.4520    -2.2360 H     1 <1>   0.0800 
 36 H        8.6080     2.9230    -1.1710 H     1 <1>   0.0800 
 37 H        6.5070     6.5100    -0.2670 H     1 <1>   0.0800 
 38 H        6.1020     5.6510    -1.7220 H     1 <1>   0.0800 
 39 H        9.9900     3.7080     0.2130 H     1 <1>   0.1500 
 40 H       11.9870     7.3570     0.4040 H     1 <1>   0.4570 
 41 H       12.2870     3.7210     1.0210 H     1 <1>   0.0800 
 42 H       12.7250     5.1700     1.8650 H     1 <1>   0.0800 
 43 H       11.6970    10.1600    -0.6620 H     1 <1>   0.0800 
 44 H       11.9120     9.2220     0.7900 H     1 <1>   0.0800 
 45 H        8.1440     8.9450    -1.1830 H     1 <1>   0.0800 
 46 H        9.3400     9.9790    -1.8890 H     1 <1>   0.0800 
 47 H       13.3910     4.5740    -1.0460 H     1 <1>   0.0800 
 48 H       14.5000     4.4290     0.2900 H     1 <1>   0.0800 
 49 H       13.9100     6.0000    -0.1730 H     1 <1>   0.0800 
 50 H       11.3470    11.6040     1.2610 H     1 <1>   0.0800 
 51 H       10.1610    10.5100     1.9370 H     1 <1>   0.0800 
 52 H        8.0430    10.3520     0.8300 H     1 <1>   0.0800 
 53 H        7.8050    11.3390    -0.5940 H     1 <1>   0.0800 
@<TRIPOS>BOND
  1   1   2  1   
  2   2   3  ar  
  3   2   4  ar  
  4   3   5  ar  
  5   3  28  1   
  6   4   6  ar  
  7   4  29  1   
  8   5   7  ar  
  9   6   7  ar  
 10   6  30  1   
 11   7   8  1   
 12   8   9  1   
 13   8  10  1   
 14   9  11  1   
 15   9  31  1   
 16   9  32  1   
 17  10  12  1   
 18  10  33  1   
 19  10  34  1   
 20  11  13  1   
 21  11  35  1   
 22  11  36  1   
 23  12  13  1   
 24  12  37  1   
 25  12  38  1   
 26  13  14  1   
 27  14  15  ar  
 28  14  16  ar  
 29  15  17  ar  
 30  16  18  ar  
 31  16  39  1   
 32  17  19  ar  
 33  17  20  1   
 34  18  19  ar  
 35  18  21  1   
 36  19  40  1   
 37  20  22  1   
 38  20  23  1   
 39  21  24  1   
 40  21  41  1   
 41  21  42  1   
 42  22  25  1   
 43  22  43  1   
 44  22  44  1   
 45  23  26  1   
 46  23  45  1   
 47  23  46  1   
 48  24  47  1   
 49  24  48  1   
 50  24  49  1   
 51  25  27  1   
 52  25  50  1   
 53  25  51  1   
 54  26  27  1   
 55  26  52  1   
 56  26  53  1   
@<TRIPOS>SUBSTRUCTURE
  1 ****  13 GROUP 4 **** **** 0

# MOE 2024.06 (io_trps.svl 2023.06)
