@<TRIPOS>MOLECULE
NONAME
49 51 1 0 0 
SMALL
USER_CHARGES


@<TRIPOS>ATOM
  1 S        0.4610    -0.2180     1.5800 S.o2  1 <1>   1.4470 
  2 O        1.3470    -1.3310     1.8510 O.2   1 <1>  -0.6500 
  3 O        0.0300     0.5860     2.7040 O.2   1 <1>  -0.6500 
  4 N        1.3920     0.7950     0.5830 N.am  1 <1>  -0.8490 
  5 C       -1.0040    -0.6840     0.5660 C.ar  1 <1>  -0.0090 
  6 C        2.4420     1.4870     1.3680 C.3   1 <1>   0.1960 
  7 C        1.9190     0.0710    -0.5910 C.3   1 <1>   0.1960 
  8 C       -1.4700    -2.0100     0.4830 C.ar  1 <1>  -0.1440 
  9 C       -1.7020     0.2910    -0.1610 C.ar  1 <1>  -0.1430 
 10 C        3.2080     2.6220     0.6350 C.3   1 <1>   0.2200 
 11 C        2.5440     0.9670    -1.6800 C.3   1 <1>  -0.0190 
 12 C       -2.4960    -2.3640    -0.3980 C.ar  1 <1>  -0.1440 
 13 C       -0.8640    -3.0910     1.3860 C.3   1 <1>  -0.0960 
 14 C       -2.7380    -0.0590    -1.0050 C.ar  1 <1>  -0.1500 
 15 C       -1.3940     1.7850    -0.0800 C.3   1 <1>  -0.0960 
 16 N        2.4630     3.1610    -0.5350 N.am  1 <1>  -0.7300 
 17 C        4.6230     2.1790     0.2090 C.3   1 <1>   0.1200 
 18 C        2.0880     2.4100    -1.5900 C.2   1 <1>   0.5690 
 19 C        4.0780     0.8880    -1.7120 C.3   1 <1>   0.1200 
 20 C       -3.1340    -1.3790    -1.1450 C.ar  1 <1>   0.0820 
 21 C       -2.9410    -3.8220    -0.5640 C.3   1 <1>  -0.0960 
 22 O        4.6310     0.9350    -0.4310 O.3   1 <1>  -0.5600 
 23 O        1.4060     2.8810    -2.4650 O.2   1 <1>  -0.5700 
 24 O       -4.1420    -1.7420    -1.9840 O.3   1 <1>  -0.3630 
 25 C       -4.8330    -0.8100    -2.7870 C.3   1 <1>   0.0400 
 26 H        1.9780     1.9430     2.2260 H     1 <1>   0.0800 
 27 H        3.1410     0.7610     1.7510 H     1 <1>   0.0800 
 28 H        2.6310    -0.6740    -0.2720 H     1 <1>   0.0800 
 29 H        1.1010    -0.4560    -1.0530 H     1 <1>   0.0800 
 30 H        3.3390     3.4300     1.3340 H     1 <1>   0.0800 
 31 H        2.2070     0.5970    -2.6310 H     1 <1>   0.0800 
 32 H       -1.5230    -3.9230     1.5390 H     1 <1>   0.0800 
 33 H       -0.6720    -2.7010     2.3690 H     1 <1>   0.0800 
 34 H        0.0550    -3.4570     0.9640 H     1 <1>   0.0800 
 35 H       -3.2330     0.7160    -1.5560 H     1 <1>   0.1500 
 36 H       -2.2590     2.3690    -0.3370 H     1 <1>   0.0800 
 37 H       -0.6080     2.0390    -0.7670 H     1 <1>   0.0800 
 38 H       -1.1020     2.0780     0.9120 H     1 <1>   0.0800 
 39 H        2.0400     4.0870    -0.4560 H     1 <1>   0.3700 
 40 H        5.2340     2.0710     1.0880 H     1 <1>   0.0800 
 41 H        5.0820     2.9120    -0.4310 H     1 <1>   0.0800 
 42 H        4.5000     1.6770    -2.3110 H     1 <1>   0.0800 
 43 H        4.3750    -0.0540    -2.1390 H     1 <1>   0.0800 
 44 H       -2.0880    -4.4750    -0.6050 H     1 <1>   0.0800 
 45 H       -3.4910    -3.9820    -1.4730 H     1 <1>   0.0800 
 46 H       -3.5690    -4.1070     0.2600 H     1 <1>   0.0800 
 47 H       -5.5660    -1.3460    -3.3630 H     1 <1>   0.0800 
 48 H       -4.1320    -0.3290    -3.4450 H     1 <1>   0.0800 
 49 H       -5.3220    -0.0950    -2.1490 H     1 <1>   0.0800 
@<TRIPOS>BOND
  1   1   2  2   
  2   1   3  2   
  3   1   4  am  
  4   1   5  1   
  5   4   6  1   
  6   4   7  1   
  7   5   8  ar  
  8   5   9  ar  
  9   6  10  1   
 10   6  26  1   
 11   6  27  1   
 12   7  11  1   
 13   7  28  1   
 14   7  29  1   
 15   8  12  ar  
 16   8  13  1   
 17   9  14  ar  
 18   9  15  1   
 19  10  16  1   
 20  10  17  1   
 21  10  30  1   
 22  11  18  1   
 23  11  19  1   
 24  11  31  1   
 25  12  20  ar  
 26  12  21  1   
 27  13  32  1   
 28  13  33  1   
 29  13  34  1   
 30  14  20  ar  
 31  14  35  1   
 32  15  36  1   
 33  15  37  1   
 34  15  38  1   
 35  16  18  am  
 36  16  39  1   
 37  17  22  1   
 38  17  40  1   
 39  17  41  1   
 40  18  23  2   
 41  19  22  1   
 42  19  42  1   
 43  19  43  1   
 44  20  24  1   
 45  21  44  1   
 46  21  45  1   
 47  21  46  1   
 48  24  25  1   
 49  25  47  1   
 50  25  48  1   
 51  25  49  1   
@<TRIPOS>SUBSTRUCTURE
  1 ****   4 GROUP 4 **** **** 0

# MOE 2024.06 (io_trps.svl 2023.06)
