@<TRIPOS>MOLECULE
NONAME
47 49 1 0 0 
SMALL
USER_CHARGES


@<TRIPOS>ATOM
  1 O        0.0320     0.0500    -0.2150 O.3   1 <1>  -0.5600 
  2 C        0.4890     1.0600    -1.0510 C.3   1 <1>   0.1200 
  3 C       -1.3650     0.0640    -0.2110 C.3   1 <1>   0.1200 
  4 C       -0.4320     2.2250    -0.7020 C.3   1 <1>   0.4230 
  5 C       -1.7660     1.4780    -0.6660 C.3   1 <1>  -0.0800 
  6 N       -0.0760     2.7150     0.6640 N.4   1 <1>  -0.9060 
  7 C       -2.9110     2.1070     0.1540 C.3   1 <1>  -0.0170 
  8 C        0.7140     3.9680     0.7640 C.3   1 <1>   0.4230 
  9 C       -4.1900     1.3080    -0.0260 C.ar  1 <1>  -0.1430 
 10 C       -0.1490     5.1390     0.2680 C.3   1 <1>  -0.1600 
 11 C        2.0720     3.8100     0.0650 C.3   1 <1>  -0.1600 
 12 C       -4.9960     1.4700    -1.1350 C.ar  1 <1>  -0.1500 
 13 C       -4.6150     0.3790     0.9050 C.ar  1 <1>  -0.1500 
 14 C        0.5270     6.5170     0.3570 C.3   1 <1>  -0.1600 
 15 C        3.0710     4.8900     0.5050 C.3   1 <1>  -0.1600 
 16 C       -6.1490     0.7130    -1.2610 C.ar  1 <1>   0.1600 
 17 C       -5.7860    -0.3270     0.6820 C.ar  1 <1>   0.1600 
 18 C        1.6190     6.7030    -0.7060 C.3   1 <1>  -0.1600 
 19 C        3.0110     6.1940    -0.3040 C.3   1 <1>  -0.1600 
 20 N       -6.5590    -0.1830    -0.3800 N.ar  1 <1>  -0.6200 
 21 H        1.5310     1.2440    -0.8650 H     1 <1>   0.0800 
 22 H        0.3540     0.7430    -2.0730 H     1 <1>   0.0800 
 23 H       -1.7240    -0.6900    -0.8930 H     1 <1>   0.0800 
 24 H       -1.6980    -0.1660     0.7870 H     1 <1>   0.0800 
 25 H       -0.4140     3.0120    -1.4360 H     1 <1>   0.0800 
 26 H       -2.1100     1.3900    -1.6830 H     1 <1>   0.0800 
 27 H       -0.9300     2.8310     1.2100 H     1 <1>   0.4500 
 28 H        0.4350     1.9360     1.1070 H     1 <1>   0.4500 
 29 H       -3.0870     3.1170    -0.1760 H     1 <1>   0.0800 
 30 H       -2.6710     2.1350     1.2020 H     1 <1>   0.0800 
 31 H        0.9190     4.1450     1.8080 H     1 <1>   0.0800 
 32 H       -0.4540     4.9830    -0.7500 H     1 <1>   0.0800 
 33 H       -1.0370     5.1820     0.8740 H     1 <1>   0.0800 
 34 H        2.4970     2.8680     0.3610 H     1 <1>   0.0800 
 35 H        1.9710     3.8190    -1.0060 H     1 <1>   0.0800 
 36 H       -4.7480     2.1760    -1.9060 H     1 <1>   0.1500 
 37 H       -4.0570     0.1900     1.8030 H     1 <1>   0.1500 
 38 H       -0.2290     7.2630     0.1790 H     1 <1>   0.0800 
 39 H        0.9210     6.7000     1.3430 H     1 <1>   0.0800 
 40 H        2.9320     5.1130     1.5500 H     1 <1>   0.0800 
 41 H        4.0700     4.4980     0.4080 H     1 <1>   0.0800 
 42 H       -6.7680     0.8510    -2.1320 H     1 <1>   0.1500 
 43 H       -6.1040    -1.0480     1.4170 H     1 <1>   0.1500 
 44 H        1.3160     6.2360    -1.6280 H     1 <1>   0.0800 
 45 H        1.7100     7.7560    -0.9190 H     1 <1>   0.0800 
 46 H        3.5030     6.9610     0.2710 H     1 <1>   0.0800 
 47 H        3.5900     6.0720    -1.2050 H     1 <1>   0.0800 
@<TRIPOS>BOND
  1   1   2  1   
  2   1   3  1   
  3   2   4  1   
  4   2  21  1   
  5   2  22  1   
  6   3   5  1   
  7   3  23  1   
  8   3  24  1   
  9   4   5  1   
 10   4   6  1   
 11   4  25  1   
 12   5   7  1   
 13   5  26  1   
 14   6   8  1   
 15   6  27  1   
 16   6  28  1   
 17   7   9  1   
 18   7  29  1   
 19   7  30  1   
 20   8  10  1   
 21   8  11  1   
 22   8  31  1   
 23   9  12  ar  
 24   9  13  ar  
 25  10  14  1   
 26  10  32  1   
 27  10  33  1   
 28  11  15  1   
 29  11  34  1   
 30  11  35  1   
 31  12  16  ar  
 32  12  36  1   
 33  13  17  ar  
 34  13  37  1   
 35  14  18  1   
 36  14  38  1   
 37  14  39  1   
 38  15  19  1   
 39  15  40  1   
 40  15  41  1   
 41  16  20  ar  
 42  16  42  1   
 43  17  20  ar  
 44  17  43  1   
 45  18  19  1   
 46  18  44  1   
 47  18  45  1   
 48  19  46  1   
 49  19  47  1   
@<TRIPOS>SUBSTRUCTURE
  1 ****   4 GROUP 4 **** **** 0

# MOE 2024.06 (io_trps.svl 2023.06)
