@<TRIPOS>MOLECULE
Untitled Document
52 55 1 0 0 
SMALL
USER_CHARGES


@<TRIPOS>ATOM
  1 O        0.7370    -1.7550     2.2780 O.2   1 <1>  -0.5700 
  2 C        0.6700    -1.7000     1.0800 C.2   1 <1>   0.4480 
  3 C       -0.4910    -2.1830     0.2610 C.3   1 <1>   0.1990 
  4 C        1.7600    -1.1600     0.1780 C.3   1 <1>   0.2140 
  5 C       -1.6150    -2.7260     1.1350 C.2   1 <1>  -0.2880 
  6 C        0.0080    -3.4850    -0.5050 C.3   1 <1>   0.2800 
  7 C       -1.0250    -0.9530    -0.5940 C.3   1 <1>  -0.0800 
  8 C        2.8940    -2.1460     0.2100 C.2   1 <1>  -0.2880 
  9 C        1.8850     0.3240     0.4770 C.3   1 <1>  -0.1950 
 10 C       -2.0040    -3.9440     0.7800 C.2   1 <1>  -0.2760 
 11 O        0.2660    -3.2240    -1.8780 O.3   1 <1>  -0.6800 
 12 C        1.2930    -4.2050     0.0920 C.3   1 <1>   0.3380 
 13 C       -1.1860    -4.4930    -0.3630 C.3   1 <1>   0.3380 
 14 C       -0.8360     0.4460     0.0910 C.3   1 <1>  -0.0650 
 15 C       -2.5050    -1.0860    -1.0140 C.3   1 <1>  -0.2400 
 16 C        2.6760    -3.4720     0.1750 C.2   1 <1>  -0.2760 
 17 C        1.6770     1.4400    -0.5110 C.3   1 <1>  -0.1900 
 18 C        0.5620     1.0790     0.4190 C.3   1 <1>  -0.1950 
 19 C       -3.1160    -4.7890     1.3720 C.3   1 <1>  -0.1020 
 20 O        1.5100    -5.3530    -0.6630 O.3   1 <1>  -0.6800 
 21 O       -1.9730    -4.5100    -1.5030 O.3   1 <1>  -0.6800 
 22 C        3.8830    -4.4040     0.3000 C.3   1 <1>  -0.1020 
 23 C        1.5640     1.2330    -2.0290 C.3   1 <1>  -0.1450 
 24 C        2.4350     2.7420    -0.2220 C.3   1 <1>  -0.1450 
 25 H        1.4810    -1.1980    -0.8480 H     1 <1>   0.0800 
 26 H       -1.9990    -2.0970     1.9200 H     1 <1>   0.1500 
 27 H       -0.5010    -0.9130    -1.5250 H     1 <1>   0.0800 
 28 H        3.8630    -1.6800     0.2750 H     1 <1>   0.1500 
 29 H        2.4770     0.5020     1.3590 H     1 <1>   0.1000 
 30 H        1.1650    -2.8470    -1.9800 H     1 <1>   0.4000 
 31 H        1.0560    -4.5430     1.0880 H     1 <1>   0.0800 
 32 H       -0.8700    -5.5010    -0.1540 H     1 <1>   0.0800 
 33 H       -1.3650     0.3900     1.0270 H     1 <1>   0.0800 
 34 H       -1.3600     1.1810    -0.4950 H     1 <1>   0.0800 
 35 H       -3.1620    -1.0270    -0.1640 H     1 <1>   0.0800 
 36 H       -2.6770    -2.0220    -1.5120 H     1 <1>   0.0800 
 37 H       -2.7720    -0.3000    -1.6980 H     1 <1>   0.0800 
 38 H        0.4140     1.7950     1.2110 H     1 <1>   0.1000 
 39 H       -3.8440    -5.0170     0.6130 H     1 <1>   0.0800 
 40 H       -3.6040    -4.2580     2.1700 H     1 <1>   0.0800 
 41 H       -2.7190    -5.7100     1.7600 H     1 <1>   0.0800 
 42 H        1.5700    -5.1060    -1.6070 H     1 <1>   0.4000 
 43 H       -1.4400    -4.0830    -2.2070 H     1 <1>   0.4000 
 44 H        3.7280    -5.0990     1.1060 H     1 <1>   0.0800 
 45 H        4.7800    -3.8480     0.5070 H     1 <1>   0.0800 
 46 H        4.0390    -4.9570    -0.6080 H     1 <1>   0.0800 
 47 H        1.0710     2.0800    -2.4730 H     1 <1>   0.0800 
 48 H        1.0110     0.3610    -2.3010 H     1 <1>   0.0800 
 49 H        2.5470     1.1520    -2.4590 H     1 <1>   0.0800 
 50 H        1.9140     3.5790    -0.6520 H     1 <1>   0.0800 
 51 H        3.4240     2.6970    -0.6410 H     1 <1>   0.0800 
 52 H        2.5260     2.9110     0.8370 H     1 <1>   0.0800 
@<TRIPOS>BOND
  1   1   2  2   
  2   2   3  1   
  3   2   4  1   
  4   3   5  1   
  5   3   6  1   
  6   3   7  1   
  7   4   8  1   
  8   4   9  1   
  9   4  25  1   
 10   5  10  2   
 11   5  26  1   
 12   6  11  1   
 13   6  12  1   
 14   6  13  1   
 15   7  14  1   
 16   7  15  1   
 17   7  27  1   
 18   8  16  2   
 19   8  28  1   
 20   9  17  1   
 21   9  18  1   
 22   9  29  1   
 23  10  13  1   
 24  10  19  1   
 25  11  30  1   
 26  12  16  1   
 27  12  20  1   
 28  12  31  1   
 29  13  21  1   
 30  13  32  1   
 31  14  18  1   
 32  14  33  1   
 33  14  34  1   
 34  15  35  1   
 35  15  36  1   
 36  15  37  1   
 37  16  22  1   
 38  17  18  1   
 39  17  23  1   
 40  17  24  1   
 41  18  38  1   
 42  19  39  1   
 43  19  40  1   
 44  19  41  1   
 45  20  42  1   
 46  21  43  1   
 47  22  44  1   
 48  22  45  1   
 49  22  46  1   
 50  23  47  1   
 51  23  48  1   
 52  23  49  1   
 53  24  50  1   
 54  24  51  1   
 55  24  52  1   
@<TRIPOS>SUBSTRUCTURE
  1 ****   3 GROUP 4 **** **** 0

# MOE 2024.06 (io_trps.svl 2023.06)
