@<TRIPOS>MOLECULE
NONAME
43 45 1 0 0 
SMALL
USER_CHARGES


@<TRIPOS>ATOM
  1 CL      -2.6400     0.5200    -1.8830 Cl    1 <1>  -0.1770 
  2 C       -2.9700    -0.7040    -0.6700 C.ar  1 <1>   0.1770 
  3 C       -3.1370    -0.4310     0.6940 C.ar  1 <1>   0.0820 
  4 C       -3.0580    -1.9960    -1.1480 C.ar  1 <1>  -0.1500 
  5 O       -3.0820     0.7730     1.3210 O.3   1 <1>  -0.3630 
  6 C       -3.3930    -1.5030     1.5360 C.ar  1 <1>  -0.1500 
  7 C       -3.3120    -3.0790    -0.3060 C.ar  1 <1>   0.0860 
  8 C       -2.8570     2.0070     0.6810 C.3   1 <1>   0.0400 
  9 C       -3.4810    -2.7940     1.0510 C.ar  1 <1>  -0.1500 
 10 C       -3.3970    -4.4300    -0.8360 C.2   1 <1>   0.5440 
 11 O       -3.5680    -4.6230    -2.0240 O.2   1 <1>  -0.5700 
 12 N       -3.2970    -5.5200    -0.0210 N.am  1 <1>  -0.7300 
 13 C       -3.3550    -6.9330    -0.4650 C.3   1 <1>   0.2200 
 14 C       -4.7050    -7.5590    -0.1400 C.3   1 <1>  -0.0800 
 15 C       -2.4450    -7.7610     0.4320 C.3   1 <1>   0.1200 
 16 C       -4.5420    -7.9990     1.3200 C.3   1 <1>   0.1200 
 17 C       -5.9380    -6.6750    -0.4040 C.3   1 <1>  -0.0170 
 18 O       -3.1730    -7.9460     1.6070 O.3   1 <1>  -0.5600 
 19 C       -7.2230    -7.4370    -0.1250 C.ar  1 <1>  -0.1430 
 20 C       -7.9220    -7.2910     1.0560 C.ar  1 <1>  -0.1500 
 21 C       -7.7560    -8.3190    -1.0430 C.ar  1 <1>  -0.1500 
 22 C       -9.0840    -8.0180     1.2580 C.ar  1 <1>   0.1600 
 23 C       -8.9260    -8.9970    -0.7420 C.ar  1 <1>   0.1600 
 24 N       -9.6010    -8.8700     0.3880 N.ar  1 <1>  -0.6200 
 25 H       -2.9260    -2.1720    -2.2020 H     1 <1>   0.1500 
 26 H       -3.5270    -1.3110     2.5870 H     1 <1>   0.1500 
 27 H       -2.8810     2.7780     1.4290 H     1 <1>   0.0800 
 28 H       -3.6380     2.1770    -0.0380 H     1 <1>   0.0800 
 29 H       -1.8890     1.9880     0.2130 H     1 <1>   0.0800 
 30 H       -3.6900    -3.5890     1.7440 H     1 <1>   0.1500 
 31 H       -3.1270    -5.4160     0.9810 H     1 <1>   0.3700 
 32 H       -3.0930    -7.0200    -1.5060 H     1 <1>   0.0800 
 33 H       -4.8020    -8.4510    -0.7340 H     1 <1>   0.0800 
 34 H       -1.5130    -7.2700     0.6520 H     1 <1>   0.0800 
 35 H       -2.2590    -8.7290     0.0010 H     1 <1>   0.0800 
 36 H       -4.8940    -9.0040     1.4740 H     1 <1>   0.0800 
 37 H       -5.0420    -7.3290     1.9970 H     1 <1>   0.0800 
 38 H       -5.9310    -6.3510    -1.4310 H     1 <1>   0.0800 
 39 H       -5.9080    -5.7930     0.2100 H     1 <1>   0.0800 
 40 H       -7.5780    -6.6200     1.8210 H     1 <1>   0.1500 
 41 H       -7.2740    -8.4840    -1.9890 H     1 <1>   0.1500 
 42 H       -9.6160    -7.8910     2.1860 H     1 <1>   0.1500 
 43 H       -9.3270    -9.6810    -1.4710 H     1 <1>   0.1500 
@<TRIPOS>BOND
  1   1   2  1   
  2   2   3  ar  
  3   2   4  ar  
  4   3   5  1   
  5   3   6  ar  
  6   4   7  ar  
  7   4  25  1   
  8   5   8  1   
  9   6   9  ar  
 10   6  26  1   
 11   7   9  ar  
 12   7  10  1   
 13   8  27  1   
 14   8  28  1   
 15   8  29  1   
 16   9  30  1   
 17  10  11  2   
 18  10  12  am  
 19  12  13  1   
 20  12  31  1   
 21  13  14  1   
 22  13  15  1   
 23  13  32  1   
 24  14  16  1   
 25  14  17  1   
 26  14  33  1   
 27  15  18  1   
 28  15  34  1   
 29  15  35  1   
 30  16  18  1   
 31  16  36  1   
 32  16  37  1   
 33  17  19  1   
 34  17  38  1   
 35  17  39  1   
 36  19  20  ar  
 37  19  21  ar  
 38  20  22  ar  
 39  20  40  1   
 40  21  23  ar  
 41  21  41  1   
 42  22  24  ar  
 43  22  42  1   
 44  23  24  ar  
 45  23  43  1   
@<TRIPOS>SUBSTRUCTURE
  1 ****  12 GROUP 4 **** **** 0

# MOE 2024.06 (io_trps.svl 2023.06)
