@<TRIPOS>MOLECULE
NONAME
55 57 1 0 0 
SMALL
USER_CHARGES


@<TRIPOS>ATOM
  1 S       -2.0720    -0.3540    -0.9310 S.3   1 <1>  -0.0800 
  2 C       -0.8270     0.7940    -0.5090 C.2   1 <1>   0.1980 
  3 C       -1.2530    -1.5500     0.0310 C.2   1 <1>  -0.1400 
  4 N        0.0860     0.3360     0.2550 N.2   1 <1>  -0.5650 
  5 C       -0.9390     2.2010    -1.0720 C.3   1 <1>   0.5230 
  6 C       -0.1510    -0.9940     0.5660 C.2   1 <1>   0.0460 
  7 C       -1.8930    -2.9250     0.0920 C.3   1 <1>  -0.0600 
  8 N        0.3410     2.9330    -0.7720 N.4   1 <1>  -0.9590 
  9 C        0.8590    -1.6640     1.4760 C.3   1 <1>  -0.0590 
 10 C        0.1570     4.4050    -0.6790 C.3   1 <1>   0.3430 
 11 C        1.4260     2.4980    -1.6960 C.3   1 <1>   0.3430 
 12 C        1.4730     5.0580    -0.2510 C.3   1 <1>  -0.1600 
 13 C        2.7470     3.1370    -1.2690 C.3   1 <1>  -0.1600 
 14 C        2.6170     4.6610    -1.1960 C.3   1 <1>   0.4230 
 15 N        3.9250     5.2740    -0.8100 N.4   1 <1>  -0.9590 
 16 C        4.3900     4.9950     0.6030 C.3   1 <1>   0.3430 
 17 C        3.9590     6.7620    -1.0700 C.3   1 <1>   0.3430 
 18 C        5.7620     5.6350     0.8960 C.3   1 <1>   0.1100 
 19 C        5.3350     7.3790    -0.7490 C.3   1 <1>   0.1100 
 20 N        5.7410     7.0870     0.6420 N.3   1 <1>  -0.8100 
 21 C        7.0500     7.6930     0.9790 C.3   1 <1>   0.1100 
 22 C        6.9560     9.2150     1.1450 C.3   1 <1>   0.1200 
 23 O        8.2020     9.7090     1.4970 O.3   1 <1>  -0.6800 
 24 H       -1.7730     2.6900    -0.5960 H     1 <1>   0.0800 
 25 H       -1.1180     2.1600    -2.1340 H     1 <1>   0.0800 
 26 H       -1.9590    -3.3430    -0.8970 H     1 <1>   0.0800 
 27 H       -2.8840    -2.8490     0.5030 H     1 <1>   0.0800 
 28 H       -1.3170    -3.5910     0.7070 H     1 <1>   0.0800 
 29 H        0.5820     2.5400     0.1590 H     1 <1>   0.4500 
 30 H        0.5910    -2.6860     1.6650 H     1 <1>   0.0800 
 31 H        0.9030    -1.1430     2.4150 H     1 <1>   0.0800 
 32 H        1.8310    -1.6420     1.0200 H     1 <1>   0.0800 
 33 H       -0.6120     4.6360     0.0430 H     1 <1>   0.0800 
 34 H       -0.1530     4.7950    -1.6360 H     1 <1>   0.0800 
 35 H        1.1850     2.7870    -2.7080 H     1 <1>   0.0800 
 36 H        1.5220     1.4220    -1.6680 H     1 <1>   0.0800 
 37 H        1.6820     4.7600     0.7600 H     1 <1>   0.0800 
 38 H        1.3340     6.1240    -0.2640 H     1 <1>   0.0800 
 39 H        3.4990     2.8690    -1.9910 H     1 <1>   0.0800 
 40 H        3.0300     2.7220    -0.3180 H     1 <1>   0.0800 
 41 H        2.3650     5.0110    -2.1860 H     1 <1>   0.0800 
 42 H        4.6530     4.8800    -1.4210 H     1 <1>   0.4500 
 43 H        4.4620     3.9330     0.7690 H     1 <1>   0.0800 
 44 H        3.6820     5.3970     1.3080 H     1 <1>   0.0800 
 45 H        3.2240     7.2580    -0.4570 H     1 <1>   0.0800 
 46 H        3.7210     6.9630    -2.1020 H     1 <1>   0.0800 
 47 H        6.5240     5.1640     0.2970 H     1 <1>   0.0800 
 48 H        6.0050     5.4630     1.9320 H     1 <1>   0.0800 
 49 H        5.2660     8.4440    -0.8880 H     1 <1>   0.0800 
 50 H        6.0750     7.0060    -1.4380 H     1 <1>   0.0800 
 51 H        7.7740     7.4580     0.2150 H     1 <1>   0.0800 
 52 H        7.3960     7.2840     1.9130 H     1 <1>   0.0800 
 53 H        6.2550     9.4790     1.9180 H     1 <1>   0.0800 
 54 H        6.6780     9.6890     0.2210 H     1 <1>   0.0800 
 55 H        8.4200     9.4880     2.4240 H     1 <1>   0.4000 
@<TRIPOS>BOND
  1   1   2  1   
  2   1   3  1   
  3   2   4  2   
  4   2   5  1   
  5   3   6  2   
  6   3   7  1   
  7   4   6  1   
  8   5   8  1   
  9   5  24  1   
 10   5  25  1   
 11   6   9  1   
 12   7  26  1   
 13   7  27  1   
 14   7  28  1   
 15   8  10  1   
 16   8  11  1   
 17   8  29  1   
 18   9  30  1   
 19   9  31  1   
 20   9  32  1   
 21  10  12  1   
 22  10  33  1   
 23  10  34  1   
 24  11  13  1   
 25  11  35  1   
 26  11  36  1   
 27  12  14  1   
 28  12  37  1   
 29  12  38  1   
 30  13  14  1   
 31  13  39  1   
 32  13  40  1   
 33  14  15  1   
 34  14  41  1   
 35  15  16  1   
 36  15  17  1   
 37  15  42  1   
 38  16  18  1   
 39  16  43  1   
 40  16  44  1   
 41  17  19  1   
 42  17  45  1   
 43  17  46  1   
 44  18  20  1   
 45  18  47  1   
 46  18  48  1   
 47  19  20  1   
 48  19  49  1   
 49  19  50  1   
 50  20  21  1   
 51  21  22  1   
 52  21  51  1   
 53  21  52  1   
 54  22  23  1   
 55  22  53  1   
 56  22  54  1   
 57  23  55  1   
@<TRIPOS>SUBSTRUCTURE
  1 ****  13 GROUP 4 **** **** 0

# MOE 2024.06 (io_trps.svl 2023.06)
