@<TRIPOS>MOLECULE
NONAME
48 51 1 0 0 
SMALL
USER_CHARGES


@<TRIPOS>ATOM
  1 S        1.5740    -0.9700     0.4970 S.3   1 <1>  -0.0800 
  2 C        0.3610    -1.4710    -0.6590 C.2   1 <1>  -0.0450 
  3 C        2.5350    -2.3630     0.0800 C.2   1 <1>   0.2280 
  4 C        0.8080    -2.6100    -1.2390 C.2   1 <1>   0.0460 
  5 C       -0.8280    -0.6720    -0.8010 C.2   1 <1>   0.7150 
  6 N        2.0200    -3.1100    -0.8130 N.2   1 <1>  -0.5650 
  7 C        0.1170    -3.3920    -2.3380 C.3   1 <1>  -0.0590 
  8 O       -0.7310     0.5200    -1.0290 O.2   1 <1>  -0.5700 
  9 N       -2.0820    -1.2310    -0.6750 N.am  1 <1>  -0.6600 
 10 C       -3.3210    -0.4450    -0.9660 C.3   1 <1>   0.1400 
 11 C       -2.3120    -2.5360     0.0200 C.3   1 <1>   0.1400 
 12 C       -4.0640    -0.0710     0.3370 C.3   1 <1>   0.1430 
 13 C       -3.6510    -2.5560     0.7790 C.3   1 <1>  -0.1600 
 14 C       -5.5030     0.2410    -0.0390 C.ar  1 <1>   0.1670 
 15 C       -3.9570    -1.1880     1.4100 C.3   1 <1>  -0.1600 
 16 C       -3.5770     1.2900     0.9000 C.3   1 <1>  -0.1600 
 17 N       -6.4190    -0.6450    -0.3430 N.ar  1 <1>  -0.6200 
 18 C       -5.7380     1.5830    -0.0460 C.ar  1 <1>  -0.1430 
 19 C       -4.5070     2.3710     0.3240 C.3   1 <1>  -0.0170 
 20 C       -7.6180    -0.1430    -0.6490 C.ar  1 <1>   0.7200 
 21 C       -6.9990     2.0070    -0.3780 C.ar  1 <1>   0.1600 
 22 N       -7.9470     1.1520    -0.6800 N.ar  1 <1>  -0.6200 
 23 N       -8.6120    -1.0500    -0.9660 N.pl3 1 <1>  -0.8380 
 24 C       -8.3200    -2.4850    -1.2340 C.3   1 <1>   0.1290 
 25 C      -10.0460    -0.6560    -1.0400 C.3   1 <1>   0.1290 
 26 H        3.4710    -2.4880     0.5950 H     1 <1>   0.1500 
 27 H       -0.7870    -2.9030    -2.6500 H     1 <1>   0.0800 
 28 H       -0.1160    -4.3800    -1.9870 H     1 <1>   0.0800 
 29 H        0.7740    -3.4730    -3.1850 H     1 <1>   0.0800 
 30 H       -3.9650    -1.0540    -1.5780 H     1 <1>   0.0800 
 31 H       -3.0940     0.4410    -1.5330 H     1 <1>   0.0800 
 32 H       -1.5160    -2.7030     0.7260 H     1 <1>   0.0800 
 33 H       -2.2960    -3.3370    -0.6990 H     1 <1>   0.0800 
 34 H       -3.6170    -3.3140     1.5410 H     1 <1>   0.0800 
 35 H       -4.4450    -2.8210     0.1000 H     1 <1>   0.0800 
 36 H       -4.8690    -1.2380     1.9790 H     1 <1>   0.0800 
 37 H       -3.1570    -0.9570     2.0920 H     1 <1>   0.0800 
 38 H       -2.5440     1.4840     0.6690 H     1 <1>   0.0800 
 39 H       -3.6910     1.2970     1.9700 H     1 <1>   0.0800 
 40 H       -4.0770     2.8100    -0.5590 H     1 <1>   0.0800 
 41 H       -4.7220     3.1360     1.0490 H     1 <1>   0.0800 
 42 H       -7.2330     3.0570    -0.3970 H     1 <1>   0.1500 
 43 H       -7.3380    -2.5970    -1.6590 H     1 <1>   0.0800 
 44 H       -9.0360    -2.8850    -1.9300 H     1 <1>   0.0800 
 45 H       -8.3680    -3.0390    -0.3130 H     1 <1>   0.0800 
 46 H      -10.2470     0.1640    -0.3710 H     1 <1>   0.0800 
 47 H      -10.6730    -1.4820    -0.7580 H     1 <1>   0.0800 
 48 H      -10.2830    -0.3530    -2.0440 H     1 <1>   0.0800 
@<TRIPOS>BOND
  1   1   2  1   
  2   1   3  1   
  3   2   4  2   
  4   2   5  1   
  5   3   6  2   
  6   3  26  1   
  7   4   6  1   
  8   4   7  1   
  9   5   8  2   
 10   5   9  am  
 11   7  27  1   
 12   7  28  1   
 13   7  29  1   
 14   9  10  1   
 15   9  11  1   
 16  10  12  1   
 17  10  30  1   
 18  10  31  1   
 19  11  13  1   
 20  11  32  1   
 21  11  33  1   
 22  12  14  1   
 23  12  15  1   
 24  12  16  1   
 25  13  15  1   
 26  13  34  1   
 27  13  35  1   
 28  14  17  ar  
 29  14  18  ar  
 30  15  36  1   
 31  15  37  1   
 32  16  19  1   
 33  16  38  1   
 34  16  39  1   
 35  17  20  ar  
 36  18  19  1   
 37  18  21  ar  
 38  19  40  1   
 39  19  41  1   
 40  20  22  ar  
 41  20  23  1   
 42  21  22  ar  
 43  21  42  1   
 44  23  24  1   
 45  23  25  1   
 46  24  43  1   
 47  24  44  1   
 48  24  45  1   
 49  25  46  1   
 50  25  47  1   
 51  25  48  1   
@<TRIPOS>SUBSTRUCTURE
  1 ****  10 GROUP 4 **** **** 0

# MOE 2024.06 (io_trps.svl 2023.06)
