@<TRIPOS>MOLECULE
NONAME
41 43 1 0 0 
SMALL
USER_CHARGES


@<TRIPOS>ATOM
  1 CL       0.7450     0.8930    -0.4360 Cl    1 <1>  -0.1770 
  2 C        2.0230    -0.2410    -0.0780 C.ar  1 <1>   0.1770 
  3 C        3.1470     0.1720     0.6270 C.ar  1 <1>   0.0860 
  4 C        1.8850    -1.5390    -0.5290 C.ar  1 <1>  -0.1500 
  5 C        3.3060     1.5300     1.0910 C.2   1 <1>   0.5440 
  6 C        4.1380    -0.7780     0.8680 C.ar  1 <1>  -0.1500 
  7 C        2.8870    -2.4620    -0.2840 C.ar  1 <1>  -0.1500 
  8 O        3.0030     1.7890     2.2400 O.2   1 <1>  -0.5700 
  9 N        3.8320     2.5200     0.2820 N.am  1 <1>  -0.6600 
 10 C        4.0310    -2.0900     0.4180 C.ar  1 <1>  -0.1430 
 11 C        4.3130     3.8050     0.8870 C.3   1 <1>   0.1400 
 12 C        4.1480     2.3020    -1.1660 C.3   1 <1>   0.1400 
 13 C        5.1730    -3.0810     0.7020 C.3   1 <1>   1.1640 
 14 C        5.8460     4.0050     0.8530 C.3   1 <1>   0.2200 
 15 C        5.6470     2.3330    -1.5250 C.3   1 <1>  -0.0190 
 16 F        6.3170    -2.6830     0.1610 F     1 <1>  -0.3400 
 17 F        5.4020    -3.2270     2.0000 F     1 <1>  -0.3400 
 18 F        4.9410    -4.2980     0.2250 F     1 <1>  -0.3400 
 19 N        6.2850     4.5060    -0.4810 N.am  1 <1>  -0.6600 
 20 C        6.6990     2.7930     1.3130 C.3   1 <1>   0.1200 
 21 C        6.1580     3.7530    -1.6110 C.2   1 <1>   0.5690 
 22 C        6.6050     1.4630    -0.6880 C.3   1 <1>   0.1200 
 23 C        6.8130     5.9000    -0.5170 C.3   1 <1>   0.0600 
 24 O        6.4100     1.5690     0.6890 O.3   1 <1>  -0.5600 
 25 O        6.4480     4.1790    -2.7040 O.2   1 <1>  -0.5700 
 26 H        0.9980    -1.8220    -1.0700 H     1 <1>   0.1500 
 27 H        5.0090    -0.4650     1.4210 H     1 <1>   0.1500 
 28 H        2.7640    -3.4710    -0.6460 H     1 <1>   0.1500 
 29 H        3.8370     4.6280     0.3840 H     1 <1>   0.0800 
 30 H        4.0050     3.8560     1.9160 H     1 <1>   0.0800 
 31 H        3.7490     1.3590    -1.4900 H     1 <1>   0.0800 
 32 H        3.6400     3.0610    -1.7380 H     1 <1>   0.0800 
 33 H        6.0520     4.7900     1.5590 H     1 <1>   0.0800 
 34 H        5.7140     1.9510    -2.5270 H     1 <1>   0.0800 
 35 H        6.5250     2.6380     2.3630 H     1 <1>   0.0800 
 36 H        7.7450     3.0040     1.1770 H     1 <1>   0.0800 
 37 H        7.6310     1.7070    -0.9070 H     1 <1>   0.0800 
 38 H        6.4480     0.4290    -0.9380 H     1 <1>   0.0800 
 39 H        7.6670     5.9840     0.1310 H     1 <1>   0.0800 
 40 H        6.0500     6.5870    -0.1940 H     1 <1>   0.0800 
 41 H        7.1150     6.1700    -1.5150 H     1 <1>   0.0800 
@<TRIPOS>BOND
  1   1   2  1   
  2   2   3  ar  
  3   2   4  ar  
  4   3   5  1   
  5   3   6  ar  
  6   4   7  ar  
  7   4  26  1   
  8   5   8  2   
  9   5   9  am  
 10   6  10  ar  
 11   6  27  1   
 12   7  10  ar  
 13   7  28  1   
 14   9  11  1   
 15   9  12  1   
 16  10  13  1   
 17  11  14  1   
 18  11  29  1   
 19  11  30  1   
 20  12  15  1   
 21  12  31  1   
 22  12  32  1   
 23  13  16  1   
 24  13  17  1   
 25  13  18  1   
 26  14  19  1   
 27  14  20  1   
 28  14  33  1   
 29  15  21  1   
 30  15  22  1   
 31  15  34  1   
 32  19  21  am  
 33  19  23  1   
 34  20  24  1   
 35  20  35  1   
 36  20  36  1   
 37  21  25  2   
 38  22  24  1   
 39  22  37  1   
 40  22  38  1   
 41  23  39  1   
 42  23  40  1   
 43  23  41  1   
@<TRIPOS>SUBSTRUCTURE
  1 ****   3 GROUP 4 **** **** 0

# MOE 2024.06 (io_trps.svl 2023.06)
