@<TRIPOS>MOLECULE
NONAME
53 56 1 0 0 
SMALL
USER_CHARGES


@<TRIPOS>ATOM
  1 O       -2.0610     0.5220     2.2970 O.2   1 <1>  -0.5700 
  2 C       -2.2310     0.9590     1.1730 C.2   1 <1>   0.5440 
  3 N       -2.6360     0.1030     0.1710 N.am  1 <1>  -0.6600 
  4 C       -2.0240     2.3680     0.9190 C.ar  1 <1>   0.0860 
  5 C       -2.5210    -1.3860     0.3660 C.3   1 <1>   0.3640 
  6 C       -3.4220     0.6160    -0.9940 C.3   1 <1>   0.1400 
  7 C       -2.6880     3.3440     1.6600 C.ar  1 <1>  -0.1500 
  8 C       -1.1540     2.8110    -0.0780 C.ar  1 <1>  -0.1500 
  9 C       -1.1230    -1.8500    -0.0540 C.ar  1 <1>  -0.1430 
 10 C       -3.6000    -2.2410    -0.3670 C.3   1 <1>   0.2000 
 11 C       -4.0300    -0.4930    -1.8610 C.3   1 <1>   0.1200 
 12 C       -2.5070     4.6900     1.4100 C.ar  1 <1>  -0.1500 
 13 C       -0.9730     4.1570    -0.3290 C.ar  1 <1>  -0.1500 
 14 C       -0.5320    -1.4370    -1.2420 C.ar  1 <1>  -0.1500 
 15 C       -0.4240    -2.7190     0.7720 C.ar  1 <1>  -0.1500 
 16 O       -4.5680    -1.4830    -1.0480 O.3   1 <1>  -0.5600 
 17 C       -4.3570    -3.1670     0.5960 C.3   1 <1>   0.1200 
 18 C       -1.6410     5.1320     0.4090 C.ar  1 <1>   0.1000 
 19 C        0.7270    -1.8900    -1.5990 C.ar  1 <1>  -0.1500 
 20 C        0.8340    -3.1730     0.4180 C.ar  1 <1>  -0.1500 
 21 O       -3.4890    -4.0870     1.1810 O.3   1 <1>  -0.6800 
 22 N       -1.4450     6.4870     0.1360 N.pl3 1 <1>  -0.8380 
 23 C        1.4110    -2.7590    -0.7700 C.ar  1 <1>  -0.1500 
 24 C       -0.1360     7.0040    -0.3370 C.3   1 <1>   0.2090 
 25 C       -2.2110     7.5730     0.7930 C.3   1 <1>   0.2090 
 26 C       -0.0520     8.4330     0.1860 C.3   1 <1>  -0.1600 
 27 C       -1.5030     8.8560     0.3800 C.3   1 <1>  -0.1600 
 28 H       -2.6210    -1.5910     1.4170 H     1 <1>   0.0800 
 29 H       -4.2220     1.2330    -0.6230 H     1 <1>   0.0800 
 30 H       -2.7930     1.2340    -1.6110 H     1 <1>   0.0800 
 31 H       -3.3520     3.0280     2.4450 H     1 <1>   0.1500 
 32 H       -0.6140     2.0810    -0.6540 H     1 <1>   0.1500 
 33 H       -3.1200    -2.8560    -1.1080 H     1 <1>   0.0800 
 34 H       -3.2930    -0.9330    -2.5100 H     1 <1>   0.0800 
 35 H       -4.8250    -0.0940    -2.4670 H     1 <1>   0.0800 
 36 H       -3.0440     5.4010     2.0050 H     1 <1>   0.1500 
 37 H       -0.3070     4.4600    -1.1140 H     1 <1>   0.1500 
 38 H       -1.0440    -0.7570    -1.8960 H     1 <1>   0.1500 
 39 H       -0.8600    -3.0470     1.7010 H     1 <1>   0.1500 
 40 H       -5.1190    -3.7150     0.0700 H     1 <1>   0.0800 
 41 H       -4.8080    -2.5910     1.3850 H     1 <1>   0.0800 
 42 H        1.1750    -1.5640    -2.5210 H     1 <1>   0.1500 
 43 H        1.3640    -3.8450     1.0690 H     1 <1>   0.1500 
 44 H       -3.1340    -4.7070     0.5130 H     1 <1>   0.4000 
 45 H        2.3900    -3.1110    -1.0440 H     1 <1>   0.1500 
 46 H        0.6770     6.4040     0.0370 H     1 <1>   0.0800 
 47 H       -0.1280     6.9990    -1.4140 H     1 <1>   0.0800 
 48 H       -3.2390     7.5650     0.4730 H     1 <1>   0.0800 
 49 H       -2.1560     7.4550     1.8620 H     1 <1>   0.0800 
 50 H        0.4570     8.4260     1.1340 H     1 <1>   0.0800 
 51 H        0.4770     9.0770    -0.4940 H     1 <1>   0.0800 
 52 H       -1.9160     9.1940    -0.5540 H     1 <1>   0.0800 
 53 H       -1.6140     9.6300     1.1180 H     1 <1>   0.0800 
@<TRIPOS>BOND
  1   1   2  2   
  2   2   3  am  
  3   2   4  1   
  4   3   5  1   
  5   3   6  1   
  6   4   7  ar  
  7   4   8  ar  
  8   5   9  1   
  9   5  10  1   
 10   5  28  1   
 11   6  11  1   
 12   6  29  1   
 13   6  30  1   
 14   7  12  ar  
 15   7  31  1   
 16   8  13  ar  
 17   8  32  1   
 18   9  14  ar  
 19   9  15  ar  
 20  10  16  1   
 21  10  17  1   
 22  10  33  1   
 23  11  16  1   
 24  11  34  1   
 25  11  35  1   
 26  12  18  ar  
 27  12  36  1   
 28  13  18  ar  
 29  13  37  1   
 30  14  19  ar  
 31  14  38  1   
 32  15  20  ar  
 33  15  39  1   
 34  17  21  1   
 35  17  40  1   
 36  17  41  1   
 37  18  22  1   
 38  19  23  ar  
 39  19  42  1   
 40  20  23  ar  
 41  20  43  1   
 42  21  44  1   
 43  22  24  1   
 44  22  25  1   
 45  23  45  1   
 46  24  26  1   
 47  24  46  1   
 48  24  47  1   
 49  25  27  1   
 50  25  48  1   
 51  25  49  1   
 52  26  27  1   
 53  26  50  1   
 54  26  51  1   
 55  27  52  1   
 56  27  53  1   
@<TRIPOS>SUBSTRUCTURE
  1 ****   2 GROUP 4 **** **** 0

# MOE 2024.06 (io_trps.svl 2023.06)
