@<TRIPOS>MOLECULE
NONAME
56 58 1 0 0 
SMALL
USER_CHARGES


@<TRIPOS>ATOM
  1 O        1.4070    -1.9720     0.1310 O.3   1 <1>  -0.3630 
  2 C        0.5540    -2.9760     0.4660 C.ar  1 <1>   0.0830 
  3 C        1.6400    -1.5640    -1.1980 C.3   1 <1>   0.2000 
  4 C        0.5160    -3.3300     1.8050 C.ar  1 <1>  -0.1500 
  5 C       -0.2620    -3.6490    -0.4400 C.ar  1 <1>  -0.1500 
  6 C        2.5870    -2.5630    -1.8670 C.3   1 <1>  -0.2400 
  7 C        2.2660    -0.1730    -1.1350 C.3   1 <1>  -0.2400 
  8 C       -0.3150    -4.3450     2.2400 C.ar  1 <1>  -0.1500 
  9 C       -1.0950    -4.6670    -0.0070 C.ar  1 <1>  -0.1500 
 10 C       -1.1210    -5.0240     1.3390 C.ar  1 <1>   0.0830 
 11 O       -1.8970    -6.0180     1.8430 O.3   1 <1>  -0.3630 
 12 C       -2.5610    -6.9160     0.9880 C.3   1 <1>   0.1200 
 13 C       -3.1860    -8.0070     1.8590 C.3   1 <1>   0.3430 
 14 N       -3.7760    -9.1020     1.0340 N.4   1 <1>  -0.9590 
 15 C       -4.9300    -8.7340     0.1610 C.3   1 <1>   0.3430 
 16 C       -4.1830   -10.3120     1.7850 C.3   1 <1>   0.3430 
 17 C       -5.7330   -10.0270    -0.0410 C.3   1 <1>   0.2000 
 18 C       -5.0320   -11.1070     0.7940 C.3   1 <1>  -0.0800 
 19 O       -7.0250    -9.8470     0.4390 O.3   1 <1>  -0.6800 
 20 C       -4.1890   -12.0740    -0.0720 C.3   1 <1>   0.0210 
 21 C       -2.8610   -11.5360    -0.5970 C.2   1 <1>   0.1080 
 22 N       -2.7140   -10.4160    -1.2420 N.2   1 <1>  -0.7070 
 23 C       -1.6560   -12.2140    -0.4530 C.2   1 <1>  -0.1500 
 24 N       -1.4010   -10.3820    -1.5750 N.pl3 1 <1>   0.3000 
 25 C       -0.7430   -11.4490    -1.0840 C.2   1 <1>  -0.3320 
 26 C        0.7450   -11.6920    -1.2720 C.3   1 <1>  -0.0600 
 27 H        0.6980    -1.5000    -1.7150 H     1 <1>   0.0800 
 28 H        1.1440    -2.8030     2.5010 H     1 <1>   0.1500 
 29 H       -0.2620    -3.3940    -1.4820 H     1 <1>   0.1500 
 30 H        3.5140    -2.6160    -1.3230 H     1 <1>   0.0800 
 31 H        2.7980    -2.2510    -2.8730 H     1 <1>   0.0800 
 32 H        2.1470    -3.5420    -1.9040 H     1 <1>   0.0800 
 33 H        3.1940    -0.2050    -0.5910 H     1 <1>   0.0800 
 34 H        1.5920     0.5090    -0.6490 H     1 <1>   0.0800 
 35 H        2.4600     0.1890    -2.1280 H     1 <1>   0.0800 
 36 H       -0.3380    -4.6140     3.2800 H     1 <1>   0.1500 
 37 H       -1.7140    -5.1590    -0.7320 H     1 <1>   0.1500 
 38 H       -3.3140    -6.3700     0.4480 H     1 <1>   0.0800 
 39 H       -1.8320    -7.3370     0.3180 H     1 <1>   0.0800 
 40 H       -3.9460    -7.5690     2.4860 H     1 <1>   0.0800 
 41 H       -2.4140    -8.4160     2.4900 H     1 <1>   0.0800 
 42 H       -3.0630    -9.4550     0.3550 H     1 <1>   0.4500 
 43 H       -5.5500    -7.9910     0.6330 H     1 <1>   0.0800 
 44 H       -4.5750    -8.3670    -0.7880 H     1 <1>   0.0800 
 45 H       -3.3270   -10.8780     2.1180 H     1 <1>   0.0800 
 46 H       -4.7820   -10.0290     2.6350 H     1 <1>   0.0800 
 47 H       -5.8030   -10.2820    -1.0850 H     1 <1>   0.0800 
 48 H       -5.7560   -11.7030     1.3230 H     1 <1>   0.0800 
 49 H       -7.0710    -9.7850     1.4130 H     1 <1>   0.4000 
 50 H       -4.7750   -12.4050    -0.9130 H     1 <1>   0.0800 
 51 H       -3.9770   -12.9500     0.5140 H     1 <1>   0.0800 
 52 H       -1.5040   -13.1570     0.0440 H     1 <1>   0.1500 
 53 H       -0.9840    -9.6390    -2.1520 H     1 <1>   0.2700 
 54 H        1.0340   -12.6120    -0.7960 H     1 <1>   0.0800 
 55 H        1.3160   -10.8900    -0.8380 H     1 <1>   0.0800 
 56 H        0.9820   -11.7630    -2.3190 H     1 <1>   0.0800 
@<TRIPOS>BOND
  1   1   2  1   
  2   1   3  1   
  3   2   4  ar  
  4   2   5  ar  
  5   3   6  1   
  6   3   7  1   
  7   3  27  1   
  8   4   8  ar  
  9   4  28  1   
 10   5   9  ar  
 11   5  29  1   
 12   6  30  1   
 13   6  31  1   
 14   6  32  1   
 15   7  33  1   
 16   7  34  1   
 17   7  35  1   
 18   8  10  ar  
 19   8  36  1   
 20   9  10  ar  
 21   9  37  1   
 22  10  11  1   
 23  11  12  1   
 24  12  13  1   
 25  12  38  1   
 26  12  39  1   
 27  13  14  1   
 28  13  40  1   
 29  13  41  1   
 30  14  15  1   
 31  14  16  1   
 32  14  42  1   
 33  15  17  1   
 34  15  43  1   
 35  15  44  1   
 36  16  18  1   
 37  16  45  1   
 38  16  46  1   
 39  17  18  1   
 40  17  19  1   
 41  17  47  1   
 42  18  20  1   
 43  18  48  1   
 44  19  49  1   
 45  20  21  1   
 46  20  50  1   
 47  20  51  1   
 48  21  22  2   
 49  21  23  1   
 50  22  24  1   
 51  23  25  2   
 52  23  52  1   
 53  24  25  1   
 54  24  53  1   
 55  25  26  1   
 56  26  54  1   
 57  26  55  1   
 58  26  56  1   
@<TRIPOS>SUBSTRUCTURE
  1 ****  12 GROUP 4 **** **** 0

# MOE 2024.06 (io_trps.svl 2023.06)
