@<TRIPOS>MOLECULE
NONAME
60 63 1 0 0 
SMALL
USER_CHARGES


@<TRIPOS>ATOM
  1 O       -0.0740     1.6050    -0.4080 O.3   1 <1>  -0.5600 
  2 C        0.7340     0.7770    -1.1910 C.3   1 <1>   0.2000 
  3 C       -1.4220     1.2980    -0.6100 C.3   1 <1>   0.1200 
  4 C       -0.0070    -0.5500    -1.2270 C.3   1 <1>  -0.1600 
  5 C        2.1450     0.7090    -0.5700 C.3   1 <1>   0.3430 
  6 C       -1.4630    -0.1180    -1.1820 C.3   1 <1>  -0.1600 
  7 N        2.4690     2.0100     0.0930 N.4   1 <1>  -0.9590 
  8 C        2.8950     3.0540    -0.8810 C.3   1 <1>   0.3430 
  9 C        3.3960     1.8500     1.2470 C.3   1 <1>   0.3430 
 10 C        3.0370     4.3920    -0.1670 C.3   1 <1>  -0.1600 
 11 C        3.5480     3.1810     1.9760 C.3   1 <1>  -0.1600 
 12 C        4.0010     4.2710     1.0110 C.3   1 <1>   0.2890 
 13 N        4.0360     5.5450     1.7280 N.pl3 1 <1>  -0.8690 
 14 C        4.8380     6.5260     1.2360 C.ar  1 <1>   0.4100 
 15 N        4.2150     7.5010     0.6690 N.ar  1 <1>  -0.6200 
 16 C        6.2310     6.4450     1.3330 C.ar  1 <1>  -0.1500 
 17 C        4.9620     8.4900     0.1050 C.ar  1 <1>   0.3100 
 18 C        7.0230     7.4040     0.7820 C.ar  1 <1>  -0.1430 
 19 C        6.3870     8.4860     0.1020 C.ar  1 <1>   0.0000 
 20 C        4.2780     9.5660    -0.5230 C.ar  1 <1>   0.0820 
 21 C        8.5310     7.2510     0.9440 C.3   1 <1>  -0.0970 
 22 C        7.0530     9.5500    -0.5790 C.ar  1 <1>   0.0820 
 23 O        2.9220     9.6380    -0.5400 O.3   1 <1>  -0.3630 
 24 C        4.9530    10.5680    -1.1620 C.ar  1 <1>  -0.1500 
 25 O        8.4120     9.5470    -0.6210 O.3   1 <1>  -0.3630 
 26 C        6.3410    10.5600    -1.1910 C.ar  1 <1>  -0.1500 
 27 C        2.2950    10.0070     0.6690 C.3   1 <1>   0.0400 
 28 C        9.1690    10.5220    -1.3060 C.3   1 <1>   0.0400 
 29 H        0.7740     1.2050    -2.1790 H     1 <1>   0.0800 
 30 H       -1.8370     2.0120    -1.3000 H     1 <1>   0.0800 
 31 H       -1.9320     1.3640     0.3360 H     1 <1>   0.0800 
 32 H        0.2260    -1.1340    -0.3530 H     1 <1>   0.0800 
 33 H        0.2230    -1.1230    -2.1090 H     1 <1>   0.0800 
 34 H        2.8770     0.4580    -1.3200 H     1 <1>   0.0800 
 35 H        2.1420    -0.0750     0.1680 H     1 <1>   0.0800 
 36 H       -1.8880    -0.0920    -2.1700 H     1 <1>   0.0800 
 37 H       -2.0590    -0.7720    -0.5680 H     1 <1>   0.0800 
 38 H        1.5390     2.3100     0.4510 H     1 <1>   0.4500 
 39 H        2.1620     3.1480    -1.6670 H     1 <1>   0.0800 
 40 H        3.8390     2.7800    -1.3250 H     1 <1>   0.0800 
 41 H        4.3600     1.5180     0.8970 H     1 <1>   0.0800 
 42 H        3.0090     1.1110     1.9310 H     1 <1>   0.0800 
 43 H        2.0700     4.7220     0.1690 H     1 <1>   0.0800 
 44 H        3.4140     5.1200    -0.8640 H     1 <1>   0.0800 
 45 H        4.2800     3.0750     2.7570 H     1 <1>   0.0800 
 46 H        2.6110     3.4500     2.4300 H     1 <1>   0.0800 
 47 H        4.9900     4.0400     0.6460 H     1 <1>   0.0800 
 48 H        3.0970     5.9340     1.8440 H     1 <1>   0.4000 
 49 H        6.6370     5.6050     1.8630 H     1 <1>   0.1500 
 50 H        8.7780     6.3900     1.5380 H     1 <1>   0.0800 
 51 H        8.9380     8.1170     1.4350 H     1 <1>   0.0800 
 52 H        8.9970     7.1370    -0.0180 H     1 <1>   0.0800 
 53 H        4.4100    11.3610    -1.6430 H     1 <1>   0.1500 
 54 H        6.8200    11.3700    -1.7070 H     1 <1>   0.1500 
 55 H        1.2390    10.0870     0.4880 H     1 <1>   0.0800 
 56 H        2.6890    10.9550     0.9900 H     1 <1>   0.0800 
 57 H        2.4820     9.2530     1.4120 H     1 <1>   0.0800 
 58 H       10.2100    10.2730    -1.1960 H     1 <1>   0.0800 
 59 H        8.9770    11.4860    -0.8680 H     1 <1>   0.0800 
 60 H        8.8990    10.5070    -2.3470 H     1 <1>   0.0800 
@<TRIPOS>BOND
  1   1   2  1   
  2   1   3  1   
  3   2   4  1   
  4   2   5  1   
  5   2  29  1   
  6   3   6  1   
  7   3  30  1   
  8   3  31  1   
  9   4   6  1   
 10   4  32  1   
 11   4  33  1   
 12   5   7  1   
 13   5  34  1   
 14   5  35  1   
 15   6  36  1   
 16   6  37  1   
 17   7   8  1   
 18   7   9  1   
 19   7  38  1   
 20   8  10  1   
 21   8  39  1   
 22   8  40  1   
 23   9  11  1   
 24   9  41  1   
 25   9  42  1   
 26  10  12  1   
 27  10  43  1   
 28  10  44  1   
 29  11  12  1   
 30  11  45  1   
 31  11  46  1   
 32  12  13  1   
 33  12  47  1   
 34  13  14  1   
 35  13  48  1   
 36  14  15  ar  
 37  14  16  ar  
 38  15  17  ar  
 39  16  18  ar  
 40  16  49  1   
 41  17  19  ar  
 42  17  20  ar  
 43  18  19  ar  
 44  18  21  1   
 45  19  22  ar  
 46  20  23  1   
 47  20  24  ar  
 48  21  50  1   
 49  21  51  1   
 50  21  52  1   
 51  22  25  1   
 52  22  26  ar  
 53  23  27  1   
 54  24  26  ar  
 55  24  53  1   
 56  25  28  1   
 57  26  54  1   
 58  27  55  1   
 59  27  56  1   
 60  27  57  1   
 61  28  58  1   
 62  28  59  1   
 63  28  60  1   
@<TRIPOS>SUBSTRUCTURE
  1 ****  10 GROUP 4 **** **** 0

# MOE 2024.06 (io_trps.svl 2023.06)
