@<TRIPOS>MOLECULE
NONAME
52 53 1 0 0 
SMALL
USER_CHARGES


@<TRIPOS>ATOM
  1 O       -4.1750    -1.9880    -1.0340 O.3   1 <1>  -0.6800 
  2 C       -2.8170    -1.7240    -1.2290 C.3   1 <1>   0.3440 
  3 C       -1.9600    -2.6400    -0.3340 C.ar  1 <1>   0.1660 
  4 C       -2.5520    -0.1910    -1.0560 C.3   1 <1>   0.0000 
  5 N       -0.8060    -3.0550    -0.8420 N.ar  1 <1>  -0.6200 
  6 C       -2.4020    -2.9980     0.9310 C.ar  1 <1>  -0.1500 
  7 C       -2.8590     0.2960     0.3740 C.3   1 <1>  -0.2400 
  8 C       -1.0800     0.1420    -1.3650 C.3   1 <1>  -0.2400 
  9 C       -3.4210     0.6220    -2.0390 C.3   1 <1>  -0.2400 
 10 C       -0.0290    -3.8450    -0.0860 C.ar  1 <1>   0.3100 
 11 C       -1.6260    -3.8110     1.7230 C.ar  1 <1>  -0.1500 
 12 C        1.2500    -4.3020    -0.6250 C.ar  1 <1>   0.3100 
 13 C       -0.4270    -4.2310     1.1950 C.ar  1 <1>  -0.1500 
 14 N        2.2380    -4.6160     0.2260 N.ar  1 <1>  -0.6200 
 15 C        1.4330    -4.4070    -2.0050 C.ar  1 <1>  -0.1500 
 16 C        3.3990    -5.0200    -0.2750 C.ar  1 <1>   0.1670 
 17 C        2.6290    -4.8320    -2.5330 C.ar  1 <1>  -0.1500 
 18 C        3.6280    -5.1440    -1.6390 C.ar  1 <1>  -0.1500 
 19 C        4.5030    -5.3560     0.7480 C.3   1 <1>   0.3430 
 20 O        5.2930    -6.4100     0.2840 O.3   1 <1>  -0.6800 
 21 C        5.4230    -4.1530     1.1440 C.3   1 <1>   0.0000 
 22 C        6.4230    -4.5820     2.2370 C.3   1 <1>  -0.2400 
 23 C        6.2250    -3.6060    -0.0550 C.3   1 <1>  -0.2400 
 24 C        4.5870    -2.9950     1.7210 C.3   1 <1>  -0.2400 
 25 H       -4.6950    -1.3960    -1.6070 H     1 <1>   0.4000 
 26 H       -2.6040    -1.9900    -2.2500 H     1 <1>   0.0800 
 27 H       -3.3510    -2.6420     1.2920 H     1 <1>   0.1500 
 28 H       -2.7040     1.3580     0.4540 H     1 <1>   0.0800 
 29 H       -2.2140    -0.1860     1.0860 H     1 <1>   0.0800 
 30 H       -3.8780     0.0830     0.6400 H     1 <1>   0.0800 
 31 H       -0.9060     1.2020    -1.3140 H     1 <1>   0.0800 
 32 H       -0.8120    -0.2000    -2.3490 H     1 <1>   0.0800 
 33 H       -0.4230    -0.3340    -0.6570 H     1 <1>   0.0800 
 34 H       -3.1750     1.6680    -1.9820 H     1 <1>   0.0800 
 35 H       -4.4670     0.5210    -1.8100 H     1 <1>   0.0800 
 36 H       -3.2550     0.2950    -3.0500 H     1 <1>   0.0800 
 37 H       -1.9420    -4.1050     2.7090 H     1 <1>   0.1500 
 38 H        0.2140    -4.8680     1.7770 H     1 <1>   0.1500 
 39 H        0.6230    -4.1520    -2.6640 H     1 <1>   0.1500 
 40 H        2.7760    -4.9170    -3.5950 H     1 <1>   0.1500 
 41 H        4.5770    -5.4820    -2.0090 H     1 <1>   0.1500 
 42 H        4.0150    -5.7210     1.6360 H     1 <1>   0.0800 
 43 H        5.9200    -6.0630    -0.3730 H     1 <1>   0.4000 
 44 H        7.0290    -3.7500     2.5500 H     1 <1>   0.0800 
 45 H        7.0800    -5.3550     1.8790 H     1 <1>   0.0800 
 46 H        5.8990    -4.9600     3.0970 H     1 <1>   0.0800 
 47 H        6.8400    -2.7790     0.2540 H     1 <1>   0.0800 
 48 H        5.5640    -3.2530    -0.8270 H     1 <1>   0.0800 
 49 H        6.8700    -4.3590    -0.4700 H     1 <1>   0.0800 
 50 H        5.2210    -2.2000     2.0730 H     1 <1>   0.0800 
 51 H        3.9840    -3.3380     2.5430 H     1 <1>   0.0800 
 52 H        3.9300    -2.5850     0.9730 H     1 <1>   0.0800 
@<TRIPOS>BOND
  1   1   2  1   
  2   1  25  1   
  3   2   3  1   
  4   2   4  1   
  5   2  26  1   
  6   3   5  ar  
  7   3   6  ar  
  8   4   7  1   
  9   4   8  1   
 10   4   9  1   
 11   5  10  ar  
 12   6  11  ar  
 13   6  27  1   
 14   7  28  1   
 15   7  29  1   
 16   7  30  1   
 17   8  31  1   
 18   8  32  1   
 19   8  33  1   
 20   9  34  1   
 21   9  35  1   
 22   9  36  1   
 23  10  12  1   
 24  10  13  ar  
 25  11  13  ar  
 26  11  37  1   
 27  12  14  ar  
 28  12  15  ar  
 29  13  38  1   
 30  14  16  ar  
 31  15  17  ar  
 32  15  39  1   
 33  16  18  ar  
 34  16  19  1   
 35  17  18  ar  
 36  17  40  1   
 37  18  41  1   
 38  19  20  1   
 39  19  21  1   
 40  19  42  1   
 41  20  43  1   
 42  21  22  1   
 43  21  23  1   
 44  21  24  1   
 45  22  44  1   
 46  22  45  1   
 47  22  46  1   
 48  23  47  1   
 49  23  48  1   
 50  23  49  1   
 51  24  50  1   
 52  24  51  1   
 53  24  52  1   
@<TRIPOS>SUBSTRUCTURE
  1 ****  10 GROUP 4 **** **** 0

# MOE 2024.06 (io_trps.svl 2023.06)
