@<TRIPOS>MOLECULE
NONAME
49 50 1 0 0 
SMALL
USER_CHARGES


@<TRIPOS>ATOM
  1 O       -0.8340    -3.4420     0.1160 O.2   1 <1>  -0.5700 
  2 C        0.2150    -3.1650     0.6630 C.2   1 <1>   0.6900 
  3 N        1.1620    -4.1360     0.9020 N.am  1 <1>  -0.4200 
  4 N        0.4980    -1.8660     0.9750 N.am  1 <1>  -0.5390 
  5 C        2.4470    -3.7640     1.2540 C.2   1 <1>   0.6160 
  6 C        0.8160    -5.5870     0.8180 C.3   1 <1>   0.1400 
  7 C        1.7370    -1.4630     1.4270 C.2   1 <1>  -0.0290 
  8 O        3.3280    -4.6030     1.2640 O.2   1 <1>  -0.5700 
  9 C        2.7060    -2.3950     1.5590 C.2   1 <1>  -0.1360 
 10 C        1.0330    -6.1170    -0.6070 C.3   1 <1>   0.3430 
 11 C        1.9150     0.0110     1.7340 C.3   1 <1>  -0.1020 
 12 N        0.0200    -5.5530    -1.5570 N.4   1 <1>  -0.9590 
 13 C       -1.1920    -6.4150    -1.5850 C.3   1 <1>   0.3430 
 14 C        0.6020    -5.3300    -2.9130 C.3   1 <1>   0.2630 
 15 C       -2.4120    -5.6250    -2.0690 C.3   1 <1>  -0.1600 
 16 C       -3.6750    -6.5060    -2.0860 C.3   1 <1>   0.0960 
 17 N       -3.8750    -7.1890    -0.7910 N.pl3 1 <1>   0.3140 
 18 N       -3.1810    -8.3060    -0.4920 N.2   1 <1>  -0.7070 
 19 C       -4.6760    -6.8200     0.2330 C.2   1 <1>  -0.3320 
 20 C       -3.5780    -8.6360     0.6960 C.2   1 <1>   0.1080 
 21 C       -4.5090    -7.7410     1.2060 C.2   1 <1>  -0.1500 
 22 C       -5.5820    -5.6000     0.2480 C.3   1 <1>  -0.0600 
 23 C       -3.0690    -9.8640     1.4150 C.3   1 <1>  -0.0590 
 24 H       -0.2640    -1.1990     0.8320 H     1 <1>   0.3700 
 25 H       -0.2050    -5.7430     1.1250 H     1 <1>   0.0800 
 26 H        1.4410    -6.1420     1.4970 H     1 <1>   0.0800 
 27 H        3.7000    -2.1630     1.8920 H     1 <1>   0.1500 
 28 H        0.9690    -7.1930    -0.6060 H     1 <1>   0.0800 
 29 H        2.0300    -5.8460    -0.9160 H     1 <1>   0.0800 
 30 H        1.2270     0.3150     2.5020 H     1 <1>   0.0800 
 31 H        1.7350     0.5990     0.8510 H     1 <1>   0.0800 
 32 H        2.9160     0.2090     2.0750 H     1 <1>   0.0800 
 33 H       -0.2880    -4.6390    -1.1590 H     1 <1>   0.4500 
 34 H       -1.3930    -6.7710    -0.5870 H     1 <1>   0.0800 
 35 H       -1.0300    -7.2760    -2.2140 H     1 <1>   0.0800 
 36 H        0.9070    -6.2680    -3.3480 H     1 <1>   0.0800 
 37 H        1.4620    -4.6830    -2.8460 H     1 <1>   0.0800 
 38 H       -0.1240    -4.8670    -3.5610 H     1 <1>   0.0800 
 39 H       -2.2490    -5.2490    -3.0620 H     1 <1>   0.0800 
 40 H       -2.5890    -4.7930    -1.4100 H     1 <1>   0.0800 
 41 H       -3.5860    -7.2640    -2.8440 H     1 <1>   0.0800 
 42 H       -4.5430    -5.9130    -2.3070 H     1 <1>   0.0800 
 43 H       -4.9810    -7.7960     2.1700 H     1 <1>   0.1500 
 44 H       -5.0040    -4.7020     0.1190 H     1 <1>   0.0800 
 45 H       -6.1020    -5.5380     1.1880 H     1 <1>   0.0800 
 46 H       -6.3130    -5.6670    -0.5380 H     1 <1>   0.0800 
 47 H       -3.2920   -10.7370     0.8300 H     1 <1>   0.0800 
 48 H       -3.5390    -9.9570     2.3760 H     1 <1>   0.0800 
 49 H       -2.0060    -9.7930     1.5460 H     1 <1>   0.0800 
@<TRIPOS>BOND
  1   1   2  2   
  2   2   3  am  
  3   2   4  am  
  4   3   5  am  
  5   3   6  1   
  6   4   7  1   
  7   4  24  1   
  8   5   8  2   
  9   5   9  1   
 10   6  10  1   
 11   6  25  1   
 12   6  26  1   
 13   7   9  2   
 14   7  11  1   
 15   9  27  1   
 16  10  12  1   
 17  10  28  1   
 18  10  29  1   
 19  11  30  1   
 20  11  31  1   
 21  11  32  1   
 22  12  13  1   
 23  12  14  1   
 24  12  33  1   
 25  13  15  1   
 26  13  34  1   
 27  13  35  1   
 28  14  36  1   
 29  14  37  1   
 30  14  38  1   
 31  15  16  1   
 32  15  39  1   
 33  15  40  1   
 34  16  17  1   
 35  16  41  1   
 36  16  42  1   
 37  17  18  1   
 38  17  19  1   
 39  18  20  2   
 40  19  21  2   
 41  19  22  1   
 42  20  21  1   
 43  20  23  1   
 44  21  43  1   
 45  22  44  1   
 46  22  45  1   
 47  22  46  1   
 48  23  47  1   
 49  23  48  1   
 50  23  49  1   
@<TRIPOS>SUBSTRUCTURE
  1 ****   1 GROUP 4 **** **** 0

# MOE 2024.06 (io_trps.svl 2023.06)
