@<TRIPOS>MOLECULE
NONAME
55 58 1 0 0 
SMALL
USER_CHARGES


@<TRIPOS>ATOM
  1 O       -1.9390    -1.1290    -0.1990 O.2   1 <1>  -0.5700 
  2 C       -1.1340    -2.0310    -0.1230 C.2   1 <1>   0.7800 
  3 O       -0.1070    -2.1300    -0.9530 O.3   1 <1>  -0.4300 
  4 N       -1.1740    -3.0590     0.7490 N.am  1 <1>  -0.6600 
  5 C        0.6410    -3.3040    -0.6910 C.3   1 <1>   0.1200 
  6 C       -0.0950    -4.0050     0.4580 C.3   1 <1>   0.1400 
  7 C       -2.3170    -3.4070     1.6460 C.3   1 <1>   0.2010 
  8 C       -3.1470    -4.5900     1.1290 C.2   1 <1>   0.5690 
  9 O       -2.9910    -5.6500     1.6930 O.2   1 <1>  -0.5700 
 10 N       -4.0140    -4.4750     0.0650 N.am  1 <1>  -0.6600 
 11 C       -4.6630    -5.7020    -0.4900 C.3   1 <1>   0.1400 
 12 C       -4.3330    -3.1810    -0.6160 C.3   1 <1>   0.1400 
 13 C       -6.0110    -5.9670     0.1940 C.3   1 <1>   0.1400 
 14 C       -5.8050    -3.0350    -1.0250 C.3   1 <1>  -0.1600 
 15 N       -7.0740    -5.0240    -0.2800 N.am  1 <1>  -0.6600 
 16 C       -6.8030    -3.5850     0.0000 C.3   1 <1>   0.1400 
 17 C       -8.2140    -5.3870    -0.9610 C.2   1 <1>   0.5690 
 18 O       -8.9950    -4.5620    -1.3720 O.2   1 <1>  -0.5700 
 19 C       -8.5530    -6.8400    -1.2380 C.3   1 <1>  -0.0990 
 20 C       -9.1260    -7.5380     0.0050 C.3   1 <1>   0.0630 
 21 C       -9.4940    -8.9840    -0.2490 C.ar  1 <1>  -0.1430 
 22 C      -10.4560    -6.9170     0.4820 C.3   1 <1>  -0.1600 
 23 C      -10.7250    -9.2800     0.2840 C.ar  1 <1>  -0.1430 
 24 C       -8.7620    -9.9610    -0.9030 C.ar  1 <1>  -0.1500 
 25 C      -11.3390    -8.0800     0.9600 C.3   1 <1>  -0.0170 
 26 C      -11.2620   -10.5490     0.1730 C.ar  1 <1>  -0.1500 
 27 C       -9.2910   -11.2370    -1.0200 C.ar  1 <1>  -0.1500 
 28 C      -10.5370   -11.5300    -0.4850 C.ar  1 <1>  -0.1500 
 29 H        1.6390    -3.0190    -0.4080 H     1 <1>   0.0800 
 30 H        0.6630    -3.9080    -1.5800 H     1 <1>   0.0800 
 31 H       -0.4910    -4.9560     0.1420 H     1 <1>   0.0800 
 32 H        0.5440    -4.1360     1.3140 H     1 <1>   0.0800 
 33 H       -2.9500    -2.5500     1.7790 H     1 <1>   0.0800 
 34 H       -1.9250    -3.6660     2.6130 H     1 <1>   0.0800 
 35 H       -4.0200    -6.5480    -0.3190 H     1 <1>   0.0800 
 36 H       -4.7970    -5.6100    -1.5530 H     1 <1>   0.0800 
 37 H       -3.7050    -3.0740    -1.4850 H     1 <1>   0.0800 
 38 H       -4.1090    -2.3640     0.0450 H     1 <1>   0.0800 
 39 H       -5.8930    -5.8720     1.2600 H     1 <1>   0.0800 
 40 H       -6.2890    -6.9840    -0.0020 H     1 <1>   0.0800 
 41 H       -5.9760    -3.4930    -1.9830 H     1 <1>   0.0800 
 42 H       -5.9960    -1.9850    -1.1520 H     1 <1>   0.0800 
 43 H       -7.7200    -3.0240    -0.0690 H     1 <1>   0.0800 
 44 H       -6.4280    -3.4660     1.0020 H     1 <1>   0.0800 
 45 H       -7.6820    -7.3520    -1.5970 H     1 <1>   0.0800 
 46 H       -9.2820    -6.8790    -2.0270 H     1 <1>   0.0800 
 47 H       -8.4160    -7.5130     0.8130 H     1 <1>   0.0800 
 48 H      -10.9500    -6.4370    -0.3460 H     1 <1>   0.0800 
 49 H      -10.2990    -6.1870     1.2560 H     1 <1>   0.0800 
 50 H       -7.7950    -9.7410    -1.3160 H     1 <1>   0.1500 
 51 H      -12.3650    -7.9420     0.6690 H     1 <1>   0.0800 
 52 H      -11.2710    -8.1950     2.0270 H     1 <1>   0.0800 
 53 H      -12.2270   -10.7710     0.5920 H     1 <1>   0.1500 
 54 H       -8.7340   -12.0040    -1.5280 H     1 <1>   0.1500 
 55 H      -10.9420   -12.5220    -0.5800 H     1 <1>   0.1500 
@<TRIPOS>BOND
  1   1   2  2   
  2   2   3  1   
  3   2   4  am  
  4   3   5  1   
  5   4   6  1   
  6   4   7  1   
  7   5   6  1   
  8   5  29  1   
  9   5  30  1   
 10   6  31  1   
 11   6  32  1   
 12   7   8  1   
 13   7  33  1   
 14   7  34  1   
 15   8   9  2   
 16   8  10  am  
 17  10  11  1   
 18  10  12  1   
 19  11  13  1   
 20  11  35  1   
 21  11  36  1   
 22  12  14  1   
 23  12  37  1   
 24  12  38  1   
 25  13  15  1   
 26  13  39  1   
 27  13  40  1   
 28  14  16  1   
 29  14  41  1   
 30  14  42  1   
 31  15  16  1   
 32  15  17  am  
 33  16  43  1   
 34  16  44  1   
 35  17  18  2   
 36  17  19  1   
 37  19  20  1   
 38  19  45  1   
 39  19  46  1   
 40  20  21  1   
 41  20  22  1   
 42  20  47  1   
 43  21  23  ar  
 44  21  24  ar  
 45  22  25  1   
 46  22  48  1   
 47  22  49  1   
 48  23  25  1   
 49  23  26  ar  
 50  24  27  ar  
 51  24  50  1   
 52  25  51  1   
 53  25  52  1   
 54  26  28  ar  
 55  26  53  1   
 56  27  28  ar  
 57  27  54  1   
 58  28  55  1   
@<TRIPOS>SUBSTRUCTURE
  1 ****  13 GROUP 4 **** **** 0

# MOE 2024.06 (io_trps.svl 2023.06)
