@<TRIPOS>MOLECULE
NONAME
40 42 1 0 0 
SMALL
USER_CHARGES


@<TRIPOS>ATOM
  1 O        4.9890     2.1040     0.8770 O.co2 1 <1>  -0.9000 
  2 C        4.0020     1.3530     0.8540 C.2   1 <1>   0.9060 
  3 O        4.0340     0.1790     1.2040 O.co2 1 <1>  -0.9000 
  4 C        2.7190     1.8970     0.2640 C.3   1 <1>  -0.1860 
  5 C        3.1020     2.4090    -1.1020 C.3   1 <1>   0.3430 
  6 C        2.1900     3.1450     0.9960 C.3   1 <1>  -0.1600 
  7 N        3.6550     3.7330    -0.7730 N.4   1 <1>  -0.9590 
  8 C        2.7710     4.3420     0.2430 C.3   1 <1>   0.3430 
  9 C        4.1170     4.5700    -1.9000 C.3   1 <1>   0.4860 
 10 C        4.4310     5.9780    -1.4340 C.ar  1 <1>  -0.1430 
 11 C        5.4520     6.1970    -0.4970 C.ar  1 <1>   0.0000 
 12 C        3.7260     7.0580    -1.9220 C.ar  1 <1>  -0.1500 
 13 C        5.7350     7.4940    -0.0760 C.ar  1 <1>  -0.1520 
 14 C        6.3450     5.3530     0.2010 C.2   1 <1>  -0.1500 
 15 C        4.0180     8.3570    -1.4950 C.ar  1 <1>  -0.1500 
 16 N        6.7650     7.4450     0.8360 N.pl3 1 <1>   0.0480 
 17 C        5.0160     8.5830    -0.5780 C.ar  1 <1>  -0.1500 
 18 C        7.1170     6.1350     0.9900 C.2   1 <1>  -0.3020 
 19 C        7.3830     8.5890     1.5350 C.3   1 <1>   0.0960 
 20 C        8.4690     9.2280     0.6650 C.3   1 <1>  -0.2400 
 21 H        1.9950     1.1060     0.2120 H     1 <1>   0.0800 
 22 H        2.2330     2.5040    -1.7300 H     1 <1>   0.0800 
 23 H        3.8390     1.7700    -1.5640 H     1 <1>   0.0800 
 24 H        2.5050     3.1530     2.0260 H     1 <1>   0.0800 
 25 H        1.1160     3.1850     0.9630 H     1 <1>   0.0800 
 26 H        4.4980     3.4610    -0.2040 H     1 <1>   0.4500 
 27 H        3.3360     4.9830     0.9010 H     1 <1>   0.0800 
 28 H        1.9860     4.9070    -0.2310 H     1 <1>   0.0800 
 29 H        3.3500     4.6130    -2.6540 H     1 <1>   0.0800 
 30 H        5.0000     4.1320    -2.3360 H     1 <1>   0.0800 
 31 H        2.9370     6.9270    -2.6430 H     1 <1>   0.1500 
 32 H        6.3930     4.2790     0.1180 H     1 <1>   0.1500 
 33 H        3.4540     9.1840    -1.8940 H     1 <1>   0.1500 
 34 H        5.2480     9.5800    -0.2490 H     1 <1>   0.1500 
 35 H        7.9030     5.8290     1.6580 H     1 <1>   0.1500 
 36 H        7.8090     8.2390     2.4580 H     1 <1>   0.0800 
 37 H        6.6180     9.3090     1.7650 H     1 <1>   0.0800 
 38 H        9.2410     8.5100     0.4470 H     1 <1>   0.0800 
 39 H        8.9110    10.0590     1.1830 H     1 <1>   0.0800 
 40 H        8.0470     9.5850    -0.2580 H     1 <1>   0.0800 
@<TRIPOS>BOND
  1   1   2  ar  
  2   2   3  ar  
  3   2   4  1   
  4   4   5  1   
  5   4   6  1   
  6   4  21  1   
  7   5   7  1   
  8   5  22  1   
  9   5  23  1   
 10   6   8  1   
 11   6  24  1   
 12   6  25  1   
 13   7   8  1   
 14   7   9  1   
 15   7  26  1   
 16   8  27  1   
 17   8  28  1   
 18   9  10  1   
 19   9  29  1   
 20   9  30  1   
 21  10  11  ar  
 22  10  12  ar  
 23  11  13  ar  
 24  11  14  1   
 25  12  15  ar  
 26  12  31  1   
 27  13  16  1   
 28  13  17  ar  
 29  14  18  2   
 30  14  32  1   
 31  15  17  ar  
 32  15  33  1   
 33  16  18  1   
 34  16  19  1   
 35  17  34  1   
 36  18  35  1   
 37  19  20  1   
 38  19  36  1   
 39  19  37  1   
 40  20  38  1   
 41  20  39  1   
 42  20  40  1   
@<TRIPOS>SUBSTRUCTURE
  1 ****  11 GROUP 4 **** **** 0

# MOE 2024.06 (io_trps.svl 2023.06)
