@<TRIPOS>MOLECULE
NONAME
48 50 1 0 0 
SMALL
USER_CHARGES


@<TRIPOS>ATOM
  1 S       -1.4050     0.5210     0.6760 S.3   1 <1>  -0.0800 
  2 C       -2.0420    -1.0440     1.1430 C.2   1 <1>  -0.1100 
  3 C       -1.7040     0.1850    -1.0180 C.2   1 <1>  -0.1100 
  4 C       -2.4560    -1.7360     0.0630 C.2   1 <1>  -0.1810 
  5 C       -2.2520    -1.0340    -1.1730 C.2   1 <1>  -0.1500 
  6 C       -3.0710    -3.1190     0.0990 C.3   1 <1>   0.5240 
  7 N       -4.5150    -2.9730     0.4260 N.4   1 <1>  -0.9590 
  8 C       -5.0660    -4.2760     0.9480 C.3   1 <1>   0.3430 
  9 C       -5.2660    -2.3910    -0.7350 C.3   1 <1>   0.3430 
 10 C       -6.5640    -4.2500     1.3220 C.3   1 <1>   0.1400 
 11 C       -6.5040    -1.6410    -0.2380 C.3   1 <1>  -0.1600 
 12 N       -7.3930    -3.9540     0.1220 N.am  1 <1>  -0.6600 
 13 C       -7.7480    -2.5200    -0.0710 C.3   1 <1>   0.1400 
 14 C       -7.6820    -4.8730    -0.8580 C.2   1 <1>   0.5690 
 15 O       -7.9000    -4.5230    -1.9910 O.2   1 <1>  -0.5700 
 16 C       -7.7140    -6.3620    -0.5710 C.3   1 <1>  -0.0990 
 17 C       -9.0140    -6.7540     0.1370 C.3   1 <1>   0.0200 
 18 C       -9.0210    -8.2390     0.4560 C.2   1 <1>  -0.3320 
 19 N       -9.2610    -9.2340    -0.4320 N.pl3 1 <1>   0.3140 
 20 C       -8.8050    -8.8320     1.6510 C.2   1 <1>  -0.1500 
 21 N       -9.1930   -10.4400     0.1560 N.2   1 <1>  -0.7070 
 22 C       -9.5780    -9.1190    -1.8630 C.3   1 <1>   0.0160 
 23 C       -8.9230   -10.1920     1.4000 C.2   1 <1>   0.1390 
 24 H       -2.0320    -1.2660     2.1970 H     1 <1>   0.1500 
 25 H       -1.4260     0.9470    -1.7270 H     1 <1>   0.1500 
 26 H       -2.5120    -1.4620    -2.1270 H     1 <1>   0.1500 
 27 H       -2.5780    -3.6950     0.8650 H     1 <1>   0.0800 
 28 H       -2.9380    -3.6190    -0.8470 H     1 <1>   0.0800 
 29 H       -4.5500    -2.2670     1.1710 H     1 <1>   0.4500 
 30 H       -4.5090    -4.5680     1.8230 H     1 <1>   0.0800 
 31 H       -4.9240    -5.0450     0.2060 H     1 <1>   0.0800 
 32 H       -5.5510    -3.1590    -1.4380 H     1 <1>   0.0800 
 33 H       -4.6400    -1.6820    -1.2490 H     1 <1>   0.0800 
 34 H       -6.7410    -3.5120     2.0860 H     1 <1>   0.0800 
 35 H       -6.8470    -5.2040     1.7320 H     1 <1>   0.0800 
 36 H       -6.7490    -0.8860    -0.9650 H     1 <1>   0.0800 
 37 H       -6.2890    -1.1200     0.6770 H     1 <1>   0.0800 
 38 H       -8.3690    -2.4180    -0.9470 H     1 <1>   0.0800 
 39 H       -8.3340    -2.1780     0.7660 H     1 <1>   0.0800 
 40 H       -6.8690    -6.6580     0.0180 H     1 <1>   0.0800 
 41 H       -7.6490    -6.8880    -1.5060 H     1 <1>   0.0800 
 42 H       -9.8620    -6.5030    -0.4780 H     1 <1>   0.0800 
 43 H       -9.1070    -6.1990     1.0550 H     1 <1>   0.0800 
 44 H       -8.5900    -8.3900     2.6060 H     1 <1>   0.1500 
 45 H      -10.2540    -8.3000    -2.0180 H     1 <1>   0.0800 
 46 H      -10.0410   -10.0310    -2.1920 H     1 <1>   0.0800 
 47 H       -8.6710    -8.9600    -2.4130 H     1 <1>   0.0800 
 48 H       -8.8070   -10.9630     2.1430 H     1 <1>   0.1500 
@<TRIPOS>BOND
  1   1   2  1   
  2   1   3  1   
  3   2   4  2   
  4   2  24  1   
  5   3   5  2   
  6   3  25  1   
  7   4   5  1   
  8   4   6  1   
  9   5  26  1   
 10   6   7  1   
 11   6  27  1   
 12   6  28  1   
 13   7   8  1   
 14   7   9  1   
 15   7  29  1   
 16   8  10  1   
 17   8  30  1   
 18   8  31  1   
 19   9  11  1   
 20   9  32  1   
 21   9  33  1   
 22  10  12  1   
 23  10  34  1   
 24  10  35  1   
 25  11  13  1   
 26  11  36  1   
 27  11  37  1   
 28  12  13  1   
 29  12  14  am  
 30  13  38  1   
 31  13  39  1   
 32  14  15  2   
 33  14  16  1   
 34  16  17  1   
 35  16  40  1   
 36  16  41  1   
 37  17  18  1   
 38  17  42  1   
 39  17  43  1   
 40  18  19  1   
 41  18  20  2   
 42  19  21  1   
 43  19  22  1   
 44  20  23  1   
 45  20  44  1   
 46  21  23  2   
 47  22  45  1   
 48  22  46  1   
 49  22  47  1   
 50  23  48  1   
@<TRIPOS>SUBSTRUCTURE
  1 ****  12 GROUP 4 **** **** 0

# MOE 2024.06 (io_trps.svl 2023.06)
