@<TRIPOS>MOLECULE
NONAME
57 60 1 0 0 
SMALL
USER_CHARGES


@<TRIPOS>ATOM
  1 O        0.4190    -0.7920    -1.4130 O.2   1 <1>  -0.5700 
  2 C        1.4120    -0.9830    -0.7480 C.2   1 <1>   0.5690 
  3 N        1.4530    -1.9680     0.2110 N.am  1 <1>  -0.6600 
  4 C        2.6410    -0.0930    -1.0190 C.3   1 <1>   0.2700 
  5 C        2.6740    -2.2010     1.0380 C.3   1 <1>   0.1400 
  6 C        0.2570    -2.7880     0.5420 C.3   1 <1>   0.1400 
  7 N        3.8430    -0.3260    -0.1340 N.pl3 1 <1>  -0.8380 
  8 C        3.9570    -1.7400     0.3290 C.3   1 <1>   0.2090 
  9 C        0.2200    -4.0430    -0.3320 C.3   1 <1>  -0.0160 
 10 C        4.9990     0.3380    -0.4980 C.ar  1 <1>   0.4100 
 11 C       -0.9660    -4.9130     0.0510 C.ar  1 <1>  -0.1440 
 12 N        6.0160    -0.4010    -0.9230 N.ar  1 <1>  -0.6200 
 13 C        5.0480     1.7230    -0.4190 C.ar  1 <1>  -0.1500 
 14 C       -2.2210    -4.6430    -0.4700 C.ar  1 <1>  -0.1500 
 15 C       -0.8060    -5.9780     0.9250 C.ar  1 <1>  -0.1500 
 16 C        7.0980     0.2620    -1.2920 C.ar  1 <1>   0.1600 
 17 C        6.1820     2.4200    -0.7890 C.ar  1 <1>   0.0860 
 18 C       -3.3070    -5.4290    -0.1220 C.ar  1 <1>  -0.1500 
 19 C       -1.8910    -6.7640     1.2740 C.ar  1 <1>  -0.1500 
 20 C        7.2300     1.6340    -1.2490 C.ar  1 <1>  -0.1500 
 21 C        6.2630     3.8660    -0.7150 C.2   1 <1>   0.5440 
 22 C       -3.1420    -6.4900     0.7500 C.ar  1 <1>  -0.1500 
 23 O        5.3760     4.5290    -1.2180 O.2   1 <1>  -0.5700 
 24 N        7.3120     4.5090    -0.0910 N.am  1 <1>  -0.6600 
 25 C        7.5530     5.9670    -0.2760 C.3   1 <1>   0.1400 
 26 C        8.1730     3.8780     0.9470 C.3   1 <1>   0.1400 
 27 C        9.0250     6.2030    -0.6360 C.3   1 <1>  -0.1600 
 28 C        9.6480     4.0850     0.5890 C.3   1 <1>  -0.1600 
 29 C        9.9740     5.5730     0.3940 C.3   1 <1>  -0.1600 
 30 H        2.3280     0.9300    -0.9190 H     1 <1>   0.0800 
 31 H        2.9330    -0.2450    -2.0430 H     1 <1>   0.0800 
 32 H        2.7620    -3.2490     1.2630 H     1 <1>   0.0800 
 33 H        2.5760    -1.6650     1.9660 H     1 <1>   0.0800 
 34 H       -0.6360    -2.2100     0.3730 H     1 <1>   0.0800 
 35 H        0.2790    -3.0630     1.5820 H     1 <1>   0.0800 
 36 H        4.1500    -2.3790    -0.5170 H     1 <1>   0.0800 
 37 H        4.7900    -1.8280     1.0060 H     1 <1>   0.0800 
 38 H        1.1320    -4.5990    -0.2120 H     1 <1>   0.0800 
 39 H        0.1340    -3.7540    -1.3640 H     1 <1>   0.0800 
 40 H        4.1910     2.2590    -0.0610 H     1 <1>   0.1500 
 41 H       -2.3580    -3.8190    -1.1500 H     1 <1>   0.1500 
 42 H        0.1620    -6.2010     1.3380 H     1 <1>   0.1500 
 43 H        7.9250    -0.3270    -1.6500 H     1 <1>   0.1500 
 44 H       -4.2790    -5.2140    -0.5310 H     1 <1>   0.1500 
 45 H       -1.7620    -7.5900     1.9520 H     1 <1>   0.1500 
 46 H        8.1400     2.1030    -1.5740 H     1 <1>   0.1500 
 47 H       -3.9850    -7.1000     1.0210 H     1 <1>   0.1500 
 48 H        7.3080     6.4820     0.6370 H     1 <1>   0.0800 
 49 H        6.9270     6.3590    -1.0600 H     1 <1>   0.0800 
 50 H        7.9600     2.8290     1.0450 H     1 <1>   0.0800 
 51 H        7.9650     4.3450     1.8960 H     1 <1>   0.0800 
 52 H        9.2080     7.2610    -0.6990 H     1 <1>   0.0800 
 53 H        9.2120     5.7810    -1.6080 H     1 <1>   0.0800 
 54 H        9.8700     3.5440    -0.3130 H     1 <1>   0.0800 
 55 H       10.2640     3.6820     1.3740 H     1 <1>   0.0800 
 56 H        9.8680     6.0880     1.3350 H     1 <1>   0.0800 
 57 H       10.9930     5.6850     0.0670 H     1 <1>   0.0800 
@<TRIPOS>BOND
  1   1   2  2   
  2   2   3  am  
  3   2   4  1   
  4   3   5  1   
  5   3   6  1   
  6   4   7  1   
  7   4  30  1   
  8   4  31  1   
  9   5   8  1   
 10   5  32  1   
 11   5  33  1   
 12   6   9  1   
 13   6  34  1   
 14   6  35  1   
 15   7   8  1   
 16   7  10  1   
 17   8  36  1   
 18   8  37  1   
 19   9  11  1   
 20   9  38  1   
 21   9  39  1   
 22  10  12  ar  
 23  10  13  ar  
 24  11  14  ar  
 25  11  15  ar  
 26  12  16  ar  
 27  13  17  ar  
 28  13  40  1   
 29  14  18  ar  
 30  14  41  1   
 31  15  19  ar  
 32  15  42  1   
 33  16  20  ar  
 34  16  43  1   
 35  17  20  ar  
 36  17  21  1   
 37  18  22  ar  
 38  18  44  1   
 39  19  22  ar  
 40  19  45  1   
 41  20  46  1   
 42  21  23  2   
 43  21  24  am  
 44  22  47  1   
 45  24  25  1   
 46  24  26  1   
 47  25  27  1   
 48  25  48  1   
 49  25  49  1   
 50  26  28  1   
 51  26  50  1   
 52  26  51  1   
 53  27  29  1   
 54  27  52  1   
 55  27  53  1   
 56  28  29  1   
 57  28  54  1   
 58  28  55  1   
 59  29  56  1   
 60  29  57  1   
@<TRIPOS>SUBSTRUCTURE
  1 ****   7 GROUP 4 **** **** 0

# MOE 2024.06 (io_trps.svl 2023.06)
