@<TRIPOS>MOLECULE
NONAME
47 50 1 0 0 
SMALL
USER_CHARGES


@<TRIPOS>ATOM
  1 O        3.2270    -1.3350     2.1200 O.2   1 <1>  -0.5700 
  2 C        2.2980    -1.6110     1.3770 C.2   1 <1>   0.5440 
  3 N        1.6600    -0.5520     0.7530 N.am  1 <1>  -0.6600 
  4 C        1.9510    -3.0220     1.1790 C.ar  1 <1>   0.3960 
  5 C        2.1090     0.8510     0.9010 C.3   1 <1>   0.1400 
  6 C        0.5790    -0.6520    -0.2550 C.3   1 <1>   0.1400 
  7 N        0.6960    -3.3990     0.8770 N.ar  1 <1>  -0.6200 
  8 C        2.9740    -3.9660     1.3230 C.ar  1 <1>   0.1600 
  9 C        1.5410     1.5680    -0.3170 C.3   1 <1>  -0.1600 
 10 C        0.2790     0.7860    -0.6670 C.3   1 <1>  -0.1600 
 11 C        0.5470    -4.7030     0.7290 C.ar  1 <1>   0.4100 
 12 N        2.8480    -5.2780     1.1720 N.ar  1 <1>  -0.6200 
 13 N       -0.7300    -5.1510     0.4400 N.pl3 1 <1>  -0.8380 
 14 C        1.6100    -5.6080     0.8700 C.ar  1 <1>   0.1600 
 15 C       -1.5860    -4.3330    -0.4600 C.3   1 <1>   0.2090 
 16 C       -1.4620    -5.8520     1.5220 C.3   1 <1>   0.2090 
 17 C       -2.6570    -5.2230    -1.0860 C.3   1 <1>  -0.1600 
 18 C       -2.5380    -6.7520     0.9100 C.3   1 <1>  -0.1600 
 19 C       -3.4760    -5.9560    -0.0100 C.3   1 <1>   0.1000 
 20 C       -4.5270    -6.8760    -0.6220 C.2   1 <1>   0.0070 
 21 N       -4.5150    -7.3640    -1.8140 N.2   1 <1>  -0.3380 
 22 N       -5.6140    -7.2840     0.0460 N.pl3 1 <1>   0.0330 
 23 N       -5.6190    -8.1130    -1.9540 N.2   1 <1>  -0.3380 
 24 C       -6.2530    -8.0520    -0.8330 C.2   1 <1>   0.2700 
 25 N       -7.4410    -8.7010    -0.5840 N.pl3 1 <1>  -0.8840 
 26 H        3.1830     0.9150     0.9350 H     1 <1>   0.0800 
 27 H        1.6940     1.2550     1.8090 H     1 <1>   0.0800 
 28 H       -0.2960    -1.1180     0.1660 H     1 <1>   0.0800 
 29 H        0.9290    -1.2250    -1.0970 H     1 <1>   0.0800 
 30 H        3.9570    -3.6080     1.5770 H     1 <1>   0.1500 
 31 H        2.2510     1.4990    -1.1230 H     1 <1>   0.0800 
 32 H        1.3410     2.6050    -0.1120 H     1 <1>   0.0800 
 33 H       -0.5480     1.1500    -0.0820 H     1 <1>   0.0800 
 34 H        0.0270     0.8590    -1.7100 H     1 <1>   0.0800 
 35 H        1.3910    -6.6480     0.7150 H     1 <1>   0.1500 
 36 H       -0.9800    -3.8940    -1.2350 H     1 <1>   0.0800 
 37 H       -2.0410    -3.5380     0.1070 H     1 <1>   0.0800 
 38 H       -1.9130    -5.1220     2.1720 H     1 <1>   0.0800 
 39 H       -0.7790    -6.4460     2.1050 H     1 <1>   0.0800 
 40 H       -2.1760    -5.9380    -1.7310 H     1 <1>   0.0800 
 41 H       -3.3120    -4.6240    -1.6940 H     1 <1>   0.0800 
 42 H       -3.1010    -7.2140     1.6990 H     1 <1>   0.0800 
 43 H       -2.0580    -7.5320     0.3450 H     1 <1>   0.0800 
 44 H       -3.9850    -5.2120     0.5780 H     1 <1>   0.0800 
 45 H       -5.9290    -7.0580     0.9870 H     1 <1>   0.2700 
 46 H       -7.8700    -8.9760    -1.4730 H     1 <1>   0.4000 
 47 H       -7.3180    -9.5520    -0.0310 H     1 <1>   0.4000 
@<TRIPOS>BOND
  1   1   2  2   
  2   2   3  am  
  3   2   4  1   
  4   3   5  1   
  5   3   6  1   
  6   4   7  ar  
  7   4   8  ar  
  8   5   9  1   
  9   5  26  1   
 10   5  27  1   
 11   6  10  1   
 12   6  28  1   
 13   6  29  1   
 14   7  11  ar  
 15   8  12  ar  
 16   8  30  1   
 17   9  10  1   
 18   9  31  1   
 19   9  32  1   
 20  10  33  1   
 21  10  34  1   
 22  11  13  1   
 23  11  14  ar  
 24  12  14  ar  
 25  13  15  1   
 26  13  16  1   
 27  14  35  1   
 28  15  17  1   
 29  15  36  1   
 30  15  37  1   
 31  16  18  1   
 32  16  38  1   
 33  16  39  1   
 34  17  19  1   
 35  17  40  1   
 36  17  41  1   
 37  18  19  1   
 38  18  42  1   
 39  18  43  1   
 40  19  20  1   
 41  19  44  1   
 42  20  21  2   
 43  20  22  1   
 44  21  23  1   
 45  22  24  1   
 46  22  45  1   
 47  23  24  2   
 48  24  25  1   
 49  25  46  1   
 50  25  47  1   
@<TRIPOS>SUBSTRUCTURE
  1 ****  15 GROUP 4 **** **** 0

# MOE 2024.06 (io_trps.svl 2023.06)
