@<TRIPOS>MOLECULE
NONAME
47 49 1 0 0 
SMALL
USER_CHARGES


@<TRIPOS>ATOM
  1 O       -0.7380    -0.0650     1.3270 O.2   1 <1>  -0.5700 
  2 C       -1.3340     0.5110     0.4500 C.2   1 <1>   0.5690 
  3 N       -2.1400    -0.1440    -0.4220 N.am  1 <1>  -0.7300 
  4 C       -1.1930     2.0260     0.3300 C.3   1 <1>  -0.0190 
  5 C       -2.4740    -1.5850    -0.3600 C.3   1 <1>   0.2350 
  6 C       -2.5540     2.7390     0.4660 C.3   1 <1>  -0.1600 
  7 C       -0.4650     2.4390    -0.9730 C.3   1 <1>  -0.1600 
  8 C       -3.9950    -1.8250    -0.4110 C.3   1 <1>  -0.0630 
  9 C       -2.4070     4.2740     0.4990 C.3   1 <1>   0.2000 
 10 C       -0.7640     3.8850    -1.4180 C.3   1 <1>  -0.1600 
 11 C       -4.3050    -3.3130    -0.3580 C.ar  1 <1>  -0.0320 
 12 C       -4.9480    -0.8980     0.2850 C.3   1 <1>  -0.2000 
 13 C       -4.9140    -0.9500    -1.2150 C.3   1 <1>  -0.2000 
 14 O       -3.5420     4.8280    -0.1190 O.3   1 <1>  -0.5600 
 15 C       -1.1320     4.7760    -0.2290 C.3   1 <1>   0.2000 
 16 C       -4.4600    -4.0410    -1.5270 C.ar  1 <1>  -0.1500 
 17 C       -4.4220    -3.9560     0.8640 C.ar  1 <1>  -0.1500 
 18 C       -4.6680     4.9330     0.6960 C.3   1 <1>   0.0400 
 19 O       -1.3540     6.0520    -0.7050 O.3   1 <1>  -0.6800 
 20 C       -4.7330    -5.3970    -1.4760 C.ar  1 <1>  -0.1500 
 21 C       -4.6950    -5.3130     0.9180 C.ar  1 <1>  -0.1500 
 22 C       -4.8510    -6.0340    -0.2530 C.ar  1 <1>  -0.1500 
 23 H       -2.6480     0.3820    -1.1310 H     1 <1>   0.3700 
 24 H       -0.5840     2.3430     1.1590 H     1 <1>   0.0800 
 25 H       -2.0080    -2.0860    -1.1900 H     1 <1>   0.0800 
 26 H       -2.0790    -2.0120     0.5470 H     1 <1>   0.0800 
 27 H       -3.0380     2.4110     1.3690 H     1 <1>   0.0800 
 28 H       -3.1730     2.4610    -0.3690 H     1 <1>   0.0800 
 29 H        0.5940     2.3270    -0.8140 H     1 <1>   0.0800 
 30 H       -0.7340     1.7790    -1.7790 H     1 <1>   0.0800 
 31 H       -2.3590     4.6210     1.5170 H     1 <1>   0.0800 
 32 H       -1.5930     3.8760    -2.1050 H     1 <1>   0.0800 
 33 H        0.0930     4.2900    -1.9280 H     1 <1>   0.0800 
 34 H       -5.8000    -1.3160     0.7920 H     1 <1>   0.1000 
 35 H       -4.5610    -0.0300     0.7890 H     1 <1>   0.1000 
 36 H       -4.5290    -0.1010    -1.7490 H     1 <1>   0.1000 
 37 H       -5.7500    -1.4010    -1.7210 H     1 <1>   0.1000 
 38 H       -0.3020     4.8190     0.4550 H     1 <1>   0.0800 
 39 H       -4.3690    -3.5510    -2.4800 H     1 <1>   0.1500 
 40 H       -4.3000    -3.3990     1.7760 H     1 <1>   0.1500 
 41 H       -5.4610     5.3700     0.1160 H     1 <1>   0.0800 
 42 H       -4.4410     5.5700     1.5340 H     1 <1>   0.0800 
 43 H       -4.9640     3.9550     1.0320 H     1 <1>   0.0800 
 44 H       -2.3180     6.1000    -0.9000 H     1 <1>   0.4000 
 45 H       -4.8540    -5.9570    -2.3880 H     1 <1>   0.1500 
 46 H       -4.7850    -5.8060     1.8700 H     1 <1>   0.1500 
 47 H       -5.0630    -7.0880    -0.2120 H     1 <1>   0.1500 
@<TRIPOS>BOND
  1   1   2  2   
  2   2   3  am  
  3   2   4  1   
  4   3   5  1   
  5   3  23  1   
  6   4   6  1   
  7   4   7  1   
  8   4  24  1   
  9   5   8  1   
 10   5  25  1   
 11   5  26  1   
 12   6   9  1   
 13   6  27  1   
 14   6  28  1   
 15   7  10  1   
 16   7  29  1   
 17   7  30  1   
 18   8  11  1   
 19   8  12  1   
 20   8  13  1   
 21   9  14  1   
 22   9  15  1   
 23   9  31  1   
 24  10  15  1   
 25  10  32  1   
 26  10  33  1   
 27  11  16  ar  
 28  11  17  ar  
 29  12  13  1   
 30  12  34  1   
 31  12  35  1   
 32  13  36  1   
 33  13  37  1   
 34  14  18  1   
 35  15  19  1   
 36  15  38  1   
 37  16  20  ar  
 38  16  39  1   
 39  17  21  ar  
 40  17  40  1   
 41  18  41  1   
 42  18  42  1   
 43  18  43  1   
 44  19  44  1   
 45  20  22  ar  
 46  20  45  1   
 47  21  22  ar  
 48  21  46  1   
 49  22  47  1   
@<TRIPOS>SUBSTRUCTURE
  1 ****   3 GROUP 4 **** **** 0

# MOE 2024.06 (io_trps.svl 2023.06)
