@<TRIPOS>MOLECULE
NONAME
47 49 1 0 0 
SMALL
USER_CHARGES


@<TRIPOS>ATOM
  1 O       -0.3270     1.5580     2.0950 O.2   1 <1>  -0.5700 
  2 C        0.2230     2.3900     1.4200 C.2   1 <1>   0.4230 
  3 C       -0.2810     3.0940     0.2890 C.ar  1 <1>   0.0860 
  4 C        1.6390     2.8380     1.7010 C.3   1 <1>  -0.0990 
  5 C        0.6680     3.9680    -0.2010 C.ar  1 <1>  -0.1440 
  6 C       -1.5190     3.0140    -0.3370 C.ar  1 <1>  -0.1500 
  7 C        1.9510     3.9090     0.6170 C.3   1 <1>   0.1440 
  8 C        0.4040     4.7600    -1.3010 C.ar  1 <1>  -0.1500 
  9 C       -1.7830     3.8080    -1.4380 C.ar  1 <1>  -0.1500 
 10 C        2.2370     5.2870     1.2450 C.3   1 <1>  -0.1600 
 11 C        3.1290     3.4860    -0.2820 C.3   1 <1>  -0.1600 
 12 C       -0.8330     4.6990    -1.9500 C.ar  1 <1>  -0.1790 
 13 C        3.5860     5.3290     1.9690 C.3   1 <1>   0.1400 
 14 C        4.4720     3.5390     0.4530 C.3   1 <1>   0.1400 
 15 C       -1.1150     5.5320    -3.1110 C.2   1 <1>   0.9790 
 16 N        4.6580     4.8940     1.0360 N.am  1 <1>  -0.6600 
 17 O       -2.2240     5.4840    -3.6730 O.co2 1 <1>  -0.9000 
 18 O       -0.2500     6.3050    -3.5610 O.co2 1 <1>  -0.9000 
 19 C        5.6660     5.7450     0.6570 C.2   1 <1>   0.7800 
 20 O        5.7730     6.8650     1.1180 O.2   1 <1>  -0.5700 
 21 O        6.5350     5.2970    -0.2550 O.3   1 <1>  -0.4300 
 22 C        7.6040     6.0070    -0.8430 C.3   1 <1>   0.2800 
 23 C        7.0690     7.2150    -1.6200 C.3   1 <1>  -0.2400 
 24 C        8.2460     5.0220    -1.8210 C.3   1 <1>  -0.2400 
 25 C        8.6340     6.4010     0.2230 C.3   1 <1>  -0.2400 
 26 H        2.2910     1.9880     1.6330 H     1 <1>   0.0800 
 27 H        1.6850     3.2390     2.6960 H     1 <1>   0.0800 
 28 H       -2.2610     2.3350     0.0420 H     1 <1>   0.1500 
 29 H        1.1470     5.4430    -1.6810 H     1 <1>   0.1500 
 30 H       -2.7420     3.7500    -1.9280 H     1 <1>   0.1500 
 31 H        1.4500     5.5520     1.9280 H     1 <1>   0.0800 
 32 H        2.2520     6.0370     0.4730 H     1 <1>   0.0800 
 33 H        3.1870     4.1460    -1.1300 H     1 <1>   0.0800 
 34 H        2.9630     2.4940    -0.6640 H     1 <1>   0.0800 
 35 H        3.5780     4.6750     2.8240 H     1 <1>   0.0800 
 36 H        3.7710     6.3300     2.3220 H     1 <1>   0.0800 
 37 H        5.2640     3.3010    -0.2360 H     1 <1>   0.0800 
 38 H        4.4960     2.8120     1.2450 H     1 <1>   0.0800 
 39 H        6.2940     6.9100    -2.3010 H     1 <1>   0.0800 
 40 H        7.8620     7.6680    -2.1870 H     1 <1>   0.0800 
 41 H        6.6790     7.9620    -0.9540 H     1 <1>   0.0800 
 42 H        7.5320     4.7150    -2.5640 H     1 <1>   0.0800 
 43 H        8.6020     4.1540    -1.2960 H     1 <1>   0.0800 
 44 H        9.0790     5.4810    -2.3210 H     1 <1>   0.0800 
 45 H        8.2410     7.1510     0.8840 H     1 <1>   0.0800 
 46 H        9.5090     6.8110    -0.2470 H     1 <1>   0.0800 
 47 H        8.9250     5.5410     0.7970 H     1 <1>   0.0800 
@<TRIPOS>BOND
  1   1   2  2   
  2   2   3  1   
  3   2   4  1   
  4   3   5  ar  
  5   3   6  ar  
  6   4   7  1   
  7   4  26  1   
  8   4  27  1   
  9   5   7  1   
 10   5   8  ar  
 11   6   9  ar  
 12   6  28  1   
 13   7  10  1   
 14   7  11  1   
 15   8  12  ar  
 16   8  29  1   
 17   9  12  ar  
 18   9  30  1   
 19  10  13  1   
 20  10  31  1   
 21  10  32  1   
 22  11  14  1   
 23  11  33  1   
 24  11  34  1   
 25  12  15  1   
 26  13  16  1   
 27  13  35  1   
 28  13  36  1   
 29  14  16  1   
 30  14  37  1   
 31  14  38  1   
 32  15  17  ar  
 33  15  18  ar  
 34  16  19  am  
 35  19  20  2   
 36  19  21  1   
 37  21  22  1   
 38  22  23  1   
 39  22  24  1   
 40  22  25  1   
 41  23  39  1   
 42  23  40  1   
 43  23  41  1   
 44  24  42  1   
 45  24  43  1   
 46  24  44  1   
 47  25  45  1   
 48  25  46  1   
 49  25  47  1   
@<TRIPOS>SUBSTRUCTURE
  1 ****  11 GROUP 4 **** **** 0

# MOE 2024.06 (io_trps.svl 2023.06)
