@<TRIPOS>MOLECULE
NONAME
54 57 1 0 0 
SMALL
USER_CHARGES


@<TRIPOS>ATOM
  1 O        0.6080     0.6730     1.0230 O.2   1 <1>  -0.5700 
  2 C        1.4300     1.2880     0.3850 C.2   1 <1>   0.5690 
  3 N        1.3900     2.6570     0.2790 N.am  1 <1>  -0.6600 
  4 C        2.5350     0.4930    -0.2970 C.3   1 <1>  -0.0990 
  5 C        0.1840     3.4190     0.7700 C.3   1 <1>   0.2200 
  6 C        2.6010     3.4740    -0.0530 C.3   1 <1>   0.1400 
  7 C        2.1230    -0.9490    -0.6370 C.3   1 <1>  -0.0160 
  8 C        0.3500     4.9720     0.7790 C.3   1 <1>   0.1380 
  9 C       -1.1350     2.9630     0.1180 C.3   1 <1>  -0.1600 
 10 C        2.8770     4.5670     0.9980 C.3   1 <1>  -0.1600 
 11 C        3.2610    -1.6990    -1.3070 C.ar  1 <1>   0.1660 
 12 C        0.4950     5.6830    -0.6040 C.2   1 <1>  -0.2760 
 13 C       -0.9010     5.5460     1.5120 C.3   1 <1>   0.1200 
 14 C        1.6230     5.2210     1.6180 C.3   1 <1>  -0.1600 
 15 C       -2.2080     4.0510     0.2230 C.3   1 <1>   0.1200 
 16 N        3.5760    -1.3170    -2.5360 N.ar  1 <1>  -0.6200 
 17 C        3.9050    -2.7220    -0.6250 C.ar  1 <1>  -0.1500 
 18 C        0.3700     5.1210    -1.8160 C.2   1 <1>  -0.2880 
 19 C        0.8420     7.1780    -0.5630 C.3   1 <1>  -0.0220 
 20 O       -2.0370     4.7220     1.4320 O.3   1 <1>  -0.5600 
 21 C        4.5680    -1.9810    -3.1070 C.ar  1 <1>   0.1600 
 22 C        4.9380    -3.4030    -1.2310 C.ar  1 <1>  -0.1500 
 23 C        0.5430     5.8590    -3.1380 C.3   1 <1>   0.2580 
 24 C        0.5600     7.8560    -1.9100 C.3   1 <1>   0.1200 
 25 C        5.2710    -3.0140    -2.5100 C.ar  1 <1>  -0.1500 
 26 O        1.1360     7.1070    -2.9330 O.3   1 <1>  -0.5600 
 27 H        2.8080     0.9850    -1.2120 H     1 <1>   0.0800 
 28 H        3.3910     0.4740     0.3510 H     1 <1>   0.0800 
 29 H        0.0800     3.1440     1.8070 H     1 <1>   0.0800 
 30 H        3.4770     2.8560    -0.1270 H     1 <1>   0.0800 
 31 H        2.4590     3.9280    -1.0160 H     1 <1>   0.0800 
 32 H        1.2770    -0.9330    -1.3010 H     1 <1>   0.0800 
 33 H        1.8250    -1.4620     0.2600 H     1 <1>   0.0800 
 34 H       -1.4940     2.0960     0.6430 H     1 <1>   0.0800 
 35 H       -1.0020     2.6770    -0.9060 H     1 <1>   0.0800 
 36 H        3.4750     4.1450     1.7860 H     1 <1>   0.0800 
 37 H        3.4740     5.3270     0.5250 H     1 <1>   0.0800 
 38 H       -1.1840     6.5030     1.1190 H     1 <1>   0.0800 
 39 H       -0.6940     5.6690     2.5600 H     1 <1>   0.0800 
 40 H        1.7940     6.2700     1.7780 H     1 <1>   0.0800 
 41 H        1.4770     4.7850     2.5920 H     1 <1>   0.0800 
 42 H       -3.1920     3.6170     0.2150 H     1 <1>   0.0800 
 43 H       -2.1330     4.7650    -0.5790 H     1 <1>   0.0800 
 44 H        3.6030    -2.9850     0.3730 H     1 <1>   0.1500 
 45 H        0.1480     4.0870    -1.9830 H     1 <1>   0.1500 
 46 H        1.8870     7.2980    -0.3390 H     1 <1>   0.0800 
 47 H        0.2850     7.7000     0.1900 H     1 <1>   0.0800 
 48 H        4.8360    -1.6860    -4.1070 H     1 <1>   0.1500 
 49 H        5.4580    -4.2010    -0.7300 H     1 <1>   0.1500 
 50 H       -0.4060     6.0060    -3.6220 H     1 <1>   0.0800 
 51 H        1.1910     5.3040    -3.7940 H     1 <1>   0.0800 
 52 H        0.9930     8.8410    -1.9360 H     1 <1>   0.0800 
 53 H       -0.4990     7.9300    -2.0920 H     1 <1>   0.0800 
 54 H        6.0660    -3.5040    -3.0420 H     1 <1>   0.1500 
@<TRIPOS>BOND
  1   1   2  2   
  2   2   3  am  
  3   2   4  1   
  4   3   5  1   
  5   3   6  1   
  6   4   7  1   
  7   4  27  1   
  8   4  28  1   
  9   5   8  1   
 10   5   9  1   
 11   5  29  1   
 12   6  10  1   
 13   6  30  1   
 14   6  31  1   
 15   7  11  1   
 16   7  32  1   
 17   7  33  1   
 18   8  12  1   
 19   8  13  1   
 20   8  14  1   
 21   9  15  1   
 22   9  34  1   
 23   9  35  1   
 24  10  14  1   
 25  10  36  1   
 26  10  37  1   
 27  11  16  ar  
 28  11  17  ar  
 29  12  18  2   
 30  12  19  1   
 31  13  20  1   
 32  13  38  1   
 33  13  39  1   
 34  14  40  1   
 35  14  41  1   
 36  15  20  1   
 37  15  42  1   
 38  15  43  1   
 39  16  21  ar  
 40  17  22  ar  
 41  17  44  1   
 42  18  23  1   
 43  18  45  1   
 44  19  24  1   
 45  19  46  1   
 46  19  47  1   
 47  21  25  ar  
 48  21  48  1   
 49  22  25  ar  
 50  22  49  1   
 51  23  26  1   
 52  23  50  1   
 53  23  51  1   
 54  24  26  1   
 55  24  52  1   
 56  24  53  1   
 57  25  54  1   
@<TRIPOS>SUBSTRUCTURE
  1 ****   3 GROUP 4 **** **** 0

# MOE 2024.06 (io_trps.svl 2023.06)
