@<TRIPOS>MOLECULE
NONAME
41 43 1 0 0 
SMALL
USER_CHARGES


@<TRIPOS>ATOM
  1 F       -0.2970     1.9160    -3.3860 F     1 <1>  -0.1900 
  2 C       -0.3160     2.1650    -2.1040 C.ar  1 <1>   0.1900 
  3 C       -1.4880     1.9820    -1.3880 C.ar  1 <1>  -0.1440 
  4 C        0.8510     2.6040    -1.5100 C.ar  1 <1>  -0.1500 
  5 C       -1.4670     2.2530    -0.0270 C.ar  1 <1>  -0.1500 
  6 C       -2.7680     1.5000    -2.0490 C.3   1 <1>   0.2840 
  7 C        0.8510     2.8710    -0.1520 C.ar  1 <1>  -0.1500 
  8 C       -0.3080     2.7020     0.6050 C.ar  1 <1>  -0.1440 
  9 N       -2.9850     0.0870    -1.6960 N.am  1 <1>  -0.7300 
 10 C       -0.3240     2.9900     2.1170 C.3   1 <1>   1.1640 
 11 C       -3.8560    -0.3870    -0.7600 C.2   1 <1>   0.7160 
 12 F        0.7020     3.7340     2.5170 F     1 <1>  -0.3400 
 13 F       -1.4180     3.6380     2.4990 F     1 <1>  -0.3400 
 14 F       -0.2780     1.8770     2.8360 F     1 <1>  -0.3400 
 15 O       -4.5600     0.4090    -0.1630 O.2   1 <1>  -0.5700 
 16 C       -3.9090    -1.8180    -0.4970 C.2   1 <1>   0.2030 
 17 N       -3.1550    -2.7320    -1.0870 N.2   1 <1>  -0.7070 
 18 C       -4.7640    -2.4300     0.4130 C.2   1 <1>  -0.1500 
 19 N       -3.5290    -3.9000    -0.5580 N.pl3 1 <1>   0.3140 
 20 C       -4.5090    -3.7640     0.3670 C.2   1 <1>  -0.2370 
 21 C       -2.8770    -5.1450    -0.9860 C.3   1 <1>   0.0960 
 22 C       -5.1440    -4.8170     1.1040 C.2   1 <1>   0.7150 
 23 C       -2.3190    -5.8720     0.2340 C.3   1 <1>   0.2000 
 24 O       -6.1840    -4.6030     1.6880 O.2   1 <1>  -0.5700 
 25 N       -4.6810    -6.0890     1.2140 N.am  1 <1>  -0.7300 
 26 O       -1.2920    -6.7110    -0.1830 O.3   1 <1>  -0.6800 
 27 C       -3.3590    -6.7300     0.9710 C.3   1 <1>   0.1400 
 28 H        1.7390     2.7310    -2.1030 H     1 <1>   0.1500 
 29 H       -2.3710     2.1070     0.5450 H     1 <1>   0.1500 
 30 H       -2.7140     1.5950    -3.1190 H     1 <1>   0.0800 
 31 H       -3.5970     2.0960    -1.7060 H     1 <1>   0.0800 
 32 H        1.7640     3.2120     0.3090 H     1 <1>   0.1500 
 33 H       -2.3470    -0.6010    -2.1040 H     1 <1>   0.3700 
 34 H       -5.4880    -1.9200     1.0260 H     1 <1>   0.1500 
 35 H       -2.0750    -4.8810    -1.6520 H     1 <1>   0.0800 
 36 H       -3.5940    -5.7500    -1.5080 H     1 <1>   0.0800 
 37 H       -1.8760    -5.1620     0.9140 H     1 <1>   0.0800 
 38 H       -5.3250    -6.6650     1.7620 H     1 <1>   0.3700 
 39 H       -1.5970    -7.3610    -0.8460 H     1 <1>   0.4000 
 40 H       -2.9440    -7.0230     1.9210 H     1 <1>   0.0800 
 41 H       -3.5370    -7.6240     0.3990 H     1 <1>   0.0800 
@<TRIPOS>BOND
  1   1   2  1   
  2   2   3  ar  
  3   2   4  ar  
  4   3   5  ar  
  5   3   6  1   
  6   4   7  ar  
  7   4  28  1   
  8   5   8  ar  
  9   5  29  1   
 10   6   9  1   
 11   6  30  1   
 12   6  31  1   
 13   7   8  ar  
 14   7  32  1   
 15   8  10  1   
 16   9  11  am  
 17   9  33  1   
 18  10  12  1   
 19  10  13  1   
 20  10  14  1   
 21  11  15  2   
 22  11  16  1   
 23  16  17  2   
 24  16  18  1   
 25  17  19  1   
 26  18  20  2   
 27  18  34  1   
 28  19  20  1   
 29  19  21  1   
 30  20  22  1   
 31  21  23  1   
 32  21  35  1   
 33  21  36  1   
 34  22  24  2   
 35  22  25  am  
 36  23  26  1   
 37  23  27  1   
 38  23  37  1   
 39  25  27  1   
 40  25  38  1   
 41  26  39  1   
 42  27  40  1   
 43  27  41  1   
@<TRIPOS>SUBSTRUCTURE
  1 ****  11 GROUP 4 **** **** 0

# MOE 2024.06 (io_trps.svl 2023.06)
