@<TRIPOS>MOLECULE
NONAME
50 53 1 0 0 
SMALL
USER_CHARGES


@<TRIPOS>ATOM
  1 O        3.8660    -0.4310     2.1800 O.co2 1 <1>  -0.9000 
  2 C        3.4740     0.6780     1.7800 C.2   1 <1>   0.9060 
  3 O        3.3690     1.6370     2.5410 O.co2 1 <1>  -0.9000 
  4 C        3.1140     0.8480     0.2910 C.3   1 <1>  -0.1060 
  5 C        4.0000    -0.1000    -0.5480 C.3   1 <1>   0.4230 
  6 C        3.3810     2.3100    -0.1750 C.3   1 <1>  -0.1600 
  7 C        1.6240     0.5090     0.0470 C.3   1 <1>  -0.1600 
  8 N        3.7050    -1.5330    -0.2040 N.4   1 <1>  -0.9590 
  9 C        5.4860     0.3010    -0.4060 C.3   1 <1>   0.1400 
 10 C        4.8680     2.6870    -0.0860 C.3   1 <1>   0.1400 
 11 C        1.3400    -0.9810     0.2920 C.3   1 <1>  -0.1600 
 12 C        2.2930    -1.8940    -0.4850 C.3   1 <1>   0.3430 
 13 C        4.6680    -2.5310    -0.7420 C.3   1 <1>   0.2630 
 14 N        5.6530     1.7040    -0.8870 N.am  1 <1>  -0.6600 
 15 C        6.3750     1.9880    -2.0200 C.2   1 <1>   0.5690 
 16 O        6.8190     1.0970    -2.7090 O.2   1 <1>  -0.5700 
 17 C        6.6230     3.4190    -2.4840 C.3   1 <1>   0.0440 
 18 C        7.4260     4.2530    -1.4900 C.ar  1 <1>  -0.1430 
 19 C        7.0000     5.5360    -1.1560 C.ar  1 <1>  -0.1500 
 20 C        8.5880     3.7350    -0.9160 C.ar  1 <1>  -0.1500 
 21 C        7.7490     6.2570    -0.2480 C.ar  1 <1>   0.0830 
 22 C        9.3280     4.4770    -0.0040 C.ar  1 <1>  -0.1500 
 23 O        7.5250     7.4920     0.2130 O.3   1 <1>  -0.3630 
 24 C        8.8800     5.7430     0.3130 C.ar  1 <1>   0.0830 
 25 C        8.5790     7.7810     1.1300 C.3   1 <1>   0.4000 
 26 O        9.4210     6.6300     1.1550 O.3   1 <1>  -0.3620 
 27 H        3.7480     0.0440    -1.5840 H     1 <1>   0.0800 
 28 H        2.8190     2.9910     0.4410 H     1 <1>   0.0800 
 29 H        3.0520     2.4490    -1.1890 H     1 <1>   0.0800 
 30 H        1.0120     1.1030     0.7070 H     1 <1>   0.0800 
 31 H        1.3540     0.7570    -0.9650 H     1 <1>   0.0800 
 32 H        3.7950    -1.5010     0.8490 H     1 <1>   0.4500 
 33 H        6.1070    -0.3560    -0.9860 H     1 <1>   0.0800 
 34 H        5.8030     0.2420     0.6220 H     1 <1>   0.0800 
 35 H        5.1990     2.6600     0.9410 H     1 <1>   0.0800 
 36 H        5.0050     3.6900    -0.4440 H     1 <1>   0.0800 
 37 H        0.3270    -1.2030     0.0070 H     1 <1>   0.0800 
 38 H        1.4270    -1.1990     1.3430 H     1 <1>   0.0800 
 39 H        2.1000    -1.8000    -1.5410 H     1 <1>   0.0800 
 40 H        2.1140    -2.9160    -0.1940 H     1 <1>   0.0800 
 41 H        4.6790    -2.4980    -1.8190 H     1 <1>   0.0800 
 42 H        4.3890    -3.5220    -0.4230 H     1 <1>   0.0800 
 43 H        5.6600    -2.3260    -0.3750 H     1 <1>   0.0800 
 44 H        7.1640     3.3880    -3.4120 H     1 <1>   0.0800 
 45 H        5.6750     3.8790    -2.6830 H     1 <1>   0.0800 
 46 H        6.1150     5.9750    -1.5790 H     1 <1>   0.1500 
 47 H        8.9220     2.7450    -1.1770 H     1 <1>   0.1500 
 48 H       10.2220     4.0870     0.4470 H     1 <1>   0.1500 
 49 H        9.1390     8.6300     0.7800 H     1 <1>   0.0800 
 50 H        8.1690     7.9490     2.1100 H     1 <1>   0.0800 
@<TRIPOS>BOND
  1   1   2  ar  
  2   2   3  ar  
  3   2   4  1   
  4   4   5  1   
  5   4   6  1   
  6   4   7  1   
  7   5   8  1   
  8   5   9  1   
  9   5  27  1   
 10   6  10  1   
 11   6  28  1   
 12   6  29  1   
 13   7  11  1   
 14   7  30  1   
 15   7  31  1   
 16   8  12  1   
 17   8  13  1   
 18   8  32  1   
 19   9  14  1   
 20   9  33  1   
 21   9  34  1   
 22  10  14  1   
 23  10  35  1   
 24  10  36  1   
 25  11  12  1   
 26  11  37  1   
 27  11  38  1   
 28  12  39  1   
 29  12  40  1   
 30  13  41  1   
 31  13  42  1   
 32  13  43  1   
 33  14  15  am  
 34  15  16  2   
 35  15  17  1   
 36  17  18  1   
 37  17  44  1   
 38  17  45  1   
 39  18  19  ar  
 40  18  20  ar  
 41  19  21  ar  
 42  19  46  1   
 43  20  22  ar  
 44  20  47  1   
 45  21  23  1   
 46  21  24  ar  
 47  22  24  ar  
 48  22  48  1   
 49  23  25  1   
 50  24  26  1   
 51  25  26  1   
 52  25  49  1   
 53  25  50  1   
@<TRIPOS>SUBSTRUCTURE
  1 ****  10 GROUP 4 **** **** 0

# MOE 2024.06 (io_trps.svl 2023.06)
