@<TRIPOS>MOLECULE
NONAME
45 46 1 0 0 
SMALL
USER_CHARGES


@<TRIPOS>ATOM
  1 S        0.6160     0.1130    -0.8750 S.3   1 <1>  -0.4600 
  2 C        0.4170     1.5430     0.2200 C.3   1 <1>   0.0700 
  3 C       -0.5950    -1.0680    -0.2320 C.3   1 <1>   0.0700 
  4 C        1.4680     2.5810    -0.1740 C.3   1 <1>  -0.0990 
  5 C       -0.5150    -2.3230    -1.0960 C.3   1 <1>  -0.2400 
  6 C        1.3440     3.8540     0.6370 C.2   1 <1>   0.5690 
  7 O        0.8350     3.8260     1.7300 O.2   1 <1>  -0.5700 
  8 N        1.8140     5.0000     0.1020 N.am  1 <1>  -0.7300 
  9 C        1.8850     6.2850     0.8160 C.3   1 <1>   0.5070 
 10 C        0.7780     7.2330     0.3330 C.ar  1 <1>  -0.1440 
 11 C        3.2930     6.8310     0.5770 C.ar  1 <1>  -0.1440 
 12 C       -0.4850     6.7760    -0.0030 C.ar  1 <1>  -0.1500 
 13 C        0.9570     8.6030     0.2330 C.ar  1 <1>  -0.1500 
 14 C        3.7010     7.2390    -0.6880 C.ar  1 <1>  -0.1500 
 15 C        4.1900     6.9160     1.6320 C.ar  1 <1>  -0.1500 
 16 C       -1.4560     7.6670    -0.4260 C.ar  1 <1>   0.1600 
 17 C       -0.0820     9.4090    -0.2030 C.ar  1 <1>   0.1600 
 18 C        4.9790     7.7270    -0.8960 C.ar  1 <1>  -0.1500 
 19 C        5.4680     7.4040     1.4270 C.ar  1 <1>  -0.1500 
 20 N       -1.2830     8.9730    -0.5400 N.ar  1 <1>  -0.6200 
 21 C        5.8730     7.8120     0.1670 C.ar  1 <1>   0.0820 
 22 O        7.1420     8.2770     0.0540 O.3   1 <1>  -0.3620 
 23 C        7.6580     8.7090    -1.1860 C.3   1 <1>   0.0400 
 24 H        0.5560     1.2040     1.2320 H     1 <1>   0.0800 
 25 H       -0.5830     1.9180     0.0890 H     1 <1>   0.0800 
 26 H       -1.5650    -0.6060    -0.2900 H     1 <1>   0.0800 
 27 H       -0.3370    -1.2740     0.7920 H     1 <1>   0.0800 
 28 H        1.3550     2.8150    -1.2160 H     1 <1>   0.0800 
 29 H        2.4480     2.1710    -0.0170 H     1 <1>   0.0800 
 30 H       -0.7420    -2.0820    -2.1190 H     1 <1>   0.0800 
 31 H       -1.2200    -3.0550    -0.7470 H     1 <1>   0.0800 
 32 H        0.4740    -2.7440    -1.0460 H     1 <1>   0.0800 
 33 H        2.2930     5.0050    -0.7950 H     1 <1>   0.3700 
 34 H        1.7430     6.1160     1.8700 H     1 <1>   0.0800 
 35 H       -0.7300     5.7320     0.0660 H     1 <1>   0.1500 
 36 H        1.8940     9.0630     0.4900 H     1 <1>   0.1500 
 37 H        3.0180     7.1850    -1.5190 H     1 <1>   0.1500 
 38 H        3.9020     6.6010     2.6210 H     1 <1>   0.1500 
 39 H       -2.4290     7.2830    -0.6840 H     1 <1>   0.1500 
 40 H        0.0860    10.4700    -0.2770 H     1 <1>   0.1500 
 41 H        5.2600     8.0360    -1.8840 H     1 <1>   0.1500 
 42 H        6.1640     7.4710     2.2440 H     1 <1>   0.1500 
 43 H        8.6740     9.0250    -1.0320 H     1 <1>   0.0800 
 44 H        7.0680     9.5350    -1.5410 H     1 <1>   0.0800 
 45 H        7.6330     7.8870    -1.8800 H     1 <1>   0.0800 
@<TRIPOS>BOND
  1   1   2  1   
  2   1   3  1   
  3   2   4  1   
  4   2  24  1   
  5   2  25  1   
  6   3   5  1   
  7   3  26  1   
  8   3  27  1   
  9   4   6  1   
 10   4  28  1   
 11   4  29  1   
 12   5  30  1   
 13   5  31  1   
 14   5  32  1   
 15   6   7  2   
 16   6   8  am  
 17   8   9  1   
 18   8  33  1   
 19   9  10  1   
 20   9  11  1   
 21   9  34  1   
 22  10  12  ar  
 23  10  13  ar  
 24  11  14  ar  
 25  11  15  ar  
 26  12  16  ar  
 27  12  35  1   
 28  13  17  ar  
 29  13  36  1   
 30  14  18  ar  
 31  14  37  1   
 32  15  19  ar  
 33  15  38  1   
 34  16  20  ar  
 35  16  39  1   
 36  17  20  ar  
 37  17  40  1   
 38  18  21  ar  
 39  18  41  1   
 40  19  21  ar  
 41  19  42  1   
 42  21  22  1   
 43  22  23  1   
 44  23  43  1   
 45  23  44  1   
 46  23  45  1   
@<TRIPOS>SUBSTRUCTURE
  1 ****   8 GROUP 4 **** **** 0

# MOE 2024.06 (io_trps.svl 2023.06)
