@<TRIPOS>MOLECULE
NONAME
53 55 1 0 0 
SMALL
USER_CHARGES


@<TRIPOS>ATOM
  1 O        1.4990     0.3550    -1.0260 O.2   1 <1>  -0.5700 
  2 C        2.1440    -0.2730    -0.2170 C.2   1 <1>   0.5690 
  3 N        3.1110     0.3510     0.5470 N.am  1 <1>  -0.6600 
  4 C        1.8200    -1.7720    -0.0720 C.3   1 <1>  -0.0190 
  5 C        4.0780    -0.3560     1.4500 C.3   1 <1>   0.1400 
  6 C        3.1680     1.8510     0.5510 C.3   1 <1>   0.1400 
  7 C        2.7510    -2.6580    -0.9190 C.3   1 <1>  -0.1600 
  8 C        0.3610    -2.1080    -0.4440 C.3   1 <1>  -0.1600 
  9 C        5.4310    -0.5890     0.7620 C.3   1 <1>   0.1400 
 10 C        4.5720     2.4600     0.6690 C.3   1 <1>  -0.1600 
 11 C        2.3530    -4.1350    -0.8150 C.3   1 <1>   0.1200 
 12 C        0.1040    -3.6150    -0.3570 C.3   1 <1>   0.1200 
 13 N        6.2430     0.6590     0.6820 N.am  1 <1>  -0.6600 
 14 C        5.6400     1.7340    -0.1510 C.3   1 <1>   0.1400 
 15 O        1.0150    -4.2860    -1.1710 O.3   1 <1>  -0.5600 
 16 C        7.4450     0.7650     1.3470 C.2   1 <1>   0.5690 
 17 O        7.8630    -0.1440     2.0280 O.2   1 <1>  -0.5700 
 18 C        8.2930     2.0330     1.2970 C.3   1 <1>   0.0820 
 19 C        8.9100     2.3200    -0.0700 C.2   1 <1>  -0.1810 
 20 C        9.6380     1.4230    -0.8530 C.2   1 <1>   0.1080 
 21 C        8.8880     3.4650    -0.7910 C.2   1 <1>  -0.3320 
 22 N       10.0300     1.9520    -1.9680 N.2   1 <1>  -0.7070 
 23 C        9.9690    -0.0100    -0.4980 C.3   1 <1>  -0.0590 
 24 N        9.5700     3.2120    -1.9280 N.pl3 1 <1>   0.3000 
 25 C        8.2690     4.8220    -0.4970 C.3   1 <1>  -0.0600 
 26 H        1.9280    -2.0450     0.9590 H     1 <1>   0.0800 
 27 H        3.6870    -1.3080     1.7480 H     1 <1>   0.0800 
 28 H        4.2260     0.2140     2.3510 H     1 <1>   0.0800 
 29 H        2.5560     2.2150     1.3580 H     1 <1>   0.0800 
 30 H        2.7350     2.2230    -0.3620 H     1 <1>   0.0800 
 31 H        3.7680    -2.5510    -0.5970 H     1 <1>   0.0800 
 32 H        2.6980    -2.3560    -1.9510 H     1 <1>   0.0800 
 33 H        0.1500    -1.7860    -1.4490 H     1 <1>   0.0800 
 34 H       -0.3120    -1.5870     0.2140 H     1 <1>   0.0800 
 35 H        5.2790    -0.9710    -0.2310 H     1 <1>   0.0800 
 36 H        5.9660    -1.3400     1.3160 H     1 <1>   0.0800 
 37 H        4.8670     2.5130     1.7010 H     1 <1>   0.0800 
 38 H        4.5070     3.4730     0.3140 H     1 <1>   0.0800 
 39 H        2.4840    -4.5090     0.1860 H     1 <1>   0.0800 
 40 H        2.9390    -4.7320    -1.4910 H     1 <1>   0.0800 
 41 H       -0.8850    -3.8480    -0.7110 H     1 <1>   0.0800 
 42 H        0.2110    -3.9770     0.6510 H     1 <1>   0.0800 
 43 H        6.3910     2.4350    -0.4600 H     1 <1>   0.0800 
 44 H        5.2110     1.3120    -1.0450 H     1 <1>   0.0800 
 45 H        9.0910     1.9360     2.0090 H     1 <1>   0.0800 
 46 H        7.6840     2.8560     1.6130 H     1 <1>   0.0800 
 47 H       10.2620    -0.0800     0.5330 H     1 <1>   0.0800 
 48 H       10.7780    -0.3600    -1.1120 H     1 <1>   0.0800 
 49 H        9.1100    -0.6320    -0.6660 H     1 <1>   0.0800 
 50 H        9.7440     3.8760    -2.6920 H     1 <1>   0.2700 
 51 H        7.7920     4.8290     0.4660 H     1 <1>   0.0800 
 52 H        7.5330     5.0620    -1.2440 H     1 <1>   0.0800 
 53 H        9.0300     5.5820    -0.5010 H     1 <1>   0.0800 
@<TRIPOS>BOND
  1   1   2  2   
  2   2   3  am  
  3   2   4  1   
  4   3   5  1   
  5   3   6  1   
  6   4   7  1   
  7   4   8  1   
  8   4  26  1   
  9   5   9  1   
 10   5  27  1   
 11   5  28  1   
 12   6  10  1   
 13   6  29  1   
 14   6  30  1   
 15   7  11  1   
 16   7  31  1   
 17   7  32  1   
 18   8  12  1   
 19   8  33  1   
 20   8  34  1   
 21   9  13  1   
 22   9  35  1   
 23   9  36  1   
 24  10  14  1   
 25  10  37  1   
 26  10  38  1   
 27  11  15  1   
 28  11  39  1   
 29  11  40  1   
 30  12  15  1   
 31  12  41  1   
 32  12  42  1   
 33  13  14  1   
 34  13  16  am  
 35  14  43  1   
 36  14  44  1   
 37  16  17  2   
 38  16  18  1   
 39  18  19  1   
 40  18  45  1   
 41  18  46  1   
 42  19  20  1   
 43  19  21  2   
 44  20  22  2   
 45  20  23  1   
 46  21  24  1   
 47  21  25  1   
 48  22  24  1   
 49  23  47  1   
 50  23  48  1   
 51  23  49  1   
 52  24  50  1   
 53  25  51  1   
 54  25  52  1   
 55  25  53  1   
@<TRIPOS>SUBSTRUCTURE
  1 ****   9 GROUP 4 **** **** 0

# MOE 2024.06 (io_trps.svl 2023.06)
