@<TRIPOS>MOLECULE
NONAME
46 48 1 0 0 
SMALL
USER_CHARGES


@<TRIPOS>ATOM
  1 CL       0.0340    -3.1490    -1.9250 Cl    1 <1>  -0.1770 
  2 C        0.3110    -2.3290    -0.4060 C.ar  1 <1>   0.1770 
  3 C        1.5290    -1.7180    -0.1370 C.ar  1 <1>  -0.1440 
  4 C       -0.7280    -2.3180     0.5120 C.ar  1 <1>  -0.1500 
  5 C        1.6520    -1.0960     1.0970 C.ar  1 <1>   0.1900 
  6 C        2.6870    -1.7010    -1.1380 C.3   1 <1>   0.0440 
  7 C       -0.5690    -1.6870     1.7360 C.ar  1 <1>  -0.1500 
  8 F        2.7770    -0.5050     1.4070 F     1 <1>  -0.1900 
  9 C        0.6340    -1.0690     2.0330 C.ar  1 <1>  -0.1500 
 10 C        2.7990    -0.3630    -1.8670 C.2   1 <1>   0.5690 
 11 O        1.7670     0.1610    -2.2170 O.2   1 <1>  -0.5700 
 12 N        4.0190     0.2200    -2.1350 N.am  1 <1>  -0.6600 
 13 C        5.3430    -0.4360    -1.8950 C.3   1 <1>   0.1400 
 14 C        4.0730     1.5710    -2.7710 C.3   1 <1>   0.1400 
 15 C        5.8850    -0.1140    -0.4940 C.3   1 <1>   0.1400 
 16 C        5.1460     2.4930    -2.1760 C.3   1 <1>  -0.1600 
 17 N        6.3530     1.3020    -0.3670 N.am  1 <1>  -0.6600 
 18 C        5.3330     2.3510    -0.6610 C.3   1 <1>   0.1400 
 19 C        7.6370     1.5940     0.0600 C.2   1 <1>   0.6160 
 20 O        8.3680     0.6810     0.4000 O.2   1 <1>  -0.5700 
 21 C        8.1210     2.9360     0.1900 C.2   1 <1>   0.0290 
 22 C        8.5120     3.6410    -0.9910 C.2   1 <1>   0.6160 
 23 C        8.2350     3.5650     1.4070 C.2   1 <1>  -0.1500 
 24 O        8.4490     3.1900    -2.1240 O.2   1 <1>  -0.5700 
 25 N        8.9770     4.9230    -0.8600 N.am  1 <1>  -0.5390 
 26 C        8.7180     4.8880     1.4880 C.2   1 <1>  -0.1500 
 27 C        9.0830     5.5490     0.3560 C.2   1 <1>  -0.0410 
 28 H       -1.6560    -2.8010     0.2630 H     1 <1>   0.1500 
 29 H        2.5690    -2.4690    -1.8770 H     1 <1>   0.0800 
 30 H        3.5870    -1.9190    -0.6000 H     1 <1>   0.0800 
 31 H       -1.3750    -1.6770     2.4490 H     1 <1>   0.1500 
 32 H        0.7830    -0.5720     2.9750 H     1 <1>   0.1500 
 33 H        6.0550    -0.1160    -2.6360 H     1 <1>   0.0800 
 34 H        5.2410    -1.5000    -2.0010 H     1 <1>   0.0800 
 35 H        3.1190     2.0570    -2.6530 H     1 <1>   0.0800 
 36 H        4.2440     1.4540    -3.8280 H     1 <1>   0.0800 
 37 H        6.6970    -0.7900    -0.2960 H     1 <1>   0.0800 
 38 H        5.1270    -0.3020     0.2440 H     1 <1>   0.0800 
 39 H        4.8530     3.5040    -2.3910 H     1 <1>   0.0800 
 40 H        6.0810     2.3310    -2.6800 H     1 <1>   0.0800 
 41 H        4.3990     2.0970    -0.1880 H     1 <1>   0.0800 
 42 H        5.6500     3.2960    -0.2560 H     1 <1>   0.0800 
 43 H        7.9620     3.0530     2.3140 H     1 <1>   0.1500 
 44 H        9.2550     5.3660    -1.7380 H     1 <1>   0.3700 
 45 H        8.7940     5.3540     2.4570 H     1 <1>   0.1500 
 46 H        9.4610     6.5600     0.3760 H     1 <1>   0.1500 
@<TRIPOS>BOND
  1   1   2  1   
  2   2   3  ar  
  3   2   4  ar  
  4   3   5  ar  
  5   3   6  1   
  6   4   7  ar  
  7   4  28  1   
  8   5   8  1   
  9   5   9  ar  
 10   6  10  1   
 11   6  29  1   
 12   6  30  1   
 13   7   9  ar  
 14   7  31  1   
 15   9  32  1   
 16  10  11  2   
 17  10  12  am  
 18  12  13  1   
 19  12  14  1   
 20  13  15  1   
 21  13  33  1   
 22  13  34  1   
 23  14  16  1   
 24  14  35  1   
 25  14  36  1   
 26  15  17  1   
 27  15  37  1   
 28  15  38  1   
 29  16  18  1   
 30  16  39  1   
 31  16  40  1   
 32  17  18  1   
 33  17  19  am  
 34  18  41  1   
 35  18  42  1   
 36  19  20  2   
 37  19  21  1   
 38  21  22  1   
 39  21  23  2   
 40  22  24  2   
 41  22  25  am  
 42  23  26  1   
 43  23  43  1   
 44  25  27  1   
 45  25  44  1   
 46  26  27  2   
 47  26  45  1   
 48  27  46  1   
@<TRIPOS>SUBSTRUCTURE
  1 ****  15 GROUP 4 **** **** 0

# MOE 2024.06 (io_trps.svl 2023.06)
