@<TRIPOS>MOLECULE
NONAME
43 44 1 0 0 
SMALL
USER_CHARGES


@<TRIPOS>ATOM
  1 S        0.4680    -0.2590    -0.8750 S.o2  1 <1>   1.3330 
  2 O       -0.4460    -1.3780    -0.8680 O.2   1 <1>  -0.6500 
  3 O        1.5970    -0.2640    -1.7780 O.2   1 <1>  -0.6500 
  4 N        1.0620    -0.0800     0.7060 N.am  1 <1>  -0.8490 
  5 C       -0.4570     1.2520    -1.1630 C.3   1 <1>  -0.0550 
  6 C        2.3020    -0.8310     0.9250 C.3   1 <1>   0.1160 
  7 C        0.0820    -0.4210     1.7430 C.3   1 <1>   0.1160 
  8 C        0.4040     2.5330    -1.1940 C.3   1 <1>  -0.0800 
  9 C       -0.3490     3.7790    -1.6670 C.3   1 <1>   0.2000 
 10 C        0.9920     2.9410     0.1640 C.3   1 <1>   0.1400 
 11 O       -1.5840     3.8270    -1.0360 O.3   1 <1>  -0.6800 
 12 C        0.4970     4.9350    -1.1390 C.3   1 <1>   0.1400 
 13 N        1.0450     4.4240     0.1420 N.am  1 <1>  -0.6600 
 14 C        1.4750     5.1810     1.2180 C.2   1 <1>   0.5440 
 15 O        1.6680     4.5760     2.2610 O.2   1 <1>  -0.5700 
 16 C        1.6830     6.6380     1.1750 C.ar  1 <1>   0.3960 
 17 N        1.9240     7.2650     0.0080 N.ar  1 <1>  -0.6200 
 18 C        1.6320     7.3600     2.3710 C.ar  1 <1>  -0.1500 
 19 C        2.1080     8.5700     0.0350 C.ar  1 <1>   0.1670 
 20 C        1.8220     8.7230     2.3950 C.ar  1 <1>  -0.1500 
 21 C        2.0660     9.3360     1.1880 C.ar  1 <1>  -0.1500 
 22 C        2.3790     9.2260    -1.3020 C.3   1 <1>  -0.0970 
 23 H       -0.9520     1.1630    -2.1100 H     1 <1>   0.0800 
 24 H       -1.2210     1.3480    -0.4160 H     1 <1>   0.0800 
 25 H        2.6590    -0.6760     1.9290 H     1 <1>   0.0800 
 26 H        3.0630    -0.4920     0.2430 H     1 <1>   0.0800 
 27 H        2.1360    -1.8830     0.7640 H     1 <1>   0.0800 
 28 H        0.4820    -0.1960     2.7170 H     1 <1>   0.0800 
 29 H       -0.1660    -1.4690     1.6980 H     1 <1>   0.0800 
 30 H       -0.8190     0.1530     1.6060 H     1 <1>   0.0800 
 31 H        1.2280     2.3770    -1.8690 H     1 <1>   0.0800 
 32 H       -0.5030     3.8140    -2.7320 H     1 <1>   0.0800 
 33 H        1.9780     2.5310     0.3080 H     1 <1>   0.0800 
 34 H        0.3570     2.6260     0.9750 H     1 <1>   0.0800 
 35 H       -1.4350     4.0270    -0.0890 H     1 <1>   0.4000 
 36 H       -0.0880     5.8280    -1.0040 H     1 <1>   0.0800 
 37 H        1.3130     5.1360    -1.8110 H     1 <1>   0.0800 
 38 H        1.4420     6.8360     3.2910 H     1 <1>   0.1500 
 39 H        1.7830     9.2820     3.3140 H     1 <1>   0.1500 
 40 H        2.2230    10.3980     1.1460 H     1 <1>   0.1500 
 41 H        2.5310    10.2840    -1.1930 H     1 <1>   0.0800 
 42 H        1.5450     9.0610    -1.9590 H     1 <1>   0.0800 
 43 H        3.2580     8.7930    -1.7430 H     1 <1>   0.0800 
@<TRIPOS>BOND
  1   1   2  2   
  2   1   3  2   
  3   1   4  am  
  4   1   5  1   
  5   4   6  1   
  6   4   7  1   
  7   5   8  1   
  8   5  23  1   
  9   5  24  1   
 10   6  25  1   
 11   6  26  1   
 12   6  27  1   
 13   7  28  1   
 14   7  29  1   
 15   7  30  1   
 16   8   9  1   
 17   8  10  1   
 18   8  31  1   
 19   9  11  1   
 20   9  12  1   
 21   9  32  1   
 22  10  13  1   
 23  10  33  1   
 24  10  34  1   
 25  11  35  1   
 26  12  13  1   
 27  12  36  1   
 28  12  37  1   
 29  13  14  am  
 30  14  15  2   
 31  14  16  1   
 32  16  17  ar  
 33  16  18  ar  
 34  17  19  ar  
 35  18  20  ar  
 36  18  38  1   
 37  19  21  ar  
 38  19  22  1   
 39  20  21  ar  
 40  20  39  1   
 41  21  40  1   
 42  22  41  1   
 43  22  42  1   
 44  22  43  1   
@<TRIPOS>SUBSTRUCTURE
  1 ****  13 GROUP 4 **** **** 0

# MOE 2024.06 (io_trps.svl 2023.06)
