@<TRIPOS>MOLECULE
NONAME
46 50 1 0 0 
SMALL
USER_CHARGES


@<TRIPOS>ATOM
  1 S       -0.3280     0.7070    -2.1530 S.3   1 <1>  -0.0800 
  2 C       -1.2230     1.2300    -0.7350 C.2   1 <1>  -0.1400 
  3 C       -1.5480    -0.5070    -2.5150 C.2   1 <1>  -0.1100 
  4 C       -2.3520     0.5220    -0.5990 C.2   1 <1>  -0.1810 
  5 C       -0.7390     2.3460     0.1830 C.3   1 <1>   0.4600 
  6 C       -2.5430    -0.4760    -1.6070 C.2   1 <1>  -0.1500 
  7 C       -3.2860     0.8210     0.5520 C.3   1 <1>   0.0210 
  8 O       -1.5940     2.4060     1.3090 O.3   1 <1>  -0.5600 
  9 C        0.6630     2.0460     0.7210 C.3   1 <1>  -0.1600 
 10 C       -0.7490     3.7050    -0.5280 C.3   1 <1>  -0.1600 
 11 C       -2.9760     2.2270     1.1020 C.3   1 <1>   0.1200 
 12 C        1.1660     3.1710     1.6250 C.3   1 <1>   0.1400 
 13 C       -0.2270     4.8260     0.3720 C.3   1 <1>   0.1400 
 14 N        1.1280     4.4680     0.8870 N.am  1 <1>  -0.6600 
 15 C        2.2670     5.2530     0.7420 C.2   1 <1>   0.6300 
 16 O        3.3480     4.6890     0.8510 O.2   1 <1>  -0.5700 
 17 C        2.2840     6.7030     0.4550 C.2   1 <1>   0.5000 
 18 N        3.4930     7.2250     0.0520 N.pl3 1 <1>  -0.5500 
 19 N        1.2560     7.4880     0.5810 N.2   1 <1>  -0.6610 
 20 C        3.7090     8.5530    -0.2470 C.ar  1 <1>   0.1000 
 21 C        1.3710     8.8200     0.2930 C.2   1 <1>   0.6950 
 22 C        2.6160     9.4070    -0.1290 C.ar  1 <1>   0.0860 
 23 C        4.9500     9.0390    -0.6470 C.ar  1 <1>  -0.1500 
 24 O        0.3660     9.5000     0.4020 O.2   1 <1>  -0.5700 
 25 C        2.7980    10.7630    -0.4260 C.ar  1 <1>  -0.1500 
 26 C        5.1090    10.3780    -0.9350 C.ar  1 <1>  -0.1500 
 27 C        4.0280    11.2430    -0.8230 C.ar  1 <1>  -0.1500 
 28 H       -1.3890    -1.1230    -3.3810 H     1 <1>   0.1500 
 29 H       -3.4070    -1.1170    -1.6020 H     1 <1>   0.1500 
 30 H       -3.1540     0.0880     1.3270 H     1 <1>   0.0800 
 31 H       -4.3070     0.7860     0.2190 H     1 <1>   0.0800 
 32 H        1.3520     1.9300    -0.0950 H     1 <1>   0.0800 
 33 H        0.6420     1.1200     1.2650 H     1 <1>   0.0800 
 34 H       -1.7390     3.9370    -0.8690 H     1 <1>   0.0800 
 35 H       -0.1210     3.6490    -1.3980 H     1 <1>   0.0800 
 36 H       -3.4690     2.3730     2.0460 H     1 <1>   0.0800 
 37 H       -3.3180     2.9810     0.4150 H     1 <1>   0.0800 
 38 H        2.1640     2.9460     1.9600 H     1 <1>   0.0800 
 39 H        0.5370     3.2480     2.4960 H     1 <1>   0.0800 
 40 H       -0.8920     4.9760     1.2060 H     1 <1>   0.0800 
 41 H       -0.2020     5.7300    -0.2060 H     1 <1>   0.0800 
 42 H        4.2680     6.5510     0.0360 H     1 <1>   0.4000 
 43 H        5.7860     8.3670    -0.7320 H     1 <1>   0.1500 
 44 H        1.9570    11.4310    -0.3380 H     1 <1>   0.1500 
 45 H        6.0670    10.7590    -1.2450 H     1 <1>   0.1500 
 46 H        4.1550    12.2890    -1.0490 H     1 <1>   0.1500 
@<TRIPOS>BOND
  1   1   2  1   
  2   1   3  1   
  3   2   4  2   
  4   2   5  1   
  5   3   6  2   
  6   3  28  1   
  7   4   6  1   
  8   4   7  1   
  9   5   8  1   
 10   5   9  1   
 11   5  10  1   
 12   6  29  1   
 13   7  11  1   
 14   7  30  1   
 15   7  31  1   
 16   8  11  1   
 17   9  12  1   
 18   9  32  1   
 19   9  33  1   
 20  10  13  1   
 21  10  34  1   
 22  10  35  1   
 23  11  36  1   
 24  11  37  1   
 25  12  14  1   
 26  12  38  1   
 27  12  39  1   
 28  13  14  1   
 29  13  40  1   
 30  13  41  1   
 31  14  15  am  
 32  15  16  2   
 33  15  17  1   
 34  17  18  1   
 35  17  19  2   
 36  18  20  1   
 37  18  42  1   
 38  19  21  1   
 39  20  22  ar  
 40  20  23  ar  
 41  21  22  1   
 42  21  24  2   
 43  22  25  ar  
 44  23  26  ar  
 45  23  43  1   
 46  25  27  ar  
 47  25  44  1   
 48  26  27  ar  
 49  26  45  1   
 50  27  46  1   
@<TRIPOS>SUBSTRUCTURE
  1 ****  14 GROUP 4 **** **** 0

# MOE 2024.06 (io_trps.svl 2023.06)
