@<TRIPOS>MOLECULE
NONAME
45 47 1 0 0 
SMALL
USER_CHARGES


@<TRIPOS>ATOM
  1 F       -0.2120    -0.7800    -1.3540 F     1 <1>  -0.1900 
  2 C       -0.7430    -1.8590    -0.8370 C.ar  1 <1>   0.1900 
  3 C        0.0380    -2.8710    -0.2680 C.ar  1 <1>   0.0830 
  4 C       -2.1210    -1.9470    -0.8770 C.ar  1 <1>  -0.1500 
  5 O        1.3990    -2.9000    -0.1700 O.3   1 <1>  -0.3630 
  6 C       -0.6200    -3.9700     0.2590 C.ar  1 <1>  -0.1500 
  7 C       -2.7430    -3.0580    -0.3400 C.ar  1 <1>  -0.1500 
  8 C        2.2320    -1.9140    -0.7390 C.3   1 <1>   0.0400 
  9 C       -2.0120    -4.0980     0.2390 C.ar  1 <1>   0.0530 
 10 C       -2.6560    -5.2590     0.8100 C.2   1 <1>   0.0870 
 11 O       -2.0160    -5.9850     1.7010 O.3   1 <1>  -0.0190 
 12 C       -3.8730    -5.8420     0.6420 C.2   1 <1>  -0.2330 
 13 N       -2.7170    -6.9990     2.1390 N.2   1 <1>  -0.4100 
 14 C       -3.8400    -6.9160     1.5250 C.2   1 <1>   0.3720 
 15 C       -4.9780    -5.5920    -0.2310 C.2   1 <1>   1.0330 
 16 N       -4.8860    -7.8100     1.6840 N.pl3 1 <1>  -0.8520 
 17 O       -4.8020    -5.1440    -1.3720 O.co2 1 <1>  -0.9000 
 18 O       -6.1320    -5.9240     0.1030 O.co2 1 <1>  -0.9000 
 19 C       -4.9200    -8.8080     0.6210 C.3   1 <1>   0.2890 
 20 C       -6.3730    -9.1830     0.3540 C.3   1 <1>  -0.1600 
 21 C       -4.1150   -10.0290     1.0500 C.3   1 <1>  -0.1600 
 22 C       -6.4340   -10.2630    -0.7140 C.3   1 <1>   0.3430 
 23 C       -4.2120   -11.1120    -0.0150 C.3   1 <1>   0.3430 
 24 N       -5.6460   -11.4530    -0.2680 N.4   1 <1>  -0.9590 
 25 C       -5.7670   -12.5690    -1.2510 C.3   1 <1>   0.2630 
 26 H       -2.7010    -1.1600    -1.3240 H     1 <1>   0.1500 
 27 H       -0.0280    -4.7530     0.6970 H     1 <1>   0.1500 
 28 H       -3.8170    -3.1200    -0.3760 H     1 <1>   0.1500 
 29 H        3.2530    -2.2010    -0.5670 H     1 <1>   0.0800 
 30 H        2.0330    -0.9710    -0.2620 H     1 <1>   0.0800 
 31 H        2.0410    -1.8610    -1.7960 H     1 <1>   0.0800 
 32 H       -5.7230    -7.2170     1.5050 H     1 <1>   0.4000 
 33 H       -4.4950    -8.3940    -0.2810 H     1 <1>   0.0800 
 34 H       -6.9070    -8.3200    -0.0040 H     1 <1>   0.0800 
 35 H       -6.8470    -9.5230     1.2560 H     1 <1>   0.0800 
 36 H       -4.4750   -10.3990     1.9930 H     1 <1>   0.0800 
 37 H       -3.0840    -9.7450     1.1730 H     1 <1>   0.0800 
 38 H       -6.0300    -9.8750    -1.6360 H     1 <1>   0.0800 
 39 H       -7.4630   -10.5380    -0.8830 H     1 <1>   0.0800 
 40 H       -3.6750   -11.9870     0.3160 H     1 <1>   0.0800 
 41 H       -3.7560   -10.7580    -0.9260 H     1 <1>   0.0800 
 42 H       -6.0470   -11.7540     0.6330 H     1 <1>   0.4500 
 43 H       -5.3580   -12.2730    -2.2040 H     1 <1>   0.0800 
 44 H       -6.8030   -12.8350    -1.3890 H     1 <1>   0.0800 
 45 H       -5.2330   -13.4370    -0.9000 H     1 <1>   0.0800 
@<TRIPOS>BOND
  1   1   2  1   
  2   2   3  ar  
  3   2   4  ar  
  4   3   5  1   
  5   3   6  ar  
  6   4   7  ar  
  7   4  26  1   
  8   5   8  1   
  9   6   9  ar  
 10   6  27  1   
 11   7   9  ar  
 12   7  28  1   
 13   8  29  1   
 14   8  30  1   
 15   8  31  1   
 16   9  10  1   
 17  10  11  1   
 18  10  12  2   
 19  11  13  1   
 20  12  14  1   
 21  12  15  1   
 22  13  14  2   
 23  14  16  1   
 24  15  17  ar  
 25  15  18  ar  
 26  16  19  1   
 27  16  32  1   
 28  19  20  1   
 29  19  21  1   
 30  19  33  1   
 31  20  22  1   
 32  20  34  1   
 33  20  35  1   
 34  21  23  1   
 35  21  36  1   
 36  21  37  1   
 37  22  24  1   
 38  22  38  1   
 39  22  39  1   
 40  23  24  1   
 41  23  40  1   
 42  23  41  1   
 43  24  25  1   
 44  24  42  1   
 45  25  43  1   
 46  25  44  1   
 47  25  45  1   
@<TRIPOS>SUBSTRUCTURE
  1 ****  12 GROUP 4 **** **** 0

# MOE 2024.06 (io_trps.svl 2023.06)
