@<TRIPOS>MOLECULE
NONAME
40 42 1 0 0 
SMALL
USER_CHARGES


@<TRIPOS>ATOM
  1 S       -1.3040    -0.5330     1.3380 S.3   1 <1>  -0.0800 
  2 C       -1.5780    -1.1000    -0.3060 C.2   1 <1>  -0.1400 
  3 C       -1.4230     1.1430     0.8340 C.2   1 <1>  -0.1100 
  4 C       -1.7340    -0.0490    -1.1360 C.2   1 <1>  -0.1500 
  5 C       -1.5900    -2.6070    -0.5270 C.3   1 <1>   0.3800 
  6 C       -1.6490     1.2240    -0.4890 C.2   1 <1>  -0.1500 
  7 O       -1.7410    -2.8430    -1.8810 O.3   1 <1>  -0.6800 
  8 C       -2.7260    -3.3180     0.2470 C.3   1 <1>  -0.0800 
  9 C       -2.7180    -4.8430     0.0290 C.3   1 <1>  -0.1600 
 10 C       -4.1310    -2.7680    -0.0740 C.3   1 <1>  -0.1600 
 11 C       -3.8480    -5.5290     0.8010 C.3   1 <1>   0.1100 
 12 C       -5.2090    -3.5140     0.7150 C.3   1 <1>   0.1100 
 13 N       -5.1470    -4.9510     0.4160 N.3   1 <1>  -0.8100 
 14 C       -6.2930    -5.6600     1.0420 C.3   1 <1>   0.2900 
 15 C       -6.4370    -7.1220     0.6200 C.2   1 <1>   0.2980 
 16 O       -5.7650    -8.0270     1.2830 O.3   1 <1>  -0.0190 
 17 N       -7.1760    -7.5710    -0.3130 N.2   1 <1>  -0.5650 
 18 N       -6.0870    -9.1450     0.7210 N.2   1 <1>  -0.4100 
 19 C       -6.9190    -8.8910    -0.2340 C.2   1 <1>   0.4300 
 20 C       -7.5340    -9.8600    -1.1470 C.2   1 <1>   0.7160 
 21 O       -7.3630   -11.0620    -1.0650 O.2   1 <1>  -0.5700 
 22 N       -8.3480    -9.4580    -2.1600 N.am  1 <1>  -0.8000 
 23 H       -1.3080     1.8970     1.5920 H     1 <1>   0.1500 
 24 H       -1.9040    -0.1130    -2.1970 H     1 <1>   0.1500 
 25 H       -0.6370    -3.0160    -0.2370 H     1 <1>   0.0800 
 26 H       -1.7610     2.1360    -1.0490 H     1 <1>   0.1500 
 27 H       -2.6200    -2.5200    -2.1480 H     1 <1>   0.4000 
 28 H       -2.5450    -3.1490     1.2940 H     1 <1>   0.0800 
 29 H       -1.7760    -5.2520     0.3450 H     1 <1>   0.0800 
 30 H       -2.8380    -5.0720    -1.0160 H     1 <1>   0.0800 
 31 H       -4.3470    -2.8740    -1.1220 H     1 <1>   0.0800 
 32 H       -4.1850    -1.7230     0.1730 H     1 <1>   0.0800 
 33 H       -3.6920    -5.4160     1.8610 H     1 <1>   0.0800 
 34 H       -3.8240    -6.5780     0.5610 H     1 <1>   0.0800 
 35 H       -6.1740    -3.1270     0.4330 H     1 <1>   0.0800 
 36 H       -5.0700    -3.3500     1.7710 H     1 <1>   0.0800 
 37 H       -7.2000    -5.1580     0.7580 H     1 <1>   0.0800 
 38 H       -6.2100    -5.6110     2.1130 H     1 <1>   0.0800 
 39 H       -8.7480   -10.1470    -2.7950 H     1 <1>   0.3700 
 40 H       -8.5340    -8.4690    -2.3310 H     1 <1>   0.3700 
@<TRIPOS>BOND
  1   1   2  1   
  2   1   3  1   
  3   2   4  2   
  4   2   5  1   
  5   3   6  2   
  6   3  23  1   
  7   4   6  1   
  8   4  24  1   
  9   5   7  1   
 10   5   8  1   
 11   5  25  1   
 12   6  26  1   
 13   7  27  1   
 14   8   9  1   
 15   8  10  1   
 16   8  28  1   
 17   9  11  1   
 18   9  29  1   
 19   9  30  1   
 20  10  12  1   
 21  10  31  1   
 22  10  32  1   
 23  11  13  1   
 24  11  33  1   
 25  11  34  1   
 26  12  13  1   
 27  12  35  1   
 28  12  36  1   
 29  13  14  1   
 30  14  15  1   
 31  14  37  1   
 32  14  38  1   
 33  15  16  1   
 34  15  17  2   
 35  16  18  1   
 36  17  19  1   
 37  18  19  2   
 38  19  20  1   
 39  20  21  2   
 40  20  22  am  
 41  22  39  1   
 42  22  40  1   
@<TRIPOS>SUBSTRUCTURE
  1 ****  13 GROUP 4 **** **** 0

# MOE 2024.06 (io_trps.svl 2023.06)
