@<TRIPOS>MOLECULE
NONAME
56 59 1 0 0 
SMALL
USER_CHARGES


@<TRIPOS>ATOM
  1 O       -1.0160    -2.3050    -1.1770 O.co2 1 <1>  -0.9000 
  2 C       -0.8320    -1.5300    -0.2250 C.2   1 <1>   0.9060 
  3 O       -1.6990    -0.6800     0.0200 O.co2 1 <1>  -0.9000 
  4 C        0.1390    -1.8630     0.8520 C.3   1 <1>  -0.2920 
  5 C        1.5020    -1.8470     0.2280 C.2   1 <1>   0.9060 
  6 C       -0.2150    -3.1840     1.5820 C.3   1 <1>  -0.1600 
  7 O        2.0310    -0.7570    -0.0190 O.co2 1 <1>  -0.9000 
  8 O        2.1300    -2.9100     0.1060 O.co2 1 <1>  -0.9000 
  9 C       -1.6660    -3.2360     2.1030 C.3   1 <1>  -0.1600 
 10 C       -2.5550    -4.1860     1.2910 C.3   1 <1>   0.3430 
 11 N       -3.0570    -3.6260     0.0100 N.4   1 <1>  -0.9590 
 12 C       -4.0820    -2.5440     0.2170 C.3   1 <1>   0.3430 
 13 C       -3.4200    -4.7210    -0.9200 C.3   1 <1>   0.3430 
 14 C       -4.8760    -2.1150    -1.0380 C.3   1 <1>   0.1430 
 15 C       -4.0780    -4.1980    -2.1950 C.3   1 <1>  -0.1600 
 16 C       -6.0500    -1.3090    -0.5230 C.ar  1 <1>   0.1670 
 17 C       -5.3060    -3.3410    -1.8650 C.3   1 <1>  -0.1600 
 18 C       -4.1500    -1.0700    -1.9250 C.3   1 <1>  -0.1600 
 19 N       -7.1090    -1.8090     0.0680 N.ar  1 <1>  -0.6200 
 20 C       -5.8660     0.0250    -0.7140 C.ar  1 <1>  -0.1440 
 21 C       -4.5460     0.3130    -1.3880 C.3   1 <1>  -0.0170 
 22 C       -8.0330    -0.9170     0.4540 C.ar  1 <1>   0.6200 
 23 C       -6.8500     0.8730    -0.2800 C.ar  1 <1>   0.1600 
 24 N       -7.9360     0.4120     0.2990 N.ar  1 <1>  -0.6200 
 25 C       -9.2360    -1.4330     1.0950 C.ar  1 <1>   0.0000 
 26 C       -9.2290    -2.6280     1.8210 C.ar  1 <1>  -0.1500 
 27 C      -10.4560    -0.7550     1.0130 C.ar  1 <1>  -0.1500 
 28 C      -10.3710    -3.1190     2.4280 C.ar  1 <1>  -0.1500 
 29 C      -11.6020    -1.2390     1.6180 C.ar  1 <1>  -0.1500 
 30 C      -11.5620    -2.4250     2.3280 C.ar  1 <1>  -0.1500 
 31 H        0.1200    -1.0580     1.5600 H     1 <1>   0.0800 
 32 H        0.4700    -3.2900     2.4050 H     1 <1>   0.0800 
 33 H       -0.0280    -4.0090     0.9140 H     1 <1>   0.0800 
 34 H       -2.0950    -2.2520     2.1750 H     1 <1>   0.0800 
 35 H       -1.6240    -3.6270     3.1030 H     1 <1>   0.0800 
 36 H       -3.3990    -4.4720     1.8960 H     1 <1>   0.0800 
 37 H       -1.9810    -5.0750     1.0870 H     1 <1>   0.0800 
 38 H       -2.2470    -3.1230    -0.4490 H     1 <1>   0.4500 
 39 H       -3.6030    -1.6720     0.6320 H     1 <1>   0.0800 
 40 H       -4.7990    -2.8920     0.9410 H     1 <1>   0.0800 
 41 H       -4.1030    -5.3920    -0.4280 H     1 <1>   0.0800 
 42 H       -2.5300    -5.2700    -1.1820 H     1 <1>   0.0800 
 43 H       -4.3750    -5.0340    -2.8020 H     1 <1>   0.0800 
 44 H       -3.3530    -3.6300    -2.7550 H     1 <1>   0.0800 
 45 H       -5.7990    -3.0270    -2.7680 H     1 <1>   0.0800 
 46 H       -6.0100    -3.9270    -1.2990 H     1 <1>   0.0800 
 47 H       -4.5100    -1.1400    -2.9360 H     1 <1>   0.0800 
 48 H       -3.0860    -1.2000    -1.9550 H     1 <1>   0.0800 
 49 H       -4.6360     1.0360    -2.1790 H     1 <1>   0.0800 
 50 H       -3.8260     0.6540    -0.6620 H     1 <1>   0.0800 
 51 H       -6.7460     1.9370    -0.4070 H     1 <1>   0.1500 
 52 H       -8.3120    -3.1820     1.9110 H     1 <1>   0.1500 
 53 H      -10.5080     0.1700     0.4640 H     1 <1>   0.1500 
 54 H      -10.3340    -4.0420     2.9800 H     1 <1>   0.1500 
 55 H      -12.5260    -0.6930     1.5360 H     1 <1>   0.1500 
 56 H      -12.4520    -2.8040     2.7990 H     1 <1>   0.1500 
@<TRIPOS>BOND
  1   1   2  ar  
  2   2   3  ar  
  3   2   4  1   
  4   4   5  1   
  5   4   6  1   
  6   4  31  1   
  7   5   7  ar  
  8   5   8  ar  
  9   6   9  1   
 10   6  32  1   
 11   6  33  1   
 12   9  10  1   
 13   9  34  1   
 14   9  35  1   
 15  10  11  1   
 16  10  36  1   
 17  10  37  1   
 18  11  12  1   
 19  11  13  1   
 20  11  38  1   
 21  12  14  1   
 22  12  39  1   
 23  12  40  1   
 24  13  15  1   
 25  13  41  1   
 26  13  42  1   
 27  14  16  1   
 28  14  17  1   
 29  14  18  1   
 30  15  17  1   
 31  15  43  1   
 32  15  44  1   
 33  16  19  ar  
 34  16  20  ar  
 35  17  45  1   
 36  17  46  1   
 37  18  21  1   
 38  18  47  1   
 39  18  48  1   
 40  19  22  ar  
 41  20  21  1   
 42  20  23  ar  
 43  21  49  1   
 44  21  50  1   
 45  22  24  ar  
 46  22  25  1   
 47  23  24  ar  
 48  23  51  1   
 49  25  26  ar  
 50  25  27  ar  
 51  26  28  ar  
 52  26  52  1   
 53  27  29  ar  
 54  27  53  1   
 55  28  30  ar  
 56  28  54  1   
 57  29  30  ar  
 58  29  55  1   
 59  30  56  1   
@<TRIPOS>SUBSTRUCTURE
  1 ****  12 GROUP 4 **** **** 0

# MOE 2024.06 (io_trps.svl 2023.06)
