@<TRIPOS>MOLECULE
NONAME
47 51 1 0 0 
SMALL
USER_CHARGES


@<TRIPOS>ATOM
  1 S        1.8950    -1.4460     2.8870 S.3   1 <1>  -0.2420 
  2 C        1.1860    -1.2520     1.2850 C.2   1 <1>   0.6410 
  3 C        1.7260    -3.2110     2.7960 C.2   1 <1>  -0.0490 
  4 N        1.0180    -0.1120     0.7200 N.2   1 <1>  -0.6610 
  5 N        0.8560    -2.4940     0.7660 N.pl3 1 <1>  -0.1080 
  6 C        1.1700    -3.5750     1.6250 C.2   1 <1>   0.2090 
  7 C        0.4530    -0.2180    -0.5230 C.2   1 <1>   0.7810 
  8 N        0.2830    -2.6300    -0.4730 N.2   1 <1>  -0.4920 
  9 N        0.8660    -4.8670     1.1670 N.am  1 <1>  -0.5390 
 10 O        0.2540     0.8280    -1.1320 O.2   1 <1>  -0.5700 
 11 C        0.1030    -1.5070    -1.0900 C.2   1 <1>   0.3890 
 12 C        1.0210    -6.0630     1.8060 C.2   1 <1>   0.5690 
 13 C       -0.5140    -1.5670    -2.4800 C.3   1 <1>  -0.1790 
 14 O        1.6180    -6.1330     2.8530 O.2   1 <1>  -0.5700 
 15 C        0.4570    -7.3810     1.2810 C.3   1 <1>  -0.0190 
 16 C       -0.6350    -7.8140     2.2670 C.3   1 <1>   0.3380 
 17 C       -0.3300    -7.4920    -0.0650 C.3   1 <1>  -0.0190 
 18 O       -1.7190    -7.2000     1.6710 O.3   1 <1>  -0.5600 
 19 C       -1.0390    -9.2600     2.0320 C.2   1 <1>  -0.2880 
 20 C       -0.6300    -6.3270    -0.9730 C.2   1 <1>   0.5690 
 21 C       -1.7320    -7.8370     0.4380 C.3   1 <1>   0.4180 
 22 C       -1.7440    -9.2700     0.9070 C.2   1 <1>  -0.2880 
 23 O        0.2450    -5.6440    -1.4440 O.2   1 <1>  -0.5700 
 24 N       -1.9570    -6.1780    -1.2120 N.am  1 <1>  -0.6600 
 25 C       -2.7620    -7.2000    -0.4960 C.3   1 <1>   0.1400 
 26 C       -2.5560    -5.0700    -1.9820 C.3   1 <1>   0.2200 
 27 C       -3.1880    -4.0710    -1.0160 C.3   1 <1>  -0.2400 
 28 C       -3.5750    -5.6130    -2.9810 C.3   1 <1>  -0.2400 
 29 H        2.0660    -3.7850     3.6400 H     1 <1>   0.1500 
 30 H        0.5180    -4.8780     0.1970 H     1 <1>   0.3700 
 31 H        0.0530    -0.9580    -3.1600 H     1 <1>   0.0800 
 32 H       -1.5240    -1.2040    -2.4450 H     1 <1>   0.0800 
 33 H       -0.5160    -2.5770    -2.8470 H     1 <1>   0.0800 
 34 H        1.2510    -8.1030     1.3020 H     1 <1>   0.0800 
 35 H       -0.5380    -7.5100     3.2970 H     1 <1>   0.0800 
 36 H        0.0500    -8.2940    -0.6700 H     1 <1>   0.0800 
 37 H       -0.7470   -10.0370     2.7170 H     1 <1>   0.1500 
 38 H       -2.2300   -10.0510     0.3500 H     1 <1>   0.1500 
 39 H       -3.5700    -6.7630     0.0620 H     1 <1>   0.0800 
 40 H       -3.1340    -7.9240    -1.2000 H     1 <1>   0.0800 
 41 H       -1.7720    -4.5720    -2.5290 H     1 <1>   0.0800 
 42 H       -4.0060    -4.5160    -0.4800 H     1 <1>   0.0800 
 43 H       -3.5610    -3.2230    -1.5620 H     1 <1>   0.0800 
 44 H       -2.4510    -3.7240    -0.3150 H     1 <1>   0.0800 
 45 H       -4.4090    -6.0670    -2.4770 H     1 <1>   0.0800 
 46 H       -3.1070    -6.3350    -3.6260 H     1 <1>   0.0800 
 47 H       -3.9470    -4.8100    -3.5900 H     1 <1>   0.0800 
@<TRIPOS>BOND
  1   1   2  1   
  2   1   3  1   
  3   2   4  2   
  4   2   5  1   
  5   3   6  2   
  6   3  29  1   
  7   4   7  1   
  8   5   6  1   
  9   5   8  1   
 10   6   9  1   
 11   7  10  2   
 12   7  11  1   
 13   8  11  2   
 14   9  12  am  
 15   9  30  1   
 16  11  13  1   
 17  12  14  2   
 18  12  15  1   
 19  13  31  1   
 20  13  32  1   
 21  13  33  1   
 22  15  16  1   
 23  15  17  1   
 24  15  34  1   
 25  16  18  1   
 26  16  19  1   
 27  16  35  1   
 28  17  20  1   
 29  17  21  1   
 30  17  36  1   
 31  18  21  1   
 32  19  22  2   
 33  19  37  1   
 34  20  23  2   
 35  20  24  am  
 36  21  22  1   
 37  21  25  1   
 38  22  38  1   
 39  24  25  1   
 40  24  26  1   
 41  25  39  1   
 42  25  40  1   
 43  26  27  1   
 44  26  28  1   
 45  26  41  1   
 46  27  42  1   
 47  27  43  1   
 48  27  44  1   
 49  28  45  1   
 50  28  46  1   
 51  28  47  1   
@<TRIPOS>SUBSTRUCTURE
  1 ****   9 GROUP 4 **** **** 0

# MOE 2024.06 (io_trps.svl 2023.06)
