@<TRIPOS>MOLECULE
NONAME
48 52 1 0 0 
SMALL
USER_CHARGES


@<TRIPOS>ATOM
  1 S        0.1260    -0.3830    -0.6090 S.3   1 <1>  -0.0800 
  2 C       -0.2610    -1.9200    -1.3870 C.ar  1 <1>   0.2970 
  3 C       -1.3210    -0.4830     0.3900 C.2   1 <1>  -0.1400 
  4 N        0.4960    -2.4510    -2.3240 N.ar  1 <1>  -0.5670 
  5 C       -1.4280    -2.4450    -0.8820 C.ar  1 <1>   0.0000 
  6 C       -2.0090    -1.6070     0.1430 C.2   1 <1>  -0.1810 
  7 C       -1.6480     0.6210     1.3700 C.3   1 <1>   0.0200 
  8 C        0.0140    -3.5930    -2.7700 C.ar  1 <1>   0.4700 
  9 C       -1.8110    -3.6610    -1.4560 C.ar  1 <1>   0.4100 
 10 C       -3.2920    -1.9270     0.8960 C.3   1 <1>   0.0210 
 11 C       -3.1050     0.4540     1.8410 C.3   1 <1>  -0.1600 
 12 N       -1.0860    -4.2350    -2.4010 N.ar  1 <1>  -0.6200 
 13 N       -2.9490    -4.3310    -1.0740 N.pl3 1 <1>  -0.8380 
 14 C       -3.4510    -1.0210     2.1350 C.3   1 <1>  -0.1600 
 15 C       -4.0090    -4.5340    -2.0990 C.3   1 <1>   0.2090 
 16 C       -2.7600    -5.5880    -0.3050 C.3   1 <1>   0.2090 
 17 C       -4.2950    -6.0350    -2.1000 C.3   1 <1>   0.2000 
 18 C       -3.9090    -6.5120    -0.7050 C.3   1 <1>  -0.0800 
 19 O       -5.6330    -6.3140    -2.3470 O.3   1 <1>  -0.6800 
 20 C       -3.5400    -8.0030    -0.6630 C.3   1 <1>  -0.0170 
 21 C       -3.0580    -8.4040     0.7230 C.ar  1 <1>  -0.1430 
 22 C       -3.9390    -8.6540     1.7550 C.ar  1 <1>  -0.1500 
 23 C       -1.7160    -8.5280     1.0220 C.ar  1 <1>  -0.1500 
 24 C       -3.4500    -8.9990     3.0040 C.ar  1 <1>   0.1600 
 25 C       -1.3310    -8.8780     2.3060 C.ar  1 <1>   0.1600 
 26 N       -2.1660    -9.1130     3.3040 N.ar  1 <1>  -0.6200 
 27 H       -0.9760     0.5540     2.2070 H     1 <1>   0.0800 
 28 H       -1.5220     1.5820     0.9040 H     1 <1>   0.0800 
 29 H        0.5940    -4.0720    -3.5420 H     1 <1>   0.1500 
 30 H       -4.1240    -1.7890     0.2280 H     1 <1>   0.0800 
 31 H       -3.2830    -2.9530     1.2140 H     1 <1>   0.0800 
 32 H       -3.2680     1.0530     2.7200 H     1 <1>   0.0800 
 33 H       -3.7620     0.8150     1.0680 H     1 <1>   0.0800 
 34 H       -4.4610    -1.0930     2.5000 H     1 <1>   0.0800 
 35 H       -2.7960    -1.3800     2.9100 H     1 <1>   0.0800 
 36 H       -4.8820    -3.9770    -1.8100 H     1 <1>   0.0800 
 37 H       -3.6770    -4.2100    -3.0710 H     1 <1>   0.0800 
 38 H       -1.8120    -6.0290    -0.5670 H     1 <1>   0.0800 
 39 H       -2.7720    -5.3910     0.7540 H     1 <1>   0.0800 
 40 H       -3.6980    -6.5130    -2.8590 H     1 <1>   0.0800 
 41 H       -4.7180    -6.3220    -0.0230 H     1 <1>   0.0800 
 42 H       -6.1990    -5.8920    -1.6730 H     1 <1>   0.4000 
 43 H       -2.7720    -8.2110    -1.3870 H     1 <1>   0.0800 
 44 H       -4.4020    -8.5930    -0.9280 H     1 <1>   0.0800 
 45 H       -5.0000    -8.5840     1.6000 H     1 <1>   0.1500 
 46 H       -0.9650    -8.3560     0.2730 H     1 <1>   0.1500 
 47 H       -4.1510    -9.1900     3.7970 H     1 <1>   0.1500 
 48 H       -0.2800    -8.9690     2.5220 H     1 <1>   0.1500 
@<TRIPOS>BOND
  1   1   2  1   
  2   1   3  1   
  3   2   4  ar  
  4   2   5  ar  
  5   3   6  2   
  6   3   7  1   
  7   4   8  ar  
  8   5   6  1   
  9   5   9  ar  
 10   6  10  1   
 11   7  11  1   
 12   7  27  1   
 13   7  28  1   
 14   8  12  ar  
 15   8  29  1   
 16   9  12  ar  
 17   9  13  1   
 18  10  14  1   
 19  10  30  1   
 20  10  31  1   
 21  11  14  1   
 22  11  32  1   
 23  11  33  1   
 24  13  15  1   
 25  13  16  1   
 26  14  34  1   
 27  14  35  1   
 28  15  17  1   
 29  15  36  1   
 30  15  37  1   
 31  16  18  1   
 32  16  38  1   
 33  16  39  1   
 34  17  18  1   
 35  17  19  1   
 36  17  40  1   
 37  18  20  1   
 38  18  41  1   
 39  19  42  1   
 40  20  21  1   
 41  20  43  1   
 42  20  44  1   
 43  21  22  ar  
 44  21  23  ar  
 45  22  24  ar  
 46  22  45  1   
 47  23  25  ar  
 48  23  46  1   
 49  24  26  ar  
 50  24  47  1   
 51  25  26  ar  
 52  25  48  1   
@<TRIPOS>SUBSTRUCTURE
  1 ****  13 GROUP 4 **** **** 0

# MOE 2024.06 (io_trps.svl 2023.06)
