@<TRIPOS>MOLECULE
NONAME
45 46 1 0 0 
SMALL
USER_CHARGES


@<TRIPOS>ATOM
  1 O        0.7620    -0.2600    -0.4800 O.2   1 <1>  -0.5700 
  2 C        1.7740    -0.4670     0.1550 C.2   1 <1>   0.5440 
  3 N        1.7640    -1.5740     0.9340 N.am  1 <1>  -0.8000 
  4 C        2.9160     0.4300     0.0930 C.ar  1 <1>   0.0860 
  5 C        4.2010     0.0270     0.4640 C.ar  1 <1>  -0.1500 
  6 C        2.7680     1.7470    -0.3470 C.ar  1 <1>  -0.1500 
  7 C        5.2750     0.8960     0.4090 C.ar  1 <1>  -0.1500 
  8 C        3.8360     2.6240    -0.4070 C.ar  1 <1>  -0.1500 
  9 C        5.1050     2.2010    -0.0240 C.ar  1 <1>   0.0830 
 10 O        6.2040     2.9880    -0.0470 O.3   1 <1>  -0.3630 
 11 C        6.1540     4.3240    -0.4780 C.3   1 <1>   0.1200 
 12 C        7.5720     4.8850    -0.3740 C.3   1 <1>  -0.1600 
 13 C        7.6210     6.3390    -0.8380 C.3   1 <1>   0.3430 
 14 N        8.9830     6.9040    -0.6330 N.4   1 <1>  -0.9590 
 15 C        8.9800     8.3950    -0.7330 C.3   1 <1>   0.5230 
 16 C       10.0070     6.3140    -1.5570 C.3   1 <1>   0.2630 
 17 C       10.1040     8.9560     0.1170 C.2   1 <1>  -0.0400 
 18 O       11.3530     8.6590    -0.1880 O.3   1 <1>  -0.2800 
 19 C       10.0630     9.7570     1.2050 C.2   1 <1>  -0.1500 
 20 C       12.1340     9.2590     0.6870 C.2   1 <1>  -0.0400 
 21 C       11.3970     9.9540     1.5780 C.2   1 <1>  -0.1500 
 22 C       13.6340     9.0920     0.5670 C.3   1 <1>  -0.0600 
 23 H        0.9160    -2.1420     0.9570 H     1 <1>   0.3700 
 24 H        2.4840    -1.7950     1.6190 H     1 <1>   0.3700 
 25 H        4.3690    -0.9830     0.7930 H     1 <1>   0.1500 
 26 H        1.7890     2.0820    -0.6480 H     1 <1>   0.1500 
 27 H        6.2560     0.5660     0.7000 H     1 <1>   0.1500 
 28 H        3.6570     3.6240    -0.7520 H     1 <1>   0.1500 
 29 H        5.4720     4.8580     0.1620 H     1 <1>   0.0800 
 30 H        5.8010     4.3350    -1.4960 H     1 <1>   0.0800 
 31 H        8.2150     4.2770    -0.9860 H     1 <1>   0.0800 
 32 H        7.8870     4.8210     0.6520 H     1 <1>   0.0800 
 33 H        6.9050     6.9080    -0.2650 H     1 <1>   0.0800 
 34 H        7.3460     6.4030    -1.8800 H     1 <1>   0.0800 
 35 H        9.2880     6.7060     0.3320 H     1 <1>   0.4500 
 36 H        8.0470     8.7880    -0.3650 H     1 <1>   0.0800 
 37 H        9.1040     8.7070    -1.7570 H     1 <1>   0.0800 
 38 H        9.7500     6.5140    -2.5840 H     1 <1>   0.0800 
 39 H       10.0700     5.2470    -1.4180 H     1 <1>   0.0800 
 40 H       10.9800     6.7340    -1.3590 H     1 <1>   0.0800 
 41 H        9.2180    10.1840     1.7180 H     1 <1>   0.1500 
 42 H       11.7340    10.5490     2.4110 H     1 <1>   0.1500 
 43 H       13.9660     9.4610    -0.3860 H     1 <1>   0.0800 
 44 H       13.8960     8.0540     0.6520 H     1 <1>   0.0800 
 45 H       14.1320     9.6420     1.3450 H     1 <1>   0.0800 
@<TRIPOS>BOND
  1   1   2  2   
  2   2   3  am  
  3   2   4  1   
  4   3  23  1   
  5   3  24  1   
  6   4   5  ar  
  7   4   6  ar  
  8   5   7  ar  
  9   5  25  1   
 10   6   8  ar  
 11   6  26  1   
 12   7   9  ar  
 13   7  27  1   
 14   8   9  ar  
 15   8  28  1   
 16   9  10  1   
 17  10  11  1   
 18  11  12  1   
 19  11  29  1   
 20  11  30  1   
 21  12  13  1   
 22  12  31  1   
 23  12  32  1   
 24  13  14  1   
 25  13  33  1   
 26  13  34  1   
 27  14  15  1   
 28  14  16  1   
 29  14  35  1   
 30  15  17  1   
 31  15  36  1   
 32  15  37  1   
 33  16  38  1   
 34  16  39  1   
 35  16  40  1   
 36  17  18  1   
 37  17  19  2   
 38  18  20  1   
 39  19  21  1   
 40  19  41  1   
 41  20  21  2   
 42  20  22  1   
 43  21  42  1   
 44  22  43  1   
 45  22  44  1   
 46  22  45  1   
@<TRIPOS>SUBSTRUCTURE
  1 ****  12 GROUP 4 **** **** 0

# MOE 2024.06 (io_trps.svl 2023.06)
