@<TRIPOS>MOLECULE
NONAME
55 58 1 0 0 
SMALL
USER_CHARGES


@<TRIPOS>ATOM
  1 O        1.0720     0.1970     1.2290 O.2   1 <1>  -0.5700 
  2 C        1.8160    -0.2870     0.4070 C.2   1 <1>   0.5690 
  3 N        2.7830     0.4770    -0.2120 N.am  1 <1>  -0.6600 
  4 C        1.6390    -1.7730     0.0800 C.3   1 <1>  -0.0190 
  5 C        3.8010    -0.0590    -1.1730 C.3   1 <1>   0.1400 
  6 C        2.8130     1.9590     0.0080 C.3   1 <1>   0.1400 
  7 C        0.3170    -2.3630     0.5570 C.3   1 <1>   0.1200 
  8 C        2.6530    -2.7030     0.7410 C.3   1 <1>  -0.1600 
  9 C        5.1060    -0.4430    -0.4580 C.3   1 <1>   0.1400 
 10 C        4.2150     2.5490     0.2270 C.3   1 <1>  -0.1600 
 11 O        0.5580    -3.7280     0.6320 O.3   1 <1>  -0.5600 
 12 C        1.8460    -3.9480     1.1070 C.3   1 <1>   0.1200 
 13 N        5.8830     0.7560    -0.0230 N.am  1 <1>  -0.6600 
 14 C        5.1880     1.6260     0.9660 C.3   1 <1>   0.1400 
 15 C        7.1170     1.0240    -0.5640 C.2   1 <1>   0.5690 
 16 O        7.6320     0.2750    -1.3610 O.2   1 <1>  -0.5700 
 17 C        7.8720     2.2910    -0.1760 C.3   1 <1>  -0.0990 
 18 C        9.0460     2.6320    -1.1140 C.3   1 <1>  -0.0990 
 19 C        9.7260     3.9370    -0.7190 C.2   1 <1>   0.3890 
 20 N       10.8470     3.8650    -0.0910 N.2   1 <1>  -0.6290 
 21 C        9.0650     5.1840    -1.0670 C.2   1 <1>   0.6300 
 22 C       11.4650     5.0590     0.2620 C.ar  1 <1>   0.1790 
 23 O        7.9850     5.2680    -1.6300 O.2   1 <1>  -0.5700 
 24 N        9.6880     6.3460    -0.7250 N.am  1 <1>  -0.5470 
 25 C       10.9010     6.3120    -0.0480 C.ar  1 <1>   0.1170 
 26 C       12.6770     5.0210     0.9420 C.ar  1 <1>  -0.1500 
 27 C       11.5600     7.4800     0.3250 C.ar  1 <1>  -0.1500 
 28 C       13.3220     6.1850     1.3090 C.ar  1 <1>  -0.1500 
 29 C       12.7620     7.4170     1.0000 C.ar  1 <1>  -0.1500 
 30 H        1.6560    -1.9070    -0.9850 H     1 <1>   0.0800 
 31 H        4.0120     0.6720    -1.9330 H     1 <1>   0.0800 
 32 H        3.4170    -0.9270    -1.6740 H     1 <1>   0.0800 
 33 H        2.2210     2.2040     0.8740 H     1 <1>   0.0800 
 34 H        2.3510     2.4450    -0.8340 H     1 <1>   0.0800 
 35 H       -0.4920    -2.1770    -0.1270 H     1 <1>   0.0800 
 36 H        0.0540    -2.0200     1.5440 H     1 <1>   0.0800 
 37 H        3.0550    -2.2650     1.6380 H     1 <1>   0.0800 
 38 H        3.4590    -2.9530     0.0760 H     1 <1>   0.0800 
 39 H        5.6950    -1.0380    -1.1330 H     1 <1>   0.0800 
 40 H        4.8910    -1.0530     0.4000 H     1 <1>   0.0800 
 41 H        4.0950     3.4480     0.8030 H     1 <1>   0.0800 
 42 H        4.6360     2.8450    -0.7180 H     1 <1>   0.0800 
 43 H        1.7910    -4.0800     2.1750 H     1 <1>   0.0800 
 44 H        2.2330    -4.8390     0.6430 H     1 <1>   0.0800 
 45 H        4.6610     1.0210     1.6860 H     1 <1>   0.0800 
 46 H        5.9060     2.2140     1.5090 H     1 <1>   0.0800 
 47 H        8.2460     2.1670     0.8240 H     1 <1>   0.0800 
 48 H        7.1830     3.1140    -0.1840 H     1 <1>   0.0800 
 49 H        8.6910     2.7090    -2.1260 H     1 <1>   0.0800 
 50 H        9.7680     1.8330    -1.0850 H     1 <1>   0.0800 
 51 H        9.2270     7.2170    -0.9820 H     1 <1>   0.3700 
 52 H       13.1040     4.0620     1.1770 H     1 <1>   0.1500 
 53 H       11.1280     8.4350     0.0860 H     1 <1>   0.1500 
 54 H       14.2600     6.1400     1.8360 H     1 <1>   0.1500 
 55 H       13.2710     8.3210     1.2890 H     1 <1>   0.1500 
@<TRIPOS>BOND
  1   1   2  2   
  2   2   3  am  
  3   2   4  1   
  4   3   5  1   
  5   3   6  1   
  6   4   7  1   
  7   4   8  1   
  8   4  30  1   
  9   5   9  1   
 10   5  31  1   
 11   5  32  1   
 12   6  10  1   
 13   6  33  1   
 14   6  34  1   
 15   7  11  1   
 16   7  35  1   
 17   7  36  1   
 18   8  12  1   
 19   8  37  1   
 20   8  38  1   
 21   9  13  1   
 22   9  39  1   
 23   9  40  1   
 24  10  14  1   
 25  10  41  1   
 26  10  42  1   
 27  11  12  1   
 28  12  43  1   
 29  12  44  1   
 30  13  14  1   
 31  13  15  am  
 32  14  45  1   
 33  14  46  1   
 34  15  16  2   
 35  15  17  1   
 36  17  18  1   
 37  17  47  1   
 38  17  48  1   
 39  18  19  1   
 40  18  49  1   
 41  18  50  1   
 42  19  20  2   
 43  19  21  1   
 44  20  22  1   
 45  21  23  2   
 46  21  24  am  
 47  22  25  ar  
 48  22  26  ar  
 49  24  25  1   
 50  24  51  1   
 51  25  27  ar  
 52  26  28  ar  
 53  26  52  1   
 54  27  29  ar  
 55  27  53  1   
 56  28  29  ar  
 57  28  54  1   
 58  29  55  1   
@<TRIPOS>SUBSTRUCTURE
  1 ****  17 GROUP 4 **** **** 0

# MOE 2024.06 (io_trps.svl 2023.06)
