@<TRIPOS>MOLECULE
NONAME
48 50 1 0 0 
SMALL
USER_CHARGES


@<TRIPOS>ATOM
  1 O       -1.0600    -0.8750    -0.1460 O.3   1 <1>  -0.5600 
  2 C        0.0020    -1.3510     0.6240 C.3   1 <1>   0.1200 
  3 C       -2.0120    -1.8480    -0.4680 C.3   1 <1>   0.1200 
  4 C        0.7650    -2.4540    -0.1340 C.3   1 <1>   0.2090 
  5 C       -1.3690    -2.9840    -1.2820 C.3   1 <1>   0.2090 
  6 N       -0.1640    -3.5560    -0.5710 N.pl3 1 <1>  -0.8380 
  7 C       -0.0210    -4.8940    -0.3680 C.ar  1 <1>   0.7710 
  8 N       -1.0180    -5.7110    -0.6770 N.ar  1 <1>  -0.6200 
  9 N        1.1370    -5.3610     0.1370 N.ar  1 <1>  -0.1790 
 10 C       -0.8590    -6.9960    -0.4640 C.ar  1 <1>   0.4100 
 11 C        1.3470    -6.6800     0.3640 C.ar  1 <1>   0.2180 
 12 N       -1.9160    -7.7540    -0.7930 N.pl3 1 <1>  -0.8690 
 13 C        0.3330    -7.5260     0.0620 C.ar  1 <1>  -0.1500 
 14 C        2.6860    -7.1320     0.9320 C.3   1 <1>  -0.0170 
 15 C       -2.1440    -9.2040    -0.6300 C.3   1 <1>   0.2090 
 16 C        3.8490    -6.8360    -0.0240 C.3   1 <1>  -0.2400 
 17 C       -3.6340    -9.4330    -0.3870 C.3   1 <1>  -0.1600 
 18 C       -3.9390   -10.9240    -0.1930 C.3   1 <1>   0.0960 
 19 N       -5.3830   -11.1280     0.0290 N.pl3 1 <1>   0.0480 
 20 C       -6.3150   -11.5150    -0.8710 C.2   1 <1>   0.0360 
 21 C       -6.0640   -10.9720     1.1790 C.2   1 <1>  -0.3020 
 22 N       -7.5090   -11.6130    -0.3830 N.2   1 <1>  -0.5650 
 23 C       -7.3530   -11.2710     0.9090 C.2   1 <1>   0.0770 
 24 H       -0.3880    -1.7210     1.5560 H     1 <1>   0.0800 
 25 H        0.6530    -0.5190     0.8280 H     1 <1>   0.0800 
 26 H       -2.7850    -1.3710    -1.0440 H     1 <1>   0.0800 
 27 H       -2.4440    -2.2270     0.4410 H     1 <1>   0.0800 
 28 H        1.5450    -2.8220     0.5060 H     1 <1>   0.0800 
 29 H        1.2260    -2.0130    -1.0030 H     1 <1>   0.0800 
 30 H       -1.0630    -2.5920    -2.2370 H     1 <1>   0.0800 
 31 H       -2.1210    -3.7300    -1.4710 H     1 <1>   0.0800 
 32 H        1.8570    -4.6730     0.3040 H     1 <1>   0.4570 
 33 H       -2.7020    -7.2490    -1.2170 H     1 <1>   0.4000 
 34 H        0.4160    -8.5860     0.2050 H     1 <1>   0.1500 
 35 H        2.6560    -8.1930     1.1170 H     1 <1>   0.0800 
 36 H        2.8620    -6.6500     1.8790 H     1 <1>   0.0800 
 37 H       -1.5770    -9.5780     0.2060 H     1 <1>   0.0800 
 38 H       -1.8300    -9.7160    -1.5250 H     1 <1>   0.0800 
 39 H        3.6870    -7.3150    -0.9750 H     1 <1>   0.0800 
 40 H        4.7660    -7.2210     0.3890 H     1 <1>   0.0800 
 41 H        3.9740    -5.7800    -0.1830 H     1 <1>   0.0800 
 42 H       -4.1910    -9.0680    -1.2320 H     1 <1>   0.0800 
 43 H       -3.9340    -8.8930     0.4940 H     1 <1>   0.0800 
 44 H       -3.4070   -11.3070     0.6600 H     1 <1>   0.0800 
 45 H       -3.6430   -11.4830    -1.0620 H     1 <1>   0.0800 
 46 H       -6.0680   -11.7190    -1.8970 H     1 <1>   0.1500 
 47 H       -5.6120   -10.6650     2.1040 H     1 <1>   0.1500 
 48 H       -8.1910   -11.2580     1.5870 H     1 <1>   0.1500 
@<TRIPOS>BOND
  1   1   2  1   
  2   1   3  1   
  3   2   4  1   
  4   2  24  1   
  5   2  25  1   
  6   3   5  1   
  7   3  26  1   
  8   3  27  1   
  9   4   6  1   
 10   4  28  1   
 11   4  29  1   
 12   5   6  1   
 13   5  30  1   
 14   5  31  1   
 15   6   7  1   
 16   7   8  ar  
 17   7   9  ar  
 18   8  10  ar  
 19   9  11  ar  
 20   9  32  1   
 21  10  12  1   
 22  10  13  ar  
 23  11  13  ar  
 24  11  14  1   
 25  12  15  1   
 26  12  33  1   
 27  13  34  1   
 28  14  16  1   
 29  14  35  1   
 30  14  36  1   
 31  15  17  1   
 32  15  37  1   
 33  15  38  1   
 34  16  39  1   
 35  16  40  1   
 36  16  41  1   
 37  17  18  1   
 38  17  42  1   
 39  17  43  1   
 40  18  19  1   
 41  18  44  1   
 42  18  45  1   
 43  19  20  1   
 44  19  21  1   
 45  20  22  2   
 46  20  46  1   
 47  21  23  2   
 48  21  47  1   
 49  22  23  1   
 50  23  48  1   
@<TRIPOS>SUBSTRUCTURE
  1 ****  10 GROUP 4 **** **** 0

# MOE 2024.06 (io_trps.svl 2023.06)
