@<TRIPOS>MOLECULE
NONAME
50 52 1 0 0 
SMALL
USER_CHARGES


@<TRIPOS>ATOM
  1 O       -0.0180    -0.0370    -0.8580 O.2   1 <1>  -0.5700 
  2 C       -1.0090     0.6500    -0.8990 C.2   1 <1>   0.5690 
  3 N       -2.2640     0.1050    -0.8640 N.am  1 <1>  -0.6600 
  4 C       -0.8240     2.1530    -0.9750 C.3   1 <1>  -0.0990 
  5 C       -3.5540     0.8390    -0.8510 C.3   1 <1>   0.1400 
  6 C       -2.4930    -1.3540    -0.7540 C.3   1 <1>   0.1400 
  7 C       -0.7300     2.7660     0.4260 C.3   1 <1>  -0.0160 
  8 C       -4.6270    -0.2390    -0.6790 C.3   1 <1>   0.2000 
  9 C       -3.9010    -1.4840    -0.1720 C.3   1 <1>  -0.0800 
 10 C       -0.6570     4.2800     0.3330 C.ar  1 <1>  -0.1440 
 11 O       -5.5920     0.1470     0.2380 O.3   1 <1>  -0.6800 
 12 C       -4.6270    -2.7860    -0.5550 C.3   1 <1>  -0.0170 
 13 C        0.5640     4.9070     0.1460 C.ar  1 <1>  -0.1500 
 14 C       -1.8080     5.0450     0.4260 C.ar  1 <1>  -0.1500 
 15 C       -3.9130    -4.0140    -0.0120 C.ar  1 <1>   0.1670 
 16 C        0.6400     6.2870     0.0530 C.ar  1 <1>  -0.1440 
 17 C       -1.7450     6.4260     0.3340 C.ar  1 <1>  -0.1440 
 18 N       -2.8900    -4.4620    -0.7210 N.ar  1 <1>  -0.6200 
 19 C       -4.3450    -4.6050     1.1740 C.ar  1 <1>   0.1600 
 20 C       -0.5190     7.0400     0.1460 C.ar  1 <1>  -0.1500 
 21 C        1.9810     6.9650    -0.1550 C.3   1 <1>  -0.0970 
 22 C       -3.0100     7.2590     0.4350 C.3   1 <1>  -0.0970 
 23 C       -2.3290    -5.5250    -0.1680 C.ar  1 <1>   0.1600 
 24 N       -3.7860    -5.6680     1.7290 N.ar  1 <1>  -0.6200 
 25 C       -2.7630    -6.1080     1.0170 C.ar  1 <1>   0.1600 
 26 H        0.0840     2.3590    -1.5120 H     1 <1>   0.0800 
 27 H       -1.6300     2.6020    -1.5230 H     1 <1>   0.0800 
 28 H       -3.5670     1.5330    -0.0300 H     1 <1>   0.0800 
 29 H       -3.6920     1.3590    -1.7820 H     1 <1>   0.0800 
 30 H       -2.4390    -1.7930    -1.7370 H     1 <1>   0.0800 
 31 H       -1.7570    -1.8190    -0.1200 H     1 <1>   0.0800 
 32 H        0.1460     2.3880     0.9250 H     1 <1>   0.0800 
 33 H       -1.5850     2.4800     1.0120 H     1 <1>   0.0800 
 34 H       -5.1110    -0.4220    -1.6240 H     1 <1>   0.0800 
 35 H       -3.8030    -1.4320     0.8980 H     1 <1>   0.0800 
 36 H       -5.1870     0.3030     1.1130 H     1 <1>   0.4000 
 37 H       -4.6970    -2.8680    -1.6250 H     1 <1>   0.0800 
 38 H       -5.6310    -2.7560    -0.1690 H     1 <1>   0.0800 
 39 H        1.4600     4.3170     0.0710 H     1 <1>   0.1500 
 40 H       -2.7600     4.5660     0.5700 H     1 <1>   0.1500 
 41 H       -5.1880    -4.1800     1.6890 H     1 <1>   0.1500 
 42 H       -0.4650     8.1110     0.0690 H     1 <1>   0.1500 
 43 H        1.9750     7.9510     0.2740 H     1 <1>   0.0800 
 44 H        2.1880     7.0440    -1.2070 H     1 <1>   0.0800 
 45 H        2.7650     6.3970     0.3120 H     1 <1>   0.0800 
 46 H       -2.7930     8.2180     0.8690 H     1 <1>   0.0800 
 47 H       -3.7390     6.7650     1.0520 H     1 <1>   0.0800 
 48 H       -3.4250     7.4070    -0.5450 H     1 <1>   0.0800 
 49 H       -1.4860    -5.9570    -0.6770 H     1 <1>   0.1500 
 50 H       -2.2410    -6.9720     1.3880 H     1 <1>   0.1500 
@<TRIPOS>BOND
  1   1   2  2   
  2   2   3  am  
  3   2   4  1   
  4   3   5  1   
  5   3   6  1   
  6   4   7  1   
  7   4  26  1   
  8   4  27  1   
  9   5   8  1   
 10   5  28  1   
 11   5  29  1   
 12   6   9  1   
 13   6  30  1   
 14   6  31  1   
 15   7  10  1   
 16   7  32  1   
 17   7  33  1   
 18   8   9  1   
 19   8  11  1   
 20   8  34  1   
 21   9  12  1   
 22   9  35  1   
 23  10  13  ar  
 24  10  14  ar  
 25  11  36  1   
 26  12  15  1   
 27  12  37  1   
 28  12  38  1   
 29  13  16  ar  
 30  13  39  1   
 31  14  17  ar  
 32  14  40  1   
 33  15  18  ar  
 34  15  19  ar  
 35  16  20  ar  
 36  16  21  1   
 37  17  20  ar  
 38  17  22  1   
 39  18  23  ar  
 40  19  24  ar  
 41  19  41  1   
 42  20  42  1   
 43  21  43  1   
 44  21  44  1   
 45  21  45  1   
 46  22  46  1   
 47  22  47  1   
 48  22  48  1   
 49  23  25  ar  
 50  23  49  1   
 51  24  25  ar  
 52  25  50  1   
@<TRIPOS>SUBSTRUCTURE
  1 ****   3 GROUP 4 **** **** 0

# MOE 2024.06 (io_trps.svl 2023.06)
