@<TRIPOS>MOLECULE
NONAME
45 47 1 0 0 
SMALL
USER_CHARGES


@<TRIPOS>ATOM
  1 O       -1.8260     0.3710     3.0310 O.2   1 <1>  -0.5700 
  2 C       -2.0850     0.8590     1.9470 C.2   1 <1>   0.5440 
  3 N       -2.7740     0.0890     1.0370 N.am  1 <1>  -0.6600 
  4 C       -1.7340     2.2350     1.6890 C.ar  1 <1>   0.0860 
  5 C       -3.4350     0.5860    -0.1910 C.3   1 <1>   0.1400 
  6 C       -3.1480    -1.3260     1.2890 C.3   1 <1>   0.1400 
  7 C       -0.9370     2.6240     0.6040 C.ar  1 <1>   0.3920 
  8 C       -2.1860     3.2370     2.5380 C.ar  1 <1>  -0.1500 
  9 C       -4.6140    -0.3640    -0.3860 C.3   1 <1>   0.2000 
 10 C       -4.1220    -1.7090     0.1600 C.3   1 <1>  -0.0800 
 11 O       -0.4560     1.6560    -0.2060 O.3   1 <1>  -0.3630 
 12 N       -0.6090     3.8790     0.3050 N.ar  1 <1>  -0.6200 
 13 C       -1.8460     4.5360     2.2480 C.ar  1 <1>  -0.1500 
 14 O       -5.6550     0.0640     0.4200 O.3   1 <1>  -0.6800 
 15 C       -3.4350    -2.5340    -0.9460 C.3   1 <1>  -0.0170 
 16 C        0.4350     1.9340    -1.2690 C.3   1 <1>   0.0400 
 17 C       -1.0690     4.8080     1.1330 C.ar  1 <1>   0.3930 
 18 C       -3.1200    -3.9510    -0.4880 C.ar  1 <1>   0.1670 
 19 O       -0.7740     6.0990     0.8950 O.3   1 <1>  -0.3630 
 20 N       -1.9040    -4.1690    -0.0170 N.ar  1 <1>  -0.6200 
 21 C       -4.0970    -4.9420    -0.5800 C.ar  1 <1>   0.1600 
 22 C        0.0260     6.4810    -0.2070 C.3   1 <1>   0.0400 
 23 C       -1.7310    -5.4260     0.3550 C.ar  1 <1>   0.1600 
 24 N       -3.9270    -6.2000    -0.2090 N.ar  1 <1>  -0.6200 
 25 C       -2.7090    -6.4080     0.2620 C.ar  1 <1>   0.1600 
 26 H       -3.7590     1.6090    -0.0960 H     1 <1>   0.0800 
 27 H       -2.7500     0.4980    -1.0160 H     1 <1>   0.0800 
 28 H       -2.2660    -1.9430     1.3030 H     1 <1>   0.0800 
 29 H       -3.6350    -1.3980     2.2470 H     1 <1>   0.0800 
 30 H       -2.7840     2.9890     3.3990 H     1 <1>   0.1500 
 31 H       -4.9680    -0.4010    -1.4020 H     1 <1>   0.0800 
 32 H       -4.9450    -2.2830     0.5490 H     1 <1>   0.0800 
 33 H       -2.1700     5.3500     2.8700 H     1 <1>   0.1500 
 34 H       -5.3100     0.2030     1.3260 H     1 <1>   0.4000 
 35 H       -2.5250    -2.0510    -1.2600 H     1 <1>   0.0800 
 36 H       -4.0810    -2.5920    -1.8030 H     1 <1>   0.0800 
 37 H        0.6900     1.0050    -1.7460 H     1 <1>   0.0800 
 38 H        1.3180     2.3980    -0.8670 H     1 <1>   0.0800 
 39 H       -0.0510     2.5910    -1.9680 H     1 <1>   0.0800 
 40 H       -5.0630    -4.6830    -0.9750 H     1 <1>   0.1500 
 41 H        0.1300     7.5500    -0.1960 H     1 <1>   0.0800 
 42 H       -0.4580     6.1650    -1.1140 H     1 <1>   0.0800 
 43 H        0.9910     6.0140    -0.1140 H     1 <1>   0.0800 
 44 H       -0.7680    -5.6930     0.7530 H     1 <1>   0.1500 
 45 H       -2.4730    -7.4050     0.5910 H     1 <1>   0.1500 
@<TRIPOS>BOND
  1   1   2  2   
  2   2   3  am  
  3   2   4  1   
  4   3   5  1   
  5   3   6  1   
  6   4   7  ar  
  7   4   8  ar  
  8   5   9  1   
  9   5  26  1   
 10   5  27  1   
 11   6  10  1   
 12   6  28  1   
 13   6  29  1   
 14   7  11  1   
 15   7  12  ar  
 16   8  13  ar  
 17   8  30  1   
 18   9  10  1   
 19   9  14  1   
 20   9  31  1   
 21  10  15  1   
 22  10  32  1   
 23  11  16  1   
 24  12  17  ar  
 25  13  17  ar  
 26  13  33  1   
 27  14  34  1   
 28  15  18  1   
 29  15  35  1   
 30  15  36  1   
 31  16  37  1   
 32  16  38  1   
 33  16  39  1   
 34  17  19  1   
 35  18  20  ar  
 36  18  21  ar  
 37  19  22  1   
 38  20  23  ar  
 39  21  24  ar  
 40  21  40  1   
 41  22  41  1   
 42  22  42  1   
 43  22  43  1   
 44  23  25  ar  
 45  23  44  1   
 46  24  25  ar  
 47  25  45  1   
@<TRIPOS>SUBSTRUCTURE
  1 ****   3 GROUP 4 **** **** 0

# MOE 2024.06 (io_trps.svl 2023.06)
