@<TRIPOS>MOLECULE
NONAME
49 50 1 0 0 
SMALL
USER_CHARGES


@<TRIPOS>ATOM
  1 O       -0.9740    -3.1710    -1.4470 O.3   1 <1>  -0.6800 
  2 C       -0.6420    -2.1570    -0.5330 C.3   1 <1>   0.1200 
  3 C        0.6820    -2.4840     0.1940 C.3   1 <1>   0.3430 
  4 N        0.9250    -3.9600     0.1900 N.4   1 <1>  -0.9590 
  5 C        0.0380    -4.7060     1.1260 C.3   1 <1>   0.3430 
  6 C        2.3700    -4.3120     0.3580 C.3   1 <1>   0.3430 
  7 C        0.0210    -6.2090     0.7660 C.3   1 <1>  -0.0800 
  8 C        2.5380    -5.8100     0.6640 C.3   1 <1>  -0.1600 
  9 C        1.3680    -6.6650     0.1460 C.3   1 <1>  -0.1600 
 10 C       -1.2100    -6.5090    -0.1260 C.3   1 <1>   0.3430 
 11 N       -1.4680    -7.9610    -0.4300 N.4   1 <1>  -0.9590 
 12 C       -1.4670    -8.8670     0.7640 C.3   1 <1>   0.4860 
 13 C       -0.6260    -8.5080    -1.5470 C.3   1 <1>   0.2630 
 14 C       -2.0440   -10.2110     0.3710 C.ar  1 <1>  -0.1430 
 15 C       -3.4140   -10.4200     0.2140 C.ar  1 <1>   0.1670 
 16 C       -1.1770   -11.2680     0.1560 C.ar  1 <1>  -0.1500 
 17 N       -3.9380   -11.5680    -0.1680 N.ar  1 <1>  -0.6200 
 18 C       -4.4600    -9.3450     0.4620 C.3   1 <1>  -0.0970 
 19 C       -1.7270   -12.4710    -0.2260 C.ar  1 <1>  -0.1500 
 20 C       -3.0970   -12.5660    -0.3760 C.ar  1 <1>   0.1600 
 21 H       -1.6480    -2.8390    -2.0840 H     1 <1>   0.4000 
 22 H       -1.4490    -2.0630     0.1740 H     1 <1>   0.0800 
 23 H       -0.5470    -1.2260    -1.0670 H     1 <1>   0.0800 
 24 H        0.6680    -2.0940     1.1980 H     1 <1>   0.0800 
 25 H        1.4810    -1.9910    -0.3360 H     1 <1>   0.0800 
 26 H        0.6320    -4.2180    -0.7680 H     1 <1>   0.4500 
 27 H       -0.9630    -4.3060     1.0910 H     1 <1>   0.0800 
 28 H        0.4110    -4.5830     2.1310 H     1 <1>   0.0800 
 29 H        2.8040    -3.7370     1.1610 H     1 <1>   0.0800 
 30 H        2.9010    -4.0690    -0.5490 H     1 <1>   0.0800 
 31 H       -0.1150    -6.7180     1.7030 H     1 <1>   0.0800 
 32 H        2.6320    -5.9370     1.7300 H     1 <1>   0.0800 
 33 H        3.4640    -6.1490     0.2310 H     1 <1>   0.0800 
 34 H        1.3380    -6.5640    -0.9260 H     1 <1>   0.0800 
 35 H        1.5530    -7.7000     0.3780 H     1 <1>   0.0800 
 36 H       -1.1090    -5.9680    -1.0550 H     1 <1>   0.0800 
 37 H       -2.0810    -6.1110     0.3710 H     1 <1>   0.0800 
 38 H       -2.4350    -8.0250    -0.7880 H     1 <1>   0.4500 
 39 H       -2.0590    -8.4440     1.5590 H     1 <1>   0.0800 
 40 H       -0.4610    -9.0000     1.1280 H     1 <1>   0.0800 
 41 H        0.3980    -8.6200    -1.2360 H     1 <1>   0.0800 
 42 H       -0.6630    -7.8530    -2.4020 H     1 <1>   0.0800 
 43 H       -0.9940    -9.4760    -1.8500 H     1 <1>   0.0800 
 44 H       -0.1100   -11.1800     0.2790 H     1 <1>   0.1500 
 45 H       -4.0740    -8.4740     0.9510 H     1 <1>   0.0800 
 46 H       -5.2360    -9.7530     1.0860 H     1 <1>   0.0800 
 47 H       -4.9100    -9.0600    -0.4730 H     1 <1>   0.0800 
 48 H       -1.1070   -13.3310    -0.4070 H     1 <1>   0.1500 
 49 H       -3.5230   -13.5090    -0.6790 H     1 <1>   0.1500 
@<TRIPOS>BOND
  1   1   2  1   
  2   1  21  1   
  3   2   3  1   
  4   2  22  1   
  5   2  23  1   
  6   3   4  1   
  7   3  24  1   
  8   3  25  1   
  9   4   5  1   
 10   4   6  1   
 11   4  26  1   
 12   5   7  1   
 13   5  27  1   
 14   5  28  1   
 15   6   8  1   
 16   6  29  1   
 17   6  30  1   
 18   7   9  1   
 19   7  10  1   
 20   7  31  1   
 21   8   9  1   
 22   8  32  1   
 23   8  33  1   
 24   9  34  1   
 25   9  35  1   
 26  10  11  1   
 27  10  36  1   
 28  10  37  1   
 29  11  12  1   
 30  11  13  1   
 31  11  38  1   
 32  12  14  1   
 33  12  39  1   
 34  12  40  1   
 35  13  41  1   
 36  13  42  1   
 37  13  43  1   
 38  14  15  ar  
 39  14  16  ar  
 40  15  17  ar  
 41  15  18  1   
 42  16  19  ar  
 43  16  44  1   
 44  17  20  ar  
 45  18  45  1   
 46  18  46  1   
 47  18  47  1   
 48  19  20  ar  
 49  19  48  1   
 50  20  49  1   
@<TRIPOS>SUBSTRUCTURE
  1 ****  11 GROUP 4 **** **** 0

# MOE 2024.06 (io_trps.svl 2023.06)
