@<TRIPOS>MOLECULE
NONAME
54 57 1 0 0 
SMALL
USER_CHARGES


@<TRIPOS>ATOM
  1 S       -1.1100     1.2070    -2.9160 S.3   1 <1>  -0.0800 
  2 C       -2.1940     0.2620    -1.9310 C.2   1 <1>  -0.1400 
  3 C       -0.0890    -0.2000    -3.0920 C.2   1 <1>   0.2280 
  4 C       -1.7020    -0.9860    -1.8310 C.2   1 <1>   0.0460 
  5 C       -3.4320     0.9600    -1.3920 C.3   1 <1>   0.0200 
  6 N       -0.5110    -1.2380    -2.4890 N.2   1 <1>  -0.5650 
  7 C       -2.3010    -2.1530    -1.0760 C.3   1 <1>  -0.0590 
  8 C       -3.0580     1.9530    -0.2820 C.3   1 <1>  -0.0990 
  9 C       -4.2490     2.7080     0.2920 C.2   1 <1>   0.5690 
 10 O       -5.3490     2.2790     0.0310 O.2   1 <1>  -0.5700 
 11 N       -4.0430     3.8330     1.0590 N.am  1 <1>  -0.6600 
 12 C       -5.0860     4.8560     1.4450 C.3   1 <1>   0.2200 
 13 C       -2.7120     4.2010     1.6370 C.3   1 <1>   0.1400 
 14 C       -4.7440     6.2750     0.8850 C.3   1 <1>   0.1380 
 15 C       -6.5710     4.5130     1.2560 C.3   1 <1>  -0.1600 
 16 C       -2.3070     5.6210     1.2180 C.3   1 <1>  -0.1600 
 17 C       -4.6080     6.3890    -0.6620 C.2   1 <1>  -0.2760 
 18 C       -5.8690     7.2540     1.3180 C.3   1 <1>   0.1200 
 19 C       -3.4000     6.6550     1.5530 C.3   1 <1>  -0.1600 
 20 C       -7.4630     5.6160     1.8530 C.3   1 <1>   0.1200 
 21 C       -4.8930     5.4430    -1.5670 C.2   1 <1>  -0.2880 
 22 C       -4.0970     7.7340    -1.1920 C.3   1 <1>  -0.0220 
 23 O       -6.7000     6.7020     2.2990 O.3   1 <1>  -0.5600 
 24 C       -4.7140     5.6000    -3.0710 C.3   1 <1>   0.2580 
 25 C       -4.3860     7.8910    -2.6920 C.3   1 <1>   0.1200 
 26 O       -3.9690     6.7450    -3.3660 O.3   1 <1>  -0.5600 
 27 H        0.8010    -0.0880    -3.6850 H     1 <1>   0.1500 
 28 H       -3.9270     1.4770    -2.1950 H     1 <1>   0.0800 
 29 H       -4.1170     0.2290    -1.0020 H     1 <1>   0.0800 
 30 H       -3.2100    -1.8710    -0.5800 H     1 <1>   0.0800 
 31 H       -1.5990    -2.5040    -0.3420 H     1 <1>   0.0800 
 32 H       -2.5120    -2.9530    -1.7620 H     1 <1>   0.0800 
 33 H       -2.3690     2.6700    -0.6890 H     1 <1>   0.0800 
 34 H       -2.5730     1.4200     0.5140 H     1 <1>   0.0800 
 35 H       -4.9940     4.9360     2.5150 H     1 <1>   0.0800 
 36 H       -2.7840     4.1570     2.7100 H     1 <1>   0.0800 
 37 H       -1.9420     3.5120     1.3430 H     1 <1>   0.0800 
 38 H       -6.7950     3.5840     1.7480 H     1 <1>   0.0800 
 39 H       -6.8160     4.4050     0.2180 H     1 <1>   0.0800 
 40 H       -1.3950     5.8890     1.7220 H     1 <1>   0.0800 
 41 H       -2.1050     5.6270     0.1610 H     1 <1>   0.0800 
 42 H       -6.4900     7.5100     0.4760 H     1 <1>   0.0800 
 43 H       -5.4520     8.1620     1.7160 H     1 <1>   0.0800 
 44 H       -3.0780     7.6350     1.2550 H     1 <1>   0.0800 
 45 H       -3.5330     6.6860     2.6210 H     1 <1>   0.0800 
 46 H       -8.0050     5.2370     2.7020 H     1 <1>   0.0800 
 47 H       -8.1710     5.9720     1.1240 H     1 <1>   0.0800 
 48 H       -5.2770     4.4720    -1.3300 H     1 <1>   0.1500 
 49 H       -3.0340     7.8040    -1.0450 H     1 <1>   0.0800 
 50 H       -4.5600     8.5550    -0.6790 H     1 <1>   0.0800 
 51 H       -5.6680     5.6750    -3.5630 H     1 <1>   0.0800 
 52 H       -4.1760     4.7580    -3.4720 H     1 <1>   0.0800 
 53 H       -3.8460     8.7290    -3.0960 H     1 <1>   0.0800 
 54 H       -5.4390     8.0290    -2.8690 H     1 <1>   0.0800 
@<TRIPOS>BOND
  1   1   2  1   
  2   1   3  1   
  3   2   4  2   
  4   2   5  1   
  5   3   6  2   
  6   3  27  1   
  7   4   6  1   
  8   4   7  1   
  9   5   8  1   
 10   5  28  1   
 11   5  29  1   
 12   7  30  1   
 13   7  31  1   
 14   7  32  1   
 15   8   9  1   
 16   8  33  1   
 17   8  34  1   
 18   9  10  2   
 19   9  11  am  
 20  11  12  1   
 21  11  13  1   
 22  12  14  1   
 23  12  15  1   
 24  12  35  1   
 25  13  16  1   
 26  13  36  1   
 27  13  37  1   
 28  14  17  1   
 29  14  18  1   
 30  14  19  1   
 31  15  20  1   
 32  15  38  1   
 33  15  39  1   
 34  16  19  1   
 35  16  40  1   
 36  16  41  1   
 37  17  21  2   
 38  17  22  1   
 39  18  23  1   
 40  18  42  1   
 41  18  43  1   
 42  19  44  1   
 43  19  45  1   
 44  20  23  1   
 45  20  46  1   
 46  20  47  1   
 47  21  24  1   
 48  21  48  1   
 49  22  25  1   
 50  22  49  1   
 51  22  50  1   
 52  24  26  1   
 53  24  51  1   
 54  24  52  1   
 55  25  26  1   
 56  25  53  1   
 57  25  54  1   
@<TRIPOS>SUBSTRUCTURE
  1 ****   9 GROUP 4 **** **** 0

# MOE 2024.06 (io_trps.svl 2023.06)
