@<TRIPOS>MOLECULE
NONAME
46 50 1 0 0 
SMALL
USER_CHARGES


@<TRIPOS>ATOM
  1 S       -0.8390    -0.4970     1.5270 S.3   1 <1>  -0.0800 
  2 C       -1.7900    -1.3380     0.3200 C.ar  1 <1>   0.0400 
  3 C       -0.9330     0.9650     0.5530 C.2   1 <1>   0.2280 
  4 C       -2.0810    -0.4430    -0.6920 C.ar  1 <1>   0.2270 
  5 C       -2.2040    -2.6550     0.3200 C.ar  1 <1>  -0.1500 
  6 N       -1.5880     0.8470    -0.5310 N.2   1 <1>  -0.5650 
  7 C       -2.8280    -0.9030    -1.7650 C.ar  1 <1>  -0.1500 
  8 C       -2.9660    -3.1240    -0.7520 C.ar  1 <1>   0.0860 
  9 C       -3.2560    -2.2200    -1.7890 C.ar  1 <1>  -0.1500 
 10 C       -3.4450    -4.4950    -0.8020 C.2   1 <1>   0.5440 
 11 O       -3.7200    -5.0270    -1.8600 O.2   1 <1>  -0.5700 
 12 N       -3.6750    -5.2300     0.3370 N.am  1 <1>  -0.6600 
 13 C       -4.6720    -4.7530     1.3410 C.3   1 <1>   0.1400 
 14 C       -3.5630    -6.7160     0.2710 C.3   1 <1>   0.1400 
 15 C       -6.0620    -5.4000     1.1130 C.3   1 <1>   0.4230 
 16 C       -4.9390    -7.3370    -0.0210 C.3   1 <1>   0.3430 
 17 N       -5.9810    -6.9150     0.9930 N.4   1 <1>  -0.9590 
 18 C       -6.7660    -4.7850    -0.1210 C.3   1 <1>   0.1200 
 19 C       -7.3450    -7.4730     0.6920 C.3   1 <1>   0.5180 
 20 O       -8.0250    -5.3670    -0.2960 O.3   1 <1>  -0.5600 
 21 C       -7.2520    -9.0060     0.5470 C.3   1 <1>  -0.1950 
 22 C       -7.9990    -6.7510    -0.5130 C.3   1 <1>   0.1200 
 23 C       -6.9520    -9.7300    -0.7340 C.3   1 <1>  -0.2000 
 24 C       -8.3180    -9.8270    -0.1160 C.3   1 <1>  -0.2000 
 25 H       -0.4370     1.8370     0.9420 H     1 <1>   0.1500 
 26 H       -1.9310    -3.3010     1.1340 H     1 <1>   0.1500 
 27 H       -3.0580    -0.2240    -2.5660 H     1 <1>   0.1500 
 28 H       -3.8290    -2.5680    -2.6330 H     1 <1>   0.1500 
 29 H       -4.3190    -4.9960     2.3280 H     1 <1>   0.0800 
 30 H       -4.7630    -3.6810     1.2890 H     1 <1>   0.0800 
 31 H       -2.8750    -6.9940    -0.5120 H     1 <1>   0.0800 
 32 H       -3.1700    -7.0940     1.1990 H     1 <1>   0.0800 
 33 H       -6.6730    -5.1530     1.9650 H     1 <1>   0.0800 
 34 H       -4.8410    -8.4100    -0.0270 H     1 <1>   0.0800 
 35 H       -5.2420    -7.0280    -1.0090 H     1 <1>   0.0800 
 36 H       -5.6970    -7.2930     1.9010 H     1 <1>   0.4500 
 37 H       -6.1930    -4.9260    -1.0210 H     1 <1>   0.0800 
 38 H       -6.9160    -3.7290     0.0230 H     1 <1>   0.0800 
 39 H       -7.9830    -7.2790     1.5380 H     1 <1>   0.0800 
 40 H       -6.8690    -9.4430     1.4540 H     1 <1>   0.1000 
 41 H       -9.0180    -7.0740    -0.6300 H     1 <1>   0.0800 
 42 H       -7.4710    -6.9480    -1.4300 H     1 <1>   0.0800 
 43 H       -6.8770    -9.2110    -1.6750 H     1 <1>   0.1000 
 44 H       -6.3310   -10.6110    -0.7110 H     1 <1>   0.1000 
 45 H       -8.6070   -10.7640     0.3320 H     1 <1>   0.1000 
 46 H       -9.1380    -9.3710    -0.6440 H     1 <1>   0.1000 
@<TRIPOS>BOND
  1   1   2  1   
  2   1   3  1   
  3   2   4  ar  
  4   2   5  ar  
  5   3   6  2   
  6   3  25  1   
  7   4   6  1   
  8   4   7  ar  
  9   5   8  ar  
 10   5  26  1   
 11   7   9  ar  
 12   7  27  1   
 13   8   9  ar  
 14   8  10  1   
 15   9  28  1   
 16  10  11  2   
 17  10  12  am  
 18  12  13  1   
 19  12  14  1   
 20  13  15  1   
 21  13  29  1   
 22  13  30  1   
 23  14  16  1   
 24  14  31  1   
 25  14  32  1   
 26  15  17  1   
 27  15  18  1   
 28  15  33  1   
 29  16  17  1   
 30  16  34  1   
 31  16  35  1   
 32  17  19  1   
 33  17  36  1   
 34  18  20  1   
 35  18  37  1   
 36  18  38  1   
 37  19  21  1   
 38  19  22  1   
 39  19  39  1   
 40  20  22  1   
 41  21  23  1   
 42  21  24  1   
 43  21  40  1   
 44  22  41  1   
 45  22  42  1   
 46  23  24  1   
 47  23  43  1   
 48  23  44  1   
 49  24  45  1   
 50  24  46  1   
@<TRIPOS>SUBSTRUCTURE
  1 ****  12 GROUP 4 **** **** 0

# MOE 2024.06 (io_trps.svl 2023.06)
