@<TRIPOS>MOLECULE
NONAME
54 57 1 0 0 
SMALL
USER_CHARGES


@<TRIPOS>ATOM
  1 O        0.4140     1.8170     2.1760 O.2   1 <1>  -0.5700 
  2 C        0.3090     2.8750     1.6100 C.2   1 <1>   0.5690 
  3 N       -0.7890     3.6430     1.7760 N.am  1 <1>  -0.7300 
  4 C        1.4100     3.3550     0.6630 C.3   1 <1>   0.1810 
  5 C       -1.0240     4.9190     1.0550 C.3   1 <1>   0.3640 
  6 O        1.3600     4.7470     0.4450 O.3   1 <1>  -0.5600 
  7 C       -2.4010     4.8550     0.3980 C.ar  1 <1>  -0.1440 
  8 C        0.0880     5.2320     0.0190 C.3   1 <1>   0.2610 
  9 C       -3.2420     5.9580     0.4520 C.ar  1 <1>  -0.1500 
 10 C       -2.8360     3.7120    -0.2640 C.ar  1 <1>  -0.1500 
 11 C        0.1510     6.7450    -0.2080 C.2   1 <1>   0.5690 
 12 C       -4.4940     5.9190    -0.1360 C.ar  1 <1>  -0.1500 
 13 C       -4.0880     3.6720    -0.8520 C.ar  1 <1>  -0.1500 
 14 O       -0.6620     7.2770    -0.9250 O.2   1 <1>  -0.5700 
 15 N        1.1310     7.4560     0.4080 N.am  1 <1>  -0.7300 
 16 C       -4.9190     4.7750    -0.7870 C.ar  1 <1>  -0.1500 
 17 C        1.4230     8.8990     0.2060 C.3   1 <1>   0.1400 
 18 C        2.8040     9.1880    -0.4360 C.3   1 <1>   0.1430 
 19 C        2.8980    10.7220    -0.5570 C.ar  1 <1>  -0.1430 
 20 C        2.9710     8.4870    -1.7990 C.3   1 <1>  -0.1600 
 21 C        3.9680     8.5860     0.3780 C.3   1 <1>  -0.1600 
 22 C        3.4720    11.4950     0.4480 C.ar  1 <1>  -0.1500 
 23 C        2.3700    11.3770    -1.6650 C.ar  1 <1>  -0.1500 
 24 C        3.5920     7.1100    -1.5420 C.3   1 <1>  -0.1600 
 25 C        4.2260     7.1720    -0.1510 C.3   1 <1>  -0.1600 
 26 C        3.5370    12.8740     0.3380 C.ar  1 <1>  -0.1500 
 27 C        2.4330    12.7550    -1.7770 C.ar  1 <1>  -0.1500 
 28 C        3.0200    13.5060    -0.7760 C.ar  1 <1>  -0.1500 
 29 H       -1.5460     3.2980     2.3680 H     1 <1>   0.3700 
 30 H        1.3140     2.8560    -0.2850 H     1 <1>   0.0800 
 31 H        2.3700     3.1210     1.0850 H     1 <1>   0.0800 
 32 H       -1.0310     5.7080     1.7880 H     1 <1>   0.0800 
 33 H       -0.1460     4.7620    -0.9180 H     1 <1>   0.0800 
 34 H       -2.9260     6.8620     0.9440 H     1 <1>   0.1500 
 35 H       -2.2060     2.8410    -0.3260 H     1 <1>   0.1500 
 36 H       -5.1360     6.7810    -0.0900 H     1 <1>   0.1500 
 37 H       -4.4170     2.7820    -1.3590 H     1 <1>   0.1500 
 38 H        1.8730     6.9150     0.8640 H     1 <1>   0.3700 
 39 H       -5.8930     4.7460    -1.2450 H     1 <1>   0.1500 
 40 H        0.6570     9.3310    -0.4160 H     1 <1>   0.0800 
 41 H        1.3730     9.3940     1.1600 H     1 <1>   0.0800 
 42 H        2.0370     8.4040    -2.3280 H     1 <1>   0.0800 
 43 H        3.6600     9.0520    -2.4020 H     1 <1>   0.0800 
 44 H        4.8570     9.1650     0.1930 H     1 <1>   0.0800 
 45 H        3.7720     8.5880     1.4360 H     1 <1>   0.0800 
 46 H        3.8750    11.0390     1.3340 H     1 <1>   0.1500 
 47 H        1.8960    10.8230    -2.4550 H     1 <1>   0.1500 
 48 H        2.8300     6.3500    -1.5620 H     1 <1>   0.0800 
 49 H        4.3260     6.8780    -2.2950 H     1 <1>   0.0800 
 50 H        5.2830     6.9730    -0.2000 H     1 <1>   0.0800 
 51 H        3.7710     6.4370     0.4910 H     1 <1>   0.0800 
 52 H        3.9900    13.4540     1.1220 H     1 <1>   0.1500 
 53 H        2.0230    13.2430    -2.6450 H     1 <1>   0.1500 
 54 H        3.0710    14.5770    -0.8630 H     1 <1>   0.1500 
@<TRIPOS>BOND
  1   1   2  2   
  2   2   3  am  
  3   2   4  1   
  4   3   5  1   
  5   3  29  1   
  6   4   6  1   
  7   4  30  1   
  8   4  31  1   
  9   5   7  1   
 10   5   8  1   
 11   5  32  1   
 12   6   8  1   
 13   7   9  ar  
 14   7  10  ar  
 15   8  11  1   
 16   8  33  1   
 17   9  12  ar  
 18   9  34  1   
 19  10  13  ar  
 20  10  35  1   
 21  11  14  2   
 22  11  15  am  
 23  12  16  ar  
 24  12  36  1   
 25  13  16  ar  
 26  13  37  1   
 27  15  17  1   
 28  15  38  1   
 29  16  39  1   
 30  17  18  1   
 31  17  40  1   
 32  17  41  1   
 33  18  19  1   
 34  18  20  1   
 35  18  21  1   
 36  19  22  ar  
 37  19  23  ar  
 38  20  24  1   
 39  20  42  1   
 40  20  43  1   
 41  21  25  1   
 42  21  44  1   
 43  21  45  1   
 44  22  26  ar  
 45  22  46  1   
 46  23  27  ar  
 47  23  47  1   
 48  24  25  1   
 49  24  48  1   
 50  24  49  1   
 51  25  50  1   
 52  25  51  1   
 53  26  28  ar  
 54  26  52  1   
 55  27  28  ar  
 56  27  53  1   
 57  28  54  1   
@<TRIPOS>SUBSTRUCTURE
  1 ****  11 GROUP 4 **** **** 0

# MOE 2024.06 (io_trps.svl 2023.06)
