@<TRIPOS>MOLECULE
NONAME
41 42 1 0 0 
SMALL
USER_CHARGES


@<TRIPOS>ATOM
  1 S        1.1810     1.6090    -0.0570 S.o2  1 <1>   1.3330 
  2 O        2.2740     2.3510     0.5260 O.2   1 <1>  -0.6500 
  3 O        1.1270     1.3710    -1.4760 O.2   1 <1>  -0.6500 
  4 N       -0.2750     2.4050     0.4400 N.am  1 <1>  -0.6930 
  5 C        1.0320     0.0460     0.7790 C.3   1 <1>  -0.1350 
  6 C       -1.3780     2.5230    -0.3980 C.ar  1 <1>   0.1990 
  7 C       -0.1930     3.3370     1.6090 C.3   1 <1>   0.2570 
  8 C       -2.5960     1.9700    -0.0280 C.ar  1 <1>  -0.1500 
  9 C       -1.2930     3.2140    -1.6050 C.ar  1 <1>  -0.1500 
 10 C        0.1740     4.7790     1.2400 C.2   1 <1>   0.5690 
 11 C       -3.6810     2.1180    -0.8670 C.ar  1 <1>   0.1900 
 12 C       -2.3930     3.3540    -2.4350 C.ar  1 <1>  -0.1500 
 13 O       -0.5460     5.6750     1.6130 O.2   1 <1>  -0.5700 
 14 N        1.3020     5.0240     0.5300 N.am  1 <1>  -0.7300 
 15 F       -4.8230     1.5920    -0.5130 F     1 <1>  -0.1900 
 16 C       -3.6080     2.8000    -2.0670 C.ar  1 <1>  -0.1500 
 17 C        1.6830     6.3400    -0.0490 C.3   1 <1>   0.2810 
 18 C        1.9400     6.2830    -1.5740 C.2   1 <1>   0.5690 
 19 C        2.9060     6.8490     0.7310 C.3   1 <1>  -0.1600 
 20 O        1.1890     5.6790    -2.3010 O.2   1 <1>  -0.5700 
 21 N        3.0070     6.9240    -2.1160 N.am  1 <1>  -0.7300 
 22 C        3.5550     8.0470     0.0200 C.3   1 <1>  -0.1600 
 23 C        4.0530     7.6670    -1.3800 C.3   1 <1>   0.1400 
 24 H        1.8880    -0.5640     0.5680 H     1 <1>   0.0800 
 25 H        0.1530    -0.4680     0.4420 H     1 <1>   0.0800 
 26 H        0.9650     0.1940     1.8380 H     1 <1>   0.0800 
 27 H        0.5300     2.9730     2.3160 H     1 <1>   0.0800 
 28 H       -1.1480     3.3570     2.1030 H     1 <1>   0.0800 
 29 H       -2.6960     1.4350     0.8960 H     1 <1>   0.1500 
 30 H       -0.3520     3.6490    -1.8970 H     1 <1>   0.1500 
 31 H       -2.2980     3.8950    -3.3610 H     1 <1>   0.1500 
 32 H        1.8860     4.2280     0.2360 H     1 <1>   0.3700 
 33 H       -4.4770     2.8950    -2.6930 H     1 <1>   0.1500 
 34 H        0.8740     7.0330     0.0960 H     1 <1>   0.0800 
 35 H        3.6330     6.0590     0.8130 H     1 <1>   0.0800 
 36 H        2.5970     7.1350     1.7210 H     1 <1>   0.0800 
 37 H        3.1300     6.8130    -3.1250 H     1 <1>   0.3700 
 38 H        4.3840     8.4090     0.6020 H     1 <1>   0.0800 
 39 H        2.8420     8.8500    -0.0640 H     1 <1>   0.0800 
 40 H        4.3170     8.5560    -1.9280 H     1 <1>   0.0800 
 41 H        4.9280     7.0430    -1.2990 H     1 <1>   0.0800 
@<TRIPOS>BOND
  1   1   2  2   
  2   1   3  2   
  3   1   4  am  
  4   1   5  1   
  5   4   6  1   
  6   4   7  1   
  7   5  24  1   
  8   5  25  1   
  9   5  26  1   
 10   6   8  ar  
 11   6   9  ar  
 12   7  10  1   
 13   7  27  1   
 14   7  28  1   
 15   8  11  ar  
 16   8  29  1   
 17   9  12  ar  
 18   9  30  1   
 19  10  13  2   
 20  10  14  am  
 21  11  15  1   
 22  11  16  ar  
 23  12  16  ar  
 24  12  31  1   
 25  14  17  1   
 26  14  32  1   
 27  16  33  1   
 28  17  18  1   
 29  17  19  1   
 30  17  34  1   
 31  18  20  2   
 32  18  21  am  
 33  19  22  1   
 34  19  35  1   
 35  19  36  1   
 36  21  23  1   
 37  21  37  1   
 38  22  23  1   
 39  22  38  1   
 40  22  39  1   
 41  23  40  1   
 42  23  41  1   
@<TRIPOS>SUBSTRUCTURE
  1 ****  14 GROUP 4 **** **** 0

# MOE 2024.06 (io_trps.svl 2023.06)
