@<TRIPOS>MOLECULE
NONAME
57 61 1 0 0 
SMALL
USER_CHARGES


@<TRIPOS>ATOM
  1 S       -0.1020     0.3480     2.0430 S.3   1 <1>  -0.0800 
  2 C       -0.9910     1.1490     0.7560 C.2   1 <1>  -0.1400 
  3 C       -1.4110    -0.8050     2.2710 C.2   1 <1>  -0.1100 
  4 C       -2.1790     0.5620     0.5640 C.2   1 <1>  -0.1810 
  5 C       -0.4390     2.3480    -0.0070 C.3   1 <1>   0.4600 
  6 C       -2.4250    -0.5590     1.4190 C.2   1 <1>  -0.1500 
  7 C       -3.1170     1.1040    -0.4900 C.3   1 <1>   0.0210 
  8 O       -1.3210     2.6480    -1.0730 O.3   1 <1>  -0.5600 
  9 C        0.9070     2.0060    -0.6530 C.3   1 <1>  -0.1600 
 10 C       -0.3070     3.5820     0.8950 C.3   1 <1>  -0.1600 
 11 C       -2.7060     2.5490    -0.8360 C.3   1 <1>   0.1200 
 12 C        1.4830     3.2130    -1.3890 C.3   1 <1>   0.2090 
 13 C        0.3010     4.7640     0.1420 C.3   1 <1>   0.2090 
 14 N        1.6170     4.3450    -0.4270 N.pl3 1 <1>  -0.8380 
 15 C        2.7730     5.0130    -0.1760 C.ar  1 <1>   0.4100 
 16 N        2.6930     6.2950     0.1220 N.ar  1 <1>  -0.6200 
 17 C        4.0160     4.3540    -0.2290 C.ar  1 <1>  -0.1500 
 18 C        3.8100     6.9730     0.3320 C.ar  1 <1>   0.7710 
 19 C        5.1500     5.0560     0.0030 C.ar  1 <1>   0.2180 
 20 N        5.0120     6.3730     0.2790 N.ar  1 <1>  -0.1790 
 21 N        3.7430     8.3050     0.6100 N.pl3 1 <1>  -0.8380 
 22 C        6.5440     4.4420    -0.0230 C.3   1 <1>  -0.0170 
 23 C        2.4190     9.0100     0.7950 C.3   1 <1>   0.2090 
 24 C        4.8830     9.2800     0.7380 C.3   1 <1>   0.2090 
 25 C        7.4170     5.0390    -1.1350 C.3   1 <1>  -0.2400 
 26 C        2.3270    10.2660    -0.0890 C.3   1 <1>   0.1200 
 27 C        4.6580    10.5180    -0.1500 C.3   1 <1>   0.1200 
 28 O        3.4240    11.1050     0.1340 O.3   1 <1>  -0.5600 
 29 H       -1.2790    -1.5570     3.0290 H     1 <1>   0.1500 
 30 H       -3.3410    -1.1200     1.3560 H     1 <1>   0.1500 
 31 H       -4.1280     1.0990    -0.1250 H     1 <1>   0.0800 
 32 H       -3.0690     0.4890    -1.3710 H     1 <1>   0.0800 
 33 H        0.7730     1.1870    -1.3350 H     1 <1>   0.0800 
 34 H        1.6050     1.6950     0.1010 H     1 <1>   0.0800 
 35 H        0.3310     3.3450     1.7260 H     1 <1>   0.0800 
 36 H       -1.2640     3.8520     1.2980 H     1 <1>   0.0800 
 37 H       -2.9630     3.2130    -0.0300 H     1 <1>   0.0800 
 38 H       -3.2150     2.8750    -1.7260 H     1 <1>   0.0800 
 39 H        0.8160     3.5050    -2.1840 H     1 <1>   0.0800 
 40 H        2.4270     2.9620    -1.8360 H     1 <1>   0.0800 
 41 H        0.4180     5.5910     0.8190 H     1 <1>   0.0800 
 42 H       -0.3510     5.0720    -0.6580 H     1 <1>   0.0800 
 43 H        4.0370     3.3020    -0.4380 H     1 <1>   0.1500 
 44 H        5.8090     6.9600     0.4770 H     1 <1>   0.4570 
 45 H        6.4620     3.3800    -0.1840 H     1 <1>   0.0800 
 46 H        7.0220     4.5830     0.9310 H     1 <1>   0.0800 
 47 H        2.3170     9.3070     1.8250 H     1 <1>   0.0800 
 48 H        1.5830     8.3740     0.5630 H     1 <1>   0.0800 
 49 H        5.8210     8.8350     0.4630 H     1 <1>   0.0800 
 50 H        4.9580     9.6060     1.7630 H     1 <1>   0.0800 
 51 H        6.9500     4.9030    -2.0950 H     1 <1>   0.0800 
 52 H        8.3710     4.5390    -1.1550 H     1 <1>   0.0800 
 53 H        7.5950     6.0880    -0.9790 H     1 <1>   0.0800 
 54 H        1.4370    10.8210     0.1460 H     1 <1>   0.0800 
 55 H        2.3000     9.9970    -1.1310 H     1 <1>   0.0800 
 56 H        4.6810    10.2550    -1.1940 H     1 <1>   0.0800 
 57 H        5.4180    11.2560     0.0370 H     1 <1>   0.0800 
@<TRIPOS>BOND
  1   1   2  1   
  2   1   3  1   
  3   2   4  2   
  4   2   5  1   
  5   3   6  2   
  6   3  29  1   
  7   4   6  1   
  8   4   7  1   
  9   5   8  1   
 10   5   9  1   
 11   5  10  1   
 12   6  30  1   
 13   7  11  1   
 14   7  31  1   
 15   7  32  1   
 16   8  11  1   
 17   9  12  1   
 18   9  33  1   
 19   9  34  1   
 20  10  13  1   
 21  10  35  1   
 22  10  36  1   
 23  11  37  1   
 24  11  38  1   
 25  12  14  1   
 26  12  39  1   
 27  12  40  1   
 28  13  14  1   
 29  13  41  1   
 30  13  42  1   
 31  14  15  1   
 32  15  16  ar  
 33  15  17  ar  
 34  16  18  ar  
 35  17  19  ar  
 36  17  43  1   
 37  18  20  ar  
 38  18  21  1   
 39  19  20  ar  
 40  19  22  1   
 41  20  44  1   
 42  21  23  1   
 43  21  24  1   
 44  22  25  1   
 45  22  45  1   
 46  22  46  1   
 47  23  26  1   
 48  23  47  1   
 49  23  48  1   
 50  24  27  1   
 51  24  49  1   
 52  24  50  1   
 53  25  51  1   
 54  25  52  1   
 55  25  53  1   
 56  26  28  1   
 57  26  54  1   
 58  26  55  1   
 59  27  28  1   
 60  27  56  1   
 61  27  57  1   
@<TRIPOS>SUBSTRUCTURE
  1 ****  14 GROUP 4 **** **** 0

# MOE 2024.06 (io_trps.svl 2023.06)
