@<TRIPOS>MOLECULE
NONAME
43 46 1 0 0 
SMALL
USER_CHARGES


@<TRIPOS>ATOM
  1 S       -1.0890     0.9160     0.7870 S.3   1 <1>  -0.0800 
  2 C       -1.8100    -0.5500     0.1500 C.2   1 <1>  -0.1100 
  3 C       -2.2680     0.9830     2.0830 C.2   1 <1>  -0.1100 
  4 C       -2.8750    -0.9220     0.8880 C.2   1 <1>  -0.1810 
  5 C       -3.1290    -0.0470     1.9980 C.2   1 <1>  -0.1500 
  6 C       -3.7430    -2.1310     0.6130 C.3   1 <1>   0.5240 
  7 N       -4.8000    -1.7260    -0.3490 N.4   1 <1>  -0.9590 
  8 C       -5.7910    -0.7870     0.2840 C.3   1 <1>   0.3430 
  9 C       -5.4800    -2.9070    -0.9520 C.3   1 <1>   0.3430 
 10 C       -6.8250    -0.2670    -0.7280 C.3   1 <1>   0.1440 
 11 C       -6.4740    -2.4430    -2.0200 C.3   1 <1>  -0.1600 
 12 C       -7.8540     0.5420     0.0240 C.ar  1 <1>   0.1670 
 13 C       -7.5030    -1.4450    -1.4590 C.3   1 <1>  -0.1600 
 14 C       -6.2350     0.7760    -1.7160 C.3   1 <1>  -0.1600 
 15 N       -8.4390     0.1530     1.1330 N.ar  1 <1>  -0.6200 
 16 C       -8.0970     1.7400    -0.5750 C.ar  1 <1>  -0.1430 
 17 C       -7.2670     1.9180    -1.8220 C.3   1 <1>  -0.0170 
 18 C       -9.3120     1.0280     1.6180 C.ar  1 <1>   0.4770 
 19 C       -9.0150     2.5710     0.0170 C.ar  1 <1>   0.1600 
 20 N       -9.6310     2.2170     1.1260 N.ar  1 <1>  -0.6200 
 21 C      -10.0270     0.6320     2.8870 C.3   1 <1>  -0.0970 
 22 H       -1.3410    -0.9710    -0.7230 H     1 <1>   0.1500 
 23 H       -2.1830     1.7980     2.7830 H     1 <1>   0.1500 
 24 H       -3.9330    -0.2200     2.6940 H     1 <1>   0.1500 
 25 H       -4.1750    -2.5040     1.5280 H     1 <1>   0.0800 
 26 H       -3.1330    -2.9070     0.1790 H     1 <1>   0.0800 
 27 H       -4.3220    -1.2050    -1.0940 H     1 <1>   0.4500 
 28 H       -5.2840     0.0590     0.7170 H     1 <1>   0.0800 
 29 H       -6.3180    -1.2960     1.0750 H     1 <1>   0.0800 
 30 H       -6.0090    -3.4540    -0.1870 H     1 <1>   0.0800 
 31 H       -4.7540    -3.5670    -1.4000 H     1 <1>   0.0800 
 32 H       -6.9960    -3.3030    -2.4040 H     1 <1>   0.0800 
 33 H       -5.9370    -2.0080    -2.8440 H     1 <1>   0.0800 
 34 H       -8.1330    -1.0760    -2.2510 H     1 <1>   0.0800 
 35 H       -8.1420    -1.9630    -0.7630 H     1 <1>   0.0800 
 36 H       -6.0180     0.3650    -2.6860 H     1 <1>   0.0800 
 37 H       -5.3280     1.1900    -1.3090 H     1 <1>   0.0800 
 38 H       -7.8910     1.7920    -2.6910 H     1 <1>   0.0800 
 39 H       -6.7930     2.8840    -1.8510 H     1 <1>   0.0800 
 40 H       -9.2480     3.5300    -0.4140 H     1 <1>   0.1500 
 41 H       -9.9390    -0.4250     3.0570 H     1 <1>   0.0800 
 42 H      -11.0680     0.8860     2.8100 H     1 <1>   0.0800 
 43 H       -9.5970     1.1610     3.7170 H     1 <1>   0.0800 
@<TRIPOS>BOND
  1   1   2  1   
  2   1   3  1   
  3   2   4  2   
  4   2  22  1   
  5   3   5  2   
  6   3  23  1   
  7   4   5  1   
  8   4   6  1   
  9   5  24  1   
 10   6   7  1   
 11   6  25  1   
 12   6  26  1   
 13   7   8  1   
 14   7   9  1   
 15   7  27  1   
 16   8  10  1   
 17   8  28  1   
 18   8  29  1   
 19   9  11  1   
 20   9  30  1   
 21   9  31  1   
 22  10  12  1   
 23  10  13  1   
 24  10  14  1   
 25  11  13  1   
 26  11  32  1   
 27  11  33  1   
 28  12  15  ar  
 29  12  16  ar  
 30  13  34  1   
 31  13  35  1   
 32  14  17  1   
 33  14  36  1   
 34  14  37  1   
 35  15  18  ar  
 36  16  17  1   
 37  16  19  ar  
 38  17  38  1   
 39  17  39  1   
 40  18  20  ar  
 41  18  21  1   
 42  19  20  ar  
 43  19  40  1   
 44  21  41  1   
 45  21  42  1   
 46  21  43  1   
@<TRIPOS>SUBSTRUCTURE
  1 ****   8 GROUP 4 **** **** 0

# MOE 2024.06 (io_trps.svl 2023.06)
