@<TRIPOS>MOLECULE
NONAME
47 48 1 0 0 
SMALL
USER_CHARGES


@<TRIPOS>ATOM
  1 F       -3.2210     0.0130     1.6770 F     1 <1>  -0.3400 
  2 C       -2.9830    -0.9020     0.7500 C.3   1 <1>   1.3000 
  3 F       -2.1070    -1.7670     1.2490 F     1 <1>  -0.3400 
  4 F       -2.4270    -0.2960    -0.2910 F     1 <1>  -0.3400 
  5 O       -4.1870    -1.5510     0.3900 O.3   1 <1>  -0.3630 
  6 C       -4.1120    -2.5420    -0.5210 C.ar  1 <1>   0.0830 
  7 C       -3.9840    -3.8530    -0.0920 C.ar  1 <1>  -0.1500 
  8 C       -4.1840    -2.2510    -1.8730 C.ar  1 <1>  -0.1500 
  9 C       -3.9270    -4.8870    -1.0160 C.ar  1 <1>  -0.1440 
 10 C       -4.1120    -3.2760    -2.7980 C.ar  1 <1>  -0.1500 
 11 C       -3.9810    -4.5880    -2.3720 C.ar  1 <1>  -0.1500 
 12 C       -3.8030    -6.3320    -0.5520 C.3   1 <1>   0.4870 
 13 N       -5.1450    -6.9050    -0.2730 N.4   1 <1>  -0.9590 
 14 C       -6.0320    -6.9510    -1.4780 C.3   1 <1>   0.3430 
 15 C       -5.8530    -6.2700     0.8760 C.3   1 <1>   0.3430 
 16 C       -7.2270    -7.8590    -1.1570 C.3   1 <1>   0.2000 
 17 C       -7.0790    -7.1060     1.2410 C.3   1 <1>  -0.1600 
 18 O       -6.6740    -9.0950    -0.8100 O.3   1 <1>  -0.6800 
 19 C       -8.0480    -7.3080     0.0350 C.3   1 <1>  -0.1060 
 20 C       -9.0750    -8.4200     0.3110 C.2   1 <1>   0.9060 
 21 C       -8.7230    -5.9470    -0.3690 C.3   1 <1>  -0.1600 
 22 O      -10.2080    -8.3570    -0.1680 O.co2 1 <1>  -0.9000 
 23 O       -8.6660    -9.4390     0.8850 O.co2 1 <1>  -0.9000 
 24 C       -9.3170    -5.0630     0.7490 C.3   1 <1>  -0.1600 
 25 C      -10.4140    -5.7450     1.5720 C.3   1 <1>  -0.2400 
 26 H       -3.9280    -4.0480     0.9640 H     1 <1>   0.1500 
 27 H       -4.2920    -1.2310    -2.2020 H     1 <1>   0.1500 
 28 H       -4.1560    -3.0500    -3.8510 H     1 <1>   0.1500 
 29 H       -3.9210    -5.3680    -3.1130 H     1 <1>   0.1500 
 30 H       -3.1960    -6.3740     0.3370 H     1 <1>   0.0800 
 31 H       -3.3140    -6.9120    -1.3180 H     1 <1>   0.0800 
 32 H       -5.0650    -7.9110    -0.0340 H     1 <1>   0.4500 
 33 H       -6.3610    -5.9620    -1.7440 H     1 <1>   0.0800 
 34 H       -5.5030    -7.3700    -2.3170 H     1 <1>   0.0800 
 35 H       -5.1980    -6.2130     1.7290 H     1 <1>   0.0800 
 36 H       -6.1610    -5.2710     0.6110 H     1 <1>   0.0800 
 37 H       -7.8600    -8.0030    -2.0180 H     1 <1>   0.0800 
 38 H       -6.7330    -8.0590     1.6030 H     1 <1>   0.0800 
 39 H       -7.5950    -6.6580     2.0680 H     1 <1>   0.0800 
 40 H       -7.3520    -9.5620    -0.2270 H     1 <1>   0.4000 
 41 H       -8.0230    -5.3220    -0.8880 H     1 <1>   0.0800 
 42 H       -9.5100    -6.1540    -1.0760 H     1 <1>   0.0800 
 43 H       -8.5440    -4.7090     1.4070 H     1 <1>   0.0800 
 44 H       -9.7500    -4.1930     0.2860 H     1 <1>   0.0800 
 45 H      -10.0240    -6.5760     2.1310 H     1 <1>   0.0800 
 46 H      -11.1900    -6.1130     0.9230 H     1 <1>   0.0800 
 47 H      -10.8500    -5.0470     2.2630 H     1 <1>   0.0800 
@<TRIPOS>BOND
  1   1   2  1   
  2   2   3  1   
  3   2   4  1   
  4   2   5  1   
  5   5   6  1   
  6   6   7  ar  
  7   6   8  ar  
  8   7   9  ar  
  9   7  26  1   
 10   8  10  ar  
 11   8  27  1   
 12   9  11  ar  
 13   9  12  1   
 14  10  11  ar  
 15  10  28  1   
 16  11  29  1   
 17  12  13  1   
 18  12  30  1   
 19  12  31  1   
 20  13  14  1   
 21  13  15  1   
 22  13  32  1   
 23  14  16  1   
 24  14  33  1   
 25  14  34  1   
 26  15  17  1   
 27  15  35  1   
 28  15  36  1   
 29  16  18  1   
 30  16  19  1   
 31  16  37  1   
 32  17  19  1   
 33  17  38  1   
 34  17  39  1   
 35  18  40  1   
 36  19  20  1   
 37  19  21  1   
 38  20  22  ar  
 39  20  23  ar  
 40  21  24  1   
 41  21  41  1   
 42  21  42  1   
 43  24  25  1   
 44  24  43  1   
 45  24  44  1   
 46  25  45  1   
 47  25  46  1   
 48  25  47  1   
@<TRIPOS>SUBSTRUCTURE
  1 ****  15 GROUP 4 **** **** 0

# MOE 2024.06 (io_trps.svl 2023.06)
