@<TRIPOS>MOLECULE
NONAME
52 54 1 0 0 
SMALL
USER_CHARGES


@<TRIPOS>ATOM
  1 O       -1.0540     3.6420     3.6690 O.2   1 <1>  -0.5700 
  2 C       -1.5560     3.8030     2.5790 C.2   1 <1>   0.5690 
  3 N       -2.8730     3.4650     2.3380 N.am  1 <1>  -0.6600 
  4 C       -0.6510     4.3990     1.5040 C.3   1 <1>   0.0440 
  5 C       -3.5240     3.6260     1.0010 C.3   1 <1>   0.2200 
  6 C       -3.6900     2.8790     3.4480 C.3   1 <1>   0.0600 
  7 C       -0.3790     3.4460     0.3420 C.ar  1 <1>  -0.1440 
  8 C       -4.9340     4.2100     1.0360 C.3   1 <1>  -0.1600 
  9 C       -3.7030     2.3020     0.2670 C.3   1 <1>  -0.1600 
 10 C        0.0070     2.1380     0.5930 C.ar  1 <1>  -0.1500 
 11 C       -0.5210     3.8750    -0.9710 C.ar  1 <1>  -0.1500 
 12 C       -5.5310     3.8350    -0.3300 C.3   1 <1>  -0.0800 
 13 C       -4.7400     2.6100    -0.8220 C.3   1 <1>  -0.0800 
 14 C        0.2310     1.2690    -0.4620 C.ar  1 <1>   0.0820 
 15 C       -0.2950     3.0020    -2.0230 C.ar  1 <1>  -0.1500 
 16 C       -7.0040     3.4080    -0.2710 C.3   1 <1>  -0.1600 
 17 C       -5.7590     1.4850    -1.0420 C.3   1 <1>  -0.1600 
 18 O        0.5970     0.0020    -0.2220 O.3   1 <1>  -0.5330 
 19 C        0.0800     1.6950    -1.7690 C.ar  1 <1>  -0.1500 
 20 C       -6.9590     1.8820    -0.1880 C.3   1 <1>   0.4230 
 21 N       -8.2220     1.1950    -0.6010 N.4   1 <1>  -0.9590 
 22 C       -8.7090     1.5170    -1.9840 C.3   1 <1>   0.2630 
 23 C       -9.3100     1.4450     0.3950 C.3   1 <1>   0.2630 
 24 H       -1.0910     5.3130     1.1550 H     1 <1>   0.0800 
 25 H        0.2910     4.6560     1.9550 H     1 <1>   0.0800 
 26 H       -2.9350     4.2720     0.3760 H     1 <1>   0.0800 
 27 H       -4.3200     2.0900     3.0820 H     1 <1>   0.0800 
 28 H       -4.2970     3.6470     3.8920 H     1 <1>   0.0800 
 29 H       -3.0550     2.4650     4.2130 H     1 <1>   0.0800 
 30 H       -5.5130     3.7630     1.8220 H     1 <1>   0.0800 
 31 H       -4.9080     5.2770     1.1750 H     1 <1>   0.0800 
 32 H       -2.7780     1.9640    -0.1640 H     1 <1>   0.0800 
 33 H       -4.0700     1.5530     0.9430 H     1 <1>   0.0800 
 34 H        0.1280     1.7980     1.6060 H     1 <1>   0.1500 
 35 H       -0.8070     4.8900    -1.1850 H     1 <1>   0.1500 
 36 H       -5.4000     4.6570    -1.0150 H     1 <1>   0.0800 
 37 H       -4.2270     2.8450    -1.7410 H     1 <1>   0.0800 
 38 H       -0.4060     3.3400    -3.0390 H     1 <1>   0.1500 
 39 H       -7.4750     3.7330    -1.1790 H     1 <1>   0.0800 
 40 H       -7.5130     3.8450     0.5690 H     1 <1>   0.0800 
 41 H       -5.3630     0.5250    -0.7600 H     1 <1>   0.0800 
 42 H       -6.0110     1.4700    -2.0860 H     1 <1>   0.0800 
 43 H        0.7140    -0.1850     0.7260 H     1 <1>   0.4500 
 44 H        0.2590     1.0050    -2.5740 H     1 <1>   0.1500 
 45 H       -6.7270     1.6170     0.8320 H     1 <1>   0.0800 
 46 H       -8.0100     0.1860    -0.5810 H     1 <1>   0.4500 
 47 H       -8.9680     2.5600    -2.0600 H     1 <1>   0.0800 
 48 H       -9.5840     0.9320    -2.2150 H     1 <1>   0.0800 
 49 H       -7.9510     1.2940    -2.7160 H     1 <1>   0.0800 
 50 H       -9.5730     2.4910     0.4070 H     1 <1>   0.0800 
 51 H       -8.9870     1.1590     1.3830 H     1 <1>   0.0800 
 52 H      -10.1880     0.8730     0.1430 H     1 <1>   0.0800 
@<TRIPOS>BOND
  1   1   2  2   
  2   2   3  am  
  3   2   4  1   
  4   3   5  1   
  5   3   6  1   
  6   4   7  1   
  7   4  24  1   
  8   4  25  1   
  9   5   8  1   
 10   5   9  1   
 11   5  26  1   
 12   6  27  1   
 13   6  28  1   
 14   6  29  1   
 15   7  10  ar  
 16   7  11  ar  
 17   8  12  1   
 18   8  30  1   
 19   8  31  1   
 20   9  13  1   
 21   9  32  1   
 22   9  33  1   
 23  10  14  ar  
 24  10  34  1   
 25  11  15  ar  
 26  11  35  1   
 27  12  13  1   
 28  12  16  1   
 29  12  36  1   
 30  13  17  1   
 31  13  37  1   
 32  14  18  1   
 33  14  19  ar  
 34  15  19  ar  
 35  15  38  1   
 36  16  20  1   
 37  16  39  1   
 38  16  40  1   
 39  17  20  1   
 40  17  41  1   
 41  17  42  1   
 42  18  43  1   
 43  19  44  1   
 44  20  21  1   
 45  20  45  1   
 46  21  22  1   
 47  21  23  1   
 48  21  46  1   
 49  22  47  1   
 50  22  48  1   
 51  22  49  1   
 52  23  50  1   
 53  23  51  1   
 54  23  52  1   
@<TRIPOS>SUBSTRUCTURE
  1 ****   9 GROUP 4 **** **** 0

# MOE 2024.06 (io_trps.svl 2023.06)
