@<TRIPOS>MOLECULE
NONAME
49 52 1 0 0 
SMALL
USER_CHARGES


@<TRIPOS>ATOM
  1 O        0.8420    -0.4780    -0.2360 O.2   1 <1>  -0.5700 
  2 C       -0.1320     0.0470     0.2530 C.2   1 <1>   0.5690 
  3 N       -1.4050    -0.2770    -0.1570 N.am  1 <1>  -0.6600 
  4 C        0.1290     1.0510     1.3650 C.3   1 <1>   0.1570 
  5 C       -2.6640     0.3290     0.3640 C.3   1 <1>   0.1400 
  6 C       -1.6360    -1.2210    -1.2880 C.3   1 <1>   0.1400 
  7 N       -0.2770     2.4220     0.9880 N.pl3 1 <1>   0.0480 
  8 C       -3.5980    -0.7830     0.8450 C.3   1 <1>  -0.1600 
  9 C       -2.5650    -2.3480    -0.8310 C.3   1 <1>  -0.1600 
 10 C       -0.0530     3.0490    -0.1980 C.2   1 <1>  -0.3020 
 11 C       -0.9570     3.2980     1.7770 C.2   1 <1>  -0.3020 
 12 C       -3.8860    -1.8090    -0.2640 C.3   1 <1>   0.4240 
 13 C       -0.5850     4.2980    -0.1630 C.2   1 <1>  -0.1500 
 14 C       -1.1640     4.4570     1.1000 C.2   1 <1>  -0.1500 
 15 O       -4.5000    -1.1330    -1.3360 O.3   1 <1>  -0.5600 
 16 C       -4.7630    -2.9680     0.2600 C.ar  1 <1>  -0.1430 
 17 C       -5.8770    -0.9290    -1.2680 C.3   1 <1>   0.1200 
 18 C       -6.0390    -3.1920    -0.2480 C.ar  1 <1>  -0.1430 
 19 C       -4.2920    -3.8100     1.2630 C.ar  1 <1>  -0.1500 
 20 C       -6.5790    -2.2810    -1.3320 C.3   1 <1>  -0.0170 
 21 C       -6.8180    -4.2360     0.2270 C.ar  1 <1>  -0.1500 
 22 C       -5.0690    -4.8500     1.7390 C.ar  1 <1>  -0.1500 
 23 C       -6.3340    -5.0730     1.2270 C.ar  1 <1>   0.0830 
 24 O       -7.0310    -6.1150     1.7470 O.3   1 <1>  -0.3620 
 25 C       -8.3200    -6.4410     1.2790 C.3   1 <1>   0.0400 
 26 H        1.1780     1.0610     1.5890 H     1 <1>   0.0800 
 27 H       -0.4050     0.7510     2.2450 H     1 <1>   0.0800 
 28 H       -3.1340     0.8910    -0.4260 H     1 <1>   0.0800 
 29 H       -2.4710     1.0030     1.1780 H     1 <1>   0.0800 
 30 H       -0.7080    -1.6400    -1.6360 H     1 <1>   0.0800 
 31 H       -2.0840    -0.6840    -2.1080 H     1 <1>   0.0800 
 32 H       -4.5170    -0.3620     1.2040 H     1 <1>   0.0800 
 33 H       -3.1330    -1.2760     1.6780 H     1 <1>   0.0800 
 34 H       -2.0460    -2.9250    -0.0890 H     1 <1>   0.0800 
 35 H       -2.7780    -3.0020    -1.6560 H     1 <1>   0.0800 
 36 H        0.4740     2.5740    -1.0090 H     1 <1>   0.1500 
 37 H       -1.2600     3.0580     2.7810 H     1 <1>   0.1500 
 38 H       -0.5770     5.0420    -0.9410 H     1 <1>   0.1500 
 39 H       -1.6680     5.3450     1.4410 H     1 <1>   0.1500 
 40 H       -6.1610    -0.3170    -2.1060 H     1 <1>   0.0800 
 41 H       -6.1150    -0.4110    -0.3560 H     1 <1>   0.0800 
 42 H       -3.3140    -3.6660     1.6840 H     1 <1>   0.1500 
 43 H       -6.4100    -2.7260    -2.2960 H     1 <1>   0.0800 
 44 H       -7.6360    -2.1370    -1.2060 H     1 <1>   0.0800 
 45 H       -7.7950    -4.3850    -0.1880 H     1 <1>   0.1500 
 46 H       -4.6990    -5.4980     2.5120 H     1 <1>   0.1500 
 47 H       -8.6660    -7.2990     1.8270 H     1 <1>   0.0800 
 48 H       -8.2620    -6.6750     0.2310 H     1 <1>   0.0800 
 49 H       -8.9760    -5.6060     1.4540 H     1 <1>   0.0800 
@<TRIPOS>BOND
  1   1   2  2   
  2   2   3  am  
  3   2   4  1   
  4   3   5  1   
  5   3   6  1   
  6   4   7  1   
  7   4  26  1   
  8   4  27  1   
  9   5   8  1   
 10   5  28  1   
 11   5  29  1   
 12   6   9  1   
 13   6  30  1   
 14   6  31  1   
 15   7  10  1   
 16   7  11  1   
 17   8  12  1   
 18   8  32  1   
 19   8  33  1   
 20   9  12  1   
 21   9  34  1   
 22   9  35  1   
 23  10  13  2   
 24  10  36  1   
 25  11  14  2   
 26  11  37  1   
 27  12  15  1   
 28  12  16  1   
 29  13  14  1   
 30  13  38  1   
 31  14  39  1   
 32  15  17  1   
 33  16  18  ar  
 34  16  19  ar  
 35  17  20  1   
 36  17  40  1   
 37  17  41  1   
 38  18  20  1   
 39  18  21  ar  
 40  19  22  ar  
 41  19  42  1   
 42  20  43  1   
 43  20  44  1   
 44  21  23  ar  
 45  21  45  1   
 46  22  23  ar  
 47  22  46  1   
 48  23  24  1   
 49  24  25  1   
 50  25  47  1   
 51  25  48  1   
 52  25  49  1   
@<TRIPOS>SUBSTRUCTURE
  1 ****   8 GROUP 4 **** **** 0

# MOE 2024.06 (io_trps.svl 2023.06)
