@<TRIPOS>MOLECULE
NONAME
46 48 1 0 0 
SMALL
USER_CHARGES


@<TRIPOS>ATOM
  1 S        3.8230    -0.4860     1.1690 S.3   1 <1>  -0.0800 
  2 C        2.1010    -0.4550     0.8790 C.2   1 <1>   0.1980 
  3 C        3.7310    -2.2070     1.3470 C.2   1 <1>  -0.1100 
  4 N        1.5460    -1.5980     0.9090 N.2   1 <1>  -0.5650 
  5 C        1.4540     0.8940     0.6320 C.3   1 <1>   0.0200 
  6 C        2.4610    -2.6370     1.1740 C.2   1 <1>   0.1410 
  7 C        1.7690     1.4220    -0.7750 C.3   1 <1>  -0.1600 
  8 C        2.0580    -4.0390     1.2860 C.2   1 <1>   0.7160 
  9 C        1.0860     2.7680    -1.0390 C.3   1 <1>  -0.2400 
 10 O        2.6680    -4.7490     2.0690 O.2   1 <1>  -0.5700 
 11 N        1.0390    -4.6170     0.5530 N.am  1 <1>  -0.6600 
 12 C        0.3890    -5.8720     1.0390 C.3   1 <1>   0.3640 
 13 C        0.2970    -3.9590    -0.5540 C.3   1 <1>   0.1400 
 14 C        1.0500    -7.0840     0.3700 C.ar  1 <1>  -0.1440 
 15 C       -1.1550    -5.8520     0.8250 C.3   1 <1>   0.2000 
 16 C       -1.1480    -3.6440    -0.1210 C.3   1 <1>   0.1200 
 17 C        1.8950    -7.8830     1.1260 C.ar  1 <1>  -0.1500 
 18 C        0.8350    -7.4180    -0.9630 C.ar  1 <1>  -0.1500 
 19 O       -1.6610    -4.5380     0.8380 O.3   1 <1>  -0.5600 
 20 C       -1.9160    -6.6320     1.9100 C.3   1 <1>   0.1200 
 21 C        2.5030    -8.9960     0.5720 C.ar  1 <1>  -0.1500 
 22 C        1.4410    -8.5300    -1.5200 C.ar  1 <1>  -0.1500 
 23 O       -1.3920    -7.9080     2.0980 O.3   1 <1>  -0.6800 
 24 C        2.2750    -9.3220    -0.7520 C.ar  1 <1>  -0.1500 
 25 H        4.6320    -2.7480     1.5720 H     1 <1>   0.1500 
 26 H        0.3900     0.7870     0.7450 H     1 <1>   0.0800 
 27 H        1.8000     1.5900     1.3750 H     1 <1>   0.0800 
 28 H        2.8330     1.5370    -0.8870 H     1 <1>   0.0800 
 29 H        1.4350     0.7040    -1.5050 H     1 <1>   0.0800 
 30 H        1.4220     3.5070    -0.3320 H     1 <1>   0.0800 
 31 H        0.0170     2.6720    -0.9580 H     1 <1>   0.0800 
 32 H        1.3220     3.1120    -2.0300 H     1 <1>   0.0800 
 33 H        0.5510    -5.9450     2.1020 H     1 <1>   0.0800 
 34 H        0.7890    -3.0660    -0.8920 H     1 <1>   0.0800 
 35 H        0.2720    -4.6230    -1.3970 H     1 <1>   0.0800 
 36 H       -1.4070    -6.2700    -0.1310 H     1 <1>   0.0800 
 37 H       -1.8010    -3.6530    -0.9750 H     1 <1>   0.0800 
 38 H       -1.1810    -2.6620     0.3170 H     1 <1>   0.0800 
 39 H        2.0880    -7.6370     2.1570 H     1 <1>   0.1500 
 40 H        0.1980    -6.8190    -1.5860 H     1 <1>   0.1500 
 41 H       -2.9520    -6.7330     1.6350 H     1 <1>   0.0800 
 42 H       -1.8470    -6.1150     2.8510 H     1 <1>   0.0800 
 43 H        3.1550    -9.6040     1.1740 H     1 <1>   0.1500 
 44 H        1.2680    -8.7800    -2.5520 H     1 <1>   0.1500 
 45 H       -1.2950    -8.3900     1.2520 H     1 <1>   0.4000 
 46 H        2.7480   -10.1870    -1.1820 H     1 <1>   0.1500 
@<TRIPOS>BOND
  1   1   2  1   
  2   1   3  1   
  3   2   4  2   
  4   2   5  1   
  5   3   6  2   
  6   3  25  1   
  7   4   6  1   
  8   5   7  1   
  9   5  26  1   
 10   5  27  1   
 11   6   8  1   
 12   7   9  1   
 13   7  28  1   
 14   7  29  1   
 15   8  10  2   
 16   8  11  am  
 17   9  30  1   
 18   9  31  1   
 19   9  32  1   
 20  11  12  1   
 21  11  13  1   
 22  12  14  1   
 23  12  15  1   
 24  12  33  1   
 25  13  16  1   
 26  13  34  1   
 27  13  35  1   
 28  14  17  ar  
 29  14  18  ar  
 30  15  19  1   
 31  15  20  1   
 32  15  36  1   
 33  16  19  1   
 34  16  37  1   
 35  16  38  1   
 36  17  21  ar  
 37  17  39  1   
 38  18  22  ar  
 39  18  40  1   
 40  20  23  1   
 41  20  41  1   
 42  20  42  1   
 43  21  24  ar  
 44  21  43  1   
 45  22  24  ar  
 46  22  44  1   
 47  23  45  1   
 48  24  46  1   
@<TRIPOS>SUBSTRUCTURE
  1 ****  11 GROUP 4 **** **** 0

# MOE 2024.06 (io_trps.svl 2023.06)
