@<TRIPOS>MOLECULE
NONAME
44 45 1 0 0 
SMALL
USER_CHARGES


@<TRIPOS>ATOM
  1 S        1.1690     0.1250     0.2410 S.o2  1 <1>   1.3330 
  2 O        1.9540    -0.0620    -0.9580 O.2   1 <1>  -0.6500 
  3 O        1.8260     0.1870     1.5270 O.2   1 <1>  -0.6500 
  4 N       -0.0010    -1.1040     0.2950 N.am  1 <1>  -0.8490 
  5 C        0.1810     1.6080     0.0630 C.3   1 <1>  -0.0550 
  6 C       -0.4410    -1.5500    -1.0320 C.3   1 <1>   0.1160 
  7 C        0.4400    -2.2560     1.0870 C.3   1 <1>   0.1160 
  8 C        1.0140     2.9000     0.1150 C.3   1 <1>  -0.0800 
  9 C        0.1460     4.1530     0.0420 C.3   1 <1>   0.2000 
 10 C        1.9990     3.0670    -1.0440 C.3   1 <1>   0.1400 
 11 O       -0.3630     4.4510     1.2950 O.3   1 <1>  -0.6800 
 12 C        1.0680     5.2540    -0.4770 C.3   1 <1>   0.1400 
 13 N        2.1310     4.5330    -1.2220 N.am  1 <1>  -0.6600 
 14 C        3.1740     5.1000    -1.9040 C.2   1 <1>   0.5690 
 15 O        4.0170     4.4220    -2.4410 O.2   1 <1>  -0.5700 
 16 C        3.3060     6.6120    -2.0110 C.3   1 <1>   0.0440 
 17 C        3.7420     7.2460    -0.6900 C.ar  1 <1>  -0.1440 
 18 C        2.9650     8.1880    -0.0220 C.ar  1 <1>   0.1900 
 19 C        4.9560     6.8740    -0.1250 C.ar  1 <1>  -0.1500 
 20 F        1.8140     8.5490    -0.5250 F     1 <1>  -0.1900 
 21 C        3.3510     8.7630     1.1720 C.ar  1 <1>  -0.1500 
 22 C        5.3730     7.4330     1.0750 C.ar  1 <1>  -0.1500 
 23 C        4.5630     8.3660     1.6990 C.ar  1 <1>   0.1900 
 24 F        4.9600     8.8870     2.8280 F     1 <1>  -0.1900 
 25 H       -0.3610     1.5680    -0.8610 H     1 <1>   0.0800 
 26 H       -0.5360     1.6360     0.8610 H     1 <1>   0.0800 
 27 H       -1.2430    -2.2610    -0.9350 H     1 <1>   0.0800 
 28 H        0.3750    -2.0110    -1.5640 H     1 <1>   0.0800 
 29 H       -0.7970    -0.7120    -1.6060 H     1 <1>   0.0800 
 30 H       -0.3300    -3.0080     1.1140 H     1 <1>   0.0800 
 31 H        0.6460    -1.9510     2.0990 H     1 <1>   0.0800 
 32 H        1.3360    -2.6800     0.6650 H     1 <1>   0.0800 
 33 H        1.5890     2.9170     1.0260 H     1 <1>   0.0800 
 34 H       -0.6790     4.0210    -0.6370 H     1 <1>   0.0800 
 35 H        1.6110     2.6390    -1.9530 H     1 <1>   0.0800 
 36 H        2.9540     2.6180    -0.8240 H     1 <1>   0.0800 
 37 H        0.3580     4.5280     1.9500 H     1 <1>   0.4000 
 38 H        1.5120     5.7930     0.3430 H     1 <1>   0.0800 
 39 H        0.5350     5.9270    -1.1250 H     1 <1>   0.0800 
 40 H        4.0450     6.8360    -2.7600 H     1 <1>   0.0800 
 41 H        2.3750     7.0140    -2.3600 H     1 <1>   0.0800 
 42 H        5.5810     6.1450    -0.6160 H     1 <1>   0.1500 
 43 H        2.7370     9.4890     1.6710 H     1 <1>   0.1500 
 44 H        6.3100     7.1510     1.5200 H     1 <1>   0.1500 
@<TRIPOS>BOND
  1   1   2  2   
  2   1   3  2   
  3   1   4  am  
  4   1   5  1   
  5   4   6  1   
  6   4   7  1   
  7   5   8  1   
  8   5  25  1   
  9   5  26  1   
 10   6  27  1   
 11   6  28  1   
 12   6  29  1   
 13   7  30  1   
 14   7  31  1   
 15   7  32  1   
 16   8   9  1   
 17   8  10  1   
 18   8  33  1   
 19   9  11  1   
 20   9  12  1   
 21   9  34  1   
 22  10  13  1   
 23  10  35  1   
 24  10  36  1   
 25  11  37  1   
 26  12  13  1   
 27  12  38  1   
 28  12  39  1   
 29  13  14  am  
 30  14  15  2   
 31  14  16  1   
 32  16  17  1   
 33  16  40  1   
 34  16  41  1   
 35  17  18  ar  
 36  17  19  ar  
 37  18  20  1   
 38  18  21  ar  
 39  19  22  ar  
 40  19  42  1   
 41  21  23  ar  
 42  21  43  1   
 43  22  23  ar  
 44  22  44  1   
 45  23  24  1   
@<TRIPOS>SUBSTRUCTURE
  1 ****  13 GROUP 4 **** **** 0

# MOE 2024.06 (io_trps.svl 2023.06)
