@<TRIPOS>MOLECULE
NONAME
51 54 1 0 0 
SMALL
USER_CHARGES


@<TRIPOS>ATOM
  1 O       -1.1970     0.8670    -1.5670 O.2   1 <1>  -0.5700 
  2 C       -1.9210     1.0720    -0.6110 C.2   1 <1>   0.5440 
  3 N       -1.8530     2.2980     0.0180 N.am  1 <1>  -0.6600 
  4 C       -2.8290     0.0350    -0.1810 C.ar  1 <1>   0.0860 
  5 C       -0.7210     3.2460    -0.2210 C.3   1 <1>   0.1400 
  6 C       -3.0080     2.9360     0.7210 C.3   1 <1>   0.1400 
  7 C       -3.5170    -0.7320    -1.1190 C.ar  1 <1>   0.1600 
  8 C       -3.0580    -0.2650     1.1590 C.ar  1 <1>  -0.1500 
  9 C       -1.2330     4.5530    -0.8450 C.3   1 <1>   0.1200 
 10 C       -3.3810     4.2710     0.0520 C.3   1 <1>   0.1200 
 11 N       -4.3820    -1.6970    -0.8530 N.ar  1 <1>  -0.6200 
 12 C       -3.9490    -1.2680     1.4540 C.ar  1 <1>  -0.1500 
 13 O       -2.2590     5.1010    -0.0650 O.3   1 <1>  -0.5600 
 14 C       -4.5920    -1.9590     0.4310 C.ar  1 <1>   0.4100 
 15 N       -5.4730    -2.9590     0.7440 N.pl3 1 <1>  -0.8690 
 16 C       -6.0080    -3.9350    -0.2400 C.3   1 <1>   0.2890 
 17 C       -7.4490    -4.2530     0.1130 C.3   1 <1>  -0.0800 
 18 C       -5.3270    -5.2880    -0.0450 C.3   1 <1>   0.1200 
 19 C       -7.2810    -5.3360     1.1820 C.3   1 <1>   0.1200 
 20 C       -8.2320    -4.7610    -1.1130 C.3   1 <1>  -0.0170 
 21 O       -6.0680    -5.9790     0.9230 O.3   1 <1>  -0.5600 
 22 C       -9.6820    -5.0620    -0.7640 C.ar  1 <1>  -0.1430 
 23 C      -10.1510    -6.3520    -0.6250 C.ar  1 <1>  -0.1500 
 24 C      -10.6040    -4.0540    -0.5690 C.ar  1 <1>  -0.1500 
 25 C      -11.4810    -6.5660    -0.3020 C.ar  1 <1>   0.1600 
 26 C      -11.9130    -4.3760    -0.2490 C.ar  1 <1>   0.1600 
 27 N      -12.3730    -5.6080    -0.1090 N.ar  1 <1>  -0.6200 
 28 H       -0.2420     3.4670     0.7160 H     1 <1>   0.0800 
 29 H        0.0160     2.8060    -0.8700 H     1 <1>   0.0800 
 30 H       -3.8670     2.2910     0.7050 H     1 <1>   0.0800 
 31 H       -2.7420     3.1180     1.7470 H     1 <1>   0.0800 
 32 H       -3.3310    -0.5230    -2.1590 H     1 <1>   0.1500 
 33 H       -2.5430     0.2760     1.9330 H     1 <1>   0.1500 
 34 H       -1.6070     4.3750    -1.8380 H     1 <1>   0.0800 
 35 H       -0.4380     5.2760    -0.8980 H     1 <1>   0.0800 
 36 H       -4.1130     4.7920     0.6430 H     1 <1>   0.0800 
 37 H       -3.7870     4.1020    -0.9310 H     1 <1>   0.0800 
 38 H       -4.1600    -1.5310     2.4730 H     1 <1>   0.1500 
 39 H       -5.4110    -3.3530     1.6850 H     1 <1>   0.4000 
 40 H       -5.9000    -3.5740    -1.2490 H     1 <1>   0.0800 
 41 H       -7.9480    -3.3880     0.5110 H     1 <1>   0.0800 
 42 H       -4.3070    -5.1880     0.2800 H     1 <1>   0.0800 
 43 H       -5.3640    -5.8620    -0.9530 H     1 <1>   0.0800 
 44 H       -8.0730    -6.0640     1.1810 H     1 <1>   0.0800 
 45 H       -7.2090    -4.8920     2.1600 H     1 <1>   0.0800 
 46 H       -7.7670    -5.6470    -1.5120 H     1 <1>   0.0800 
 47 H       -8.2130    -4.0110    -1.8840 H     1 <1>   0.0800 
 48 H       -9.4960    -7.1940    -0.7630 H     1 <1>   0.1500 
 49 H      -10.3180    -3.0220    -0.6630 H     1 <1>   0.1500 
 50 H      -11.8290    -7.5800    -0.1970 H     1 <1>   0.1500 
 51 H      -12.6180    -3.5760    -0.1000 H     1 <1>   0.1500 
@<TRIPOS>BOND
  1   1   2  2   
  2   2   3  am  
  3   2   4  1   
  4   3   5  1   
  5   3   6  1   
  6   4   7  ar  
  7   4   8  ar  
  8   5   9  1   
  9   5  28  1   
 10   5  29  1   
 11   6  10  1   
 12   6  30  1   
 13   6  31  1   
 14   7  11  ar  
 15   7  32  1   
 16   8  12  ar  
 17   8  33  1   
 18   9  13  1   
 19   9  34  1   
 20   9  35  1   
 21  10  13  1   
 22  10  36  1   
 23  10  37  1   
 24  11  14  ar  
 25  12  14  ar  
 26  12  38  1   
 27  14  15  1   
 28  15  16  1   
 29  15  39  1   
 30  16  17  1   
 31  16  18  1   
 32  16  40  1   
 33  17  19  1   
 34  17  20  1   
 35  17  41  1   
 36  18  21  1   
 37  18  42  1   
 38  18  43  1   
 39  19  21  1   
 40  19  44  1   
 41  19  45  1   
 42  20  22  1   
 43  20  46  1   
 44  20  47  1   
 45  22  23  ar  
 46  22  24  ar  
 47  23  25  ar  
 48  23  48  1   
 49  24  26  ar  
 50  24  49  1   
 51  25  27  ar  
 52  25  50  1   
 53  26  27  ar  
 54  26  51  1   
@<TRIPOS>SUBSTRUCTURE
  1 ****  14 GROUP 4 **** **** 0

# MOE 2024.06 (io_trps.svl 2023.06)
