@<TRIPOS>MOLECULE
NONAME
36 37 1 0 0 
SMALL
USER_CHARGES


@<TRIPOS>ATOM
  1 O       -1.3020     0.0260     1.7510 O.2   1 <1>  -0.5700 
  2 C       -1.4850     0.6590     0.7400 C.2   1 <1>   0.5690 
  3 N       -1.8050     0.0510    -0.4270 N.am  1 <1>  -0.7300 
  4 C       -1.3850     2.1820     0.7870 C.3   1 <1>  -0.0190 
  5 C       -2.0630    -1.4000    -0.5610 C.3   1 <1>   0.3210 
  6 C       -2.7030     2.8580     0.3610 C.3   1 <1>  -0.1600 
  7 C       -0.1870     2.7090    -0.0410 C.3   1 <1>  -0.1600 
  8 C       -3.5580    -1.6580    -0.4940 C.2   1 <1>   0.1080 
  9 C       -2.6620     4.3880     0.5580 C.3   1 <1>   0.2000 
 10 C       -0.3320     4.1830    -0.4700 C.3   1 <1>  -0.1600 
 11 N       -4.3090    -1.8880    -1.5130 N.2   1 <1>  -0.4100 
 12 C       -4.3040    -1.6670     0.6820 C.2   1 <1>  -0.1500 
 13 O       -3.4410     4.9760    -0.4550 O.3   1 <1>  -0.5600 
 14 C       -1.2230     4.9670     0.4960 C.3   1 <1>   0.2000 
 15 O       -5.5140    -2.0500    -1.0450 O.3   1 <1>  -0.0190 
 16 C       -5.5490    -1.9260     0.2540 C.2   1 <1>  -0.0100 
 17 C       -4.8150     4.9770    -0.2210 C.3   1 <1>   0.0400 
 18 O       -1.2800     6.2740     0.0580 O.3   1 <1>  -0.6800 
 19 H       -2.0750     0.6120    -1.2360 H     1 <1>   0.3700 
 20 H       -1.2110     2.4450     1.8160 H     1 <1>   0.0800 
 21 H       -1.6770    -1.7480    -1.5030 H     1 <1>   0.0800 
 22 H       -1.5690    -1.9400     0.2280 H     1 <1>   0.0800 
 23 H       -3.5150     2.4500     0.9370 H     1 <1>   0.0800 
 24 H       -2.8830     2.6410    -0.6770 H     1 <1>   0.0800 
 25 H        0.7050     2.5970     0.5520 H     1 <1>   0.0800 
 26 H       -0.0530     2.1140    -0.9280 H     1 <1>   0.0800 
 27 H       -3.0790     4.6520     1.5160 H     1 <1>   0.0800 
 28 H       -0.7790     4.2200    -1.4500 H     1 <1>   0.0800 
 29 H        0.6400     4.6400    -0.5250 H     1 <1>   0.0800 
 30 H       -3.9280    -1.4980     1.6750 H     1 <1>   0.1500 
 31 H       -0.7760     4.9660     1.4750 H     1 <1>   0.0800 
 32 H       -6.4820    -2.0360     0.7750 H     1 <1>   0.1500 
 33 H       -5.2960     5.4580    -1.0550 H     1 <1>   0.0800 
 34 H       -5.0220     5.5280     0.6810 H     1 <1>   0.0800 
 35 H       -5.1690     3.9650    -0.1370 H     1 <1>   0.0800 
 36 H       -2.0650     6.3230    -0.5340 H     1 <1>   0.4000 
@<TRIPOS>BOND
  1   1   2  2   
  2   2   3  am  
  3   2   4  1   
  4   3   5  1   
  5   3  19  1   
  6   4   6  1   
  7   4   7  1   
  8   4  20  1   
  9   5   8  1   
 10   5  21  1   
 11   5  22  1   
 12   6   9  1   
 13   6  23  1   
 14   6  24  1   
 15   7  10  1   
 16   7  25  1   
 17   7  26  1   
 18   8  11  2   
 19   8  12  1   
 20   9  13  1   
 21   9  14  1   
 22   9  27  1   
 23  10  14  1   
 24  10  28  1   
 25  10  29  1   
 26  11  15  1   
 27  12  16  2   
 28  12  30  1   
 29  13  17  1   
 30  14  18  1   
 31  14  31  1   
 32  15  16  1   
 33  16  32  1   
 34  17  33  1   
 35  17  34  1   
 36  17  35  1   
 37  18  36  1   
@<TRIPOS>SUBSTRUCTURE
  1 ****   6 GROUP 4 **** **** 0

# MOE 2024.06 (io_trps.svl 2023.06)
