@<TRIPOS>MOLECULE
NONAME
23 23 1 0 0 
SMALL
USER_CHARGES


@<TRIPOS>ATOM
  1 F        3.9160     2.9980     0.5330 F     1 <1>  -0.3400 
  2 C        4.9530     3.2100    -0.2680 C.3   1 <1>   1.0200 
  3 F        4.5660     2.8530    -1.4880 F     1 <1>  -0.3400 
  4 F        5.1360     4.5250    -0.3050 F     1 <1>  -0.3400 
  5 C        6.2410     2.4640     0.1830 C.3   1 <1>   0.1100 
  6 N        6.2010     0.9700     0.2130 N.3   1 <1>  -0.9000 
  7 C        7.4740     0.3710     0.6010 C.3   1 <1>   0.2540 
  8 C        7.4310    -1.1150     0.2950 C.ar  1 <1>  -0.1440 
  9 C        8.3400    -1.6830    -0.5860 C.ar  1 <1>  -0.1500 
 10 C        6.4790    -1.9240     0.8990 C.ar  1 <1>  -0.1500 
 11 C        8.2990    -3.0400    -0.8570 C.ar  1 <1>  -0.1500 
 12 C        6.4370    -3.2810     0.6300 C.ar  1 <1>  -0.1500 
 13 C        7.3480    -3.8400    -0.2480 C.ar  1 <1>  -0.1500 
 14 H        6.4810     2.8180     1.1700 H     1 <1>   0.0800 
 15 H        7.0300     2.7760    -0.4770 H     1 <1>   0.0800 
 16 H        5.9580     0.5980    -0.7180 H     1 <1>   0.3600 
 17 H        7.6410     0.5220     1.6540 H     1 <1>   0.0800 
 18 H        8.2810     0.8300     0.0550 H     1 <1>   0.0800 
 19 H        9.0850    -1.0740    -1.0670 H     1 <1>   0.1500 
 20 H        5.7650    -1.4900     1.5780 H     1 <1>   0.1500 
 21 H        9.0080    -3.4740    -1.5400 H     1 <1>   0.1500 
 22 H        5.6940    -3.8990     1.1030 H     1 <1>   0.1500 
 23 H        7.3170    -4.8950    -0.4580 H     1 <1>   0.1500 
@<TRIPOS>BOND
  1   1   2  1   
  2   2   3  1   
  3   2   4  1   
  4   2   5  1   
  5   5   6  1   
  6   5  14  1   
  7   5  15  1   
  8   6   7  1   
  9   6  16  1   
 10   7   8  1   
 11   7  17  1   
 12   7  18  1   
 13   8   9  ar  
 14   8  10  ar  
 15   9  11  ar  
 16   9  19  1   
 17  10  12  ar  
 18  10  20  1   
 19  11  13  ar  
 20  11  21  1   
 21  12  13  ar  
 22  12  22  1   
 23  13  23  1   
@<TRIPOS>SUBSTRUCTURE
  1 ****   6 GROUP 4 **** **** 0

# MOE 2024.06 (io_trps.svl 2023.06)
