@<TRIPOS>MOLECULE
NONAME
45 47 1 0 0 
SMALL
USER_CHARGES


@<TRIPOS>ATOM
  1 O        1.3150     1.2040     2.9460 O.co2 1 <1>  -0.9000 
  2 C        1.2140     0.6390     1.8490 C.2   1 <1>   0.9060 
  3 O        0.5650    -0.4110     1.7530 O.co2 1 <1>  -0.9000 
  4 C        2.0050     1.1470     0.6260 C.3   1 <1>  -0.1060 
  5 C        3.2390     0.1990     0.6050 C.3   1 <1>   0.2000 
  6 C        2.4650     2.6410     0.8000 C.3   1 <1>  -0.1600 
  7 C        1.1480     0.9830    -0.6690 C.3   1 <1>  -0.0160 
  8 O        3.7860     0.0580    -0.6730 O.3   1 <1>  -0.6800 
  9 C        4.3580     0.7710     1.4940 C.3   1 <1>   0.2090 
 10 C        3.8640     2.9250     0.2460 C.3   1 <1>   0.2090 
 11 C       -0.0610     1.9130    -0.8000 C.ar  1 <1>  -0.1440 
 12 N        4.8880     2.0570     0.9100 N.pl3 1 <1>  -0.8380 
 13 C       -1.2040     1.7080    -0.0430 C.ar  1 <1>  -0.1500 
 14 C       -0.0310     2.9740    -1.6950 C.ar  1 <1>  -0.1500 
 15 C        6.1520     2.0150     0.3600 C.ar  1 <1>   0.4100 
 16 C       -2.2950     2.5500    -0.1700 C.ar  1 <1>  -0.1500 
 17 C       -1.1210     3.8170    -1.8270 C.ar  1 <1>  -0.1500 
 18 N        6.2110     1.6720    -0.9220 N.ar  1 <1>  -0.6200 
 19 C        7.2790     2.3050     1.1400 C.ar  1 <1>  -0.1430 
 20 C       -2.2550     3.6070    -1.0620 C.ar  1 <1>  -0.1500 
 21 C        7.4210     1.6110    -1.4470 C.ar  1 <1>   0.1600 
 22 C        8.5290     2.2350     0.5670 C.ar  1 <1>  -0.1500 
 23 C        7.1330     2.6960     2.6050 C.3   1 <1>  -0.0970 
 24 C        8.5930     1.8770    -0.7640 C.ar  1 <1>  -0.1500 
 25 H        2.9600    -0.7870     0.9370 H     1 <1>   0.0800 
 26 H        2.5020     2.9130     1.8390 H     1 <1>   0.0800 
 27 H        1.7620     3.3170     0.3540 H     1 <1>   0.0800 
 28 H        1.7700     1.1480    -1.5290 H     1 <1>   0.0800 
 29 H        0.8060    -0.0350    -0.7380 H     1 <1>   0.0800 
 30 H        4.5200     0.7260    -0.7380 H     1 <1>   0.4000 
 31 H        5.1490     0.0470     1.5800 H     1 <1>   0.0800 
 32 H        3.9730     0.9590     2.4820 H     1 <1>   0.0800 
 33 H        4.1190     3.9560     0.4200 H     1 <1>   0.0800 
 34 H        3.8660     2.7540    -0.8170 H     1 <1>   0.0800 
 35 H       -1.2460     0.8860     0.6540 H     1 <1>   0.1500 
 36 H        0.8470     3.1440    -2.2920 H     1 <1>   0.1500 
 37 H       -3.1690     2.3770     0.4320 H     1 <1>   0.1500 
 38 H       -1.0850     4.6360    -2.5220 H     1 <1>   0.1500 
 39 H       -3.1030     4.2610    -1.1590 H     1 <1>   0.1500 
 40 H        7.4810     1.3310    -2.4840 H     1 <1>   0.1500 
 41 H        9.4240     2.4490     1.1250 H     1 <1>   0.1500 
 42 H        8.0790     2.9750     3.0320 H     1 <1>   0.0800 
 43 H        6.7290     1.8700     3.1620 H     1 <1>   0.0800 
 44 H        6.4560     3.5270     2.6920 H     1 <1>   0.0800 
 45 H        9.5410     1.8050    -1.2650 H     1 <1>   0.1500 
@<TRIPOS>BOND
  1   1   2  ar  
  2   2   3  ar  
  3   2   4  1   
  4   4   5  1   
  5   4   6  1   
  6   4   7  1   
  7   5   8  1   
  8   5   9  1   
  9   5  25  1   
 10   6  10  1   
 11   6  26  1   
 12   6  27  1   
 13   7  11  1   
 14   7  28  1   
 15   7  29  1   
 16   8  30  1   
 17   9  12  1   
 18   9  31  1   
 19   9  32  1   
 20  10  12  1   
 21  10  33  1   
 22  10  34  1   
 23  11  13  ar  
 24  11  14  ar  
 25  12  15  1   
 26  13  16  ar  
 27  13  35  1   
 28  14  17  ar  
 29  14  36  1   
 30  15  18  ar  
 31  15  19  ar  
 32  16  20  ar  
 33  16  37  1   
 34  17  20  ar  
 35  17  38  1   
 36  18  21  ar  
 37  19  22  ar  
 38  19  23  1   
 39  20  39  1   
 40  21  24  ar  
 41  21  40  1   
 42  22  24  ar  
 43  22  41  1   
 44  23  42  1   
 45  23  43  1   
 46  23  44  1   
 47  24  45  1   
@<TRIPOS>SUBSTRUCTURE
  1 ****   6 GROUP 4 **** **** 0

# MOE 2024.06 (io_trps.svl 2023.06)
