@<TRIPOS>MOLECULE
NONAME
36 37 1 0 0 
SMALL
USER_CHARGES


@<TRIPOS>ATOM
  1 O       -0.1970     0.1940     0.1660 O.2   1 <1>  -0.5700 
  2 C        0.7600    -0.3980    -0.2620 C.2   1 <1>   0.5690 
  3 N        1.9790     0.1750    -0.4880 N.am  1 <1>  -0.4940 
  4 C        0.6040    -1.8740    -0.5630 C.3   1 <1>  -0.0990 
  5 C        2.3950     1.4920    -0.2610 C.2   1 <1>   0.2040 
  6 C        0.4910    -2.6900     0.7290 C.3   1 <1>  -0.0170 
  7 O        1.6170     2.3880     0.2970 O.3   1 <1>  -0.0190 
  8 C        3.5760     2.0870    -0.5270 C.2   1 <1>  -0.1810 
  9 C        0.3700    -4.1710     0.4090 C.ar  1 <1>  -0.1430 
 10 N        2.2140     3.5460     0.4170 N.2   1 <1>  -0.4100 
 11 C        3.3930     3.3930    -0.0710 C.2   1 <1>   0.1080 
 12 C        4.8310     1.5190    -1.1690 C.3   1 <1>  -0.0590 
 13 C        1.4530    -5.0250     0.4620 C.ar  1 <1>  -0.1500 
 14 C       -0.8360    -4.7350     0.0450 C.ar  1 <1>  -0.1500 
 15 C        4.4190     4.5110    -0.1230 C.3   1 <1>   0.0210 
 16 C        1.2830    -6.3640     0.1520 C.ar  1 <1>   0.1600 
 17 C       -0.8980    -6.0880    -0.2450 C.ar  1 <1>   0.1600 
 18 C        5.3430     4.4770     1.0990 C.3   1 <1>  -0.2400 
 19 N        0.1340    -6.9160    -0.2030 N.ar  1 <1>  -0.6200 
 20 H        2.6900    -0.4330    -0.8810 H     1 <1>   0.3700 
 21 H        1.4350    -2.2260    -1.1440 H     1 <1>   0.0800 
 22 H       -0.2890    -2.0050    -1.1480 H     1 <1>   0.0800 
 23 H       -0.3750    -2.3700     1.2840 H     1 <1>   0.0800 
 24 H        1.3540    -2.5190     1.3480 H     1 <1>   0.0800 
 25 H        4.6960     0.4840    -1.4210 H     1 <1>   0.0800 
 26 H        5.6600     1.6020    -0.4890 H     1 <1>   0.0800 
 27 H        5.0610     2.0630    -2.0670 H     1 <1>   0.0800 
 28 H        2.4260    -4.6650     0.7410 H     1 <1>   0.1500 
 29 H       -1.7260    -4.1360    -0.0150 H     1 <1>   0.1500 
 30 H        3.9010     5.4540    -0.1500 H     1 <1>   0.0800 
 31 H        4.9980     4.4290    -1.0240 H     1 <1>   0.0800 
 32 H        2.1370    -7.0170     0.1990 H     1 <1>   0.1500 
 33 H       -1.8470    -6.5110    -0.5270 H     1 <1>   0.1500 
 34 H        4.7610     4.5760     1.9990 H     1 <1>   0.0800 
 35 H        6.0490     5.2870     1.0530 H     1 <1>   0.0800 
 36 H        5.8810     3.5470     1.1380 H     1 <1>   0.0800 
@<TRIPOS>BOND
  1   1   2  2   
  2   2   3  am  
  3   2   4  1   
  4   3   5  1   
  5   3  20  1   
  6   4   6  1   
  7   4  21  1   
  8   4  22  1   
  9   5   7  1   
 10   5   8  2   
 11   6   9  1   
 12   6  23  1   
 13   6  24  1   
 14   7  10  1   
 15   8  11  1   
 16   8  12  1   
 17   9  13  ar  
 18   9  14  ar  
 19  10  11  2   
 20  11  15  1   
 21  12  25  1   
 22  12  26  1   
 23  12  27  1   
 24  13  16  ar  
 25  13  28  1   
 26  14  17  ar  
 27  14  29  1   
 28  15  18  1   
 29  15  30  1   
 30  15  31  1   
 31  16  19  ar  
 32  16  32  1   
 33  17  19  ar  
 34  17  33  1   
 35  18  34  1   
 36  18  35  1   
 37  18  36  1   
@<TRIPOS>SUBSTRUCTURE
  1 ****   2 GROUP 4 **** **** 0

# MOE 2024.06 (io_trps.svl 2023.06)
