@<TRIPOS>MOLECULE
NONAME
44 45 1 0 0 
SMALL
USER_CHARGES


@<TRIPOS>ATOM
  1 S       -0.1770     0.5000     0.6290 S.o2  1 <1>   1.3330 
  2 O        0.1460    -0.0180     1.9390 O.2   1 <1>  -0.6500 
  3 O       -0.8290     1.7840     0.5120 O.2   1 <1>  -0.6500 
  4 N       -1.1370    -0.6570    -0.1600 N.am  1 <1>  -0.8490 
  5 C        1.2960     0.5430    -0.3940 C.3   1 <1>  -0.0550 
  6 C       -2.5700    -0.4070     0.0220 C.3   1 <1>   0.1160 
  7 C       -0.8180    -2.0360     0.2230 C.3   1 <1>   0.1160 
  8 C        2.3310     1.5930     0.0560 C.3   1 <1>  -0.0800 
  9 C        3.4330     1.7510    -0.9770 C.3   1 <1>   0.2200 
 10 C        3.1240     1.1280     1.2800 C.3   1 <1>   0.1200 
 11 N        4.0680     3.0760    -0.8080 N.am  1 <1>  -0.7300 
 12 C        4.4120     0.6510    -0.5760 C.3   1 <1>   0.1200 
 13 O        4.2210     0.4180     0.7900 O.3   1 <1>  -0.5600 
 14 C        4.0370     4.0870    -1.7120 C.2   1 <1>   0.5690 
 15 O        3.4770     3.9670    -2.7740 O.2   1 <1>  -0.5700 
 16 C        4.7130     5.4150    -1.4000 C.3   1 <1>   0.1310 
 17 S        5.5910     5.3800     0.2430 S.3   1 <1>  -0.3310 
 18 C        6.3200     7.0080     0.4620 C.ar  1 <1>   0.1010 
 19 C        6.1930     8.0280    -0.4580 C.ar  1 <1>  -0.1500 
 20 C        7.0420     7.2510     1.6070 C.ar  1 <1>  -0.1500 
 21 C        6.7990     9.2400    -0.1780 C.ar  1 <1>   0.1600 
 22 C        7.6050     8.5020     1.7810 C.ar  1 <1>   0.1600 
 23 N        7.4990     9.5000     0.9160 N.ar  1 <1>  -0.6200 
 24 H        1.7510    -0.4280    -0.4080 H     1 <1>   0.0800 
 25 H        0.9900     0.7750    -1.3960 H     1 <1>   0.0800 
 26 H       -3.1480    -1.1480    -0.5020 H     1 <1>   0.0800 
 27 H       -2.8290     0.5610    -0.3740 H     1 <1>   0.0800 
 28 H       -2.8240    -0.4320     1.0690 H     1 <1>   0.0800 
 29 H       -1.3890    -2.7270    -0.3740 H     1 <1>   0.0800 
 30 H       -1.0470    -2.2010     1.2640 H     1 <1>   0.0800 
 31 H        0.2280    -2.2350     0.0660 H     1 <1>   0.0800 
 32 H        1.8280     2.5280     0.2390 H     1 <1>   0.0800 
 33 H        3.0860     1.6320    -1.9900 H     1 <1>   0.0800 
 34 H        2.5670     0.4940     1.9470 H     1 <1>   0.0800 
 35 H        3.5030     1.9730     1.8290 H     1 <1>   0.0800 
 36 H        4.5790     3.2130     0.0700 H     1 <1>   0.3700 
 37 H        5.4370     0.9250    -0.7550 H     1 <1>   0.0800 
 38 H        4.1850    -0.2650    -1.0930 H     1 <1>   0.0800 
 39 H        3.9760     6.1950    -1.3540 H     1 <1>   0.0800 
 40 H        5.4460     5.6370    -2.1520 H     1 <1>   0.0800 
 41 H        5.6450     7.9100    -1.3700 H     1 <1>   0.1500 
 42 H        7.1650     6.4830     2.3480 H     1 <1>   0.1500 
 43 H        6.7050    10.0420    -0.8910 H     1 <1>   0.1500 
 44 H        8.1710     8.6950     2.6770 H     1 <1>   0.1500 
@<TRIPOS>BOND
  1   1   2  2   
  2   1   3  2   
  3   1   4  am  
  4   1   5  1   
  5   4   6  1   
  6   4   7  1   
  7   5   8  1   
  8   5  24  1   
  9   5  25  1   
 10   6  26  1   
 11   6  27  1   
 12   6  28  1   
 13   7  29  1   
 14   7  30  1   
 15   7  31  1   
 16   8   9  1   
 17   8  10  1   
 18   8  32  1   
 19   9  11  1   
 20   9  12  1   
 21   9  33  1   
 22  10  13  1   
 23  10  34  1   
 24  10  35  1   
 25  11  14  am  
 26  11  36  1   
 27  12  13  1   
 28  12  37  1   
 29  12  38  1   
 30  14  15  2   
 31  14  16  1   
 32  16  17  1   
 33  16  39  1   
 34  16  40  1   
 35  17  18  1   
 36  18  19  ar  
 37  18  20  ar  
 38  19  21  ar  
 39  19  41  1   
 40  20  22  ar  
 41  20  42  1   
 42  21  23  ar  
 43  21  43  1   
 44  22  23  ar  
 45  22  44  1   
@<TRIPOS>SUBSTRUCTURE
  1 ****  11 GROUP 4 **** **** 0

# MOE 2024.06 (io_trps.svl 2023.06)
