@<TRIPOS>MOLECULE
NONAME
39 40 1 0 0 
SMALL
USER_CHARGES


@<TRIPOS>ATOM
  1 F       -1.7880    -0.6560     0.7880 F     1 <1>  -0.1900 
  2 C       -2.2110     0.4390     0.2100 C.ar  1 <1>   0.1900 
  3 C       -2.9470     0.3130    -0.9540 C.ar  1 <1>  -0.1440 
  4 C       -1.9180     1.6680     0.7900 C.ar  1 <1>  -0.1440 
  5 C       -3.4000     1.4840    -1.5320 C.ar  1 <1>   0.1900 
  6 C       -3.2370    -1.0370    -1.5730 C.3   1 <1>   0.4860 
  7 C       -2.3890     2.8190     0.1710 C.ar  1 <1>  -0.1500 
  8 C       -1.1000     1.7640     2.0710 C.3   1 <1>  -0.0970 
  9 F       -4.1140     1.4100    -2.6220 F     1 <1>  -0.1900 
 10 C       -3.1350     2.7310    -0.9950 C.ar  1 <1>  -0.1500 
 11 N       -4.1540    -1.8030    -0.6850 N.4   1 <1>  -0.9590 
 12 C       -4.2460    -3.2360    -1.1240 C.3   1 <1>   0.3430 
 13 C       -5.4990    -1.1600    -0.6030 C.3   1 <1>   0.3430 
 14 C       -5.1650    -4.0700    -0.2130 C.3   1 <1>   0.2000 
 15 C       -6.3900    -1.9430     0.3610 C.3   1 <1>  -0.1600 
 16 O       -5.2970    -5.3180    -0.7960 O.3   1 <1>  -0.6800 
 17 C       -6.5530    -3.4210    -0.0600 C.3   1 <1>  -0.0800 
 18 C       -7.4370    -4.2030     0.9280 C.3   1 <1>   0.1200 
 19 O       -8.6600    -3.5650     1.0340 O.3   1 <1>  -0.6800 
 20 H       -2.3080    -1.5720    -1.6880 H     1 <1>   0.0800 
 21 H       -3.6790    -0.9140    -2.5480 H     1 <1>   0.0800 
 22 H       -2.1790     3.7890     0.5920 H     1 <1>   0.1500 
 23 H       -0.9440     2.7890     2.3550 H     1 <1>   0.0800 
 24 H       -0.1390     1.3010     1.9310 H     1 <1>   0.0800 
 25 H       -1.6100     1.2620     2.8740 H     1 <1>   0.0800 
 26 H       -3.5050     3.6190    -1.4800 H     1 <1>   0.1500 
 27 H       -3.7310    -1.7730     0.2540 H     1 <1>   0.4500 
 28 H       -4.6420    -3.2760    -2.1260 H     1 <1>   0.0800 
 29 H       -3.2650    -3.6820    -1.1260 H     1 <1>   0.0800 
 30 H       -5.4060    -0.1430    -0.2570 H     1 <1>   0.0800 
 31 H       -5.9580    -1.1420    -1.5790 H     1 <1>   0.0800 
 32 H       -4.6960    -4.2040     0.7480 H     1 <1>   0.0800 
 33 H       -5.9900    -1.8780     1.3580 H     1 <1>   0.0800 
 34 H       -7.3560    -1.4660     0.3760 H     1 <1>   0.0800 
 35 H       -5.8050    -5.9340    -0.2300 H     1 <1>   0.4000 
 36 H       -7.0370    -3.4430    -1.0230 H     1 <1>   0.0800 
 37 H       -6.9920    -4.2380     1.9080 H     1 <1>   0.0800 
 38 H       -7.6190    -5.2040     0.5760 H     1 <1>   0.0800 
 39 H       -9.2740    -4.0650     1.6100 H     1 <1>   0.4000 
@<TRIPOS>BOND
  1   1   2  1   
  2   2   3  ar  
  3   2   4  ar  
  4   3   5  ar  
  5   3   6  1   
  6   4   7  ar  
  7   4   8  1   
  8   5   9  1   
  9   5  10  ar  
 10   6  11  1   
 11   6  20  1   
 12   6  21  1   
 13   7  10  ar  
 14   7  22  1   
 15   8  23  1   
 16   8  24  1   
 17   8  25  1   
 18  10  26  1   
 19  11  12  1   
 20  11  13  1   
 21  11  27  1   
 22  12  14  1   
 23  12  28  1   
 24  12  29  1   
 25  13  15  1   
 26  13  30  1   
 27  13  31  1   
 28  14  16  1   
 29  14  17  1   
 30  14  32  1   
 31  15  17  1   
 32  15  33  1   
 33  15  34  1   
 34  16  35  1   
 35  17  18  1   
 36  17  36  1   
 37  18  19  1   
 38  18  37  1   
 39  18  38  1   
 40  19  39  1   
@<TRIPOS>SUBSTRUCTURE
  1 ****  11 GROUP 4 **** **** 0

# MOE 2024.06 (io_trps.svl 2023.06)
