@<TRIPOS>MOLECULE
NONAME
49 52 1 0 0 
SMALL
USER_CHARGES


@<TRIPOS>ATOM
  1 CL      -1.6680    -1.0150     1.8480 Cl    1 <1>  -0.1770 
  2 C       -2.2500     0.3130     0.8620 C.ar  1 <1>   0.1770 
  3 C       -2.1560     1.6100     1.3480 C.ar  1 <1>   0.0830 
  4 C       -2.8100     0.0500    -0.3790 C.ar  1 <1>  -0.1440 
  5 O       -1.6150     1.8730     2.5520 O.3   1 <1>  -0.5320 
  6 C       -2.6300     2.6600     0.5830 C.ar  1 <1>  -0.1500 
  7 C       -3.2750     1.1140    -1.1420 C.ar  1 <1>  -0.1500 
  8 C       -2.9170    -1.3720    -0.8940 C.3   1 <1>   0.4860 
  9 C       -3.1860     2.4110    -0.6600 C.ar  1 <1>  -0.1500 
 10 N       -3.9260    -2.1110    -0.0880 N.4   1 <1>  -0.9590 
 11 C       -5.2920    -1.4710    -0.1500 C.3   1 <1>   0.3430 
 12 C       -3.9870    -3.5630    -0.4760 C.3   1 <1>   0.3430 
 13 C       -6.3440    -2.2660     0.6520 C.3   1 <1>   0.1900 
 14 C       -5.0610    -4.3240     0.3250 C.3   1 <1>   0.1100 
 15 N       -6.3820    -3.6750     0.1910 N.3   1 <1>  -0.8100 
 16 C       -7.7340    -1.6160     0.5110 C.3   1 <1>   0.1200 
 17 C       -7.4530    -4.4240     0.9020 C.3   1 <1>   0.3330 
 18 O       -8.6710    -2.3450     1.2420 O.3   1 <1>  -0.5600 
 19 C       -7.5950    -5.8270     0.3180 C.ar  1 <1>  -0.1430 
 20 C       -8.8020    -3.6770     0.8170 C.3   1 <1>   0.1200 
 21 C       -7.7630    -6.0160    -1.0470 C.ar  1 <1>  -0.1500 
 22 C       -7.5510    -6.9350     1.1520 C.ar  1 <1>  -0.1500 
 23 C       -7.8820    -7.2910    -1.5710 C.ar  1 <1>  -0.1500 
 24 C       -7.6690    -8.2110     0.6290 C.ar  1 <1>  -0.1500 
 25 C       -7.8340    -8.3900    -0.7330 C.ar  1 <1>  -0.1500 
 26 H       -1.2520     1.0860     3.0050 H     1 <1>   0.4500 
 27 H       -2.5580     3.6660     0.9620 H     1 <1>   0.1500 
 28 H       -3.7070     0.9540    -2.1170 H     1 <1>   0.1500 
 29 H       -1.9550    -1.8530    -0.8110 H     1 <1>   0.0800 
 30 H       -3.2050    -1.3650    -1.9320 H     1 <1>   0.0800 
 31 H       -3.5480     3.2350    -1.2540 H     1 <1>   0.1500 
 32 H       -3.6120    -2.0650     0.8910 H     1 <1>   0.4500 
 33 H       -5.2440    -0.4660     0.2380 H     1 <1>   0.0800 
 34 H       -5.6210    -1.4160    -1.1740 H     1 <1>   0.0800 
 35 H       -4.2280    -3.6510    -1.5230 H     1 <1>   0.0800 
 36 H       -3.0300    -4.0300    -0.3140 H     1 <1>   0.0800 
 37 H       -6.0750    -2.2330     1.6940 H     1 <1>   0.0800 
 38 H       -4.7770    -4.3780     1.3630 H     1 <1>   0.0800 
 39 H       -5.1100    -5.3310    -0.0550 H     1 <1>   0.0800 
 40 H       -8.0490    -1.5860    -0.5180 H     1 <1>   0.0800 
 41 H       -7.7280    -0.6150     0.9050 H     1 <1>   0.0800 
 42 H       -7.1930    -4.5050     1.9440 H     1 <1>   0.0800 
 43 H       -9.5280    -4.1560     1.4500 H     1 <1>   0.0800 
 44 H       -9.1740    -3.6810    -0.1920 H     1 <1>   0.0800 
 45 H       -7.7990    -5.1670    -1.7070 H     1 <1>   0.1500 
 46 H       -7.4260    -6.8170     2.2140 H     1 <1>   0.1500 
 47 H       -8.0140    -7.4290    -2.6310 H     1 <1>   0.1500 
 48 H       -7.6340    -9.0670     1.2810 H     1 <1>   0.1500 
 49 H       -7.9270    -9.3820    -1.1390 H     1 <1>   0.1500 
@<TRIPOS>BOND
  1   1   2  1   
  2   2   3  ar  
  3   2   4  ar  
  4   3   5  1   
  5   3   6  ar  
  6   4   7  ar  
  7   4   8  1   
  8   5  26  1   
  9   6   9  ar  
 10   6  27  1   
 11   7   9  ar  
 12   7  28  1   
 13   8  10  1   
 14   8  29  1   
 15   8  30  1   
 16   9  31  1   
 17  10  11  1   
 18  10  12  1   
 19  10  32  1   
 20  11  13  1   
 21  11  33  1   
 22  11  34  1   
 23  12  14  1   
 24  12  35  1   
 25  12  36  1   
 26  13  15  1   
 27  13  16  1   
 28  13  37  1   
 29  14  15  1   
 30  14  38  1   
 31  14  39  1   
 32  15  17  1   
 33  16  18  1   
 34  16  40  1   
 35  16  41  1   
 36  17  19  1   
 37  17  20  1   
 38  17  42  1   
 39  18  20  1   
 40  19  21  ar  
 41  19  22  ar  
 42  20  43  1   
 43  20  44  1   
 44  21  23  ar  
 45  21  45  1   
 46  22  24  ar  
 47  22  46  1   
 48  23  25  ar  
 49  23  47  1   
 50  24  25  ar  
 51  24  48  1   
 52  25  49  1   
@<TRIPOS>SUBSTRUCTURE
  1 ****  13 GROUP 4 **** **** 0

# MOE 2024.06 (io_trps.svl 2023.06)
