@<TRIPOS>MOLECULE
NONAME
42 43 1 0 0 
SMALL
USER_CHARGES


@<TRIPOS>ATOM
  1 F       -2.2030    -1.5020    -1.8240 F     1 <1>  -0.1900 
  2 C       -2.5060    -0.4060    -1.1780 C.ar  1 <1>   0.1900 
  3 C       -3.0540    -0.4900     0.0950 C.ar  1 <1>  -0.1440 
  4 C       -2.2670     0.8010    -1.8080 C.ar  1 <1>  -0.1500 
  5 C       -3.3690     0.6960     0.7420 C.ar  1 <1>  -0.1500 
  6 C       -3.3170    -1.8270     0.7750 C.3   1 <1>  -0.0160 
  7 C       -2.5870     1.9730    -1.1450 C.ar  1 <1>  -0.1500 
  8 C       -3.1370     1.9170     0.1260 C.ar  1 <1>  -0.1500 
  9 C       -4.6720    -2.3950     0.3270 C.3   1 <1>  -0.0990 
 10 C       -5.0420    -3.7160     0.9890 C.2   1 <1>   0.5690 
 11 O       -4.2510    -4.2180     1.7520 O.2   1 <1>  -0.5700 
 12 N       -6.2540    -4.3010     0.7300 N.am  1 <1>  -0.6600 
 13 C       -6.5960    -5.6280     1.3420 C.3   1 <1>   0.3210 
 14 C       -7.2900    -3.7490    -0.2100 C.3   1 <1>   0.1400 
 15 C       -6.8510    -6.6890     0.2770 C.2   1 <1>   0.0460 
 16 C       -8.5420    -3.2810     0.5400 C.3   1 <1>   0.1200 
 17 N       -8.1030    -6.9590    -0.1530 N.2   1 <1>  -0.5650 
 18 C       -5.9450    -7.4680    -0.3590 C.2   1 <1>  -0.3320 
 19 O       -8.1700    -2.4430     1.5810 O.3   1 <1>  -0.6800 
 20 C       -7.9330    -7.8930    -1.0300 C.2   1 <1>   0.0360 
 21 N       -6.6430    -8.2480    -1.2030 N.pl3 1 <1>   0.0330 
 22 C       -4.4320    -7.5230    -0.2280 C.3   1 <1>  -0.0600 
 23 H       -1.8400     0.8180    -2.7940 H     1 <1>   0.1500 
 24 H       -3.7980     0.6750     1.7290 H     1 <1>   0.1500 
 25 H       -3.3150    -1.6990     1.8440 H     1 <1>   0.0800 
 26 H       -2.5320    -2.5240     0.5340 H     1 <1>   0.0800 
 27 H       -2.4110     2.9250    -1.6150 H     1 <1>   0.1500 
 28 H       -3.3870     2.8290     0.6410 H     1 <1>   0.1500 
 29 H       -4.6450    -2.5450    -0.7360 H     1 <1>   0.0800 
 30 H       -5.4370    -1.6750     0.5510 H     1 <1>   0.0800 
 31 H       -7.4730    -5.5280     1.9550 H     1 <1>   0.0800 
 32 H       -5.8000    -5.9720     1.9780 H     1 <1>   0.0800 
 33 H       -7.5680    -4.5000    -0.9290 H     1 <1>   0.0800 
 34 H       -6.9020    -2.9210    -0.7720 H     1 <1>   0.0800 
 35 H       -9.0740    -4.1220     0.9500 H     1 <1>   0.0800 
 36 H       -9.2010    -2.7370    -0.1140 H     1 <1>   0.0800 
 37 H       -7.4450    -2.8720     2.0810 H     1 <1>   0.4000 
 38 H       -8.7320    -8.3570    -1.5820 H     1 <1>   0.1500 
 39 H       -6.2780    -8.9600    -1.8410 H     1 <1>   0.2700 
 40 H       -4.0850    -6.7870     0.4760 H     1 <1>   0.0800 
 41 H       -3.9700    -7.3220    -1.1780 H     1 <1>   0.0800 
 42 H       -4.1220    -8.4950     0.1140 H     1 <1>   0.0800 
@<TRIPOS>BOND
  1   1   2  1   
  2   2   3  ar  
  3   2   4  ar  
  4   3   5  ar  
  5   3   6  1   
  6   4   7  ar  
  7   4  23  1   
  8   5   8  ar  
  9   5  24  1   
 10   6   9  1   
 11   6  25  1   
 12   6  26  1   
 13   7   8  ar  
 14   7  27  1   
 15   8  28  1   
 16   9  10  1   
 17   9  29  1   
 18   9  30  1   
 19  10  11  2   
 20  10  12  am  
 21  12  13  1   
 22  12  14  1   
 23  13  15  1   
 24  13  31  1   
 25  13  32  1   
 26  14  16  1   
 27  14  33  1   
 28  14  34  1   
 29  15  17  1   
 30  15  18  2   
 31  16  19  1   
 32  16  35  1   
 33  16  36  1   
 34  17  20  2   
 35  18  21  1   
 36  18  22  1   
 37  19  37  1   
 38  20  21  1   
 39  20  38  1   
 40  21  39  1   
 41  22  40  1   
 42  22  41  1   
 43  22  42  1   
@<TRIPOS>SUBSTRUCTURE
  1 ****  10 GROUP 4 **** **** 0

# MOE 2024.06 (io_trps.svl 2023.06)
