@<TRIPOS>MOLECULE
NONAME
37 39 1 0 0 
SMALL
USER_CHARGES


@<TRIPOS>ATOM
  1 S        2.2210    -0.2020     1.4800 S.3   1 <1>  -0.0800 
  2 C        0.6540    -0.3590     0.7290 C.2   1 <1>   0.1980 
  3 C        2.3340    -1.9310     1.5260 C.2   1 <1>  -0.1100 
  4 N        0.2800    -1.5590     0.5440 N.2   1 <1>  -0.5650 
  5 C       -0.0800     0.9150     0.3850 C.3   1 <1>  -0.0600 
  6 C        1.2290    -2.5000     0.9920 C.2   1 <1>   0.1410 
  7 C        1.0380    -3.9510     0.8970 C.2   1 <1>   0.7160 
  8 O        1.8730    -4.6790     1.4090 O.2   1 <1>  -0.5700 
  9 N       -0.0240    -4.5690     0.2610 N.am  1 <1>  -0.6600 
 10 C       -1.1290    -3.9050    -0.4760 C.3   1 <1>   0.1400 
 11 C       -0.1910    -6.0430     0.2240 C.3   1 <1>   0.1400 
 12 C       -1.9830    -5.0450    -1.0330 C.3   1 <1>   0.2000 
 13 C       -1.6500    -6.2640    -0.1780 C.3   1 <1>  -0.0800 
 14 O       -3.3370    -4.7640    -0.9440 O.3   1 <1>  -0.6800 
 15 C       -1.9080    -7.5910    -0.9110 C.3   1 <1>  -0.0170 
 16 C       -1.5910    -8.7880    -0.0290 C.ar  1 <1>   0.1670 
 17 N       -0.3320    -9.1930    -0.0120 N.ar  1 <1>  -0.6200 
 18 C       -2.6050    -9.3930     0.7120 C.ar  1 <1>   0.1600 
 19 C       -0.1550   -10.2310     0.7890 C.ar  1 <1>   0.1600 
 20 N       -2.4300   -10.4300     1.5140 N.ar  1 <1>  -0.6200 
 21 C       -1.1700   -10.8290     1.5270 C.ar  1 <1>   0.1600 
 22 H        3.2170    -2.3740     1.9500 H     1 <1>   0.1500 
 23 H       -1.0250     0.6790    -0.0690 H     1 <1>   0.0800 
 24 H        0.5040     1.4970    -0.3030 H     1 <1>   0.0800 
 25 H       -0.2530     1.4880     1.2770 H     1 <1>   0.0800 
 26 H       -1.6960    -3.2970     0.2060 H     1 <1>   0.0800 
 27 H       -0.7340    -3.2990    -1.2730 H     1 <1>   0.0800 
 28 H        0.4790    -6.4530    -0.5130 H     1 <1>   0.0800 
 29 H        0.0260    -6.4840     1.1820 H     1 <1>   0.0800 
 30 H       -1.7370    -5.2120    -2.0680 H     1 <1>   0.0800 
 31 H       -2.2330    -6.2360     0.7260 H     1 <1>   0.0800 
 32 H       -3.5750    -4.5340    -0.0240 H     1 <1>   0.4000 
 33 H       -1.3070    -7.6430    -1.8020 H     1 <1>   0.0800 
 34 H       -2.9390    -7.6320    -1.2140 H     1 <1>   0.0800 
 35 H       -3.6030    -9.0000     0.6410 H     1 <1>   0.1500 
 36 H        0.8420   -10.6280     0.8660 H     1 <1>   0.1500 
 37 H       -0.9270   -11.6700     2.1520 H     1 <1>   0.1500 
@<TRIPOS>BOND
  1   1   2  1   
  2   1   3  1   
  3   2   4  2   
  4   2   5  1   
  5   3   6  2   
  6   3  22  1   
  7   4   6  1   
  8   5  23  1   
  9   5  24  1   
 10   5  25  1   
 11   6   7  1   
 12   7   8  2   
 13   7   9  am  
 14   9  10  1   
 15   9  11  1   
 16  10  12  1   
 17  10  26  1   
 18  10  27  1   
 19  11  13  1   
 20  11  28  1   
 21  11  29  1   
 22  12  13  1   
 23  12  14  1   
 24  12  30  1   
 25  13  15  1   
 26  13  31  1   
 27  14  32  1   
 28  15  16  1   
 29  15  33  1   
 30  15  34  1   
 31  16  17  ar  
 32  16  18  ar  
 33  17  19  ar  
 34  18  20  ar  
 35  18  35  1   
 36  19  21  ar  
 37  19  36  1   
 38  20  21  ar  
 39  21  37  1   
@<TRIPOS>SUBSTRUCTURE
  1 ****  11 GROUP 4 **** **** 0

# MOE 2024.06 (io_trps.svl 2023.06)
