@<TRIPOS>MOLECULE
NONAME
51 53 1 0 0 
SMALL
USER_CHARGES


@<TRIPOS>ATOM
  1 O        1.6440    -0.0770    -1.8610 O.2   1 <1>  -0.5700 
  2 C        2.3080    -0.3640    -0.8830 C.2   1 <1>   0.7150 
  3 N        3.2280     0.5740    -0.4250 N.am  1 <1>  -0.6600 
  4 C        2.1190    -1.6600    -0.2610 C.2   1 <1>   0.0550 
  5 C        3.9360     0.4450     0.8830 C.3   1 <1>   0.1400 
  6 C        3.4120     1.8760    -1.1330 C.3   1 <1>   0.1400 
  7 O        3.1320    -2.3270     0.2850 O.3   1 <1>  -0.2800 
  8 C        1.0000    -2.4080    -0.1370 C.2   1 <1>   0.0460 
  9 C        5.3160    -0.2160     0.7020 C.3   1 <1>   0.3430 
 10 C        4.8900     2.2580    -1.2750 C.3   1 <1>  -0.1600 
 11 C        2.5420    -3.4310     0.6990 C.2   1 <1>   0.2980 
 12 N        1.2870    -3.5410     0.4890 N.2   1 <1>  -0.5650 
 13 C       -0.4250    -2.1430    -0.5820 C.3   1 <1>  -0.0590 
 14 N        6.2960     0.6110    -0.0830 N.4   1 <1>  -0.9590 
 15 C        5.8220     1.0550    -1.4260 C.3   1 <1>   0.3430 
 16 C        3.3850    -4.4800     1.3850 C.3   1 <1>  -0.0600 
 17 C        7.6470    -0.0440    -0.1240 C.3   1 <1>   0.3430 
 18 C        8.7340     0.9050     0.4290 C.3   1 <1>   0.2000 
 19 O        8.1450     1.6130     1.5060 O.3   1 <1>  -0.2170 
 20 C        9.1510     2.0240    -0.5310 C.3   1 <1>  -0.0990 
 21 N        7.8500     2.8540     1.1670 N.2   1 <1>  -0.5130 
 22 C        8.3970     3.1670     0.0800 C.2   1 <1>   0.3280 
 23 C        8.3540     4.5050    -0.6450 C.3   1 <1>  -0.0990 
 24 C        7.4740     5.5530     0.0530 C.3   1 <1>  -0.2400 
 25 H        3.3440    -0.1520     1.5550 H     1 <1>   0.0800 
 26 H        4.0480     1.4120     1.3430 H     1 <1>   0.0800 
 27 H        2.8800     2.6490    -0.6040 H     1 <1>   0.0800 
 28 H        2.9870     1.8180    -2.1220 H     1 <1>   0.0800 
 29 H        5.1790    -1.1680     0.2180 H     1 <1>   0.0800 
 30 H        5.7260    -0.4030     1.6810 H     1 <1>   0.0800 
 31 H        5.1950     2.8750    -0.4480 H     1 <1>   0.0800 
 32 H        4.9750     2.8670    -2.1570 H     1 <1>   0.0800 
 33 H       -0.5240    -1.1670    -1.0180 H     1 <1>   0.0800 
 34 H       -1.0860    -2.2130     0.2620 H     1 <1>   0.0800 
 35 H       -0.7160    -2.8780    -1.3100 H     1 <1>   0.0800 
 36 H        6.4650     1.4720     0.4840 H     1 <1>   0.4500 
 37 H        6.6690     1.3570    -2.0190 H     1 <1>   0.0800 
 38 H        5.3190     0.2500    -1.9400 H     1 <1>   0.0800 
 39 H        4.1620    -4.8120     0.7230 H     1 <1>   0.0800 
 40 H        2.7720    -5.3210     1.6520 H     1 <1>   0.0800 
 41 H        3.8220    -4.0710     2.2760 H     1 <1>   0.0800 
 42 H        7.8950    -0.3500    -1.1270 H     1 <1>   0.0800 
 43 H        7.6370    -0.9290     0.4910 H     1 <1>   0.0800 
 44 H        9.5870     0.3590     0.7940 H     1 <1>   0.0800 
 45 H        8.8620     1.8340    -1.5480 H     1 <1>   0.0800 
 46 H       10.2090     2.2040    -0.4750 H     1 <1>   0.0800 
 47 H        7.9880     4.3520    -1.6440 H     1 <1>   0.0800 
 48 H        9.3570     4.8880    -0.7150 H     1 <1>   0.0800 
 49 H        6.4570     5.2090     0.1230 H     1 <1>   0.0800 
 50 H        7.4880     6.4770    -0.4970 H     1 <1>   0.0800 
 51 H        7.8400     5.7430     1.0480 H     1 <1>   0.0800 
@<TRIPOS>BOND
  1   1   2  2   
  2   2   3  am  
  3   2   4  1   
  4   3   5  1   
  5   3   6  1   
  6   4   7  1   
  7   4   8  2   
  8   5   9  1   
  9   5  25  1   
 10   5  26  1   
 11   6  10  1   
 12   6  27  1   
 13   6  28  1   
 14   7  11  1   
 15   8  12  1   
 16   8  13  1   
 17   9  14  1   
 18   9  29  1   
 19   9  30  1   
 20  10  15  1   
 21  10  31  1   
 22  10  32  1   
 23  11  12  2   
 24  11  16  1   
 25  13  33  1   
 26  13  34  1   
 27  13  35  1   
 28  14  15  1   
 29  14  17  1   
 30  14  36  1   
 31  15  37  1   
 32  15  38  1   
 33  16  39  1   
 34  16  40  1   
 35  16  41  1   
 36  17  18  1   
 37  17  42  1   
 38  17  43  1   
 39  18  19  1   
 40  18  20  1   
 41  18  44  1   
 42  19  21  1   
 43  20  22  1   
 44  20  45  1   
 45  20  46  1   
 46  21  22  2   
 47  22  23  1   
 48  23  24  1   
 49  23  47  1   
 50  23  48  1   
 51  24  49  1   
 52  24  50  1   
 53  24  51  1   
@<TRIPOS>SUBSTRUCTURE
  1 ****   9 GROUP 4 **** **** 0

# MOE 2024.06 (io_trps.svl 2023.06)
