@<TRIPOS>MOLECULE
NONAME
51 54 1 0 0 
SMALL
USER_CHARGES


@<TRIPOS>ATOM
  1 S        0.5170    -1.4320     0.3120 S.3   1 <1>  -0.3320 
  2 C        2.2930    -1.2640     0.1870 C.ar  1 <1>   0.7220 
  3 C        0.0920    -2.8480    -0.7970 C.3   1 <1>  -0.0100 
  4 N        2.8060    -0.2970     0.9100 N.ar  1 <1>  -0.6200 
  5 N        2.8900    -2.1280    -0.6200 N.ar  1 <1>  -0.6200 
  6 C        4.1140    -0.1760     0.8370 C.ar  1 <1>   0.4100 
  7 C        4.1920    -1.9620    -0.7010 C.ar  1 <1>   0.1600 
  8 N        4.6370     0.8180     1.6370 N.pl3 1 <1>  -0.8380 
  9 C        4.8720    -0.9960     0.0000 C.ar  1 <1>  -0.1790 
 10 C        4.4220     2.2550     1.3250 C.3   1 <1>   0.2090 
 11 C        5.6190     0.5010     2.7070 C.3   1 <1>   0.2090 
 12 C        6.2770    -0.8430    -0.2090 C.2   1 <1>   0.9790 
 13 C        5.7630     2.9420     0.9830 C.3   1 <1>  -0.1600 
 14 C        6.8990     1.3260     2.5150 C.3   1 <1>  -0.1600 
 15 O        6.7010    -0.2220    -1.2000 O.co2 1 <1>  -0.9000 
 16 O        7.1260    -1.1870     0.6320 O.co2 1 <1>  -0.9000 
 17 C        6.9090     1.9280     1.1030 C.3   1 <1>   0.4230 
 18 N        8.2650     2.3610     0.6850 N.4   1 <1>  -0.9590 
 19 C        8.2590     3.1590    -0.5660 C.3   1 <1>   0.4860 
 20 C        9.0440     1.1150     0.3620 C.3   1 <1>   0.3430 
 21 C        9.6830     3.5700    -0.9050 C.ar  1 <1>  -0.1430 
 22 C       10.5290     1.4420     0.1810 C.3   1 <1>  -0.0170 
 23 C       10.7560     2.7540    -0.5620 C.ar  1 <1>  -0.1430 
 24 C        9.9150     4.7660    -1.5680 C.ar  1 <1>  -0.1500 
 25 C       12.0460     3.1400    -0.8860 C.ar  1 <1>  -0.1500 
 26 C       11.2060     5.1470    -1.8880 C.ar  1 <1>  -0.1500 
 27 C       12.2710     4.3340    -1.5470 C.ar  1 <1>  -0.1500 
 28 H       -0.9720    -2.9900    -0.7570 H     1 <1>   0.0800 
 29 H        0.6150    -3.7160    -0.4360 H     1 <1>   0.0800 
 30 H        0.4130    -2.5930    -1.7920 H     1 <1>   0.0800 
 31 H        4.7440    -2.6130    -1.3580 H     1 <1>   0.1500 
 32 H        3.9630     2.7290     2.1760 H     1 <1>   0.0800 
 33 H        3.7410     2.3380     0.4940 H     1 <1>   0.0800 
 34 H        5.8510    -0.5520     2.6750 H     1 <1>   0.0800 
 35 H        5.1780     0.7080     3.6670 H     1 <1>   0.0800 
 36 H        5.9180     3.7750     1.6430 H     1 <1>   0.0800 
 37 H        5.6800     3.3030    -0.0240 H     1 <1>   0.0800 
 38 H        7.7300     0.6680     2.6810 H     1 <1>   0.0800 
 39 H        6.9320     2.1050     3.2530 H     1 <1>   0.0800 
 40 H        6.6380     1.1590     0.4260 H     1 <1>   0.0800 
 41 H        8.7370     2.8870     1.4220 H     1 <1>   0.4500 
 42 H        7.6560     4.0420    -0.4400 H     1 <1>   0.0800 
 43 H        7.8470     2.5680    -1.3700 H     1 <1>   0.0800 
 44 H        8.6610     0.6840    -0.5500 H     1 <1>   0.0800 
 45 H        8.9280     0.3680     1.1290 H     1 <1>   0.0800 
 46 H       10.9910     0.6320    -0.3560 H     1 <1>   0.0800 
 47 H       10.9920     1.4980     1.1490 H     1 <1>   0.0800 
 48 H        9.0980     5.4090    -1.8460 H     1 <1>   0.1500 
 49 H       12.8820     2.5140    -0.6270 H     1 <1>   0.1500 
 50 H       11.3850     6.0760    -2.4040 H     1 <1>   0.1500 
 51 H       13.2760     4.6290    -1.7980 H     1 <1>   0.1500 
@<TRIPOS>BOND
  1   1   2  1   
  2   1   3  1   
  3   2   4  ar  
  4   2   5  ar  
  5   3  28  1   
  6   3  29  1   
  7   3  30  1   
  8   4   6  ar  
  9   5   7  ar  
 10   6   8  1   
 11   6   9  ar  
 12   7   9  ar  
 13   7  31  1   
 14   8  10  1   
 15   8  11  1   
 16   9  12  1   
 17  10  13  1   
 18  10  32  1   
 19  10  33  1   
 20  11  14  1   
 21  11  34  1   
 22  11  35  1   
 23  12  15  ar  
 24  12  16  ar  
 25  13  17  1   
 26  13  36  1   
 27  13  37  1   
 28  14  17  1   
 29  14  38  1   
 30  14  39  1   
 31  17  18  1   
 32  17  40  1   
 33  18  19  1   
 34  18  20  1   
 35  18  41  1   
 36  19  21  1   
 37  19  42  1   
 38  19  43  1   
 39  20  22  1   
 40  20  44  1   
 41  20  45  1   
 42  21  23  ar  
 43  21  24  ar  
 44  22  23  1   
 45  22  46  1   
 46  22  47  1   
 47  23  25  ar  
 48  24  26  ar  
 49  24  48  1   
 50  25  27  ar  
 51  25  49  1   
 52  26  27  ar  
 53  26  50  1   
 54  27  51  1   
@<TRIPOS>SUBSTRUCTURE
  1 ****  17 GROUP 4 **** **** 0

# MOE 2024.06 (io_trps.svl 2023.06)
