@<TRIPOS>MOLECULE
NONAME
51 54 1 0 0 
SMALL
USER_CHARGES


@<TRIPOS>ATOM
  1 O        1.7450    -1.4720    -0.3830 O.2   1 <1>  -0.5700 
  2 C        1.0430    -2.4610    -0.2400 C.2   1 <1>   0.5440 
  3 N       -0.0250    -2.3610     0.6320 N.am  1 <1>  -0.6600 
  4 C        1.3380    -3.6630    -1.0210 C.ar  1 <1>   0.3960 
  5 C       -0.3250    -1.1400     1.4080 C.3   1 <1>   0.1400 
  6 C       -1.0840    -3.3810     0.8230 C.3   1 <1>   0.1400 
  7 N        1.1320    -4.8880    -0.5090 N.ar  1 <1>  -0.6200 
  8 C        1.8270    -3.4920    -2.3200 C.ar  1 <1>   0.1600 
  9 C       -1.5230    -1.5090     2.2770 C.3   1 <1>  -0.1600 
 10 C       -2.2150    -2.6420     1.5250 C.3   1 <1>  -0.1600 
 11 C        1.3710    -5.8610    -1.3570 C.ar  1 <1>   0.4100 
 12 N        2.1050    -4.4670    -3.1790 N.ar  1 <1>  -0.6200 
 13 N        1.0730    -7.0960    -0.8580 N.pl3 1 <1>  -0.8690 
 14 C        1.8610    -5.6510    -2.6540 C.ar  1 <1>   0.1600 
 15 C       -0.1170    -7.7700    -1.3900 C.3   1 <1>   0.4330 
 16 C       -1.3660    -7.0600    -0.8740 C.ar  1 <1>  -0.1430 
 17 C       -0.0690    -9.2310    -0.9600 C.3   1 <1>  -0.2400 
 18 C       -1.6310    -6.9580     0.4870 C.ar  1 <1>  -0.1500 
 19 C       -2.2470    -6.4730    -1.7740 C.ar  1 <1>  -0.1500 
 20 C       -2.7500    -6.2870     0.9460 C.ar  1 <1>   0.0830 
 21 C       -3.3660    -5.7930    -1.3220 C.ar  1 <1>  -0.1500 
 22 O       -2.9130    -6.1920     2.2870 O.3   1 <1>  -0.3630 
 23 C       -3.6260    -5.6950     0.0330 C.ar  1 <1>   0.0830 
 24 C       -4.0990    -6.7000     2.8480 C.3   1 <1>   0.1200 
 25 O       -4.7090    -4.9770     0.4120 O.3   1 <1>  -0.3630 
 26 C       -5.2560    -5.7220     2.6450 C.3   1 <1>  -0.1600 
 27 C       -5.6940    -5.6200     1.1830 C.3   1 <1>   0.1200 
 28 H       -0.5800    -0.3460     0.7260 H     1 <1>   0.0800 
 29 H        0.5250    -0.8470     2.0010 H     1 <1>   0.0800 
 30 H       -0.7070    -4.1690     1.4530 H     1 <1>   0.0800 
 31 H       -1.4080    -3.7940    -0.1170 H     1 <1>   0.0800 
 32 H        1.9900    -2.4850    -2.6640 H     1 <1>   0.1500 
 33 H       -2.1730    -0.6680     2.4420 H     1 <1>   0.0800 
 34 H       -1.1660    -1.8680     3.2270 H     1 <1>   0.0800 
 35 H       -2.7690    -3.2960     2.1760 H     1 <1>   0.0800 
 36 H       -2.8840    -2.2430     0.7830 H     1 <1>   0.0800 
 37 H        0.9600    -7.0060     0.1540 H     1 <1>   0.4000 
 38 H        2.0510    -6.5170    -3.2600 H     1 <1>   0.1500 
 39 H       -0.0950    -7.7270    -2.4670 H     1 <1>   0.0800 
 40 H       -0.0420    -9.3160     0.1100 H     1 <1>   0.0800 
 41 H        0.8020    -9.7040    -1.3740 H     1 <1>   0.0800 
 42 H       -0.9420    -9.7410    -1.3230 H     1 <1>   0.0800 
 43 H       -0.9630    -7.3880     1.2100 H     1 <1>   0.1500 
 44 H       -2.0630    -6.5290    -2.8330 H     1 <1>   0.1500 
 45 H       -4.0390    -5.3280    -2.0200 H     1 <1>   0.1500 
 46 H       -3.9150    -6.8370     3.8990 H     1 <1>   0.0800 
 47 H       -4.3070    -7.6590     2.4030 H     1 <1>   0.0800 
 48 H       -4.9940    -4.7500     3.0240 H     1 <1>   0.0800 
 49 H       -6.0940    -6.0780     3.2160 H     1 <1>   0.0800 
 50 H       -5.8850    -6.5900     0.7570 H     1 <1>   0.0800 
 51 H       -6.5890    -5.0260     1.1090 H     1 <1>   0.0800 
@<TRIPOS>BOND
  1   1   2  2   
  2   2   3  am  
  3   2   4  1   
  4   3   5  1   
  5   3   6  1   
  6   4   7  ar  
  7   4   8  ar  
  8   5   9  1   
  9   5  28  1   
 10   5  29  1   
 11   6  10  1   
 12   6  30  1   
 13   6  31  1   
 14   7  11  ar  
 15   8  12  ar  
 16   8  32  1   
 17   9  10  1   
 18   9  33  1   
 19   9  34  1   
 20  10  35  1   
 21  10  36  1   
 22  11  13  1   
 23  11  14  ar  
 24  12  14  ar  
 25  13  15  1   
 26  13  37  1   
 27  14  38  1   
 28  15  16  1   
 29  15  17  1   
 30  15  39  1   
 31  16  18  ar  
 32  16  19  ar  
 33  17  40  1   
 34  17  41  1   
 35  17  42  1   
 36  18  20  ar  
 37  18  43  1   
 38  19  21  ar  
 39  19  44  1   
 40  20  22  1   
 41  20  23  ar  
 42  21  23  ar  
 43  21  45  1   
 44  22  24  1   
 45  23  25  1   
 46  24  26  1   
 47  24  46  1   
 48  24  47  1   
 49  25  27  1   
 50  26  27  1   
 51  26  48  1   
 52  26  49  1   
 53  27  50  1   
 54  27  51  1   
@<TRIPOS>SUBSTRUCTURE
  1 ****   6 GROUP 4 **** **** 0

# MOE 2024.06 (io_trps.svl 2023.06)
