@<TRIPOS>MOLECULE
NONAME
45 48 1 0 0 
SMALL
USER_CHARGES


@<TRIPOS>ATOM
  1 N       -0.0500    -1.5640    -1.2600 N.2   1 <1>  -0.5760 
  2 C       -0.8610    -2.5160    -0.6940 C.2   1 <1>   0.3120 
  3 C       -0.0360    -0.4080    -0.6820 C.2   1 <1>   0.3760 
  4 N       -1.0210    -3.7310    -1.1130 N.2   1 <1>  -0.5650 
  5 N       -1.6250    -2.2860     0.4120 N.pl3 1 <1>   0.6010 
  6 C       -0.8050    -0.0990     0.4770 C.2   1 <1>  -0.1360 
  7 C       -1.8900    -4.2090    -0.2270 C.2   1 <1>   0.3350 
  8 N       -2.3060    -3.3950     0.7010 N.2   1 <1>  -0.7070 
  9 C       -1.6060    -1.0520     1.0240 C.2   1 <1>  -0.1810 
 10 C       -2.3960    -5.6500    -0.3280 C.3   1 <1>   0.5240 
 11 N       -3.8670    -5.6950    -0.0220 N.4   1 <1>  -0.9590 
 12 C       -4.3900    -7.0290     0.4180 C.3   1 <1>   0.4230 
 13 C       -4.5650    -5.1590    -1.2270 C.3   1 <1>   0.3430 
 14 C       -5.9090    -6.9180     0.6500 C.3   1 <1>  -0.1600 
 15 C       -3.7470    -7.5400     1.7310 C.3   1 <1>  -0.1600 
 16 C       -6.0610    -5.0160    -0.9670 C.3   1 <1>  -0.1600 
 17 C       -6.6670    -6.3570    -0.5570 C.3   1 <1>  -0.1600 
 18 C       -2.3790    -8.2520     1.6420 C.3   1 <1>   0.0960 
 19 N       -2.2540    -9.0730     0.4210 N.pl3 1 <1>   0.3140 
 20 N       -1.9950    -8.5150    -0.7780 N.2   1 <1>  -0.7070 
 21 C       -2.3880   -10.4080     0.3210 C.2   1 <1>  -0.3020 
 22 C       -1.9520    -9.5160    -1.6070 C.2   1 <1>   0.1390 
 23 C       -2.1960   -10.7290    -0.9760 C.2   1 <1>  -0.1500 
 24 H        0.5870     0.3710    -1.0880 H     1 <1>   0.0600 
 25 H       -0.7250     0.8930     0.8860 H     1 <1>   0.1500 
 26 H       -2.2250    -0.9240     1.8930 H     1 <1>   0.1500 
 27 H       -1.8390    -6.2340     0.3740 H     1 <1>   0.0800 
 28 H       -2.2010    -6.0400    -1.3130 H     1 <1>   0.0800 
 29 H       -3.9950    -5.0090     0.7360 H     1 <1>   0.4500 
 30 H       -4.2300    -7.7500    -0.3690 H     1 <1>   0.0800 
 31 H       -4.4120    -5.8270    -2.0590 H     1 <1>   0.0800 
 32 H       -4.1590    -4.1940    -1.4910 H     1 <1>   0.0800 
 33 H       -6.0980    -6.2950     1.5080 H     1 <1>   0.0800 
 34 H       -6.3060    -7.8940     0.8700 H     1 <1>   0.0800 
 35 H       -4.4120    -8.2740     2.1530 H     1 <1>   0.0800 
 36 H       -3.6930    -6.7420     2.4500 H     1 <1>   0.0800 
 37 H       -6.5420    -4.6650    -1.8630 H     1 <1>   0.0800 
 38 H       -6.2260    -4.2790    -0.2000 H     1 <1>   0.0800 
 39 H       -7.7090    -6.2290    -0.3090 H     1 <1>   0.0800 
 40 H       -6.6060    -7.0510    -1.3790 H     1 <1>   0.0800 
 41 H       -2.2500    -8.8930     2.4950 H     1 <1>   0.0800 
 42 H       -1.5700    -7.5470     1.6560 H     1 <1>   0.0800 
 43 H       -2.6020   -11.0510     1.1570 H     1 <1>   0.1500 
 44 H       -1.7490    -9.4140    -2.6610 H     1 <1>   0.1500 
 45 H       -2.2170   -11.6970    -1.4450 H     1 <1>   0.1500 
@<TRIPOS>BOND
  1   1   2  1   
  2   1   3  2   
  3   2   4  2   
  4   2   5  1   
  5   3   6  1   
  6   3  24  1   
  7   4   7  1   
  8   5   8  1   
  9   5   9  1   
 10   6   9  2   
 11   6  25  1   
 12   7   8  2   
 13   7  10  1   
 14   9  26  1   
 15  10  11  1   
 16  10  27  1   
 17  10  28  1   
 18  11  12  1   
 19  11  13  1   
 20  11  29  1   
 21  12  14  1   
 22  12  15  1   
 23  12  30  1   
 24  13  16  1   
 25  13  31  1   
 26  13  32  1   
 27  14  17  1   
 28  14  33  1   
 29  14  34  1   
 30  15  18  1   
 31  15  35  1   
 32  15  36  1   
 33  16  17  1   
 34  16  37  1   
 35  16  38  1   
 36  17  39  1   
 37  17  40  1   
 38  18  19  1   
 39  18  41  1   
 40  18  42  1   
 41  19  20  1   
 42  19  21  1   
 43  20  22  2   
 44  21  23  2   
 45  21  43  1   
 46  22  23  1   
 47  22  44  1   
 48  23  45  1   
@<TRIPOS>SUBSTRUCTURE
  1 ****  10 GROUP 4 **** **** 0

# MOE 2024.06 (io_trps.svl 2023.06)
