@<TRIPOS>MOLECULE
NONAME
46 48 1 0 0 
SMALL
USER_CHARGES


@<TRIPOS>ATOM
  1 F       -1.7200    -0.0450    -2.2520 F     1 <1>  -0.1900 
  2 C       -2.1490     0.9030    -1.4640 C.ar  1 <1>   0.1900 
  3 C       -3.1670     0.6220    -0.5550 C.ar  1 <1>   0.0530 
  4 C       -1.5460     2.1440    -1.5800 C.ar  1 <1>  -0.1500 
  5 C       -3.5470     1.6980     0.2470 C.ar  1 <1>   0.1900 
  6 C       -3.7760    -0.6770    -0.4530 C.2   1 <1>   0.4250 
  7 C       -1.9590     3.1800    -0.7570 C.ar  1 <1>  -0.1500 
  8 F       -4.5060     1.5380     1.1170 F     1 <1>  -0.1900 
  9 C       -2.9690     2.9530     0.1650 C.ar  1 <1>  -0.1500 
 10 O       -4.2250    -1.2920    -1.5120 O.3   1 <1>  -0.0190 
 11 N       -3.9710    -1.3900     0.6010 N.2   1 <1>  -0.5650 
 12 N       -4.7330    -2.4220    -1.1850 N.2   1 <1>  -0.4100 
 13 C       -4.5750    -2.4700     0.0840 C.2   1 <1>   0.3350 
 14 C       -5.0180    -3.6180     0.9920 C.3   1 <1>   0.3210 
 15 N       -5.6620    -4.7290     0.2480 N.am  1 <1>  -0.7300 
 16 C       -5.7300    -6.0050     0.6770 C.2   1 <1>   0.5690 
 17 O       -5.2960    -6.3330     1.7540 O.2   1 <1>  -0.5700 
 18 C       -6.3790    -7.0470    -0.2010 C.3   1 <1>  -0.0990 
 19 C       -7.9120    -6.9060    -0.1670 C.3   1 <1>   0.2510 
 20 N       -8.5240    -8.2800    -0.1480 N.3   1 <1>  -0.8100 
 21 C       -8.3790    -5.9840    -1.3280 C.2   1 <1>   0.5690 
 22 C       -9.9130    -8.2690    -0.6590 C.3   1 <1>   0.1100 
 23 C       -8.4620    -8.8770     1.1970 C.3   1 <1>   0.1100 
 24 O       -7.8910    -4.8890    -1.4760 O.2   1 <1>  -0.5700 
 25 N       -9.3410    -6.3990    -2.1860 N.am  1 <1>  -0.7300 
 26 C       -9.9930    -7.7250    -2.0950 C.3   1 <1>   0.1400 
 27 C       -8.4480   -10.3990     1.0840 C.3   1 <1>  -0.2400 
 28 H       -0.7640     2.2960    -2.3030 H     1 <1>   0.1500 
 29 H       -1.5000     4.1520    -0.8320 H     1 <1>   0.1500 
 30 H       -3.3080     3.7420     0.8140 H     1 <1>   0.1500 
 31 H       -5.7150    -3.2350     1.7150 H     1 <1>   0.0800 
 32 H       -4.1600    -3.9940     1.5210 H     1 <1>   0.0800 
 33 H       -6.1530    -4.4490    -0.6170 H     1 <1>   0.3700 
 34 H       -6.0710    -8.0150     0.1480 H     1 <1>   0.0800 
 35 H       -6.0170    -6.9400    -1.2060 H     1 <1>   0.0800 
 36 H       -8.1970    -6.4070     0.7440 H     1 <1>   0.0800 
 37 H      -10.5330    -7.6650    -0.0180 H     1 <1>   0.0800 
 38 H      -10.3100    -9.2680    -0.6570 H     1 <1>   0.0800 
 39 H       -9.2960    -8.5490     1.7960 H     1 <1>   0.0800 
 40 H       -7.5590    -8.5730     1.7010 H     1 <1>   0.0800 
 41 H       -9.5730    -5.7890    -2.9710 H     1 <1>   0.3700 
 42 H      -11.0240    -7.6390    -2.3890 H     1 <1>   0.0800 
 43 H       -9.5020    -8.4110    -2.7650 H     1 <1>   0.0800 
 44 H       -9.3730   -10.7700     0.6860 H     1 <1>   0.0800 
 45 H       -8.3060   -10.8290     2.0580 H     1 <1>   0.0800 
 46 H       -7.6350   -10.7120     0.4520 H     1 <1>   0.0800 
@<TRIPOS>BOND
  1   1   2  1   
  2   2   3  ar  
  3   2   4  ar  
  4   3   5  ar  
  5   3   6  1   
  6   4   7  ar  
  7   4  28  1   
  8   5   8  1   
  9   5   9  ar  
 10   6  10  1   
 11   6  11  2   
 12   7   9  ar  
 13   7  29  1   
 14   9  30  1   
 15  10  12  1   
 16  11  13  1   
 17  12  13  2   
 18  13  14  1   
 19  14  15  1   
 20  14  31  1   
 21  14  32  1   
 22  15  16  am  
 23  15  33  1   
 24  16  17  2   
 25  16  18  1   
 26  18  19  1   
 27  18  34  1   
 28  18  35  1   
 29  19  20  1   
 30  19  21  1   
 31  19  36  1   
 32  20  22  1   
 33  20  23  1   
 34  21  24  2   
 35  21  25  am  
 36  22  26  1   
 37  22  37  1   
 38  22  38  1   
 39  23  27  1   
 40  23  39  1   
 41  23  40  1   
 42  25  26  1   
 43  25  41  1   
 44  26  42  1   
 45  26  43  1   
 46  27  44  1   
 47  27  45  1   
 48  27  46  1   
@<TRIPOS>SUBSTRUCTURE
  1 ****  13 GROUP 4 **** **** 0

# MOE 2024.06 (io_trps.svl 2023.06)
