@<TRIPOS>MOLECULE
NONAME
52 55 1 0 0 
SMALL
USER_CHARGES


@<TRIPOS>ATOM
  1 O        0.1990    -0.4310     0.8610 O.3   1 <1>  -0.0190 
  2 N       -0.3840    -1.5880     0.9760 N.2   1 <1>  -0.4100 
  3 C        1.4650    -0.5470     0.5560 C.2   1 <1>  -0.0400 
  4 C        0.5220    -2.4700     0.7410 C.2   1 <1>   0.1080 
  5 C        1.7430    -1.8580     0.4640 C.2   1 <1>  -0.1500 
  6 C        2.3090     0.7090     0.3850 C.3   1 <1>   0.1000 
  7 C        0.2670    -3.9700     0.7620 C.3   1 <1>   0.5240 
  8 C        1.8320     1.5060    -0.8340 C.3   1 <1>  -0.2400 
  9 C        3.7980     0.3720     0.2410 C.3   1 <1>  -0.2400 
 10 N       -0.6090    -4.3840    -0.3830 N.4   1 <1>  -0.9590 
 11 C       -2.0080    -3.8410    -0.2520 C.3   1 <1>   0.3430 
 12 C       -0.7140    -5.8670    -0.5050 C.3   1 <1>   0.3430 
 13 C       -2.9500    -5.0490    -0.3040 C.3   1 <1>   0.2000 
 14 C       -2.0820    -6.2470     0.0560 C.3   1 <1>  -0.0800 
 15 O       -4.0020    -4.9330     0.5910 O.3   1 <1>  -0.6800 
 16 C       -2.6190    -7.5790    -0.4990 C.3   1 <1>  -0.0170 
 17 C       -1.6870    -8.7300    -0.1570 C.ar  1 <1>   0.1670 
 18 N       -0.5320    -8.7550    -0.7520 N.ar  1 <1>  -0.6200 
 19 C       -2.1020    -9.6910     0.7790 C.ar  1 <1>  -0.1500 
 20 C        0.3090    -9.7830    -0.4570 C.ar  1 <1>   0.3100 
 21 C       -1.2720   -10.7200     1.1060 C.ar  1 <1>  -0.1500 
 22 C       -0.0160   -10.7870     0.4810 C.ar  1 <1>   0.0000 
 23 C        1.5540    -9.8500    -1.1030 C.ar  1 <1>  -0.1500 
 24 C        0.9210   -11.8040     0.7480 C.ar  1 <1>  -0.1500 
 25 C        2.4510   -10.8490    -0.8310 C.ar  1 <1>  -0.1500 
 26 C        2.1300   -11.8350     0.1080 C.ar  1 <1>  -0.1500 
 27 H        2.6790    -2.3350     0.2340 H     1 <1>   0.1500 
 28 H        2.1840     1.3180     1.2650 H     1 <1>   0.0800 
 29 H       -0.2000    -4.2330     1.6960 H     1 <1>   0.0800 
 30 H        1.2130    -4.4820     0.7020 H     1 <1>   0.0800 
 31 H        1.9300     0.9190    -1.7300 H     1 <1>   0.0800 
 32 H        2.4100     2.4060    -0.9430 H     1 <1>   0.0800 
 33 H        0.7990     1.7810    -0.7150 H     1 <1>   0.0800 
 34 H        3.9710    -0.2200    -0.6400 H     1 <1>   0.0800 
 35 H        4.1400    -0.1730     1.1030 H     1 <1>   0.0800 
 36 H        4.3760     1.2760     0.1640 H     1 <1>   0.0800 
 37 H       -0.1900    -3.9940    -1.2390 H     1 <1>   0.4500 
 38 H       -2.1270    -3.3310     0.6890 H     1 <1>   0.0800 
 39 H       -2.2300    -3.1560    -1.0540 H     1 <1>   0.0800 
 40 H       -0.6730    -6.1500    -1.5460 H     1 <1>   0.0800 
 41 H        0.0780    -6.3800     0.0170 H     1 <1>   0.0800 
 42 H       -3.3640    -5.1430    -1.2940 H     1 <1>   0.0800 
 43 H       -1.9850    -6.3250     1.1250 H     1 <1>   0.0800 
 44 H       -3.7170    -4.9570     1.5260 H     1 <1>   0.4000 
 45 H       -2.7170    -7.5250    -1.5700 H     1 <1>   0.0800 
 46 H       -3.5990    -7.7660    -0.0960 H     1 <1>   0.0800 
 47 H       -3.0730    -9.6100     1.2320 H     1 <1>   0.1500 
 48 H       -1.5530   -11.4750     1.8190 H     1 <1>   0.1500 
 49 H        1.7840    -9.0910    -1.8260 H     1 <1>   0.1500 
 50 H        0.6690   -12.5630     1.4680 H     1 <1>   0.1500 
 51 H        3.4030   -10.8910    -1.3320 H     1 <1>   0.1500 
 52 H        2.8450   -12.6140     0.3130 H     1 <1>   0.1500 
@<TRIPOS>BOND
  1   1   2  1   
  2   1   3  1   
  3   2   4  2   
  4   3   5  2   
  5   3   6  1   
  6   4   5  1   
  7   4   7  1   
  8   5  27  1   
  9   6   8  1   
 10   6   9  1   
 11   6  28  1   
 12   7  10  1   
 13   7  29  1   
 14   7  30  1   
 15   8  31  1   
 16   8  32  1   
 17   8  33  1   
 18   9  34  1   
 19   9  35  1   
 20   9  36  1   
 21  10  11  1   
 22  10  12  1   
 23  10  37  1   
 24  11  13  1   
 25  11  38  1   
 26  11  39  1   
 27  12  14  1   
 28  12  40  1   
 29  12  41  1   
 30  13  14  1   
 31  13  15  1   
 32  13  42  1   
 33  14  16  1   
 34  14  43  1   
 35  15  44  1   
 36  16  17  1   
 37  16  45  1   
 38  16  46  1   
 39  17  18  ar  
 40  17  19  ar  
 41  18  20  ar  
 42  19  21  ar  
 43  19  47  1   
 44  20  22  ar  
 45  20  23  ar  
 46  21  22  ar  
 47  21  48  1   
 48  22  24  ar  
 49  23  25  ar  
 50  23  49  1   
 51  24  26  ar  
 52  24  50  1   
 53  25  26  ar  
 54  25  51  1   
 55  26  52  1   
@<TRIPOS>SUBSTRUCTURE
  1 ****  12 GROUP 4 **** **** 0

# MOE 2024.06 (io_trps.svl 2023.06)
