@<TRIPOS>MOLECULE
NONAME
45 46 1 0 0 
SMALL
USER_CHARGES


@<TRIPOS>ATOM
  1 S        0.6610     0.5490    -1.3690 S.o2  1 <1>   1.3330 
  2 O        0.8980    -0.8280    -1.7390 O.2   1 <1>  -0.6500 
  3 O       -0.0880     1.4110    -2.2550 O.2   1 <1>  -0.6500 
  4 N       -0.1420     0.5540     0.1300 N.am  1 <1>  -0.8490 
  5 C        2.2450     1.3070    -1.0030 C.3   1 <1>  -0.0550 
  6 C       -0.7760     1.8390     0.4440 C.3   1 <1>   0.1160 
  7 C       -1.1320    -0.5230     0.2290 C.3   1 <1>   0.1160 
  8 C        3.1810     0.4390    -0.1340 C.3   1 <1>  -0.0800 
  9 C        4.5810     1.0010     0.0590 C.3   1 <1>   0.2200 
 10 C        2.7100     0.2030     1.3070 C.3   1 <1>   0.1200 
 11 N        4.5320     2.4540     0.3540 N.am  1 <1>  -0.7300 
 12 C        5.0000     0.2650     1.3230 C.3   1 <1>   0.1200 
 13 O        3.8520     0.2380     2.1160 O.3   1 <1>  -0.5600 
 14 C        4.7550     3.4540    -0.5480 C.2   1 <1>   0.5440 
 15 O        4.9430     3.1410    -1.7070 O.2   1 <1>  -0.5700 
 16 C        4.7270     4.8480    -0.1450 C.ar  1 <1>   0.0860 
 17 C        4.4360     5.8510    -1.0710 C.ar  1 <1>  -0.1500 
 18 C        4.9810     5.2500     1.1700 C.ar  1 <1>  -0.1500 
 19 C        4.3920     7.1750    -0.6870 C.ar  1 <1>   0.1900 
 20 C        4.9350     6.5810     1.5490 C.ar  1 <1>  -0.1500 
 21 F        4.1030     8.0420    -1.6250 F     1 <1>  -0.1900 
 22 C        4.6370     7.5760     0.6310 C.ar  1 <1>   0.0820 
 23 O        4.6190     8.8430     1.1250 O.3   1 <1>  -0.3620 
 24 C        4.3730     9.9830     0.3310 C.3   1 <1>   0.0400 
 25 H        2.7450     1.5000    -1.9330 H     1 <1>   0.0800 
 26 H        2.0810     2.2540    -0.5300 H     1 <1>   0.0800 
 27 H       -1.1890     1.8140     1.4380 H     1 <1>   0.0800 
 28 H       -1.5670     2.0510    -0.2580 H     1 <1>   0.0800 
 29 H       -0.0520     2.6340     0.3970 H     1 <1>   0.0800 
 30 H       -1.6150    -0.5010     1.1900 H     1 <1>   0.0800 
 31 H       -0.6500    -1.4800     0.1180 H     1 <1>   0.0800 
 32 H       -1.8750    -0.4200    -0.5450 H     1 <1>   0.0800 
 33 H        3.2780    -0.5250    -0.6040 H     1 <1>   0.0800 
 34 H        5.2350     0.8000    -0.7730 H     1 <1>   0.0800 
 35 H        2.2290    -0.7540     1.4190 H     1 <1>   0.0800 
 36 H        2.0510     0.9820     1.6470 H     1 <1>   0.0800 
 37 H        4.2550     2.6660     1.3150 H     1 <1>   0.3700 
 38 H        5.7980     0.7570     1.8510 H     1 <1>   0.0800 
 39 H        5.2750    -0.7520     1.1020 H     1 <1>   0.0800 
 40 H        4.2440     5.5900    -2.0970 H     1 <1>   0.1500 
 41 H        5.2280     4.5130     1.9130 H     1 <1>   0.1500 
 42 H        5.1350     6.8630     2.5690 H     1 <1>   0.1500 
 43 H        4.4360    10.8500     0.9630 H     1 <1>   0.0800 
 44 H        3.3870     9.9100    -0.0900 H     1 <1>   0.0800 
 45 H        5.1200    10.0400    -0.4410 H     1 <1>   0.0800 
@<TRIPOS>BOND
  1   1   2  2   
  2   1   3  2   
  3   1   4  am  
  4   1   5  1   
  5   4   6  1   
  6   4   7  1   
  7   5   8  1   
  8   5  25  1   
  9   5  26  1   
 10   6  27  1   
 11   6  28  1   
 12   6  29  1   
 13   7  30  1   
 14   7  31  1   
 15   7  32  1   
 16   8   9  1   
 17   8  10  1   
 18   8  33  1   
 19   9  11  1   
 20   9  12  1   
 21   9  34  1   
 22  10  13  1   
 23  10  35  1   
 24  10  36  1   
 25  11  14  am  
 26  11  37  1   
 27  12  13  1   
 28  12  38  1   
 29  12  39  1   
 30  14  15  2   
 31  14  16  1   
 32  16  17  ar  
 33  16  18  ar  
 34  17  19  ar  
 35  17  40  1   
 36  18  20  ar  
 37  18  41  1   
 38  19  21  1   
 39  19  22  ar  
 40  20  22  ar  
 41  20  42  1   
 42  22  23  1   
 43  23  24  1   
 44  24  43  1   
 45  24  44  1   
 46  24  45  1   
@<TRIPOS>SUBSTRUCTURE
  1 ****  14 GROUP 4 **** **** 0

# MOE 2024.06 (io_trps.svl 2023.06)
