@<TRIPOS>MOLECULE
NONAME
53 55 1 0 0 
SMALL
USER_CHARGES


@<TRIPOS>ATOM
  1 S       -0.0220    -0.3720     1.1340 S.o2  1 <1>   1.4550 
  2 O        0.5350    -1.6650     1.4720 O.2   1 <1>  -0.6500 
  3 O       -0.8310     0.2790     2.1400 O.2   1 <1>  -0.6500 
  4 N       -0.9410    -0.5860    -0.2830 N.am  1 <1>  -0.8490 
  5 C        1.3470     0.6570     0.6330 C.2   1 <1>  -0.0030 
  6 C       -2.2380     0.1320    -0.2740 C.3   1 <1>   0.1960 
  7 C       -1.1800    -1.9920    -0.6610 C.3   1 <1>   0.1960 
  8 C        1.0570     1.9960     0.2580 C.2   1 <1>   0.6160 
  9 C        2.6240     0.2130     0.5900 C.2   1 <1>  -0.0410 
 10 C       -3.3360    -0.5910     0.5560 C.3   1 <1>   0.2950 
 11 C       -2.2590    -2.6590     0.2270 C.3   1 <1>   0.2000 
 12 O       -0.0780     2.4380     0.2370 O.2   1 <1>  -0.5700 
 13 N        2.1010     2.8340    -0.1130 N.am  1 <1>  -0.4200 
 14 N        3.6530     1.0450     0.1870 N.am  1 <1>  -0.4690 
 15 O       -3.4450    -1.9240     0.1410 O.3   1 <1>  -0.5600 
 16 C       -4.7410     0.0260     0.4360 C.3   1 <1>  -0.1950 
 17 C       -2.5960    -4.0910    -0.2070 C.3   1 <1>  -0.1600 
 18 C        3.3990     2.3600    -0.1790 C.2   1 <1>   0.6900 
 19 C        1.8180     4.2520    -0.4870 C.3   1 <1>   0.0600 
 20 C        5.0490     0.5330     0.1420 C.3   1 <1>   0.0600 
 21 C       -5.3420     0.5090    -0.8490 C.3   1 <1>  -0.2000 
 22 C       -4.9850     1.4910     0.2330 C.3   1 <1>  -0.2000 
 23 C       -1.4250    -5.0680    -0.0130 C.3   1 <1>  -0.1600 
 24 O        4.3070     3.0770    -0.5540 O.2   1 <1>  -0.5700 
 25 C       -1.8430    -6.5010    -0.3620 C.3   1 <1>  -0.1600 
 26 C       -0.6780    -7.4760    -0.1730 C.3   1 <1>  -0.2400 
 27 H       -2.1110     1.1280     0.1080 H     1 <1>   0.0800 
 28 H       -2.5800     0.2240    -1.2880 H     1 <1>   0.0800 
 29 H       -1.5170    -2.0250    -1.6830 H     1 <1>   0.0800 
 30 H       -0.2600    -2.5470    -0.6160 H     1 <1>   0.0800 
 31 H        2.8820    -0.7990     0.8660 H     1 <1>   0.1500 
 32 H       -3.0630    -0.5900     1.5960 H     1 <1>   0.0800 
 33 H       -1.9430    -2.6700     1.2560 H     1 <1>   0.0800 
 34 H       -5.4140    -0.4670     1.1160 H     1 <1>   0.1000 
 35 H       -3.4290    -4.4300     0.3850 H     1 <1>   0.0800 
 36 H       -2.8980    -4.0880    -1.2400 H     1 <1>   0.0800 
 37 H        1.0070     4.6410     0.1050 H     1 <1>   0.0800 
 38 H        1.5490     4.3010    -1.5270 H     1 <1>   0.0800 
 39 H        2.6820     4.8700    -0.3180 H     1 <1>   0.0800 
 40 H        5.0910    -0.4940     0.4600 H     1 <1>   0.0800 
 41 H        5.6710     1.1270     0.7890 H     1 <1>   0.0800 
 42 H        5.4260     0.6060    -0.8640 H     1 <1>   0.0800 
 43 H       -4.7580     0.4900    -1.7520 H     1 <1>   0.1000 
 44 H       -6.3800     0.2920    -1.0350 H     1 <1>   0.1000 
 45 H       -5.7810     1.9580     0.7880 H     1 <1>   0.1000 
 46 H       -4.1670     2.1670     0.0560 H     1 <1>   0.1000 
 47 H       -0.5980    -4.7850    -0.6400 H     1 <1>   0.0800 
 48 H       -1.0960    -5.0330     1.0120 H     1 <1>   0.0800 
 49 H       -2.6620    -6.8040     0.2690 H     1 <1>   0.0800 
 50 H       -2.1780    -6.5430    -1.3850 H     1 <1>   0.0800 
 51 H       -0.3410    -7.4670     0.8490 H     1 <1>   0.0800 
 52 H        0.1460    -7.2080    -0.8120 H     1 <1>   0.0800 
 53 H       -0.9900    -8.4760    -0.4200 H     1 <1>   0.0800 
@<TRIPOS>BOND
  1   1   2  2   
  2   1   3  2   
  3   1   4  am  
  4   1   5  1   
  5   4   6  1   
  6   4   7  1   
  7   5   8  1   
  8   5   9  2   
  9   6  10  1   
 10   6  27  1   
 11   6  28  1   
 12   7  11  1   
 13   7  29  1   
 14   7  30  1   
 15   8  12  2   
 16   8  13  am  
 17   9  14  1   
 18   9  31  1   
 19  10  15  1   
 20  10  16  1   
 21  10  32  1   
 22  11  15  1   
 23  11  17  1   
 24  11  33  1   
 25  13  18  am  
 26  13  19  1   
 27  14  18  am  
 28  14  20  1   
 29  16  21  1   
 30  16  22  1   
 31  16  34  1   
 32  17  23  1   
 33  17  35  1   
 34  17  36  1   
 35  18  24  2   
 36  19  37  1   
 37  19  38  1   
 38  19  39  1   
 39  20  40  1   
 40  20  41  1   
 41  20  42  1   
 42  21  22  1   
 43  21  43  1   
 44  21  44  1   
 45  22  45  1   
 46  22  46  1   
 47  23  25  1   
 48  23  47  1   
 49  23  48  1   
 50  25  26  1   
 51  25  49  1   
 52  25  50  1   
 53  26  51  1   
 54  26  52  1   
 55  26  53  1   
@<TRIPOS>SUBSTRUCTURE
  1 ****   4 GROUP 4 **** **** 0

# MOE 2024.06 (io_trps.svl 2023.06)
