@<TRIPOS>MOLECULE
NONAME
53 54 1 0 0 
SMALL
USER_CHARGES


@<TRIPOS>ATOM
  1 S        0.2790     0.0960     0.4810 S.o2  1 <1>   1.3330 
  2 O       -0.1560     1.1420     1.3800 O.2   1 <1>  -0.6500 
  3 O        0.4690    -1.2450     0.9890 O.2   1 <1>  -0.6500 
  4 N       -0.8220     0.0080    -0.8090 N.am  1 <1>  -0.8490 
  5 C        1.7930     0.6340    -0.3110 C.3   1 <1>  -0.0550 
  6 C       -2.2040     0.2390    -0.3780 C.3   1 <1>   0.1160 
  7 C       -0.7360    -1.2440    -1.5670 C.3   1 <1>   0.1160 
  8 C        2.9300     0.9250     0.6830 C.3   1 <1>  -0.0800 
  9 C        4.2150     1.3440    -0.0220 C.3   1 <1>   0.2200 
 10 C        3.3700    -0.2690     1.5260 C.3   1 <1>   0.1200 
 11 N        4.3990     2.8050     0.1120 N.am  1 <1>  -0.7300 
 12 C        5.3120     0.5530     0.6950 C.3   1 <1>   0.1200 
 13 O        4.7090    -0.0250     1.8080 O.3   1 <1>  -0.5600 
 14 C        4.0410     3.7190    -0.8380 C.2   1 <1>   0.5440 
 15 O        3.5720     3.3030    -1.8800 O.2   1 <1>  -0.5700 
 16 C        4.2190     5.1440    -0.6120 C.ar  1 <1>   0.0860 
 17 C        4.3800     6.0210    -1.6850 C.ar  1 <1>  -0.1500 
 18 C        4.2400     5.6990     0.6700 C.ar  1 <1>  -0.1500 
 19 C        4.5640     7.3780    -1.4930 C.ar  1 <1>  -0.1500 
 20 C        4.4250     7.0560     0.8680 C.ar  1 <1>  -0.1500 
 21 C        4.5890     7.9060    -0.2130 C.ar  1 <1>  -0.1440 
 22 C        4.7930     9.3970     0.0010 C.3   1 <1>  -0.0170 
 23 C        6.2850     9.7230     0.1360 C.3   1 <1>  -0.1600 
 24 C        6.5170    11.2240     0.3520 C.3   1 <1>  -0.1600 
 25 C        8.0100    11.5360     0.4840 C.3   1 <1>  -0.2400 
 26 H        2.1120    -0.1140    -1.0100 H     1 <1>   0.0800 
 27 H        1.5920     1.5320    -0.8650 H     1 <1>   0.0800 
 28 H       -2.8710     0.1940    -1.2210 H     1 <1>   0.0800 
 29 H       -2.2920     1.2160     0.0670 H     1 <1>   0.0800 
 30 H       -2.4980    -0.5000     0.3500 H     1 <1>   0.0800 
 31 H       -1.3910    -1.2040    -2.4210 H     1 <1>   0.0800 
 32 H       -1.0180    -2.0800    -0.9480 H     1 <1>   0.0800 
 33 H        0.2690    -1.3970    -1.9190 H     1 <1>   0.0800 
 34 H        2.6110     1.6970     1.3620 H     1 <1>   0.0800 
 35 H        4.2100     1.0690    -1.0640 H     1 <1>   0.0800 
 36 H        3.3070    -1.1950     0.9780 H     1 <1>   0.0800 
 37 H        2.8210    -0.3500     2.4490 H     1 <1>   0.0800 
 38 H        4.7680     3.1190     1.0100 H     1 <1>   0.3700 
 39 H        6.1310     1.1700     1.0170 H     1 <1>   0.0800 
 40 H        5.6730    -0.2430     0.0680 H     1 <1>   0.0800 
 41 H        4.3590     5.6260    -2.6860 H     1 <1>   0.1500 
 42 H        4.1010     5.0670     1.5270 H     1 <1>   0.1500 
 43 H        4.6880     8.0230    -2.3450 H     1 <1>   0.1500 
 44 H        4.4410     7.4530     1.8680 H     1 <1>   0.1500 
 45 H        4.3760     9.9400    -0.8290 H     1 <1>   0.0800 
 46 H        4.2710     9.7080     0.8890 H     1 <1>   0.0800 
 47 H        6.6930     9.1720     0.9660 H     1 <1>   0.0800 
 48 H        6.7970     9.4050    -0.7560 H     1 <1>   0.0800 
 49 H        6.1130    11.7770    -0.4790 H     1 <1>   0.0800 
 50 H        6.0080    11.5450     1.2460 H     1 <1>   0.0800 
 51 H        8.5360    11.2440    -0.4070 H     1 <1>   0.0800 
 52 H        8.4320    11.0110     1.3240 H     1 <1>   0.0800 
 53 H        8.1530    12.5910     0.6350 H     1 <1>   0.0800 
@<TRIPOS>BOND
  1   1   2  2   
  2   1   3  2   
  3   1   4  am  
  4   1   5  1   
  5   4   6  1   
  6   4   7  1   
  7   5   8  1   
  8   5  26  1   
  9   5  27  1   
 10   6  28  1   
 11   6  29  1   
 12   6  30  1   
 13   7  31  1   
 14   7  32  1   
 15   7  33  1   
 16   8   9  1   
 17   8  10  1   
 18   8  34  1   
 19   9  11  1   
 20   9  12  1   
 21   9  35  1   
 22  10  13  1   
 23  10  36  1   
 24  10  37  1   
 25  11  14  am  
 26  11  38  1   
 27  12  13  1   
 28  12  39  1   
 29  12  40  1   
 30  14  15  2   
 31  14  16  1   
 32  16  17  ar  
 33  16  18  ar  
 34  17  19  ar  
 35  17  41  1   
 36  18  20  ar  
 37  18  42  1   
 38  19  21  ar  
 39  19  43  1   
 40  20  21  ar  
 41  20  44  1   
 42  21  22  1   
 43  22  23  1   
 44  22  45  1   
 45  22  46  1   
 46  23  24  1   
 47  23  47  1   
 48  23  48  1   
 49  24  25  1   
 50  24  49  1   
 51  24  50  1   
 52  25  51  1   
 53  25  52  1   
 54  25  53  1   
@<TRIPOS>SUBSTRUCTURE
  1 ****  14 GROUP 4 **** **** 0

# MOE 2024.06 (io_trps.svl 2023.06)
