@<TRIPOS>MOLECULE
NONAME
51 52 1 0 0 
SMALL
USER_CHARGES


@<TRIPOS>ATOM
  1 S        0.9130     0.2270     0.3580 S.o2  1 <1>   1.3330 
  2 O        1.3000     0.2850     1.7500 O.2   1 <1>  -0.6500 
  3 O        1.9270     0.1150    -0.6660 O.2   1 <1>  -0.6500 
  4 N       -0.1750    -1.0600     0.1570 N.am  1 <1>  -0.8490 
  5 C       -0.1040     1.6610     0.0190 C.3   1 <1>  -0.0550 
  6 C       -0.3170    -1.4920    -1.2370 C.3   1 <1>   0.1160 
  7 C        0.1600    -2.2090     1.0030 C.3   1 <1>   0.1160 
  8 C        0.6350     2.9920     0.2380 C.3   1 <1>  -0.0800 
  9 C       -0.2780     4.2000     0.0540 C.3   1 <1>   0.2000 
 10 C        1.7820     3.2450    -0.7420 C.3   1 <1>   0.1400 
 11 O       -0.9940     4.4380     1.2150 O.3   1 <1>  -0.6800 
 12 C        0.6500     5.3620    -0.2900 C.3   1 <1>   0.1400 
 13 N        1.8510     4.7200    -0.8780 N.am  1 <1>  -0.6600 
 14 C        2.8960     5.3430    -1.5160 C.2   1 <1>   0.5690 
 15 O        3.7560     4.6930    -2.0650 O.2   1 <1>  -0.5700 
 16 C        2.9820     6.8780    -1.5970 C.3   1 <1>   0.1710 
 17 N        3.8300     7.5450    -0.5650 N.3   1 <1>  -0.8100 
 18 C        4.0060     8.9760    -0.8660 C.3   1 <1>   0.2530 
 19 C        3.3510     7.3190     0.8060 C.3   1 <1>   0.0300 
 20 C        5.0970     9.5940     0.0000 C.ar  1 <1>  -0.1440 
 21 C        6.3330     8.9960     0.1450 C.ar  1 <1>  -0.1500 
 22 C        4.9150    10.7820     0.6780 C.ar  1 <1>  -0.1500 
 23 C        7.2980     9.5950     0.9360 C.ar  1 <1>   0.1600 
 24 C        5.9470    11.2990     1.4440 C.ar  1 <1>   0.1600 
 25 N        7.1360    10.7350     1.5890 N.ar  1 <1>  -0.6200 
 26 H       -0.4660     1.6140    -0.9890 H     1 <1>   0.0800 
 27 H       -0.9550     1.6340     0.6730 H     1 <1>   0.0800 
 28 H       -1.0830    -2.2450    -1.3150 H     1 <1>   0.0800 
 29 H        0.6120    -1.8990    -1.6020 H     1 <1>   0.0800 
 30 H       -0.5970    -0.6590    -1.8590 H     1 <1>   0.0800 
 31 H       -0.5570    -2.9990     0.8630 H     1 <1>   0.0800 
 32 H        0.1430    -1.9210     2.0410 H     1 <1>   0.0800 
 33 H        1.1450    -2.5760     0.7630 H     1 <1>   0.0800 
 34 H        1.0540     3.0090     1.2300 H     1 <1>   0.0800 
 35 H       -0.9780     4.0450    -0.7510 H     1 <1>   0.0800 
 36 H        1.5760     2.8150    -1.7080 H     1 <1>   0.0800 
 37 H        2.7160     2.8510    -0.3750 H     1 <1>   0.0800 
 38 H       -0.3990     4.4610     1.9900 H     1 <1>   0.4000 
 39 H        0.9290     5.8980     0.5990 H     1 <1>   0.0800 
 40 H        0.1830     6.0220    -0.9990 H     1 <1>   0.0800 
 41 H        1.9930     7.2930    -1.5680 H     1 <1>   0.0800 
 42 H        3.3930     7.1030    -2.5650 H     1 <1>   0.0800 
 43 H        4.2980     9.0900    -1.8960 H     1 <1>   0.0800 
 44 H        3.0750     9.4960    -0.7190 H     1 <1>   0.0800 
 45 H        4.0330     7.7580     1.5140 H     1 <1>   0.0800 
 46 H        3.3060     6.2630     1.0100 H     1 <1>   0.0800 
 47 H        2.3770     7.7540     0.9440 H     1 <1>   0.0800 
 48 H        6.5400     8.0630    -0.3500 H     1 <1>   0.1500 
 49 H        3.9820    11.3120     0.6200 H     1 <1>   0.1500 
 50 H        8.2530     9.1090     1.0360 H     1 <1>   0.1500 
 51 H        5.7870    12.2270     1.9660 H     1 <1>   0.1500 
@<TRIPOS>BOND
  1   1   2  2   
  2   1   3  2   
  3   1   4  am  
  4   1   5  1   
  5   4   6  1   
  6   4   7  1   
  7   5   8  1   
  8   5  26  1   
  9   5  27  1   
 10   6  28  1   
 11   6  29  1   
 12   6  30  1   
 13   7  31  1   
 14   7  32  1   
 15   7  33  1   
 16   8   9  1   
 17   8  10  1   
 18   8  34  1   
 19   9  11  1   
 20   9  12  1   
 21   9  35  1   
 22  10  13  1   
 23  10  36  1   
 24  10  37  1   
 25  11  38  1   
 26  12  13  1   
 27  12  39  1   
 28  12  40  1   
 29  13  14  am  
 30  14  15  2   
 31  14  16  1   
 32  16  17  1   
 33  16  41  1   
 34  16  42  1   
 35  17  18  1   
 36  17  19  1   
 37  18  20  1   
 38  18  43  1   
 39  18  44  1   
 40  19  45  1   
 41  19  46  1   
 42  19  47  1   
 43  20  21  ar  
 44  20  22  ar  
 45  21  23  ar  
 46  21  48  1   
 47  22  24  ar  
 48  22  49  1   
 49  23  25  ar  
 50  23  50  1   
 51  24  25  ar  
 52  24  51  1   
@<TRIPOS>SUBSTRUCTURE
  1 ****  13 GROUP 4 **** **** 0

# MOE 2024.06 (io_trps.svl 2023.06)
