@<TRIPOS>MOLECULE
NONAME
59 62 1 0 0 
SMALL
USER_CHARGES


@<TRIPOS>ATOM
  1 O        4.3810     0.9110     1.4150 O.co2 1 <1>  -0.9000 
  2 C        3.3480     1.4730     1.0120 C.2   1 <1>   0.9060 
  3 O        3.2280     2.6910     1.1290 O.co2 1 <1>  -0.9000 
  4 C        2.3830     0.7040     0.0980 C.3   1 <1>  -0.1060 
  5 C        3.1240    -0.4540    -0.5840 C.3   1 <1>   0.4230 
  6 C        1.8730     1.6030    -1.0560 C.3   1 <1>  -0.1600 
  7 C        1.1920     0.1470     0.9080 C.3   1 <1>  -0.1600 
  8 N        3.6250    -1.4290     0.4540 N.4   1 <1>  -0.9590 
  9 C        4.1780     0.0580    -1.6360 C.3   1 <1>   0.3430 
 10 C        2.9980     2.3100    -1.8360 C.3   1 <1>   0.3430 
 11 C        1.6690    -0.9130     1.9130 C.3   1 <1>  -0.1600 
 12 C        2.5040    -2.0140     1.2530 C.3   1 <1>   0.3430 
 13 C        4.5400    -2.5110    -0.0170 C.3   1 <1>   0.2630 
 14 N        4.3220     1.5630    -1.9010 N.4   1 <1>  -0.9590 
 15 C        5.3200     2.3030    -1.0360 C.3   1 <1>   0.4230 
 16 C        5.7510     3.6430    -1.6230 C.3   1 <1>  -0.1600 
 17 C        6.5670     1.5410    -0.5900 C.3   1 <1>  -0.1600 
 18 C        6.3420     4.4560    -0.4700 C.3   1 <1>   0.3430 
 19 C        7.1310     2.3240     0.5950 C.3   1 <1>   0.3430 
 20 N        7.4730     3.7160     0.1750 N.4   1 <1>  -0.9590 
 21 C        7.9740     4.4980     1.3460 C.3   1 <1>   0.5230 
 22 C        8.9840     5.5200     0.8540 C.2   1 <1>  -0.0400 
 23 O        8.6230     6.3930    -0.0690 O.3   1 <1>  -0.2800 
 24 C       10.2750     5.7130     1.2050 C.2   1 <1>  -0.1500 
 25 C        9.6650     7.1600    -0.3230 C.2   1 <1>  -0.0100 
 26 C       10.7210     6.7920     0.4310 C.2   1 <1>  -0.1500 
 27 H        2.3860    -0.9850    -1.1620 H     1 <1>   0.0800 
 28 H        1.2310     2.3680    -0.6500 H     1 <1>   0.0800 
 29 H        1.2720     1.0320    -1.7420 H     1 <1>   0.0800 
 30 H        0.7080     0.9510     1.4410 H     1 <1>   0.0800 
 31 H        0.4630    -0.2920     0.2480 H     1 <1>   0.0800 
 32 H        4.1400    -0.7980     1.1240 H     1 <1>   0.4500 
 33 H        3.8880    -0.3930    -2.5700 H     1 <1>   0.0800 
 34 H        5.1360    -0.3590    -1.3940 H     1 <1>   0.0800 
 35 H        3.1570     3.2610    -1.3520 H     1 <1>   0.0800 
 36 H        2.6460     2.5190    -2.8330 H     1 <1>   0.0800 
 37 H        0.8140    -1.3600     2.3900 H     1 <1>   0.0800 
 38 H        2.2520    -0.4480     2.6900 H     1 <1>   0.0800 
 39 H        1.8700    -2.6040     0.6110 H     1 <1>   0.0800 
 40 H        2.8990    -2.6600     2.0220 H     1 <1>   0.0800 
 41 H        4.0370    -3.1460    -0.7300 H     1 <1>   0.0800 
 42 H        4.8530    -3.1170     0.8180 H     1 <1>   0.0800 
 43 H        5.4200    -2.0930    -0.4750 H     1 <1>   0.0800 
 44 H        4.6720     1.6670    -2.8630 H     1 <1>   0.4500 
 45 H        4.8300     2.5770    -0.1330 H     1 <1>   0.0800 
 46 H        6.4770     3.5230    -2.4070 H     1 <1>   0.0800 
 47 H        4.9130     4.1930    -2.0100 H     1 <1>   0.0800 
 48 H        6.3330     0.5670    -0.2080 H     1 <1>   0.0800 
 49 H        7.2960     1.4500    -1.3750 H     1 <1>   0.0800 
 50 H        5.5690     4.6380     0.2630 H     1 <1>   0.0800 
 51 H        6.6830     5.4120    -0.8380 H     1 <1>   0.0800 
 52 H        8.0060     1.8250     0.9800 H     1 <1>   0.0800 
 53 H        6.3860     2.3500     1.3800 H     1 <1>   0.0800 
 54 H        8.2650     3.7040    -0.4830 H     1 <1>   0.4500 
 55 H        7.1580     4.9930     1.8470 H     1 <1>   0.0800 
 56 H        8.4610     3.8440     2.0510 H     1 <1>   0.0800 
 57 H       10.8810     5.1840     1.9220 H     1 <1>   0.1500 
 58 H        9.5720     7.9480    -1.0520 H     1 <1>   0.1500 
 59 H       11.7100     7.2180     0.4580 H     1 <1>   0.1500 
@<TRIPOS>BOND
  1   1   2  ar  
  2   2   3  ar  
  3   2   4  1   
  4   4   5  1   
  5   4   6  1   
  6   4   7  1   
  7   5   8  1   
  8   5   9  1   
  9   5  27  1   
 10   6  10  1   
 11   6  28  1   
 12   6  29  1   
 13   7  11  1   
 14   7  30  1   
 15   7  31  1   
 16   8  12  1   
 17   8  13  1   
 18   8  32  1   
 19   9  14  1   
 20   9  33  1   
 21   9  34  1   
 22  10  14  1   
 23  10  35  1   
 24  10  36  1   
 25  11  12  1   
 26  11  37  1   
 27  11  38  1   
 28  12  39  1   
 29  12  40  1   
 30  13  41  1   
 31  13  42  1   
 32  13  43  1   
 33  14  15  1   
 34  14  44  1   
 35  15  16  1   
 36  15  17  1   
 37  15  45  1   
 38  16  18  1   
 39  16  46  1   
 40  16  47  1   
 41  17  19  1   
 42  17  48  1   
 43  17  49  1   
 44  18  20  1   
 45  18  50  1   
 46  18  51  1   
 47  19  20  1   
 48  19  52  1   
 49  19  53  1   
 50  20  21  1   
 51  20  54  1   
 52  21  22  1   
 53  21  55  1   
 54  21  56  1   
 55  22  23  1   
 56  22  24  2   
 57  23  25  1   
 58  24  26  1   
 59  24  57  1   
 60  25  26  2   
 61  25  58  1   
 62  26  59  1   
@<TRIPOS>SUBSTRUCTURE
  1 ****  15 GROUP 4 **** **** 0

# MOE 2024.06 (io_trps.svl 2023.06)
