@<TRIPOS>MOLECULE
NONAME
41 42 1 0 0 
SMALL
USER_CHARGES


@<TRIPOS>ATOM
  1 S        0.2940     0.2150    -1.1940 S.3   1 <1>  -0.3320 
  2 C        0.3070    -1.4780    -0.5760 C.ar  1 <1>   0.1020 
  3 C        1.4110     1.1860    -0.0930 C.3   1 <1>   0.0700 
  4 C        1.0420    -1.8540     0.5360 C.ar  1 <1>  -0.1500 
  5 C       -0.4570    -2.4020    -1.2640 C.ar  1 <1>  -0.1500 
  6 C        1.4310     2.6280    -0.5990 C.3   1 <1>  -0.1600 
  7 C        1.0070    -3.1740     0.9570 C.ar  1 <1>  -0.1500 
  8 C       -0.4860    -3.7190    -0.8380 C.ar  1 <1>  -0.1500 
  9 C        2.3510     3.4920     0.2620 C.3   1 <1>   0.2090 
 10 C        0.2460    -4.1100     0.2730 C.ar  1 <1>  -0.1430 
 11 N        2.3760     4.8730    -0.2740 N.pl3 1 <1>  -0.8380 
 12 C        0.2110    -5.5540     0.7400 C.3   1 <1>  -0.0970 
 13 C        3.5580     5.3960    -0.7590 C.ar  1 <1>   0.4100 
 14 C        1.3350     5.7890     0.2720 C.3   1 <1>   0.1290 
 15 N        3.9720     6.5520    -0.2780 N.ar  1 <1>  -0.6200 
 16 C        4.2960     4.7290    -1.7190 C.ar  1 <1>  -0.1500 
 17 C        5.1120     7.0070    -0.7580 C.ar  1 <1>   0.4770 
 18 C        5.4630     5.2990    -2.1440 C.ar  1 <1>   0.1600 
 19 N        5.8930     6.4500    -1.6670 N.ar  1 <1>  -0.6200 
 20 C        5.5860     8.3300    -0.2080 C.3   1 <1>  -0.0970 
 21 H        2.3850     0.7330    -0.1470 H     1 <1>   0.0800 
 22 H        1.0130     1.1210     0.9040 H     1 <1>   0.0800 
 23 H        1.6370    -1.1490     1.0800 H     1 <1>   0.1500 
 24 H       -1.0220    -2.0920    -2.1240 H     1 <1>   0.1500 
 25 H        0.4330     3.0260    -0.5690 H     1 <1>   0.0800 
 26 H        1.7780     2.6420    -1.6160 H     1 <1>   0.0800 
 27 H        1.5760    -3.4700     1.8210 H     1 <1>   0.1500 
 28 H       -1.0830    -4.4360    -1.3740 H     1 <1>   0.1500 
 29 H        3.3480     3.0830     0.2610 H     1 <1>   0.0800 
 30 H        2.0020     3.5080     1.2810 H     1 <1>   0.0800 
 31 H        1.1430    -5.8210     1.2060 H     1 <1>   0.0800 
 32 H        0.0480    -6.2140    -0.0920 H     1 <1>   0.0800 
 33 H       -0.5840    -5.6860     1.4510 H     1 <1>   0.0800 
 34 H        0.3610     5.3410     0.1810 H     1 <1>   0.0800 
 35 H        1.3380     6.7160    -0.2760 H     1 <1>   0.0800 
 36 H        1.5400     5.9980     1.3070 H     1 <1>   0.0800 
 37 H        3.9470     3.7980    -2.1160 H     1 <1>   0.1500 
 38 H        6.0640     4.8120    -2.8920 H     1 <1>   0.1500 
 39 H        5.0610     8.5700     0.6980 H     1 <1>   0.0800 
 40 H        5.4070     9.0990    -0.9340 H     1 <1>   0.0800 
 41 H        6.6380     8.2790     0.0020 H     1 <1>   0.0800 
@<TRIPOS>BOND
  1   1   2  1   
  2   1   3  1   
  3   2   4  ar  
  4   2   5  ar  
  5   3   6  1   
  6   3  21  1   
  7   3  22  1   
  8   4   7  ar  
  9   4  23  1   
 10   5   8  ar  
 11   5  24  1   
 12   6   9  1   
 13   6  25  1   
 14   6  26  1   
 15   7  10  ar  
 16   7  27  1   
 17   8  10  ar  
 18   8  28  1   
 19   9  11  1   
 20   9  29  1   
 21   9  30  1   
 22  10  12  1   
 23  11  13  1   
 24  11  14  1   
 25  12  31  1   
 26  12  32  1   
 27  12  33  1   
 28  13  15  ar  
 29  13  16  ar  
 30  14  34  1   
 31  14  35  1   
 32  14  36  1   
 33  15  17  ar  
 34  16  18  ar  
 35  16  37  1   
 36  17  19  ar  
 37  17  20  1   
 38  18  19  ar  
 39  18  38  1   
 40  20  39  1   
 41  20  40  1   
 42  20  41  1   
@<TRIPOS>SUBSTRUCTURE
  1 ****   6 GROUP 4 **** **** 0

# MOE 2024.06 (io_trps.svl 2023.06)
