@<TRIPOS>MOLECULE
NONAME
50 52 1 0 0 
SMALL
USER_CHARGES


@<TRIPOS>ATOM
  1 O        1.1710    -2.4270     3.9660 O.3   1 <1>  -0.8290 
  2 C        1.8440    -2.3650     2.9290 C.ar  1 <1>   0.4490 
  3 N        1.9160    -3.4810     2.1910 N.ar  1 <1>  -0.6200 
  4 N        2.3750    -1.1710     2.6080 N.ar  1 <1>  -0.6200 
  5 C        2.5040    -3.3830     1.0160 C.ar  1 <1>   0.3960 
  6 C        2.9860    -1.1000     1.4620 C.ar  1 <1>   0.1660 
  7 C        2.5450    -4.5170     0.0920 C.2   1 <1>   0.5440 
  8 C        3.0850    -2.1870     0.6290 C.ar  1 <1>  -0.1500 
  9 C        3.5750     0.2400     1.0510 C.3   1 <1>  -0.0170 
 10 O        3.6150    -4.8360    -0.4080 O.2   1 <1>  -0.5700 
 11 N        1.4260    -5.2410    -0.3050 N.am  1 <1>  -0.6600 
 12 C        2.7490     0.9340    -0.0510 C.3   1 <1>  -0.0800 
 13 C        0.0650    -4.6860    -0.5730 C.3   1 <1>   0.2200 
 14 C        1.5720    -6.6810    -0.6480 C.3   1 <1>   0.0600 
 15 C        3.4460     2.2200    -0.5120 C.3   1 <1>  -0.2400 
 16 C        1.3280     1.2620     0.4300 C.3   1 <1>  -0.2400 
 17 C       -0.8120    -4.5220     0.6710 C.3   1 <1>  -0.1600 
 18 C        0.0560    -3.3370    -1.2900 C.3   1 <1>  -0.1600 
 19 C       -1.5790    -3.1980     0.4950 C.3   1 <1>  -0.0800 
 20 C       -1.3180    -2.7500    -0.9570 C.3   1 <1>  -0.0800 
 21 C       -1.1500    -2.1210     1.5050 C.3   1 <1>   0.1400 
 22 C       -1.4010    -1.2220    -1.2110 C.3   1 <1>  -0.0990 
 23 N       -1.8920    -0.8850     1.1780 N.am  1 <1>  -0.7300 
 24 C       -2.0460    -0.4370    -0.0830 C.2   1 <1>   0.5690 
 25 O       -2.6510     0.5770    -0.3260 O.2   1 <1>  -0.5700 
 26 H        3.5920    -2.1230    -0.3130 H     1 <1>   0.1500 
 27 H        3.6320     0.8750     1.9180 H     1 <1>   0.0800 
 28 H        4.5790     0.0750     0.7050 H     1 <1>   0.0800 
 29 H        2.6740     0.2690    -0.8940 H     1 <1>   0.0800 
 30 H       -0.4500    -5.3710    -1.2260 H     1 <1>   0.0800 
 31 H        0.7830    -7.2470    -0.1840 H     1 <1>   0.0800 
 32 H        2.5160    -7.0560    -0.2900 H     1 <1>   0.0800 
 33 H        1.5300    -6.8060    -1.7150 H     1 <1>   0.0800 
 34 H        3.5350     2.9140     0.3060 H     1 <1>   0.0800 
 35 H        2.8800     2.6880    -1.2980 H     1 <1>   0.0800 
 36 H        4.4290     2.0000    -0.8870 H     1 <1>   0.0800 
 37 H        1.3580     1.9160     1.2840 H     1 <1>   0.0800 
 38 H        0.8110     0.3650     0.7230 H     1 <1>   0.0800 
 39 H        0.7590     1.7360    -0.3490 H     1 <1>   0.0800 
 40 H       -1.5080    -5.3400     0.7180 H     1 <1>   0.0800 
 41 H       -0.2440    -4.5280     1.5800 H     1 <1>   0.0800 
 42 H        0.8160    -2.6920    -0.8940 H     1 <1>   0.0800 
 43 H        0.1960    -3.4530    -2.3490 H     1 <1>   0.0800 
 44 H       -2.6310    -3.3770     0.6400 H     1 <1>   0.0800 
 45 H       -2.0520    -3.2370    -1.5770 H     1 <1>   0.0800 
 46 H       -0.0990    -1.9220     1.4140 H     1 <1>   0.0800 
 47 H       -1.3520    -2.4290     2.5170 H     1 <1>   0.0800 
 48 H       -1.9500    -1.0380    -2.1160 H     1 <1>   0.0800 
 49 H       -0.4180    -0.8120    -1.3440 H     1 <1>   0.0800 
 50 H       -2.1470    -0.2760     1.9570 H     1 <1>   0.3700 
@<TRIPOS>BOND
  1   1   2  1   
  2   2   3  ar  
  3   2   4  ar  
  4   3   5  ar  
  5   4   6  ar  
  6   5   7  1   
  7   5   8  ar  
  8   6   8  ar  
  9   6   9  1   
 10   7  10  2   
 11   7  11  am  
 12   8  26  1   
 13   9  12  1   
 14   9  27  1   
 15   9  28  1   
 16  11  13  1   
 17  11  14  1   
 18  12  15  1   
 19  12  16  1   
 20  12  29  1   
 21  13  17  1   
 22  13  18  1   
 23  13  30  1   
 24  14  31  1   
 25  14  32  1   
 26  14  33  1   
 27  15  34  1   
 28  15  35  1   
 29  15  36  1   
 30  16  37  1   
 31  16  38  1   
 32  16  39  1   
 33  17  19  1   
 34  17  40  1   
 35  17  41  1   
 36  18  20  1   
 37  18  42  1   
 38  18  43  1   
 39  19  20  1   
 40  19  21  1   
 41  19  44  1   
 42  20  22  1   
 43  20  45  1   
 44  21  23  1   
 45  21  46  1   
 46  21  47  1   
 47  22  24  1   
 48  22  48  1   
 49  22  49  1   
 50  23  24  am  
 51  23  50  1   
 52  24  25  2   
@<TRIPOS>SUBSTRUCTURE
  1 ****   5 GROUP 4 **** **** 0

# MOE 2024.06 (io_trps.svl 2023.06)
