@<TRIPOS>MOLECULE
NONAME
52 54 1 0 0 
SMALL
USER_CHARGES


@<TRIPOS>ATOM
  1 O        0.0460     1.4310    -2.2270 O.2   1 <1>  -0.5700 
  2 C        0.7990     2.2250    -1.7230 C.2   1 <1>   0.5690 
  3 N        1.8820     1.9270    -0.9660 N.am  1 <1>  -0.6600 
  4 C        0.6380     3.7090    -1.8780 C.3   1 <1>  -0.0990 
  5 C        2.6180     3.1270    -0.5320 C.3   1 <1>   0.3000 
  6 C        2.3260     0.5340    -0.6740 C.3   1 <1>   0.0600 
  7 C        1.6230     4.2730    -0.8440 C.3   1 <1>  -0.1600 
  8 C        3.9030     3.2480    -1.3630 C.3   1 <1>  -0.1600 
  9 C        2.9640     3.0540     0.9610 C.3   1 <1>  -0.1600 
 10 C        4.7420     4.4430    -0.9240 C.3   1 <1>   0.3430 
 11 C        3.7710     4.2750     1.3900 C.3   1 <1>   0.3430 
 12 N        4.9790     4.3880     0.5440 N.4   1 <1>  -0.9590 
 13 C        5.9590     5.4530     1.0150 C.3   1 <1>   0.4610 
 14 C        5.6820     6.7700     0.2730 C.ar  1 <1>  -0.1440 
 15 C        7.3960     4.8750     0.9220 C.2   1 <1>   0.9060 
 16 C        4.5720     7.5250     0.6280 C.ar  1 <1>  -0.1500 
 17 C        6.4970     7.2220    -0.7590 C.ar  1 <1>  -0.1500 
 18 O        8.3940     5.5600     1.1500 O.co2 1 <1>  -0.9000 
 19 O        7.4570     3.6650     0.6330 O.co2 1 <1>  -0.9000 
 20 C        4.2570     8.6930    -0.0450 C.ar  1 <1>   0.0820 
 21 C        6.1850     8.3840    -1.4440 C.ar  1 <1>  -0.1500 
 22 O        3.1660     9.3740     0.3810 O.3   1 <1>  -0.3630 
 23 C        5.0580     9.1150    -1.1110 C.ar  1 <1>   0.0820 
 24 C        3.3950    10.6650     0.9050 C.3   1 <1>   0.0400 
 25 O        4.7880    10.2190    -1.8490 O.3   1 <1>  -0.3630 
 26 C        3.6140    10.1900    -2.6300 C.3   1 <1>   0.0400 
 27 H       -0.3760     4.0050    -1.6800 H     1 <1>   0.0800 
 28 H        0.9160     3.9840    -2.8790 H     1 <1>   0.0800 
 29 H        1.7060    -0.1690    -1.2060 H     1 <1>   0.0800 
 30 H        2.2380     0.3320     0.3790 H     1 <1>   0.0800 
 31 H        3.3450     0.3910    -0.9840 H     1 <1>   0.0800 
 32 H        1.0660     4.5210     0.0430 H     1 <1>   0.0800 
 33 H        2.0950     5.1700    -1.1990 H     1 <1>   0.0800 
 34 H        3.6600     3.3560    -2.4050 H     1 <1>   0.0800 
 35 H        4.5030     2.3630    -1.2540 H     1 <1>   0.0800 
 36 H        3.5490     2.1770     1.1680 H     1 <1>   0.0800 
 37 H        2.0630     2.9980     1.5450 H     1 <1>   0.0800 
 38 H        4.2340     5.3590    -1.1760 H     1 <1>   0.0800 
 39 H        5.6890     4.4300    -1.4410 H     1 <1>   0.0800 
 40 H        4.0560     4.1750     2.4250 H     1 <1>   0.0800 
 41 H        3.1700     5.1630     1.2830 H     1 <1>   0.0800 
 42 H        5.6000     3.5520     0.6720 H     1 <1>   0.4500 
 43 H        5.8030     5.6310     2.0630 H     1 <1>   0.0800 
 44 H        3.9350     7.2260     1.4390 H     1 <1>   0.1500 
 45 H        7.3870     6.6790    -1.0400 H     1 <1>   0.1500 
 46 H        6.8190     8.7290    -2.2410 H     1 <1>   0.1500 
 47 H        2.4740    11.0290     1.3220 H     1 <1>   0.0800 
 48 H        3.7230    11.3190     0.1180 H     1 <1>   0.0800 
 49 H        4.1480    10.6010     1.6720 H     1 <1>   0.0800 
 50 H        3.5760    11.0930    -3.2130 H     1 <1>   0.0800 
 51 H        2.7560    10.1350    -1.9860 H     1 <1>   0.0800 
 52 H        3.6510     9.3340    -3.2800 H     1 <1>   0.0800 
@<TRIPOS>BOND
  1   1   2  2   
  2   2   3  am  
  3   2   4  1   
  4   3   5  1   
  5   3   6  1   
  6   4   7  1   
  7   4  27  1   
  8   4  28  1   
  9   5   7  1   
 10   5   8  1   
 11   5   9  1   
 12   6  29  1   
 13   6  30  1   
 14   6  31  1   
 15   7  32  1   
 16   7  33  1   
 17   8  10  1   
 18   8  34  1   
 19   8  35  1   
 20   9  11  1   
 21   9  36  1   
 22   9  37  1   
 23  10  12  1   
 24  10  38  1   
 25  10  39  1   
 26  11  12  1   
 27  11  40  1   
 28  11  41  1   
 29  12  13  1   
 30  12  42  1   
 31  13  14  1   
 32  13  15  1   
 33  13  43  1   
 34  14  16  ar  
 35  14  17  ar  
 36  15  18  ar  
 37  15  19  ar  
 38  16  20  ar  
 39  16  44  1   
 40  17  21  ar  
 41  17  45  1   
 42  20  22  1   
 43  20  23  ar  
 44  21  23  ar  
 45  21  46  1   
 46  22  24  1   
 47  23  25  1   
 48  24  47  1   
 49  24  48  1   
 50  24  49  1   
 51  25  26  1   
 52  26  50  1   
 53  26  51  1   
 54  26  52  1   
@<TRIPOS>SUBSTRUCTURE
  1 ****  10 GROUP 4 **** **** 0

# MOE 2024.06 (io_trps.svl 2023.06)
