@<TRIPOS>MOLECULE
NONAME
52 54 1 0 0 
SMALL
USER_CHARGES


@<TRIPOS>ATOM
  1 O       -2.4490     0.8540    -1.7060 O.2   1 <1>  -0.5700 
  2 C       -2.1780     0.7880    -0.5320 C.2   1 <1>   0.5690 
  3 N       -2.1760    -0.3890     0.1360 N.am  1 <1>  -0.7300 
  4 C       -1.8370     2.0770     0.2110 C.3   1 <1>  -0.0190 
  5 C       -2.4730    -1.7050    -0.4760 C.3   1 <1>   0.2200 
  6 C       -3.0420     3.0390     0.2070 C.3   1 <1>  -0.1600 
  7 C       -0.6040     2.7570    -0.4160 C.3   1 <1>  -0.1600 
  8 C       -3.8590    -2.1540    -0.0380 C.3   1 <1>  -0.0800 
  9 C       -1.5920    -2.7660     0.1680 C.3   1 <1>   0.1200 
 10 C       -2.6960     4.4050     0.7950 C.3   1 <1>   0.3430 
 11 C       -0.3270     4.1310     0.1890 C.3   1 <1>   0.3430 
 12 C       -3.5840    -2.8600     1.2980 C.3   1 <1>   0.1200 
 13 C       -4.4990    -3.0950    -1.0760 C.3   1 <1>  -0.0170 
 14 O       -2.2000    -3.0460     1.3900 O.3   1 <1>  -0.5600 
 15 N       -1.5430     4.9870     0.0530 N.4   1 <1>  -0.9590 
 16 C       -5.8970    -3.5190    -0.6530 C.ar  1 <1>  -0.1440 
 17 C       -1.3010     6.3970     0.5040 C.3   1 <1>   0.3430 
 18 C       -6.9710    -2.6570    -0.7370 C.ar  1 <1>  -0.1500 
 19 C       -6.1680    -4.7830    -0.1660 C.ar  1 <1>  -0.1500 
 20 C       -0.3430     7.1670    -0.4180 C.3   1 <1>   0.1200 
 21 C       -8.2260    -3.0840    -0.3370 C.ar  1 <1>   0.1600 
 22 C       -7.4610    -5.1100     0.2080 C.ar  1 <1>   0.1600 
 23 O       -0.2250     8.4510     0.0810 O.3   1 <1>  -0.6800 
 24 N       -8.4960    -4.2900     0.1360 N.ar  1 <1>  -0.6200 
 25 H       -1.9710    -0.4520     1.1360 H     1 <1>   0.3700 
 26 H       -1.6040     1.8290     1.2320 H     1 <1>   0.0800 
 27 H       -2.3530    -1.6630    -1.5460 H     1 <1>   0.0800 
 28 H       -3.8460     2.6030     0.7740 H     1 <1>   0.0800 
 29 H       -3.4010     3.1720    -0.8000 H     1 <1>   0.0800 
 30 H       -0.7450     2.8650    -1.4790 H     1 <1>   0.0800 
 31 H        0.2580     2.1280    -0.2750 H     1 <1>   0.0800 
 32 H       -4.5110    -1.3100     0.1040 H     1 <1>   0.0800 
 33 H       -0.5830    -2.4310     0.3310 H     1 <1>   0.0800 
 34 H       -1.5890    -3.6700    -0.4150 H     1 <1>   0.0800 
 35 H       -2.4460     4.2990     1.8390 H     1 <1>   0.0800 
 36 H       -3.5540     5.0540     0.7160 H     1 <1>   0.0800 
 37 H        0.5070     4.5820    -0.3250 H     1 <1>   0.0800 
 38 H       -0.0670     4.0260     1.2300 H     1 <1>   0.0800 
 39 H       -4.0620    -3.8210     1.3680 H     1 <1>   0.0800 
 40 H       -3.8890    -2.2500     2.1300 H     1 <1>   0.0800 
 41 H       -3.8840    -3.9660    -1.2200 H     1 <1>   0.0800 
 42 H       -4.5680    -2.5870    -2.0230 H     1 <1>   0.0800 
 43 H       -1.8070     5.0020    -0.9430 H     1 <1>   0.4500 
 44 H       -2.2370     6.9310     0.5240 H     1 <1>   0.0800 
 45 H       -0.8950     6.3950     1.5030 H     1 <1>   0.0800 
 46 H       -6.8450    -1.6570    -1.1110 H     1 <1>   0.1500 
 47 H       -5.3880    -5.5170    -0.0730 H     1 <1>   0.1500 
 48 H       -0.7380     7.2330    -1.4170 H     1 <1>   0.0800 
 49 H        0.6380     6.7260    -0.4280 H     1 <1>   0.0800 
 50 H       -9.0520    -2.3970    -0.4090 H     1 <1>   0.1500 
 51 H       -7.6530    -6.1000     0.5860 H     1 <1>   0.1500 
 52 H        0.3590     9.0100    -0.4760 H     1 <1>   0.4000 
@<TRIPOS>BOND
  1   1   2  2   
  2   2   3  am  
  3   2   4  1   
  4   3   5  1   
  5   3  25  1   
  6   4   6  1   
  7   4   7  1   
  8   4  26  1   
  9   5   8  1   
 10   5   9  1   
 11   5  27  1   
 12   6  10  1   
 13   6  28  1   
 14   6  29  1   
 15   7  11  1   
 16   7  30  1   
 17   7  31  1   
 18   8  12  1   
 19   8  13  1   
 20   8  32  1   
 21   9  14  1   
 22   9  33  1   
 23   9  34  1   
 24  10  15  1   
 25  10  35  1   
 26  10  36  1   
 27  11  15  1   
 28  11  37  1   
 29  11  38  1   
 30  12  14  1   
 31  12  39  1   
 32  12  40  1   
 33  13  16  1   
 34  13  41  1   
 35  13  42  1   
 36  15  17  1   
 37  15  43  1   
 38  16  18  ar  
 39  16  19  ar  
 40  17  20  1   
 41  17  44  1   
 42  17  45  1   
 43  18  21  ar  
 44  18  46  1   
 45  19  22  ar  
 46  19  47  1   
 47  20  23  1   
 48  20  48  1   
 49  20  49  1   
 50  21  24  ar  
 51  21  50  1   
 52  22  24  ar  
 53  22  51  1   
 54  23  52  1   
@<TRIPOS>SUBSTRUCTURE
  1 ****   3 GROUP 4 **** **** 0

# MOE 2024.06 (io_trps.svl 2023.06)
