@<TRIPOS>MOLECULE
NONAME
48 50 1 0 0 
SMALL
USER_CHARGES


@<TRIPOS>ATOM
  1 CL      -1.5820    -1.0940     1.4030 Cl    1 <1>  -0.1770 
  2 C       -2.1860     0.3440     0.6110 C.ar  1 <1>   0.1770 
  3 C       -2.9210     0.2250    -0.5600 C.ar  1 <1>  -0.1440 
  4 C       -1.9290     1.5750     1.1830 C.ar  1 <1>  -0.1500 
  5 C       -3.4020     1.3790    -1.1640 C.ar  1 <1>  -0.1500 
  6 C       -3.1880    -1.1380    -1.1630 C.3   1 <1>   0.4870 
  7 C       -2.4160     2.7180     0.5740 C.ar  1 <1>  -0.1500 
  8 C       -3.1500     2.6180    -0.5960 C.ar  1 <1>  -0.1500 
  9 N       -4.0760    -1.9090    -0.2390 N.4   1 <1>  -0.9590 
 10 C       -4.1200    -3.3780    -0.5790 C.3   1 <1>   0.3430 
 11 C       -5.4260    -1.2700    -0.1490 C.3   1 <1>   0.3430 
 12 C       -5.1000    -4.2130     0.3150 C.3   1 <1>   0.4230 
 13 C       -6.2790    -2.0640     0.8380 C.3   1 <1>  -0.1600 
 14 N       -5.1660    -5.7090    -0.0070 N.4   1 <1>  -0.9590 
 15 C       -6.4980    -3.5360     0.3870 C.3   1 <1>   0.0000 
 16 C       -6.4050    -6.3970     0.5040 C.3   1 <1>   0.3430 
 17 C       -4.9610    -6.1030    -1.4440 C.3   1 <1>   0.2630 
 18 C       -7.3740    -4.2420     1.4580 C.3   1 <1>  -0.1600 
 19 C       -7.1920    -3.6120    -1.0080 C.3   1 <1>   0.1200 
 20 C       -6.9500    -5.6950     1.7450 C.3   1 <1>  -0.1600 
 21 O       -8.0760    -2.5660    -1.1910 O.3   1 <1>  -0.6800 
 22 H       -1.3560     1.6410     2.0920 H     1 <1>   0.1500 
 23 H       -3.9710     1.3370    -2.0790 H     1 <1>   0.1500 
 24 H       -2.2480    -1.6490    -1.2910 H     1 <1>   0.0800 
 25 H       -3.6530    -1.0290    -2.1300 H     1 <1>   0.0800 
 26 H       -2.2230     3.6860     1.0080 H     1 <1>   0.1500 
 27 H       -3.5230     3.5130    -1.0670 H     1 <1>   0.1500 
 28 H       -3.6300    -1.7840     0.6860 H     1 <1>   0.4500 
 29 H       -4.4250    -3.4780    -1.6060 H     1 <1>   0.0800 
 30 H       -3.1280    -3.7890    -0.4810 H     1 <1>   0.0800 
 31 H       -5.3350    -0.2500     0.1940 H     1 <1>   0.0800 
 32 H       -5.9060    -1.2570    -1.1160 H     1 <1>   0.0800 
 33 H       -4.7040    -4.1440     1.3160 H     1 <1>   0.0800 
 34 H       -5.8120    -2.0260     1.8080 H     1 <1>   0.0800 
 35 H       -7.2270    -1.5630     0.9440 H     1 <1>   0.0800 
 36 H       -4.3970    -6.1490     0.5270 H     1 <1>   0.4500 
 37 H       -7.1700    -6.3900    -0.2560 H     1 <1>   0.0800 
 38 H       -6.1840    -7.4280     0.7370 H     1 <1>   0.0800 
 39 H       -5.7380    -5.6910    -2.0670 H     1 <1>   0.0800 
 40 H       -4.9870    -7.1780    -1.5410 H     1 <1>   0.0800 
 41 H       -4.0040    -5.7620    -1.8040 H     1 <1>   0.0800 
 42 H       -7.3410    -3.7090     2.3950 H     1 <1>   0.0800 
 43 H       -8.4060    -4.2270     1.1480 H     1 <1>   0.0800 
 44 H       -7.7360    -4.5320    -1.1400 H     1 <1>   0.0800 
 45 H       -6.4790    -3.5310    -1.8080 H     1 <1>   0.0800 
 46 H       -7.8030    -6.2410     2.1130 H     1 <1>   0.0800 
 47 H       -6.2060    -5.7210     2.5230 H     1 <1>   0.0800 
 48 H       -8.9570    -2.7490    -0.7990 H     1 <1>   0.4000 
@<TRIPOS>BOND
  1   1   2  1   
  2   2   3  ar  
  3   2   4  ar  
  4   3   5  ar  
  5   3   6  1   
  6   4   7  ar  
  7   4  22  1   
  8   5   8  ar  
  9   5  23  1   
 10   6   9  1   
 11   6  24  1   
 12   6  25  1   
 13   7   8  ar  
 14   7  26  1   
 15   8  27  1   
 16   9  10  1   
 17   9  11  1   
 18   9  28  1   
 19  10  12  1   
 20  10  29  1   
 21  10  30  1   
 22  11  13  1   
 23  11  31  1   
 24  11  32  1   
 25  12  14  1   
 26  12  15  1   
 27  12  33  1   
 28  13  15  1   
 29  13  34  1   
 30  13  35  1   
 31  14  16  1   
 32  14  17  1   
 33  14  36  1   
 34  15  18  1   
 35  15  19  1   
 36  16  20  1   
 37  16  37  1   
 38  16  38  1   
 39  17  39  1   
 40  17  40  1   
 41  17  41  1   
 42  18  20  1   
 43  18  42  1   
 44  18  43  1   
 45  19  21  1   
 46  19  44  1   
 47  19  45  1   
 48  20  46  1   
 49  20  47  1   
 50  21  48  1   
@<TRIPOS>SUBSTRUCTURE
  1 ****   9 GROUP 4 **** **** 0

# MOE 2024.06 (io_trps.svl 2023.06)
