@<TRIPOS>MOLECULE
NONAME
56 59 1 0 0 
SMALL
USER_CHARGES


@<TRIPOS>ATOM
  1 O       -0.8430     0.0000     1.7750 O.2   1 <1>  -0.5700 
  2 C       -1.6380     0.6020     1.0840 C.2   1 <1>   0.5440 
  3 N       -2.6590    -0.0960     0.4770 N.am  1 <1>  -0.6600 
  4 C       -1.5440     2.0410     0.9640 C.ar  1 <1>   0.0860 
  5 C       -2.8250    -1.5530     0.8210 C.3   1 <1>   0.3210 
  6 C       -3.7280     0.5820    -0.3200 C.3   1 <1>   0.1400 
  7 C       -1.1170     2.6570    -0.2110 C.ar  1 <1>  -0.1500 
  8 C       -1.9240     2.8670     2.0180 C.ar  1 <1>  -0.1500 
  9 C       -3.9760    -2.2640     0.1030 C.2   1 <1>   0.0460 
 10 C       -4.8520     1.0660     0.6140 C.3   1 <1>   0.3430 
 11 C       -1.1280     4.0320    -0.3430 C.ar  1 <1>  -0.1500 
 12 C       -1.9330     4.2420     1.8850 C.ar  1 <1>  -0.1500 
 13 N       -5.2680    -2.0180     0.4230 N.2   1 <1>  -0.5650 
 14 C       -3.8980    -3.1950    -0.8790 C.2   1 <1>  -0.3320 
 15 N       -5.6710     2.1750     0.0190 N.4   1 <1>  -0.9590 
 16 C       -1.5560     4.8640     0.6930 C.ar  1 <1>   0.0540 
 17 C       -5.9370    -2.8130    -0.3480 C.2   1 <1>   0.0360 
 18 N       -5.1620    -3.5540    -1.1660 N.pl3 1 <1>   0.0330 
 19 C       -2.7000    -3.8080    -1.5870 C.3   1 <1>  -0.0600 
 20 C       -4.9110     3.4660    -0.0410 C.3   1 <1>   0.2630 
 21 C       -6.9280     2.3450     0.8110 C.3   1 <1>   0.2630 
 22 C       -1.6190     6.3060     0.5430 C.2   1 <1>   0.4620 
 23 N       -2.0310     7.1330     1.4370 N.2   1 <1>  -0.4100 
 24 N       -1.2720     6.9260    -0.5860 N.2   1 <1>  -0.5650 
 25 O       -1.9490     8.3260     0.9380 O.3   1 <1>  -0.0190 
 26 C       -1.4880     8.1360    -0.2710 C.2   1 <1>   0.3930 
 27 C       -1.2690     9.3520    -1.1590 C.3   1 <1>  -0.0150 
 28 C       -0.2320     9.3600    -2.2420 C.3   1 <1>  -0.2000 
 29 C       -0.0350    10.1880    -1.0070 C.3   1 <1>  -0.2000 
 30 H       -2.9850    -1.6420     1.8820 H     1 <1>   0.0800 
 31 H       -1.9050    -2.0610     0.5990 H     1 <1>   0.0800 
 32 H       -4.1240    -0.0840    -1.0650 H     1 <1>   0.0800 
 33 H       -3.3000     1.4130    -0.8460 H     1 <1>   0.0800 
 34 H       -0.7740     2.0420    -1.0260 H     1 <1>   0.1500 
 35 H       -2.2090     2.4150     2.9540 H     1 <1>   0.1500 
 36 H       -4.4110     1.4090     1.5350 H     1 <1>   0.0800 
 37 H       -5.4900     0.2310     0.8460 H     1 <1>   0.0800 
 38 H       -0.7940     4.4720    -1.2690 H     1 <1>   0.1500 
 39 H       -2.2300     4.8490     2.7250 H     1 <1>   0.1500 
 40 H       -5.9380     1.8910    -0.9370 H     1 <1>   0.4500 
 41 H       -7.0100    -2.8980    -0.3530 H     1 <1>   0.1500 
 42 H       -5.4740    -4.2520    -1.8470 H     1 <1>   0.2700 
 43 H       -1.7820    -3.3630    -1.2490 H     1 <1>   0.0800 
 44 H       -2.7770    -3.6550    -2.6490 H     1 <1>   0.0800 
 45 H       -2.6550    -4.8650    -1.3910 H     1 <1>   0.0800 
 46 H       -4.6120     3.7710     0.9490 H     1 <1>   0.0800 
 47 H       -5.5230     4.2430    -0.4700 H     1 <1>   0.0800 
 48 H       -4.0250     3.3590    -0.6450 H     1 <1>   0.0800 
 49 H       -6.6970     2.6320     1.8240 H     1 <1>   0.0800 
 50 H       -7.4810     1.4190     0.8340 H     1 <1>   0.0800 
 51 H       -7.5500     3.1060     0.3690 H     1 <1>   0.0800 
 52 H       -2.1920     9.8660    -1.3610 H     1 <1>   0.1000 
 53 H       -0.4600     9.8550    -3.1700 H     1 <1>   0.1000 
 54 H        0.3780     8.4840    -2.3800 H     1 <1>   0.1000 
 55 H        0.7160     9.8830    -0.2990 H     1 <1>   0.1000 
 56 H       -0.1250    11.2580    -1.0780 H     1 <1>   0.1000 
@<TRIPOS>BOND
  1   1   2  2   
  2   2   3  am  
  3   2   4  1   
  4   3   5  1   
  5   3   6  1   
  6   4   7  ar  
  7   4   8  ar  
  8   5   9  1   
  9   5  30  1   
 10   5  31  1   
 11   6  10  1   
 12   6  32  1   
 13   6  33  1   
 14   7  11  ar  
 15   7  34  1   
 16   8  12  ar  
 17   8  35  1   
 18   9  13  1   
 19   9  14  2   
 20  10  15  1   
 21  10  36  1   
 22  10  37  1   
 23  11  16  ar  
 24  11  38  1   
 25  12  16  ar  
 26  12  39  1   
 27  13  17  2   
 28  14  18  1   
 29  14  19  1   
 30  15  20  1   
 31  15  21  1   
 32  15  40  1   
 33  16  22  1   
 34  17  18  1   
 35  17  41  1   
 36  18  42  1   
 37  19  43  1   
 38  19  44  1   
 39  19  45  1   
 40  20  46  1   
 41  20  47  1   
 42  20  48  1   
 43  21  49  1   
 44  21  50  1   
 45  21  51  1   
 46  22  23  2   
 47  22  24  1   
 48  23  25  1   
 49  24  26  2   
 50  25  26  1   
 51  26  27  1   
 52  27  28  1   
 53  27  29  1   
 54  27  52  1   
 55  28  29  1   
 56  28  53  1   
 57  28  54  1   
 58  29  55  1   
 59  29  56  1   
@<TRIPOS>SUBSTRUCTURE
  1 ****   4 GROUP 4 **** **** 0

# MOE 2024.06 (io_trps.svl 2023.06)
