@<TRIPOS>MOLECULE
NONAME
46 47 1 0 0 
SMALL
USER_CHARGES


@<TRIPOS>ATOM
  1 O       -0.6770    -0.4380     0.6920 O.2   1 <1>  -0.5700 
  2 C       -1.6210     0.3240     0.5870 C.2   1 <1>   0.5440 
  3 N       -1.3860     1.6860     0.6480 N.am  1 <1>  -0.6600 
  4 C       -2.9430    -0.2240     0.3900 C.ar  1 <1>   0.0860 
  5 C       -2.3010     2.7080     0.0700 C.3   1 <1>   0.0600 
  6 C       -0.0780     2.2240     1.1150 C.3   1 <1>   0.0600 
  7 C       -3.1430    -1.2720    -0.5050 C.ar  1 <1>   0.1600 
  8 C       -4.0650     0.2380     1.0710 C.ar  1 <1>  -0.1500 
  9 N       -4.3000    -1.8450    -0.7860 N.ar  1 <1>  -0.6200 
 10 C       -5.2750    -0.3500     0.7960 C.ar  1 <1>  -0.1500 
 11 C       -5.3630    -1.3800    -0.1380 C.ar  1 <1>   0.4100 
 12 N       -6.5870    -1.9490    -0.4190 N.pl3 1 <1>  -0.8380 
 13 C       -6.6810    -3.3880    -0.7960 C.3   1 <1>   0.2090 
 14 C       -7.6980    -1.0890    -0.9070 C.3   1 <1>   0.1290 
 15 C       -7.7320    -4.0750     0.0760 C.3   1 <1>  -0.1600 
 16 C       -7.7450    -5.5870    -0.1420 C.3   1 <1>   0.3430 
 17 O       -8.0340    -5.8500    -1.4650 O.3   1 <1>  -0.6800 
 18 C       -8.7910    -6.2920     0.7140 C.ar  1 <1>  -0.1440 
 19 C       -8.3910    -7.1120     1.7590 C.ar  1 <1>  -0.1500 
 20 C      -10.1480    -6.1300     0.4670 C.ar  1 <1>  -0.1500 
 21 C       -9.3290    -7.7600     2.5440 C.ar  1 <1>  -0.1500 
 22 C      -11.0880    -6.7770     1.2500 C.ar  1 <1>  -0.1500 
 23 C      -10.6790    -7.5930     2.2890 C.ar  1 <1>  -0.1500 
 24 H       -3.0570     2.2460    -0.5410 H     1 <1>   0.0800 
 25 H       -1.7420     3.3900    -0.5470 H     1 <1>   0.0800 
 26 H       -2.7750     3.2600     0.8630 H     1 <1>   0.0800 
 27 H        0.4500     1.4840     1.6920 H     1 <1>   0.0800 
 28 H       -0.2360     3.0890     1.7340 H     1 <1>   0.0800 
 29 H        0.5260     2.4950     0.2670 H     1 <1>   0.0800 
 30 H       -2.2770    -1.6520    -1.0190 H     1 <1>   0.1500 
 31 H       -3.9750     1.0280     1.7960 H     1 <1>   0.1500 
 32 H       -6.1690    -0.0370     1.3000 H     1 <1>   0.1500 
 33 H       -5.7310    -3.8730    -0.6440 H     1 <1>   0.0800 
 34 H       -6.9350    -3.4770    -1.8390 H     1 <1>   0.0800 
 35 H       -7.3970    -0.0560    -0.9210 H     1 <1>   0.0800 
 36 H       -8.5510    -1.1970    -0.2600 H     1 <1>   0.0800 
 37 H       -7.9740    -1.3770    -1.9070 H     1 <1>   0.0800 
 38 H       -8.7060    -3.6750    -0.1340 H     1 <1>   0.0800 
 39 H       -7.5020    -3.8840     1.1080 H     1 <1>   0.0800 
 40 H       -6.7690    -5.9950     0.0600 H     1 <1>   0.0800 
 41 H       -8.3590    -6.7690    -1.5250 H     1 <1>   0.4000 
 42 H       -7.3450    -7.2510     1.9720 H     1 <1>   0.1500 
 43 H      -10.4760    -5.4960    -0.3390 H     1 <1>   0.1500 
 44 H       -9.0100    -8.3940     3.3530 H     1 <1>   0.1500 
 45 H      -12.1380    -6.6450     1.0510 H     1 <1>   0.1500 
 46 H      -11.4090    -8.0960     2.8990 H     1 <1>   0.1500 
@<TRIPOS>BOND
  1   1   2  2   
  2   2   3  am  
  3   2   4  1   
  4   3   5  1   
  5   3   6  1   
  6   4   7  ar  
  7   4   8  ar  
  8   5  24  1   
  9   5  25  1   
 10   5  26  1   
 11   6  27  1   
 12   6  28  1   
 13   6  29  1   
 14   7   9  ar  
 15   7  30  1   
 16   8  10  ar  
 17   8  31  1   
 18   9  11  ar  
 19  10  11  ar  
 20  10  32  1   
 21  11  12  1   
 22  12  13  1   
 23  12  14  1   
 24  13  15  1   
 25  13  33  1   
 26  13  34  1   
 27  14  35  1   
 28  14  36  1   
 29  14  37  1   
 30  15  16  1   
 31  15  38  1   
 32  15  39  1   
 33  16  17  1   
 34  16  18  1   
 35  16  40  1   
 36  17  41  1   
 37  18  19  ar  
 38  18  20  ar  
 39  19  21  ar  
 40  19  42  1   
 41  20  22  ar  
 42  20  43  1   
 43  21  23  ar  
 44  21  44  1   
 45  22  23  ar  
 46  22  45  1   
 47  23  46  1   
@<TRIPOS>SUBSTRUCTURE
  1 ****  12 GROUP 4 **** **** 0

# MOE 2024.06 (io_trps.svl 2023.06)
