@<TRIPOS>MOLECULE
NONAME
44 46 1 0 0 
SMALL
USER_CHARGES


@<TRIPOS>ATOM
  1 O        0.3440    -0.5290     2.2600 O.2   1 <1>  -0.5700 
  2 C       -0.3320     0.3440     1.7670 C.2   1 <1>   0.5690 
  3 N       -1.3690     0.0460     0.9230 N.am  1 <1>  -0.6600 
  4 C       -0.0040     1.7860     2.1350 C.3   1 <1>   0.0440 
  5 C       -2.2420     1.0150     0.2140 C.3   1 <1>   0.1400 
  6 C       -1.7320    -1.3420     0.5590 C.3   1 <1>   0.1400 
  7 C        0.3390     2.6620     0.9330 C.ar  1 <1>  -0.1440 
  8 C       -3.2730     0.1620    -0.5310 C.3   1 <1>   0.2000 
  9 C       -3.1740    -1.2450     0.0610 C.3   1 <1>  -0.0800 
 10 C       -0.3100     3.8720     0.7330 C.ar  1 <1>  -0.1500 
 11 C        1.3010     2.2490     0.0240 C.ar  1 <1>  -0.1500 
 12 O       -4.5580     0.6500    -0.3550 O.3   1 <1>  -0.6800 
 13 C       -3.5700    -2.3360    -0.9480 C.3   1 <1>  -0.0170 
 14 C       -0.0140     4.6600    -0.3670 C.ar  1 <1>  -0.1440 
 15 C        1.6030     3.0330    -1.0750 C.ar  1 <1>  -0.1500 
 16 C       -3.5030    -3.7250    -0.3330 C.ar  1 <1>   0.1670 
 17 C        0.9470     4.2350    -1.2700 C.ar  1 <1>  -0.1500 
 18 C       -0.7310     5.9810    -0.5770 C.3   1 <1>  -0.0970 
 19 N       -2.3160    -4.3100    -0.3210 N.ar  1 <1>  -0.6200 
 20 C       -4.6560    -4.3140     0.1840 C.ar  1 <1>   0.1600 
 21 C       -2.3570    -5.5070     0.2400 C.ar  1 <1>   0.1600 
 22 N       -4.6990    -5.5110     0.7450 N.ar  1 <1>  -0.6200 
 23 C       -3.5090    -6.0870     0.7560 C.ar  1 <1>   0.1600 
 24 H       -0.8420     2.1930     2.6680 H     1 <1>   0.0800 
 25 H        0.8350     1.7860     2.8060 H     1 <1>   0.0800 
 26 H       -2.7140     1.6700     0.9250 H     1 <1>   0.0800 
 27 H       -1.6620     1.5860    -0.4890 H     1 <1>   0.0800 
 28 H       -1.0750    -1.6830    -0.2230 H     1 <1>   0.0800 
 29 H       -1.6460    -2.0030     1.4050 H     1 <1>   0.0800 
 30 H       -3.0500     0.1650    -1.5850 H     1 <1>   0.0800 
 31 H       -3.8090    -1.3150     0.9270 H     1 <1>   0.0800 
 32 H       -1.0510     4.2070     1.4370 H     1 <1>   0.1500 
 33 H        1.8170     1.3140     0.1680 H     1 <1>   0.1500 
 34 H       -4.7860     0.6670     0.5940 H     1 <1>   0.4000 
 35 H       -2.9170    -2.3010    -1.8030 H     1 <1>   0.0800 
 36 H       -4.5690    -2.1470    -1.2980 H     1 <1>   0.0800 
 37 H        2.3500     2.7060    -1.7770 H     1 <1>   0.1500 
 38 H        1.1900     4.8380    -2.1270 H     1 <1>   0.1500 
 39 H       -0.7710     6.2260    -1.6240 H     1 <1>   0.0800 
 40 H       -0.2080     6.7640    -0.0580 H     1 <1>   0.0800 
 41 H       -1.7370     5.9270    -0.2030 H     1 <1>   0.0800 
 42 H       -5.5820    -3.7710     0.1330 H     1 <1>   0.1500 
 43 H       -1.4330    -6.0550     0.2950 H     1 <1>   0.1500 
 44 H       -3.4420    -7.0670     1.1940 H     1 <1>   0.1500 
@<TRIPOS>BOND
  1   1   2  2   
  2   2   3  am  
  3   2   4  1   
  4   3   5  1   
  5   3   6  1   
  6   4   7  1   
  7   4  24  1   
  8   4  25  1   
  9   5   8  1   
 10   5  26  1   
 11   5  27  1   
 12   6   9  1   
 13   6  28  1   
 14   6  29  1   
 15   7  10  ar  
 16   7  11  ar  
 17   8   9  1   
 18   8  12  1   
 19   8  30  1   
 20   9  13  1   
 21   9  31  1   
 22  10  14  ar  
 23  10  32  1   
 24  11  15  ar  
 25  11  33  1   
 26  12  34  1   
 27  13  16  1   
 28  13  35  1   
 29  13  36  1   
 30  14  17  ar  
 31  14  18  1   
 32  15  17  ar  
 33  15  37  1   
 34  16  19  ar  
 35  16  20  ar  
 36  17  38  1   
 37  18  39  1   
 38  18  40  1   
 39  18  41  1   
 40  19  21  ar  
 41  20  22  ar  
 42  20  42  1   
 43  21  23  ar  
 44  21  43  1   
 45  22  23  ar  
 46  23  44  1   
@<TRIPOS>SUBSTRUCTURE
  1 ****   3 GROUP 4 **** **** 0

# MOE 2024.06 (io_trps.svl 2023.06)
