@<TRIPOS>MOLECULE
NONAME
60 64 1 0 0 
SMALL
USER_CHARGES


@<TRIPOS>ATOM
  1 O       -0.5180    -0.9000     2.2290 O.2   1 <1>  -0.5700 
  2 C       -1.4160    -0.0890     2.2030 C.2   1 <1>   0.5690 
  3 N       -2.7290    -0.4760     2.1450 N.am  1 <1>  -0.6600 
  4 C       -1.0320     1.3960     2.2310 C.3   1 <1>   0.1710 
  5 C       -3.9040     0.4130     2.0450 C.3   1 <1>   0.1400 
  6 C       -3.1170    -1.8520     1.7820 C.3   1 <1>   0.1400 
  7 N       -1.1920     2.1460     0.9430 N.3   1 <1>  -0.8100 
  8 C       -4.7760    -0.2200     0.9580 C.3   1 <1>  -0.0800 
  9 C       -4.3550    -1.7080     0.8910 C.3   1 <1>  -0.0800 
 10 C       -0.7140     3.5260     1.1690 C.3   1 <1>   0.2530 
 11 C       -0.3850     1.4790    -0.1140 C.3   1 <1>   0.1100 
 12 C       -4.7100     0.5540    -0.3860 C.3   1 <1>   0.4240 
 13 C       -4.1040    -2.2250    -0.5370 C.3   1 <1>  -0.1600 
 14 C       -1.1630     4.5110     0.1010 C.ar  1 <1>  -0.1440 
 15 C       -0.5360     2.0850    -1.5170 C.3   1 <1>   0.1200 
 16 O       -3.3790     0.6830    -0.7540 O.3   1 <1>  -0.6800 
 17 C       -5.3360     1.9610    -0.2550 C.ar  1 <1>  -0.1440 
 18 C       -5.3970    -0.2340    -1.5230 C.3   1 <1>  -0.1600 
 19 C       -5.2170    -1.7690    -1.4860 C.3   1 <1>  -0.1600 
 20 C       -0.7240     4.3980    -1.2120 C.ar  1 <1>   0.0820 
 21 C       -1.9720     5.5850     0.4450 C.ar  1 <1>  -0.1500 
 22 O        0.0500     3.3670    -1.5980 O.3   1 <1>  -0.3630 
 23 C       -6.6630     2.0870     0.1480 C.ar  1 <1>  -0.1500 
 24 C       -4.6320     3.1310    -0.5330 C.ar  1 <1>  -0.1500 
 25 C       -1.0660     5.3510    -2.1570 C.ar  1 <1>  -0.1500 
 26 C       -2.3180     6.5380    -0.4990 C.ar  1 <1>  -0.1500 
 27 C       -7.2650     3.3260     0.2760 C.ar  1 <1>  -0.1500 
 28 C       -5.2340     4.3710    -0.4130 C.ar  1 <1>  -0.1500 
 29 C       -1.8640     6.4230    -1.8020 C.ar  1 <1>  -0.1500 
 30 C       -6.5500     4.4730    -0.0050 C.ar  1 <1>  -0.1500 
 31 H       -0.0050     1.4550     2.5480 H     1 <1>   0.0800 
 32 H       -1.6290     1.8690     2.9900 H     1 <1>   0.0800 
 33 H       -4.4260     0.4010     2.9860 H     1 <1>   0.0800 
 34 H       -3.6350     1.4270     1.8090 H     1 <1>   0.0800 
 35 H       -2.3130    -2.3520     1.2680 H     1 <1>   0.0800 
 36 H       -3.3550    -2.4000     2.6780 H     1 <1>   0.0800 
 37 H       -5.7940    -0.1920     1.2970 H     1 <1>   0.0800 
 38 H       -5.1400    -2.3060     1.3210 H     1 <1>   0.0800 
 39 H       -1.0840     3.8770     2.1160 H     1 <1>   0.0800 
 40 H        0.3620     3.5360     1.2210 H     1 <1>   0.0800 
 41 H        0.6570     1.4740     0.1570 H     1 <1>   0.0800 
 42 H       -0.6980     0.4520    -0.1930 H     1 <1>   0.0800 
 43 H       -3.1590    -1.8600    -0.9040 H     1 <1>   0.0800 
 44 H       -4.0510    -3.3000    -0.5290 H     1 <1>   0.0800 
 45 H       -1.5690     2.1530    -1.8070 H     1 <1>   0.0800 
 46 H       -0.0250     1.4620    -2.2280 H     1 <1>   0.0800 
 47 H       -2.8910     1.1700    -0.0530 H     1 <1>   0.4000 
 48 H       -6.4530    -0.0380    -1.5020 H     1 <1>   0.0800 
 49 H       -5.0390     0.1500    -2.4620 H     1 <1>   0.0800 
 50 H       -6.1410    -2.2210    -1.1680 H     1 <1>   0.0800 
 51 H       -5.0100    -2.1260    -2.4800 H     1 <1>   0.0800 
 52 H       -2.3320     5.6910     1.4530 H     1 <1>   0.1500 
 53 H       -7.2550     1.2150     0.3630 H     1 <1>   0.1500 
 54 H       -3.6050     3.1050    -0.8550 H     1 <1>   0.1500 
 55 H       -0.7060     5.2450    -3.1640 H     1 <1>   0.1500 
 56 H       -2.9390     7.3710    -0.2190 H     1 <1>   0.1500 
 57 H       -8.2920     3.3980     0.5900 H     1 <1>   0.1500 
 58 H       -4.6740     5.2580    -0.6450 H     1 <1>   0.1500 
 59 H       -2.1310     7.1630    -2.5360 H     1 <1>   0.1500 
 60 H       -7.0140     5.4390     0.0880 H     1 <1>   0.1500 
@<TRIPOS>BOND
  1   1   2  2   
  2   2   3  am  
  3   2   4  1   
  4   3   5  1   
  5   3   6  1   
  6   4   7  1   
  7   4  31  1   
  8   4  32  1   
  9   5   8  1   
 10   5  33  1   
 11   5  34  1   
 12   6   9  1   
 13   6  35  1   
 14   6  36  1   
 15   7  10  1   
 16   7  11  1   
 17   8   9  1   
 18   8  12  1   
 19   8  37  1   
 20   9  13  1   
 21   9  38  1   
 22  10  14  1   
 23  10  39  1   
 24  10  40  1   
 25  11  15  1   
 26  11  41  1   
 27  11  42  1   
 28  12  16  1   
 29  12  17  1   
 30  12  18  1   
 31  13  19  1   
 32  13  43  1   
 33  13  44  1   
 34  14  20  ar  
 35  14  21  ar  
 36  15  22  1   
 37  15  45  1   
 38  15  46  1   
 39  16  47  1   
 40  17  23  ar  
 41  17  24  ar  
 42  18  19  1   
 43  18  48  1   
 44  18  49  1   
 45  19  50  1   
 46  19  51  1   
 47  20  22  1   
 48  20  25  ar  
 49  21  26  ar  
 50  21  52  1   
 51  23  27  ar  
 52  23  53  1   
 53  24  28  ar  
 54  24  54  1   
 55  25  29  ar  
 56  25  55  1   
 57  26  29  ar  
 58  26  56  1   
 59  27  30  ar  
 60  27  57  1   
 61  28  30  ar  
 62  28  58  1   
 63  29  59  1   
 64  30  60  1   
@<TRIPOS>SUBSTRUCTURE
  1 ****  16 GROUP 4 **** **** 0

# MOE 2024.06 (io_trps.svl 2023.06)
