@<TRIPOS>MOLECULE
NONAME
52 55 1 0 0 
SMALL
USER_CHARGES


@<TRIPOS>ATOM
  1 O       -1.8790     1.5110    -2.3530 O.2   1 <1>  -0.5700 
  2 C       -2.0750     1.3770    -1.1660 C.2   1 <1>   0.6300 
  3 N       -2.8060     0.3220    -0.6720 N.am  1 <1>  -0.6600 
  4 C       -1.4910     2.4470    -0.2270 C.3   1 <1>  -0.0950 
  5 C       -3.0720     0.1210     0.7850 C.3   1 <1>   0.1400 
  6 C       -3.4130    -0.6690    -1.6110 C.3   1 <1>   0.1400 
  7 C       -0.3680     2.1000     0.7100 C.3   1 <1>  -0.2000 
  8 C       -0.0980     2.9390    -0.5020 C.3   1 <1>  -0.2000 
  9 C       -2.5270     3.5000     0.1880 C.3   1 <1>  -0.1450 
 10 C       -3.4910    -1.3210     1.0640 C.3   1 <1>  -0.1600 
 11 C       -4.7980    -1.0980    -1.1210 C.3   1 <1>  -0.1600 
 12 C       -4.7870    -1.6680     0.3160 C.3   1 <1>   0.4240 
 13 O       -5.7930    -0.9970     1.0360 O.3   1 <1>  -0.5600 
 14 C       -5.0140    -3.1960     0.3180 C.ar  1 <1>  -0.1440 
 15 C       -7.0990    -1.4540     0.8730 C.3   1 <1>   0.1200 
 16 C       -6.1560    -3.7560     0.8730 C.ar  1 <1>  -0.1440 
 17 C       -4.0770    -4.0470    -0.2540 C.ar  1 <1>  -0.1500 
 18 C       -7.2080    -2.8490     1.4820 C.3   1 <1>  -0.0170 
 19 C       -6.3450    -5.1290     0.8650 C.ar  1 <1>  -0.1500 
 20 C       -4.2450    -5.4220    -0.2680 C.ar  1 <1>   0.0820 
 21 C       -5.4040    -5.9810     0.2940 C.ar  1 <1>   0.0820 
 22 O       -3.2240    -6.1100    -0.8550 O.3   1 <1>  -0.3620 
 23 O       -5.6020    -7.3330     0.2570 O.3   1 <1>  -0.3620 
 24 C       -2.9050    -7.4300    -0.4760 C.3   1 <1>   0.0400 
 25 C       -6.8040    -7.9320     0.6880 C.3   1 <1>   0.0400 
 26 H       -3.8590     0.7870     1.0950 H     1 <1>   0.0800 
 27 H       -2.1910     0.3430     1.3580 H     1 <1>   0.0800 
 28 H       -2.7630    -1.5240    -1.6840 H     1 <1>   0.0800 
 29 H       -3.5060    -0.2420    -2.5960 H     1 <1>   0.0800 
 30 H        0.0160     1.0950     0.7200 H     1 <1>   0.1000 
 31 H       -0.3300     2.5670     1.6780 H     1 <1>   0.1000 
 32 H        0.1230     3.9840    -0.3750 H     1 <1>   0.1000 
 33 H        0.4430     2.5050    -1.3260 H     1 <1>   0.1000 
 34 H       -3.3300     3.0440     0.7360 H     1 <1>   0.0800 
 35 H       -2.9340     3.9700    -0.6900 H     1 <1>   0.0800 
 36 H       -2.0780     4.2580     0.8050 H     1 <1>   0.0800 
 37 H       -3.6440    -1.4670     2.1180 H     1 <1>   0.0800 
 38 H       -2.6870    -1.9680     0.7690 H     1 <1>   0.0800 
 39 H       -5.1920    -1.8330    -1.7990 H     1 <1>   0.0800 
 40 H       -5.4370    -0.2350    -1.1710 H     1 <1>   0.0800 
 41 H       -7.3410    -1.4670    -0.1760 H     1 <1>   0.0800 
 42 H       -7.7550    -0.7680     1.3800 H     1 <1>   0.0800 
 43 H       -3.1860    -3.6530    -0.7060 H     1 <1>   0.1500 
 44 H       -8.1910    -3.2400     1.2960 H     1 <1>   0.0800 
 45 H       -7.0620    -2.7870     2.5460 H     1 <1>   0.0800 
 46 H       -7.2400    -5.5150     1.3100 H     1 <1>   0.1500 
 47 H       -1.9060    -7.6430    -0.8100 H     1 <1>   0.0800 
 48 H       -3.5970    -8.1030    -0.9500 H     1 <1>   0.0800 
 49 H       -2.9630    -7.5130     0.5950 H     1 <1>   0.0800 
 50 H       -6.7320    -8.9890     0.5080 H     1 <1>   0.0800 
 51 H       -7.6220    -7.5200     0.1240 H     1 <1>   0.0800 
 52 H       -6.9270    -7.7490     1.7410 H     1 <1>   0.0800 
@<TRIPOS>BOND
  1   1   2  2   
  2   2   3  am  
  3   2   4  1   
  4   3   5  1   
  5   3   6  1   
  6   4   7  1   
  7   4   8  1   
  8   4   9  1   
  9   5  10  1   
 10   5  26  1   
 11   5  27  1   
 12   6  11  1   
 13   6  28  1   
 14   6  29  1   
 15   7   8  1   
 16   7  30  1   
 17   7  31  1   
 18   8  32  1   
 19   8  33  1   
 20   9  34  1   
 21   9  35  1   
 22   9  36  1   
 23  10  12  1   
 24  10  37  1   
 25  10  38  1   
 26  11  12  1   
 27  11  39  1   
 28  11  40  1   
 29  12  13  1   
 30  12  14  1   
 31  13  15  1   
 32  14  16  ar  
 33  14  17  ar  
 34  15  18  1   
 35  15  41  1   
 36  15  42  1   
 37  16  18  1   
 38  16  19  ar  
 39  17  20  ar  
 40  17  43  1   
 41  18  44  1   
 42  18  45  1   
 43  19  21  ar  
 44  19  46  1   
 45  20  21  ar  
 46  20  22  1   
 47  21  23  1   
 48  22  24  1   
 49  23  25  1   
 50  24  47  1   
 51  24  48  1   
 52  24  49  1   
 53  25  50  1   
 54  25  51  1   
 55  25  52  1   
@<TRIPOS>SUBSTRUCTURE
  1 ****  12 GROUP 4 **** **** 0

# MOE 2024.06 (io_trps.svl 2023.06)
