@<TRIPOS>MOLECULE
NONAME
56 59 1 0 0 
SMALL
USER_CHARGES


@<TRIPOS>ATOM
  1 O       -2.0230    -1.4710    -1.7300 O.3   1 <1>  -0.3630 
  2 C       -1.4420    -2.5600    -1.1640 C.ar  1 <1>   0.0820 
  3 C       -1.2870    -0.6020    -2.5610 C.3   1 <1>   0.0400 
  4 C       -2.2370    -3.3240    -0.3290 C.ar  1 <1>  -0.1500 
  5 C       -0.1180    -2.9340    -1.3830 C.ar  1 <1>  -0.1500 
  6 C       -1.7440    -4.4640     0.2960 C.ar  1 <1>   0.1000 
  7 C        0.3880    -4.0620    -0.7620 C.ar  1 <1>  -0.1500 
  8 N       -2.5450    -5.2550     1.1230 N.pl3 1 <1>  -0.8380 
  9 C       -0.4190    -4.8170     0.0700 C.ar  1 <1>  -0.1500 
 10 C       -3.4680    -4.6410     2.1050 C.3   1 <1>   0.2090 
 11 C       -2.7780    -6.6690     0.7580 C.3   1 <1>   0.2090 
 12 C       -4.9020    -4.7830     1.5960 C.3   1 <1>  -0.1600 
 13 C       -4.1920    -6.7900     0.2050 C.3   1 <1>  -0.1600 
 14 C       -5.2030    -6.2370     1.2200 C.3   1 <1>   0.4230 
 15 N       -6.6060    -6.3370     0.7240 N.4   1 <1>  -0.9590 
 16 C       -6.9240    -5.6270    -0.5530 C.3   1 <1>   0.3430 
 17 C       -7.1140    -7.7380     0.5770 C.3   1 <1>   0.3430 
 18 C       -8.1630    -6.3460    -1.0860 C.3   1 <1>   0.2000 
 19 C       -7.8770    -7.8100    -0.7580 C.3   1 <1>  -0.0800 
 20 O       -9.2560    -5.9410    -0.3280 O.3   1 <1>  -0.6800 
 21 C       -7.0480    -8.4800    -1.8770 C.3   1 <1>  -0.0170 
 22 C       -6.7350    -9.9390    -1.5750 C.ar  1 <1>   0.1670 
 23 N       -5.7410   -10.1630    -0.7300 N.ar  1 <1>  -0.6200 
 24 C       -7.4760   -10.9540    -2.1810 C.ar  1 <1>   0.1600 
 25 C       -5.5320   -11.4580    -0.5430 C.ar  1 <1>   0.1600 
 26 N       -7.2750   -12.2440    -1.9830 N.ar  1 <1>  -0.6200 
 27 C       -6.2750   -12.4650    -1.1480 C.ar  1 <1>   0.1600 
 28 H       -1.9400     0.1920    -2.8760 H     1 <1>   0.0800 
 29 H       -0.9380    -1.1500    -3.4180 H     1 <1>   0.0800 
 30 H       -0.4640    -0.1960    -1.9990 H     1 <1>   0.0800 
 31 H       -3.2490    -3.0170    -0.1750 H     1 <1>   0.1500 
 32 H        0.5260    -2.3650    -2.0250 H     1 <1>   0.1500 
 33 H        1.4110    -4.3520    -0.9240 H     1 <1>   0.1500 
 34 H       -0.0200    -5.6860     0.5580 H     1 <1>   0.1500 
 35 H       -3.3510    -5.1380     3.0530 H     1 <1>   0.0800 
 36 H       -3.2190    -3.6010     2.2430 H     1 <1>   0.0800 
 37 H       -2.0660    -6.9820     0.0120 H     1 <1>   0.0800 
 38 H       -2.6490    -7.2890     1.6290 H     1 <1>   0.0800 
 39 H       -5.0190    -4.1400     0.7440 H     1 <1>   0.0800 
 40 H       -5.5720    -4.4540     2.3690 H     1 <1>   0.0800 
 41 H       -4.3800    -7.8270     0.0010 H     1 <1>   0.0800 
 42 H       -4.2230    -6.2410    -0.7170 H     1 <1>   0.0800 
 43 H       -5.1150    -6.8270     2.1180 H     1 <1>   0.0800 
 44 H       -7.2240    -5.8970     1.4210 H     1 <1>   0.4500 
 45 H       -7.1170    -4.5790    -0.3970 H     1 <1>   0.0800 
 46 H       -6.1180    -5.7420    -1.2560 H     1 <1>   0.0800 
 47 H       -6.3050    -8.4450     0.6090 H     1 <1>   0.0800 
 48 H       -7.7890    -7.9600     1.3870 H     1 <1>   0.0800 
 49 H       -8.3570    -6.1420    -2.1270 H     1 <1>   0.0800 
 50 H       -8.7890    -8.3680    -0.6350 H     1 <1>   0.0800 
 51 H      -10.1020    -6.2360    -0.7290 H     1 <1>   0.4000 
 52 H       -6.1180    -7.9600    -2.0280 H     1 <1>   0.0800 
 53 H       -7.5940    -8.4270    -2.8030 H     1 <1>   0.0800 
 54 H       -8.2690   -10.6930    -2.8590 H     1 <1>   0.1500 
 55 H       -4.7340   -11.7430     0.1210 H     1 <1>   0.1500 
 56 H       -6.0320   -13.4910    -0.9320 H     1 <1>   0.1500 
@<TRIPOS>BOND
  1   1   2  1   
  2   1   3  1   
  3   2   4  ar  
  4   2   5  ar  
  5   3  28  1   
  6   3  29  1   
  7   3  30  1   
  8   4   6  ar  
  9   4  31  1   
 10   5   7  ar  
 11   5  32  1   
 12   6   8  1   
 13   6   9  ar  
 14   7   9  ar  
 15   7  33  1   
 16   8  10  1   
 17   8  11  1   
 18   9  34  1   
 19  10  12  1   
 20  10  35  1   
 21  10  36  1   
 22  11  13  1   
 23  11  37  1   
 24  11  38  1   
 25  12  14  1   
 26  12  39  1   
 27  12  40  1   
 28  13  14  1   
 29  13  41  1   
 30  13  42  1   
 31  14  15  1   
 32  14  43  1   
 33  15  16  1   
 34  15  17  1   
 35  15  44  1   
 36  16  18  1   
 37  16  45  1   
 38  16  46  1   
 39  17  19  1   
 40  17  47  1   
 41  17  48  1   
 42  18  19  1   
 43  18  20  1   
 44  18  49  1   
 45  19  21  1   
 46  19  50  1   
 47  20  51  1   
 48  21  22  1   
 49  21  52  1   
 50  21  53  1   
 51  22  23  ar  
 52  22  24  ar  
 53  23  25  ar  
 54  24  26  ar  
 55  24  54  1   
 56  25  27  ar  
 57  25  55  1   
 58  26  27  ar  
 59  27  56  1   
@<TRIPOS>SUBSTRUCTURE
  1 ****  13 GROUP 4 **** **** 0

# MOE 2024.06 (io_trps.svl 2023.06)
