@<TRIPOS>MOLECULE
NONAME
41 44 1 0 0 
SMALL
USER_CHARGES


@<TRIPOS>ATOM
  1 O        0.6880    -0.1780    -1.4330 O.2   1 <1>  -0.5700 
  2 C        1.6760    -0.5550    -0.8500 C.2   1 <1>   0.5690 
  3 N        2.6650     0.3110    -0.5300 N.am  1 <1>  -0.7300 
  4 C        1.8210    -2.0210    -0.4560 C.3   1 <1>  -0.0190 
  5 C        2.6200     1.7650    -0.8330 C.3   1 <1>   0.3210 
  6 C        1.7040    -2.9420    -1.6860 C.3   1 <1>  -0.0220 
  7 C        0.7980    -2.4250     0.6230 C.3   1 <1>  -0.1600 
  8 C        3.8080     2.5160    -0.2320 C.2   1 <1>   0.3350 
  9 C        1.6230    -4.4030    -1.2730 C.2   1 <1>  -0.2880 
 10 C        1.0390    -3.8590     1.1210 C.3   1 <1>  -0.0220 
 11 N        4.7600     1.9740     0.4320 N.2   1 <1>  -0.4100 
 12 N        3.9260     3.8420    -0.3760 N.2   1 <1>  -0.5650 
 13 C        1.3390    -4.8060    -0.0310 C.2   1 <1>  -0.2880 
 14 O        5.5180     2.9630     0.7320 O.3   1 <1>  -0.0190 
 15 C        5.0260     4.0750     0.2550 C.2   1 <1>   0.4250 
 16 C        5.6940     5.3420     0.4560 C.ar  1 <1>   0.0530 
 17 C        5.1490     6.5220    -0.0650 C.ar  1 <1>  -0.1500 
 18 C        6.9010     5.4340     1.1720 C.ar  1 <1>  -0.1500 
 19 C        5.8050     7.7160     0.1400 C.ar  1 <1>   0.0820 
 20 C        7.5490     6.6440     1.3710 C.ar  1 <1>  -0.1500 
 21 O        5.4500     8.9380    -0.2720 O.3   1 <1>  -0.3630 
 22 C        6.9740     7.7800     0.8390 C.ar  1 <1>   0.0820 
 23 C        6.4570     9.8360     0.1940 C.3   1 <1>   0.4000 
 24 O        7.4080     9.0400     0.8990 O.3   1 <1>  -0.3630 
 25 H        3.4990     0.0150    -0.0170 H     1 <1>   0.3700 
 26 H        2.8030    -2.1600    -0.0410 H     1 <1>   0.0800 
 27 H        1.7070     2.1800    -0.4420 H     1 <1>   0.0800 
 28 H        2.6200     1.9020    -1.9000 H     1 <1>   0.0800 
 29 H        2.5610    -2.7920    -2.3200 H     1 <1>   0.0800 
 30 H        0.8220    -2.6960    -2.2530 H     1 <1>   0.0800 
 31 H       -0.1910    -2.3610     0.2020 H     1 <1>   0.0800 
 32 H        0.8460    -1.7440     1.4540 H     1 <1>   0.0800 
 33 H        1.8120    -5.0880    -2.0830 H     1 <1>   0.1500 
 34 H        0.1650    -4.1990     1.6500 H     1 <1>   0.0800 
 35 H        1.8690    -3.8740     1.8050 H     1 <1>   0.0800 
 36 H        1.2980    -5.8440     0.2520 H     1 <1>   0.1500 
 37 H        4.2280     6.5080    -0.6210 H     1 <1>   0.1500 
 38 H        7.3420     4.5420     1.5840 H     1 <1>   0.1500 
 39 H        8.4720     6.7120     1.9190 H     1 <1>   0.1500 
 40 H        6.0190    10.5540     0.8640 H     1 <1>   0.0800 
 41 H        6.9340    10.3110    -0.6450 H     1 <1>   0.0800 
@<TRIPOS>BOND
  1   1   2  2   
  2   2   3  am  
  3   2   4  1   
  4   3   5  1   
  5   3  25  1   
  6   4   6  1   
  7   4   7  1   
  8   4  26  1   
  9   5   8  1   
 10   5  27  1   
 11   5  28  1   
 12   6   9  1   
 13   6  29  1   
 14   6  30  1   
 15   7  10  1   
 16   7  31  1   
 17   7  32  1   
 18   8  11  2   
 19   8  12  1   
 20   9  13  2   
 21   9  33  1   
 22  10  13  1   
 23  10  34  1   
 24  10  35  1   
 25  11  14  1   
 26  12  15  2   
 27  13  36  1   
 28  14  15  1   
 29  15  16  1   
 30  16  17  ar  
 31  16  18  ar  
 32  17  19  ar  
 33  17  37  1   
 34  18  20  ar  
 35  18  38  1   
 36  19  21  1   
 37  19  22  ar  
 38  20  22  ar  
 39  20  39  1   
 40  21  23  1   
 41  22  24  1   
 42  23  24  1   
 43  23  40  1   
 44  23  41  1   
@<TRIPOS>SUBSTRUCTURE
  1 ****   8 GROUP 4 **** **** 0

# MOE 2024.06 (io_trps.svl 2023.06)
