@<TRIPOS>MOLECULE
NONAME
45 47 1 0 0 
SMALL
USER_CHARGES


@<TRIPOS>ATOM
  1 S       -0.3960     0.8800     1.3090 S.o2  1 <1>   1.4470 
  2 O       -0.1420    -0.2680     2.1530 O.2   1 <1>  -0.6500 
  3 O       -0.8760     2.0910     1.9440 O.2   1 <1>  -0.6500 
  4 N       -1.5530     0.4530     0.1400 N.am  1 <1>  -0.8490 
  5 C        1.1040     1.2860     0.3500 C.ar  1 <1>  -0.0090 
  6 C       -1.2290    -0.7180    -0.7010 C.3   1 <1>   0.1960 
  7 C       -2.9410     0.4640     0.6110 C.3   1 <1>   0.1960 
  8 C        1.1340     2.2470    -0.6660 C.ar  1 <1>  -0.1440 
  9 C        2.2880     0.6170     0.6400 C.ar  1 <1>  -0.1500 
 10 C       -1.6120    -2.0590    -0.0620 C.3   1 <1>  -0.1860 
 11 C       -3.3120    -0.8310     1.3340 C.3   1 <1>  -0.1600 
 12 C        2.3130     2.4970    -1.3490 C.ar  1 <1>  -0.1500 
 13 C       -0.1020     3.0470    -1.0620 C.3   1 <1>  -0.0970 
 14 C        3.4870     0.8580    -0.0270 C.ar  1 <1>   0.0530 
 15 C       -1.4270    -3.1840    -1.0590 C.2   1 <1>   0.9060 
 16 C       -3.0620    -2.0180     0.4130 C.3   1 <1>   0.2000 
 17 C        3.4700     1.8150    -1.0350 C.ar  1 <1>  -0.1500 
 18 C        4.7030     0.1550     0.3120 C.2   1 <1>   0.0870 
 19 O       -0.9120    -2.9460    -2.1550 O.co2 1 <1>  -0.9000 
 20 O       -1.8280    -4.3140    -0.7500 O.co2 1 <1>  -0.9000 
 21 O       -3.3390    -3.1760     1.1030 O.3   1 <1>  -0.6800 
 22 O        4.7920    -0.5840     1.3960 O.3   1 <1>  -0.0190 
 23 C        5.9100     0.0790    -0.2920 C.2   1 <1>  -0.1500 
 24 N        5.9630    -1.1300     1.5440 N.2   1 <1>  -0.4100 
 25 C        6.6580    -0.7460     0.5350 C.2   1 <1>   0.1080 
 26 C        8.0960    -1.1550     0.3070 C.3   1 <1>  -0.0590 
 27 H       -1.7670    -0.6200    -1.6300 H     1 <1>   0.0800 
 28 H       -0.1800    -0.7260    -0.9490 H     1 <1>   0.0800 
 29 H       -3.1090     1.3070     1.2590 H     1 <1>   0.0800 
 30 H       -3.5870     0.5810    -0.2420 H     1 <1>   0.0800 
 31 H        2.2790    -0.1280     1.4180 H     1 <1>   0.1500 
 32 H       -0.9610    -2.2560     0.7660 H     1 <1>   0.0800 
 33 H       -4.3510    -0.8030     1.6040 H     1 <1>   0.0800 
 34 H       -2.7270    -0.9300     2.2320 H     1 <1>   0.0800 
 35 H        2.3380     3.2320    -2.1360 H     1 <1>   0.1500 
 36 H        0.1520     3.8400    -1.7430 H     1 <1>   0.0800 
 37 H       -0.5600     3.4940    -0.1980 H     1 <1>   0.0800 
 38 H       -0.8170     2.4080    -1.5470 H     1 <1>   0.0800 
 39 H       -3.7230    -1.9820    -0.4380 H     1 <1>   0.0800 
 40 H        4.3710     2.0320    -1.5790 H     1 <1>   0.1500 
 41 H       -2.9050    -3.9090     0.5750 H     1 <1>   0.4000 
 42 H        6.2430     0.5380    -1.2020 H     1 <1>   0.1500 
 43 H        8.4870    -0.6830    -0.5750 H     1 <1>   0.0800 
 44 H        8.1520    -2.2220     0.1900 H     1 <1>   0.0800 
 45 H        8.6910    -0.8660     1.1540 H     1 <1>   0.0800 
@<TRIPOS>BOND
  1   1   2  2   
  2   1   3  2   
  3   1   4  am  
  4   1   5  1   
  5   4   6  1   
  6   4   7  1   
  7   5   8  ar  
  8   5   9  ar  
  9   6  10  1   
 10   6  27  1   
 11   6  28  1   
 12   7  11  1   
 13   7  29  1   
 14   7  30  1   
 15   8  12  ar  
 16   8  13  1   
 17   9  14  ar  
 18   9  31  1   
 19  10  15  1   
 20  10  16  1   
 21  10  32  1   
 22  11  16  1   
 23  11  33  1   
 24  11  34  1   
 25  12  17  ar  
 26  12  35  1   
 27  13  36  1   
 28  13  37  1   
 29  13  38  1   
 30  14  17  ar  
 31  14  18  1   
 32  15  19  ar  
 33  15  20  ar  
 34  16  21  1   
 35  16  39  1   
 36  17  40  1   
 37  18  22  1   
 38  18  23  2   
 39  21  41  1   
 40  22  24  1   
 41  23  25  1   
 42  23  42  1   
 43  24  25  2   
 44  25  26  1   
 45  26  43  1   
 46  26  44  1   
 47  26  45  1   
@<TRIPOS>SUBSTRUCTURE
  1 ****   5 GROUP 4 **** **** 0

# MOE 2024.06 (io_trps.svl 2023.06)
