@<TRIPOS>MOLECULE
NONAME
48 51 1 0 0 
SMALL
USER_CHARGES


@<TRIPOS>ATOM
  1 O       -1.6620     0.7800    -2.3280 O.2   1 <1>  -0.5700 
  2 C       -2.2340     1.1730    -1.3280 C.2   1 <1>   0.5440 
  3 N       -1.8620     2.3870    -0.7870 N.am  1 <1>  -0.6600 
  4 C       -3.2660     0.3510    -0.7410 C.ar  1 <1>   0.0860 
  5 C       -1.9720     2.7170     0.6670 C.3   1 <1>   0.1400 
  6 C       -1.0250     3.3660    -1.5460 C.3   1 <1>   0.1400 
  7 C       -3.1030    -1.0290    -0.6530 C.ar  1 <1>   0.1600 
  8 C       -4.4610     0.8700    -0.2510 C.ar  1 <1>  -0.1500 
  9 C       -0.5850     3.0190     1.2620 C.3   1 <1>   0.1200 
 10 C        0.3070     3.6150    -0.8220 C.3   1 <1>   0.1200 
 11 N       -3.9640    -1.8830    -0.1260 N.ar  1 <1>  -0.6200 
 12 C       -5.3710    -0.0030     0.2940 C.ar  1 <1>  -0.1500 
 13 O        0.0800     3.9920     0.5080 O.3   1 <1>  -0.5600 
 14 C       -5.0920    -1.3660     0.3430 C.ar  1 <1>   0.4100 
 15 N       -6.0110    -2.2240     0.8850 N.pl3 1 <1>  -0.8690 
 16 C       -5.8760    -3.6980     0.8920 C.3   1 <1>   0.2890 
 17 C       -6.3690    -4.2750    -0.4390 C.3   1 <1>  -0.0170 
 18 C       -6.6910    -4.2500     2.0590 C.3   1 <1>  -0.1600 
 19 C       -6.5980    -5.7830    -0.3840 C.ar  1 <1>  -0.1430 
 20 C       -6.4990    -5.7660     2.1630 C.3   1 <1>  -0.0170 
 21 C       -6.6740    -6.4710     0.8230 C.ar  1 <1>  -0.1430 
 22 C       -6.7480    -6.4740    -1.5760 C.ar  1 <1>  -0.1500 
 23 C       -6.8970    -7.8390     0.8160 C.ar  1 <1>  -0.1500 
 24 C       -6.9720    -7.8390    -1.5760 C.ar  1 <1>  -0.1500 
 25 C       -7.0470    -8.5220    -0.3770 C.ar  1 <1>  -0.1500 
 26 H       -2.4110     1.9000     1.2110 H     1 <1>   0.0800 
 27 H       -2.6030     3.5800     0.7870 H     1 <1>   0.0800 
 28 H       -1.5590     4.2960    -1.6300 H     1 <1>   0.0800 
 29 H       -0.8280     3.0100    -2.5420 H     1 <1>   0.0800 
 30 H       -2.1910    -1.4460    -1.0480 H     1 <1>   0.1500 
 31 H       -4.6590     1.9260    -0.3080 H     1 <1>   0.1500 
 32 H        0.0190     2.1290     1.2850 H     1 <1>   0.0800 
 33 H       -0.6850     3.3940     2.2650 H     1 <1>   0.0800 
 34 H        0.8480     4.4110    -1.3020 H     1 <1>   0.0800 
 35 H        0.9140     2.7270    -0.8340 H     1 <1>   0.0800 
 36 H       -6.3040     0.3520     0.6860 H     1 <1>   0.1500 
 37 H       -6.9600    -1.8840     1.0340 H     1 <1>   0.4000 
 38 H       -4.8420    -3.9680     1.0320 H     1 <1>   0.0800 
 39 H       -5.6430    -4.0490    -1.1980 H     1 <1>   0.0800 
 40 H       -7.2980    -3.8070    -0.7070 H     1 <1>   0.0800 
 41 H       -7.7340    -4.0380     1.9020 H     1 <1>   0.0800 
 42 H       -6.3730    -3.7870     2.9750 H     1 <1>   0.0800 
 43 H       -7.2000    -6.1630     2.8770 H     1 <1>   0.0800 
 44 H       -5.5070    -5.9730     2.5250 H     1 <1>   0.0800 
 45 H       -6.6920    -5.9490    -2.5140 H     1 <1>   0.1500 
 46 H       -6.9540    -8.3810     1.7440 H     1 <1>   0.1500 
 47 H       -7.0870    -8.3660    -2.5060 H     1 <1>   0.1500 
 48 H       -7.2200    -9.5840    -0.3720 H     1 <1>   0.1500 
@<TRIPOS>BOND
  1   1   2  2   
  2   2   3  am  
  3   2   4  1   
  4   3   5  1   
  5   3   6  1   
  6   4   7  ar  
  7   4   8  ar  
  8   5   9  1   
  9   5  26  1   
 10   5  27  1   
 11   6  10  1   
 12   6  28  1   
 13   6  29  1   
 14   7  11  ar  
 15   7  30  1   
 16   8  12  ar  
 17   8  31  1   
 18   9  13  1   
 19   9  32  1   
 20   9  33  1   
 21  10  13  1   
 22  10  34  1   
 23  10  35  1   
 24  11  14  ar  
 25  12  14  ar  
 26  12  36  1   
 27  14  15  1   
 28  15  16  1   
 29  15  37  1   
 30  16  17  1   
 31  16  18  1   
 32  16  38  1   
 33  17  19  1   
 34  17  39  1   
 35  17  40  1   
 36  18  20  1   
 37  18  41  1   
 38  18  42  1   
 39  19  21  ar  
 40  19  22  ar  
 41  20  21  1   
 42  20  43  1   
 43  20  44  1   
 44  21  23  ar  
 45  22  24  ar  
 46  22  45  1   
 47  23  25  ar  
 48  23  46  1   
 49  24  25  ar  
 50  24  47  1   
 51  25  48  1   
@<TRIPOS>SUBSTRUCTURE
  1 ****  11 GROUP 4 **** **** 0

# MOE 2024.06 (io_trps.svl 2023.06)
