@<TRIPOS>MOLECULE
NONAME
49 51 1 0 0 
SMALL
USER_CHARGES


@<TRIPOS>ATOM
  1 O       -1.4450     0.1550     1.7210 O.2   1 <1>  -0.5700 
  2 C       -2.2700    -0.4450     1.0560 C.2   1 <1>   0.5410 
  3 C       -2.1320    -1.8180     0.7370 C.2   1 <1>  -0.1360 
  4 C       -3.4390     0.1890     0.5560 C.2   1 <1>  -0.1360 
  5 C       -3.0740    -2.4860     0.0140 C.2   1 <1>   0.0910 
  6 C       -4.3430    -0.5110    -0.1670 C.2   1 <1>  -0.0620 
  7 O       -4.1570    -1.8090    -0.4250 O.3   1 <1>  -0.1530 
  8 C       -2.9820    -3.8870    -0.3500 C.2   1 <1>   0.6160 
  9 C       -5.6190     0.0600    -0.7510 C.3   1 <1>  -0.1020 
 10 O       -1.8810    -4.3470    -0.5820 O.2   1 <1>  -0.5700 
 11 N       -4.0770    -4.7290    -0.4280 N.am  1 <1>  -0.6600 
 12 C       -4.0410    -5.9880    -1.2500 C.3   1 <1>   0.1400 
 13 C       -5.3820    -4.4310     0.2240 C.3   1 <1>   0.1400 
 14 C       -4.4920    -7.2360    -0.4520 C.3   1 <1>   0.0000 
 15 C       -5.8340    -5.6280     1.0560 C.3   1 <1>  -0.1600 
 16 C       -5.8610    -6.8860     0.1890 C.3   1 <1>   0.2000 
 17 C       -4.7540    -8.4050    -1.4380 C.3   1 <1>   0.1200 
 18 C       -3.4250    -7.6070     0.6290 C.3   1 <1>  -0.0160 
 19 O       -6.3440    -7.9280     0.9620 O.3   1 <1>  -0.6800 
 20 O       -3.7050    -8.5710    -2.3320 O.3   1 <1>  -0.6800 
 21 C       -2.2200    -8.3940     0.1200 C.ar  1 <1>  -0.1440 
 22 C       -2.2240    -9.7800     0.1710 C.ar  1 <1>  -0.1500 
 23 C       -1.1140    -7.7420    -0.4010 C.ar  1 <1>  -0.1500 
 24 C       -1.1460   -10.5040    -0.3070 C.ar  1 <1>  -0.1500 
 25 C       -0.0350    -8.4640    -0.8800 C.ar  1 <1>  -0.1500 
 26 C       -0.0500    -9.8460    -0.8360 C.ar  1 <1>  -0.1500 
 27 H       -1.2430    -2.3040     1.0930 H     1 <1>   0.1500 
 28 H       -3.5480     1.2320     0.7860 H     1 <1>   0.1500 
 29 H       -6.4710    -0.4590    -0.3520 H     1 <1>   0.0800 
 30 H       -5.6140    -0.0540    -1.8210 H     1 <1>   0.0800 
 31 H       -5.7110     1.1060    -0.5170 H     1 <1>   0.0800 
 32 H       -4.6950    -5.8540    -2.0950 H     1 <1>   0.0800 
 33 H       -3.0540    -6.1490    -1.6480 H     1 <1>   0.0800 
 34 H       -5.3000    -3.5760     0.8730 H     1 <1>   0.0800 
 35 H       -6.1120    -4.2110    -0.5370 H     1 <1>   0.0800 
 36 H       -6.8220    -5.4310     1.4340 H     1 <1>   0.0800 
 37 H       -5.1670    -5.7480     1.8900 H     1 <1>   0.0800 
 38 H       -6.5820    -6.7340    -0.5980 H     1 <1>   0.0800 
 39 H       -5.6350    -8.2150    -2.0260 H     1 <1>   0.0800 
 40 H       -4.8960    -9.3300    -0.9070 H     1 <1>   0.0800 
 41 H       -3.0680    -6.7130     1.1090 H     1 <1>   0.0800 
 42 H       -3.8780    -8.2010     1.4000 H     1 <1>   0.0800 
 43 H       -5.8360    -8.0050     1.7910 H     1 <1>   0.4000 
 44 H       -2.8730    -8.7540    -1.8340 H     1 <1>   0.4000 
 45 H       -3.0690   -10.3070     0.5800 H     1 <1>   0.1500 
 46 H       -1.0820    -6.6680    -0.4390 H     1 <1>   0.1500 
 47 H       -1.1590   -11.5800    -0.2680 H     1 <1>   0.1500 
 48 H        0.8160    -7.9450    -1.2870 H     1 <1>   0.1500 
 49 H        0.7890   -10.4060    -1.2100 H     1 <1>   0.1500 
@<TRIPOS>BOND
  1   1   2  2   
  2   2   3  1   
  3   2   4  1   
  4   3   5  2   
  5   3  27  1   
  6   4   6  2   
  7   4  28  1   
  8   5   7  1   
  9   5   8  1   
 10   6   7  1   
 11   6   9  1   
 12   8  10  2   
 13   8  11  am  
 14   9  29  1   
 15   9  30  1   
 16   9  31  1   
 17  11  12  1   
 18  11  13  1   
 19  12  14  1   
 20  12  32  1   
 21  12  33  1   
 22  13  15  1   
 23  13  34  1   
 24  13  35  1   
 25  14  16  1   
 26  14  17  1   
 27  14  18  1   
 28  15  16  1   
 29  15  36  1   
 30  15  37  1   
 31  16  19  1   
 32  16  38  1   
 33  17  20  1   
 34  17  39  1   
 35  17  40  1   
 36  18  21  1   
 37  18  41  1   
 38  18  42  1   
 39  19  43  1   
 40  20  44  1   
 41  21  22  ar  
 42  21  23  ar  
 43  22  24  ar  
 44  22  45  1   
 45  23  25  ar  
 46  23  46  1   
 47  24  26  ar  
 48  24  47  1   
 49  25  26  ar  
 50  25  48  1   
 51  26  49  1   
@<TRIPOS>SUBSTRUCTURE
  1 ****  11 GROUP 4 **** **** 0

# MOE 2024.06 (io_trps.svl 2023.06)
