@<TRIPOS>MOLECULE
NONAME
47 49 1 0 0 
SMALL
USER_CHARGES


@<TRIPOS>ATOM
  1 S        0.3570    -0.1680    -0.6090 S.3   1 <1>  -0.3320 
  2 C        0.1700     1.4740     0.0330 C.ar  1 <1>   0.7720 
  3 C       -1.0980    -1.1110     0.0470 C.3   1 <1>  -0.0100 
  4 N        1.1400     2.3280    -0.3340 N.ar  1 <1>  -0.1790 
  5 N       -0.8410     1.7570     0.7850 N.ar  1 <1>  -0.6200 
  6 C        1.1220     3.6030     0.0800 C.ar  1 <1>   0.4610 
  7 C       -0.9010     3.0210     1.2200 C.ar  1 <1>   0.4100 
  8 N        2.1160     4.4480    -0.3100 N.pl3 1 <1>  -0.8380 
  9 C        0.0550     3.9590     0.8880 C.ar  1 <1>  -0.1500 
 10 N       -1.9530     3.2940     1.9960 N.pl3 1 <1>  -0.9000 
 11 C        2.1140     5.9130     0.0020 C.3   1 <1>   0.2090 
 12 C        3.3850     4.1100    -1.0170 C.3   1 <1>   0.2090 
 13 C        3.3460     6.4940    -0.6880 C.3   1 <1>   0.0630 
 14 C        4.2990     5.2990    -0.7560 C.3   1 <1>  -0.1600 
 15 C        3.8420     7.7790    -0.0080 C.ar  1 <1>  -0.1430 
 16 C        3.0620     8.9340    -0.0970 C.ar  1 <1>   0.0830 
 17 C        5.0420     7.8320     0.6960 C.ar  1 <1>  -0.1500 
 18 O        1.8730     8.8420    -0.7620 O.3   1 <1>  -0.3630 
 19 C        3.5150    10.1280     0.4840 C.ar  1 <1>   0.0830 
 20 C        5.4620     9.0020     1.3020 C.ar  1 <1>  -0.1500 
 21 C        0.7210     9.4500    -0.2110 C.3   1 <1>   0.0400 
 22 O        2.8470    11.3000     0.3680 O.3   1 <1>  -0.3630 
 23 C        4.6990    10.1490     1.1960 C.ar  1 <1>  -0.1500 
 24 C        3.0530    11.9860    -0.8460 C.3   1 <1>   0.0400 
 25 H       -1.0290    -2.1210    -0.3180 H     1 <1>   0.0800 
 26 H       -1.9940    -0.6360    -0.3110 H     1 <1>   0.0800 
 27 H       -1.0550    -1.0890     1.1210 H     1 <1>   0.0800 
 28 H        1.8770     1.9950    -0.9400 H     1 <1>   0.4570 
 29 H       -0.0390     4.9580     1.2640 H     1 <1>   0.1500 
 30 H       -2.1530     4.2030     2.4220 H     1 <1>   0.4000 
 31 H       -2.6370     2.5640     2.2170 H     1 <1>   0.4000 
 32 H        2.1960     6.0570     1.0670 H     1 <1>   0.0800 
 33 H        1.2170     6.3870    -0.3590 H     1 <1>   0.0800 
 34 H        3.1970     4.0220    -2.0750 H     1 <1>   0.0800 
 35 H        3.8270     3.2020    -0.6410 H     1 <1>   0.0800 
 36 H        3.0660     6.7440    -1.6970 H     1 <1>   0.0800 
 37 H        5.0440     5.4160    -1.5220 H     1 <1>   0.0800 
 38 H        4.7810     5.1320     0.1900 H     1 <1>   0.0800 
 39 H        5.6790     6.9740     0.7920 H     1 <1>   0.1500 
 40 H        6.3880     9.0240     1.8510 H     1 <1>   0.1500 
 41 H       -0.1440     8.9250    -0.5740 H     1 <1>   0.0800 
 42 H        0.6780    10.4750    -0.5300 H     1 <1>   0.0800 
 43 H        0.7670     9.3930     0.8630 H     1 <1>   0.0800 
 44 H        5.0230    11.0640     1.6580 H     1 <1>   0.1500 
 45 H        2.4670    12.8860    -0.8290 H     1 <1>   0.0800 
 46 H        2.7430    11.3560    -1.6620 H     1 <1>   0.0800 
 47 H        4.0980    12.2260    -0.9360 H     1 <1>   0.0800 
@<TRIPOS>BOND
  1   1   2  1   
  2   1   3  1   
  3   2   4  ar  
  4   2   5  ar  
  5   3  25  1   
  6   3  26  1   
  7   3  27  1   
  8   4   6  ar  
  9   4  28  1   
 10   5   7  ar  
 11   6   8  1   
 12   6   9  ar  
 13   7   9  ar  
 14   7  10  1   
 15   8  11  1   
 16   8  12  1   
 17   9  29  1   
 18  10  30  1   
 19  10  31  1   
 20  11  13  1   
 21  11  32  1   
 22  11  33  1   
 23  12  14  1   
 24  12  34  1   
 25  12  35  1   
 26  13  14  1   
 27  13  15  1   
 28  13  36  1   
 29  14  37  1   
 30  14  38  1   
 31  15  16  ar  
 32  15  17  ar  
 33  16  18  1   
 34  16  19  ar  
 35  17  20  ar  
 36  17  39  1   
 37  18  21  1   
 38  19  22  1   
 39  19  23  ar  
 40  20  23  ar  
 41  20  40  1   
 42  21  41  1   
 43  21  42  1   
 44  21  43  1   
 45  22  24  1   
 46  23  44  1   
 47  24  45  1   
 48  24  46  1   
 49  24  47  1   
@<TRIPOS>SUBSTRUCTURE
  1 ****  11 GROUP 4 **** **** 0

# MOE 2024.06 (io_trps.svl 2023.06)
