@<TRIPOS>MOLECULE
NONAME
45 48 1 0 0 
SMALL
USER_CHARGES


@<TRIPOS>ATOM
  1 F        2.0660     0.1500     1.8580 F     1 <1>  -0.1900 
  2 C        2.4450    -0.5140     0.7970 C.ar  1 <1>   0.1900 
  3 C        2.7660     0.1780    -0.3640 C.ar  1 <1>  -0.1440 
  4 C        2.5140    -1.8910     0.8870 C.ar  1 <1>  -0.1500 
  5 C        3.1620    -0.5640    -1.4680 C.ar  1 <1>  -0.1500 
  6 C        2.6940     1.6990    -0.4390 C.3   1 <1>  -0.0160 
  7 C        2.9160    -2.6120    -0.2230 C.ar  1 <1>  -0.1500 
  8 C        3.2380    -1.9470    -1.3960 C.ar  1 <1>  -0.1500 
  9 C        3.8540     2.3690     0.3230 C.3   1 <1>  -0.0800 
 10 C        3.7310     3.9010     0.2730 C.3   1 <1>  -0.1600 
 11 C        5.2300     1.9410    -0.2210 C.3   1 <1>  -0.1600 
 12 C        4.8910     4.5830     0.9980 C.3   1 <1>   0.3430 
 13 C        6.3710     2.6480     0.5080 C.3   1 <1>   0.3430 
 14 N        6.1840     4.1210     0.4190 N.4   1 <1>  -0.9590 
 15 C        7.3360     4.8810     1.0060 C.3   1 <1>   0.5240 
 16 C        7.3690     6.3120     0.4580 C.2   1 <1>   0.3350 
 17 N        6.9260     6.6190    -0.7280 N.2   1 <1>  -0.7070 
 18 N        7.8500     7.3010     1.2040 N.2   1 <1>  -0.5650 
 19 N        7.1580     7.9320    -0.7720 N.pl3 1 <1>   0.6010 
 20 C        7.7120     8.3190     0.4140 C.2   1 <1>   0.3120 
 21 C        6.9230     8.8600    -1.7630 C.2   1 <1>  -0.1810 
 22 N        8.0570     9.6160     0.6950 N.2   1 <1>  -0.5760 
 23 C        7.2630    10.1500    -1.5000 C.2   1 <1>  -0.1360 
 24 C        7.8350    10.4830    -0.2390 C.2   1 <1>   0.3760 
 25 H        2.2560    -2.3850     1.8070 H     1 <1>   0.1500 
 26 H        3.4130    -0.0740    -2.3930 H     1 <1>   0.1500 
 27 H        1.7550     2.0190    -0.0200 H     1 <1>   0.0800 
 28 H        2.7040     2.0110    -1.4690 H     1 <1>   0.0800 
 29 H        2.9770    -3.6860    -0.1770 H     1 <1>   0.1500 
 30 H        3.5460    -2.5120    -2.2600 H     1 <1>   0.1500 
 31 H        3.7910     2.0640     1.3540 H     1 <1>   0.0800 
 32 H        2.8090     4.2010     0.7400 H     1 <1>   0.0800 
 33 H        3.7010     4.2420    -0.7480 H     1 <1>   0.0800 
 34 H        5.2950     2.1460    -1.2760 H     1 <1>   0.0800 
 35 H        5.3570     0.8800    -0.0920 H     1 <1>   0.0800 
 36 H        4.8510     4.3400     2.0470 H     1 <1>   0.0800 
 37 H        4.7990     5.6530     0.8920 H     1 <1>   0.0800 
 38 H        7.3110     2.3640     0.0620 H     1 <1>   0.0800 
 39 H        6.3770     2.3420     1.5420 H     1 <1>   0.0800 
 40 H        6.1760     4.4070    -0.5740 H     1 <1>   0.4500 
 41 H        8.2650     4.4050     0.7450 H     1 <1>   0.0800 
 42 H        7.2580     4.9130     2.0790 H     1 <1>   0.0800 
 43 H        6.4880     8.5020    -2.6780 H     1 <1>   0.1500 
 44 H        7.1180    10.9420    -2.2140 H     1 <1>   0.1500 
 45 H        8.0920    11.5140    -0.0650 H     1 <1>   0.0600 
@<TRIPOS>BOND
  1   1   2  1   
  2   2   3  ar  
  3   2   4  ar  
  4   3   5  ar  
  5   3   6  1   
  6   4   7  ar  
  7   4  25  1   
  8   5   8  ar  
  9   5  26  1   
 10   6   9  1   
 11   6  27  1   
 12   6  28  1   
 13   7   8  ar  
 14   7  29  1   
 15   8  30  1   
 16   9  10  1   
 17   9  11  1   
 18   9  31  1   
 19  10  12  1   
 20  10  32  1   
 21  10  33  1   
 22  11  13  1   
 23  11  34  1   
 24  11  35  1   
 25  12  14  1   
 26  12  36  1   
 27  12  37  1   
 28  13  14  1   
 29  13  38  1   
 30  13  39  1   
 31  14  15  1   
 32  14  40  1   
 33  15  16  1   
 34  15  41  1   
 35  15  42  1   
 36  16  17  2   
 37  16  18  1   
 38  17  19  1   
 39  18  20  2   
 40  19  20  1   
 41  19  21  1   
 42  20  22  1   
 43  21  23  2   
 44  21  43  1   
 45  22  24  2   
 46  23  24  1   
 47  23  44  1   
 48  24  45  1   
@<TRIPOS>SUBSTRUCTURE
  1 ****  14 GROUP 4 **** **** 0

# MOE 2024.06 (io_trps.svl 2023.06)
