@<TRIPOS>MOLECULE
NONAME
37 39 1 0 0 
SMALL
USER_CHARGES


@<TRIPOS>ATOM
  1 O       -0.9210     0.1520     1.7720 O.2   1 <1>  -0.5700 
  2 C       -1.7860     0.8150     1.2280 C.2   1 <1>   0.5440 
  3 N       -3.0060     0.2490     0.9670 N.am  1 <1>  -0.6600 
  4 C       -1.5140     2.1990     0.8850 C.ar  1 <1>   0.0860 
  5 C       -4.1380     0.9240     0.2700 C.3   1 <1>   0.2350 
  6 C       -3.2800    -1.2120     1.0560 C.3   1 <1>   0.2350 
  7 C       -1.2210     2.6280    -0.4190 C.ar  1 <1>  -0.1440 
  8 C       -1.5560     3.1510     1.9010 C.ar  1 <1>  -0.1500 
  9 C       -4.8000    -0.1640    -0.5550 C.3   1 <1>  -0.2420 
 10 C       -4.2870    -1.4920    -0.0490 C.3   1 <1>  -0.2420 
 11 C       -1.0110     3.9800    -0.6810 C.ar  1 <1>  -0.1440 
 12 C       -1.1460     1.6030    -1.5530 C.3   1 <1>  -0.0970 
 13 C       -1.3340     4.4880     1.6440 C.ar  1 <1>  -0.1500 
 14 C       -6.1740     0.3050    -1.0360 C.2   1 <1>   0.9470 
 15 C       -3.9950    -1.0610    -1.4640 C.3   1 <1>  -0.2000 
 16 C       -5.0010    -2.8250     0.1860 C.2   1 <1>   0.9470 
 17 C       -1.0660     4.9000     0.3540 C.ar  1 <1>  -0.1500 
 18 C       -0.7280     4.4940    -2.0870 C.3   1 <1>  -0.0970 
 19 O       -6.3960     0.3870    -2.2530 O.co2 1 <1>  -0.9000 
 20 O       -6.9740     0.7650    -0.2100 O.co2 1 <1>  -0.9000 
 21 O       -4.9360    -3.7130    -0.6760 O.co2 1 <1>  -0.9000 
 22 O       -5.5010    -3.0520     1.2970 O.co2 1 <1>  -0.9000 
 23 H       -4.8310     1.2990     1.0040 H     1 <1>   0.0800 
 24 H       -3.8110     1.7290    -0.3610 H     1 <1>   0.0800 
 25 H       -2.3830    -1.7900     0.9160 H     1 <1>   0.0800 
 26 H       -3.7090    -1.4350     2.0180 H     1 <1>   0.0800 
 27 H       -1.7700     2.8230     2.9030 H     1 <1>   0.1500 
 28 H       -0.3540     1.8410    -2.2380 H     1 <1>   0.0800 
 29 H       -2.0780     1.5850    -2.0900 H     1 <1>   0.0800 
 30 H       -0.9520     0.6120    -1.1840 H     1 <1>   0.0800 
 31 H       -1.3720     5.2060     2.4440 H     1 <1>   0.1500 
 32 H       -2.9910    -0.7990    -1.7340 H     1 <1>   0.1000 
 33 H       -4.5170    -1.5680    -2.2580 H     1 <1>   0.1000 
 34 H       -0.9000     5.9450     0.1620 H     1 <1>   0.1500 
 35 H       -0.7730     5.5680    -2.1220 H     1 <1>   0.0800 
 36 H       -1.4560     4.1090    -2.7770 H     1 <1>   0.0800 
 37 H        0.2530     4.1860    -2.3990 H     1 <1>   0.0800 
@<TRIPOS>BOND
  1   1   2  2   
  2   2   3  am  
  3   2   4  1   
  4   3   5  1   
  5   3   6  1   
  6   4   7  ar  
  7   4   8  ar  
  8   5   9  1   
  9   5  23  1   
 10   5  24  1   
 11   6  10  1   
 12   6  25  1   
 13   6  26  1   
 14   7  11  ar  
 15   7  12  1   
 16   8  13  ar  
 17   8  27  1   
 18   9  10  1   
 19   9  14  1   
 20   9  15  1   
 21  10  15  1   
 22  10  16  1   
 23  11  17  ar  
 24  11  18  1   
 25  12  28  1   
 26  12  29  1   
 27  12  30  1   
 28  13  17  ar  
 29  13  31  1   
 30  14  19  ar  
 31  14  20  ar  
 32  15  32  1   
 33  15  33  1   
 34  16  21  ar  
 35  16  22  ar  
 36  17  34  1   
 37  18  35  1   
 38  18  36  1   
 39  18  37  1   
@<TRIPOS>SUBSTRUCTURE
  1 ****   5 GROUP 4 **** **** 0

# MOE 2024.06 (io_trps.svl 2023.06)
