@<TRIPOS>MOLECULE
NONAME
28 29 1 0 0 
SMALL
USER_CHARGES


@<TRIPOS>ATOM
  1 CL       0.4460    -0.3560    -0.8450 Cl    1 <1>  -0.1770 
  2 C        1.7510     0.7060    -0.3680 C.ar  1 <1>   0.1770 
  3 C        1.6650     2.0670    -0.6160 C.ar  1 <1>   0.1600 
  4 C        2.8610     0.1760     0.2540 C.ar  1 <1>  -0.1500 
  5 N        2.6010     2.9550    -0.2930 N.ar  1 <1>  -0.6200 
  6 C        3.8250     1.0950     0.5880 C.ar  1 <1>   0.1900 
  7 C        3.6810     2.4660     0.3140 C.ar  1 <1>   0.4100 
  8 F        4.9150     0.6620     1.1780 F     1 <1>  -0.1900 
  9 N        4.6630     3.3720     0.6720 N.pl3 1 <1>  -0.8690 
 10 C        4.8660     4.6290    -0.1060 C.3   1 <1>   0.2890 
 11 C        6.1910     5.2940     0.2230 C.3   1 <1>   0.2000 
 12 C        3.8670     5.7340     0.2400 C.3   1 <1>   0.1200 
 13 O        7.2280     4.7600    -0.5550 O.3   1 <1>  -0.5600 
 14 C        5.9070     6.7560    -0.0970 C.3   1 <1>   0.1200 
 15 O        4.5540     6.9580     0.1850 O.3   1 <1>  -0.5600 
 16 C        8.5100     5.1250    -0.1510 C.3   1 <1>   0.0400 
 17 H        0.7820     2.4400    -1.1040 H     1 <1>   0.1500 
 18 H        2.9610    -0.8730     0.4600 H     1 <1>   0.1500 
 19 H        5.5610     2.9180     0.8700 H     1 <1>   0.4000 
 20 H        4.8100     4.4280    -1.1630 H     1 <1>   0.0800 
 21 H        6.4190     5.1780     1.2690 H     1 <1>   0.0800 
 22 H        3.4930     5.6100     1.2410 H     1 <1>   0.0800 
 23 H        3.0510     5.7590    -0.4600 H     1 <1>   0.0800 
 24 H        6.0560     6.9540    -1.1450 H     1 <1>   0.0800 
 25 H        6.4910     7.4280     0.5060 H     1 <1>   0.0800 
 26 H        9.2160     4.6430    -0.8050 H     1 <1>   0.0800 
 27 H        8.6730     4.7960     0.8610 H     1 <1>   0.0800 
 28 H        8.6220     6.1930    -0.2260 H     1 <1>   0.0800 
@<TRIPOS>BOND
  1   1   2  1   
  2   2   3  ar  
  3   2   4  ar  
  4   3   5  ar  
  5   3  17  1   
  6   4   6  ar  
  7   4  18  1   
  8   5   7  ar  
  9   6   7  ar  
 10   6   8  1   
 11   7   9  1   
 12   9  10  1   
 13   9  19  1   
 14  10  11  1   
 15  10  12  1   
 16  10  20  1   
 17  11  13  1   
 18  11  14  1   
 19  11  21  1   
 20  12  15  1   
 21  12  22  1   
 22  12  23  1   
 23  13  16  1   
 24  14  15  1   
 25  14  24  1   
 26  14  25  1   
 27  16  26  1   
 28  16  27  1   
 29  16  28  1   
@<TRIPOS>SUBSTRUCTURE
  1 ****   9 GROUP 4 **** **** 0

# MOE 2024.06 (io_trps.svl 2023.06)
