@<TRIPOS>MOLECULE
NONAME
51 53 1 0 0 
SMALL
USER_CHARGES


@<TRIPOS>ATOM
  1 F       -0.8600    -1.5830    -2.0680 F     1 <1>  -0.1900 
  2 C       -1.5830    -1.8600    -1.0190 C.ar  1 <1>   0.1900 
  3 C       -1.8170    -3.1860    -0.7090 C.ar  1 <1>  -0.1500 
  4 C       -2.0890    -0.8230    -0.2610 C.ar  1 <1>  -0.1500 
  5 C       -2.5970    -3.4880     0.4000 C.ar  1 <1>  -0.1440 
  6 C       -2.8560    -1.1290     0.8500 C.ar  1 <1>  -0.1500 
  7 C       -3.1070    -2.4540     1.1780 C.ar  1 <1>  -0.1500 
  8 C       -2.8870    -4.9350     0.7470 C.3   1 <1>   0.4870 
  9 N       -3.9210    -5.4320    -0.1990 N.4   1 <1>  -0.9590 
 10 C       -4.0290    -6.9250    -0.1440 C.3   1 <1>   0.5660 
 11 C       -5.2510    -4.7720     0.0160 C.3   1 <1>   0.3430 
 12 C       -2.7120    -7.5000    -0.6500 C.ar  1 <1>  -0.1430 
 13 C       -5.2370    -7.4900    -0.9410 C.3   1 <1>   0.2000 
 14 C       -6.3360    -5.3870    -0.8830 C.3   1 <1>   0.1200 
 15 C       -1.9510    -8.2820     0.2070 C.ar  1 <1>  -0.1500 
 16 C       -2.2500    -7.2570    -1.9400 C.ar  1 <1>  -0.1500 
 17 O       -6.4120    -6.7650    -0.6660 O.3   1 <1>  -0.5600 
 18 C       -5.4770    -8.9640    -0.5760 C.3   1 <1>   0.1200 
 19 C       -0.7380    -8.8070    -0.2030 C.ar  1 <1>   0.0830 
 20 C       -1.0320    -7.7710    -2.3510 C.ar  1 <1>  -0.1500 
 21 O       -5.4450    -9.1260     0.8070 O.3   1 <1>  -0.6800 
 22 O       -0.0700    -9.5770     0.6890 O.3   1 <1>  -0.3630 
 23 C       -0.2610    -8.5290    -1.4880 C.ar  1 <1>   0.0830 
 24 C        0.1280   -10.9310     0.3410 C.3   1 <1>   0.0400 
 25 O        0.9350    -8.9690    -1.9470 O.3   1 <1>  -0.3630 
 26 C        2.0880    -8.4620    -1.3100 C.3   1 <1>   0.0400 
 27 H       -1.3840    -3.9490    -1.3330 H     1 <1>   0.1500 
 28 H       -1.8820     0.1980    -0.5340 H     1 <1>   0.1500 
 29 H       -3.2540    -0.3340     1.4590 H     1 <1>   0.1500 
 30 H       -3.7010    -2.6630     2.0520 H     1 <1>   0.1500 
 31 H       -3.2350    -5.0160     1.7640 H     1 <1>   0.0800 
 32 H       -1.9790    -5.5080     0.6490 H     1 <1>   0.0800 
 33 H       -3.5880    -5.1940    -1.1370 H     1 <1>   0.4500 
 34 H       -4.1590    -7.2230     0.8830 H     1 <1>   0.0800 
 35 H       -5.5570    -4.8890     1.0430 H     1 <1>   0.0800 
 36 H       -5.1750    -3.7160    -0.1890 H     1 <1>   0.0800 
 37 H       -5.0580    -7.4210    -1.9990 H     1 <1>   0.0800 
 38 H       -6.1350    -5.2060    -1.9250 H     1 <1>   0.0800 
 39 H       -7.2980    -4.9670    -0.6420 H     1 <1>   0.0800 
 40 H       -2.2880    -8.5070     1.2050 H     1 <1>   0.1500 
 41 H       -2.8180    -6.6740    -2.6440 H     1 <1>   0.1500 
 42 H       -4.7080    -9.5900    -0.9980 H     1 <1>   0.0800 
 43 H       -6.4370    -9.2860    -0.9440 H     1 <1>   0.0800 
 44 H       -0.6650    -7.5860    -3.3460 H     1 <1>   0.1500 
 45 H       -5.8270    -9.9940     1.0620 H     1 <1>   0.4000 
 46 H        0.5560   -11.4370     1.1880 H     1 <1>   0.0800 
 47 H        0.7990   -10.9930    -0.4960 H     1 <1>   0.0800 
 48 H       -0.8220   -11.3700     0.0920 H     1 <1>   0.0800 
 49 H        2.9510    -8.8350    -1.8330 H     1 <1>   0.0800 
 50 H        2.1100    -8.7940    -0.2880 H     1 <1>   0.0800 
 51 H        2.0670    -7.3880    -1.3550 H     1 <1>   0.0800 
@<TRIPOS>BOND
  1   1   2  1   
  2   2   3  ar  
  3   2   4  ar  
  4   3   5  ar  
  5   3  27  1   
  6   4   6  ar  
  7   4  28  1   
  8   5   7  ar  
  9   5   8  1   
 10   6   7  ar  
 11   6  29  1   
 12   7  30  1   
 13   8   9  1   
 14   8  31  1   
 15   8  32  1   
 16   9  10  1   
 17   9  11  1   
 18   9  33  1   
 19  10  12  1   
 20  10  13  1   
 21  10  34  1   
 22  11  14  1   
 23  11  35  1   
 24  11  36  1   
 25  12  15  ar  
 26  12  16  ar  
 27  13  17  1   
 28  13  18  1   
 29  13  37  1   
 30  14  17  1   
 31  14  38  1   
 32  14  39  1   
 33  15  19  ar  
 34  15  40  1   
 35  16  20  ar  
 36  16  41  1   
 37  18  21  1   
 38  18  42  1   
 39  18  43  1   
 40  19  22  1   
 41  19  23  ar  
 42  20  23  ar  
 43  20  44  1   
 44  21  45  1   
 45  22  24  1   
 46  23  25  1   
 47  24  46  1   
 48  24  47  1   
 49  24  48  1   
 50  25  26  1   
 51  26  49  1   
 52  26  50  1   
 53  26  51  1   
@<TRIPOS>SUBSTRUCTURE
  1 ****  12 GROUP 4 **** **** 0

# MOE 2024.06 (io_trps.svl 2023.06)
