@<TRIPOS>MOLECULE
NONAME
44 46 1 0 0 
SMALL
USER_CHARGES


@<TRIPOS>ATOM
  1 S       -0.1280     0.1100     1.5520 S.o2  1 <1>   1.5010 
  2 O       -0.7260    -0.9220     2.3740 O.2   1 <1>  -0.6500 
  3 O        0.1660     1.3960     2.1500 O.2   1 <1>  -0.6500 
  4 N       -1.2060     0.4080     0.2800 N.am  1 <1>  -0.8490 
  5 C        1.3210    -0.5760     0.7020 C.2   1 <1>  -0.0630 
  6 C       -2.5660     0.6570     0.7840 C.3   1 <1>   0.1960 
  7 C       -0.7680     1.5140    -0.5770 C.3   1 <1>   0.1960 
  8 C        2.4690     0.0510     0.3470 C.2   1 <1>  -0.1400 
  9 C        1.3130    -1.9530     0.2860 C.2   1 <1>  -0.1500 
 10 C       -3.5990     0.7470    -0.3680 C.3   1 <1>   0.0000 
 11 C       -1.6990     1.6520    -1.7860 C.3   1 <1>  -0.1600 
 12 S        3.5580    -1.0390    -0.4940 S.3   1 <1>  -0.0800 
 13 C        2.9900     1.4660     0.5220 C.3   1 <1>  -0.0600 
 14 C        2.4190    -2.3590    -0.3590 C.2   1 <1>  -0.1400 
 15 C       -5.0310     0.9920     0.1490 C.3   1 <1>   0.2000 
 16 C       -3.1600     1.8490    -1.3530 C.3   1 <1>  -0.1600 
 17 C       -3.7500    -0.6220    -1.0570 C.3   1 <1>  -0.1600 
 18 C        2.8240    -3.6900    -0.9550 C.3   1 <1>  -0.0600 
 19 O       -5.0770     1.8360     1.2460 O.3   1 <1>  -0.6800 
 20 C       -5.6150    -0.3760     0.5100 C.3   1 <1>  -0.1600 
 21 C       -4.7240    -1.4150    -0.1830 C.3   1 <1>  -0.1600 
 22 H       -2.8560    -0.1390     1.4490 H     1 <1>   0.0800 
 23 H       -2.5650     1.5740     1.3490 H     1 <1>   0.0800 
 24 H       -0.7620     2.4350    -0.0150 H     1 <1>   0.0800 
 25 H        0.2320     1.3270    -0.9300 H     1 <1>   0.0800 
 26 H        0.4580    -2.5730     0.5010 H     1 <1>   0.1500 
 27 H       -1.3850     2.4910    -2.3800 H     1 <1>   0.0800 
 28 H       -1.6100     0.7690    -2.3950 H     1 <1>   0.0800 
 29 H        2.2740     2.0950     1.0160 H     1 <1>   0.0800 
 30 H        3.2150     1.8930    -0.4380 H     1 <1>   0.0800 
 31 H        3.8900     1.4500     1.1100 H     1 <1>   0.0800 
 32 H       -5.6250     1.4380    -0.6320 H     1 <1>   0.0800 
 33 H       -3.7990     1.8590    -2.2190 H     1 <1>   0.0800 
 34 H       -3.2540     2.8050    -0.8670 H     1 <1>   0.0800 
 35 H       -4.1890    -0.4910    -2.0310 H     1 <1>   0.0800 
 36 H       -2.8120    -1.1380    -1.1750 H     1 <1>   0.0800 
 37 H        2.0440    -4.4150    -0.8060 H     1 <1>   0.0800 
 38 H        3.7220    -4.0440    -0.4820 H     1 <1>   0.0800 
 39 H        3.0030    -3.5810    -2.0090 H     1 <1>   0.0800 
 40 H       -4.7890     1.3610     2.0480 H     1 <1>   0.4000 
 41 H       -5.6100    -0.5450     1.5730 H     1 <1>   0.0800 
 42 H       -6.6240    -0.4450     0.1450 H     1 <1>   0.0800 
 43 H       -4.1730    -1.9700     0.5570 H     1 <1>   0.0800 
 44 H       -5.3020    -2.1080    -0.7720 H     1 <1>   0.0800 
@<TRIPOS>BOND
  1   1   2  2   
  2   1   3  2   
  3   1   4  am  
  4   1   5  1   
  5   4   6  1   
  6   4   7  1   
  7   5   8  2   
  8   5   9  1   
  9   6  10  1   
 10   6  22  1   
 11   6  23  1   
 12   7  11  1   
 13   7  24  1   
 14   7  25  1   
 15   8  12  1   
 16   8  13  1   
 17   9  14  2   
 18   9  26  1   
 19  10  15  1   
 20  10  16  1   
 21  10  17  1   
 22  11  16  1   
 23  11  27  1   
 24  11  28  1   
 25  12  14  1   
 26  13  29  1   
 27  13  30  1   
 28  13  31  1   
 29  14  18  1   
 30  15  19  1   
 31  15  20  1   
 32  15  32  1   
 33  16  33  1   
 34  16  34  1   
 35  17  21  1   
 36  17  35  1   
 37  17  36  1   
 38  18  37  1   
 39  18  38  1   
 40  18  39  1   
 41  19  40  1   
 42  20  21  1   
 43  20  41  1   
 44  20  42  1   
 45  21  43  1   
 46  21  44  1   
@<TRIPOS>SUBSTRUCTURE
  1 ****   4 GROUP 4 **** **** 0

# MOE 2024.06 (io_trps.svl 2023.06)
