@<TRIPOS>MOLECULE
NONAME
51 53 1 0 0 
SMALL
USER_CHARGES


@<TRIPOS>ATOM
  1 O        0.4370     0.3160    -1.3890 O.2   1 <1>  -0.5700 
  2 C        1.5260     0.2600    -0.8640 C.2   1 <1>   0.7150 
  3 N        1.8990    -0.9310    -0.3320 N.am  1 <1>  -0.7300 
  4 C        2.3850     1.4020    -0.7570 C.2   1 <1>  -0.2370 
  5 C        2.9490    -1.0480     0.7130 C.3   1 <1>   0.1400 
  6 N        3.7370     1.3330    -0.7240 N.pl3 1 <1>   0.3140 
  7 C        2.0950     2.7230    -0.6520 C.2   1 <1>  -0.1500 
  8 C        4.3580    -0.9710     0.0950 C.3   1 <1>   0.2000 
  9 N        4.3060     2.5320    -0.5740 N.2   1 <1>  -0.7070 
 10 C        4.5510     0.1230    -0.9710 C.3   1 <1>   0.0960 
 11 C        3.3060     3.4040    -0.5290 C.2   1 <1>   0.2030 
 12 O        4.6170    -2.1920    -0.5110 O.3   1 <1>  -0.6800 
 13 C        3.3860     4.8620    -0.4040 C.2   1 <1>   0.7160 
 14 O        2.4100     5.5280    -0.7140 O.2   1 <1>  -0.5700 
 15 N        4.5110     5.5450     0.0430 N.am  1 <1>  -0.6600 
 16 C        4.7310     6.9790    -0.3450 C.3   1 <1>   0.1400 
 17 C        5.5700     4.8760     0.8600 C.3   1 <1>   0.1400 
 18 C        5.9170     7.1060    -1.3060 C.3   1 <1>   0.1200 
 19 C        6.0540     5.7500     2.0190 C.3   1 <1>  -0.2400 
 20 O        6.1680     8.4690    -1.5910 O.3   1 <1>  -0.3630 
 21 C        6.8170     9.1870    -0.6470 C.ar  1 <1>   0.0820 
 22 C        8.1960     9.0830    -0.4700 C.ar  1 <1>  -0.1430 
 23 C        6.0720    10.0490     0.1430 C.ar  1 <1>  -0.1500 
 24 C        8.8010     9.8270     0.5310 C.ar  1 <1>  -0.1500 
 25 C        9.0600     8.1930    -1.3530 C.3   1 <1>  -0.0970 
 26 C        6.6870    10.7890     1.1350 C.ar  1 <1>  -0.1500 
 27 C        8.0520    10.6730     1.3320 C.ar  1 <1>  -0.1500 
 28 H        1.1630    -1.6420    -0.3380 H     1 <1>   0.3700 
 29 H        2.8360    -1.9720     1.2530 H     1 <1>   0.0800 
 30 H        2.8290    -0.2430     1.4190 H     1 <1>   0.0800 
 31 H        1.1210     3.1830    -0.6580 H     1 <1>   0.1500 
 32 H        5.0870    -0.8460     0.8770 H     1 <1>   0.0800 
 33 H        5.5860     0.4090    -1.0070 H     1 <1>   0.0800 
 34 H        4.2690    -0.2530    -1.9370 H     1 <1>   0.0800 
 35 H        3.8830    -2.4250    -1.1160 H     1 <1>   0.4000 
 36 H        4.8990     7.5660     0.5390 H     1 <1>   0.0800 
 37 H        3.8590     7.3760    -0.8350 H     1 <1>   0.0800 
 38 H        6.3970     4.6070     0.2240 H     1 <1>   0.0800 
 39 H        5.1750     3.9700     1.2850 H     1 <1>   0.0800 
 40 H        5.6890     6.6180    -2.2360 H     1 <1>   0.0800 
 41 H        6.8050     6.6770    -0.8810 H     1 <1>   0.0800 
 42 H        6.6130     6.5970     1.6620 H     1 <1>   0.0800 
 43 H        6.7030     5.1730     2.6520 H     1 <1>   0.0800 
 44 H        5.2180     6.0850     2.6060 H     1 <1>   0.0800 
 45 H        5.0140    10.1360    -0.0250 H     1 <1>   0.1500 
 46 H        9.8620     9.7560     0.6900 H     1 <1>   0.1500 
 47 H        8.6470     8.1300    -2.3440 H     1 <1>   0.0800 
 48 H        9.1200     7.2050    -0.9340 H     1 <1>   0.0800 
 49 H       10.0540     8.5950    -1.4330 H     1 <1>   0.0800 
 50 H        6.1070    11.4550     1.7510 H     1 <1>   0.1500 
 51 H        8.5340    11.2460     2.1050 H     1 <1>   0.1500 
@<TRIPOS>BOND
  1   1   2  2   
  2   2   3  am  
  3   2   4  1   
  4   3   5  1   
  5   3  28  1   
  6   4   6  1   
  7   4   7  2   
  8   5   8  1   
  9   5  29  1   
 10   5  30  1   
 11   6   9  1   
 12   6  10  1   
 13   7  11  1   
 14   7  31  1   
 15   8  10  1   
 16   8  12  1   
 17   8  32  1   
 18   9  11  2   
 19  10  33  1   
 20  10  34  1   
 21  11  13  1   
 22  12  35  1   
 23  13  14  2   
 24  13  15  am  
 25  15  16  1   
 26  15  17  1   
 27  16  18  1   
 28  16  36  1   
 29  16  37  1   
 30  17  19  1   
 31  17  38  1   
 32  17  39  1   
 33  18  20  1   
 34  18  40  1   
 35  18  41  1   
 36  19  42  1   
 37  19  43  1   
 38  19  44  1   
 39  20  21  1   
 40  21  22  ar  
 41  21  23  ar  
 42  22  24  ar  
 43  22  25  1   
 44  23  26  ar  
 45  23  45  1   
 46  24  27  ar  
 47  24  46  1   
 48  25  47  1   
 49  25  48  1   
 50  25  49  1   
 51  26  27  ar  
 52  26  50  1   
 53  27  51  1   
@<TRIPOS>SUBSTRUCTURE
  1 ****  15 GROUP 4 **** **** 0

# MOE 2024.06 (io_trps.svl 2023.06)
