@<TRIPOS>MOLECULE
NONAME
47 49 1 0 0 
SMALL
USER_CHARGES


@<TRIPOS>ATOM
  1 O       -0.4920     0.8850    -0.6590 O.2   1 <1>  -0.5700 
  2 C       -0.4120     2.0870    -0.5700 C.2   1 <1>   0.5690 
  3 N       -1.2710     2.8580     0.1740 N.am  1 <1>  -0.6600 
  4 C        0.7120     2.7750    -1.3400 C.3   1 <1>   0.1810 
  5 C       -1.1100     4.3510     0.2270 C.3   1 <1>   0.3640 
  6 C       -2.3480     2.3160     1.0500 C.3   1 <1>   0.2200 
  7 O        1.1640     3.9290    -0.6810 O.3   1 <1>  -0.5600 
  8 C       -2.3570     5.0150    -0.3620 C.ar  1 <1>  -0.1440 
  9 C        0.1560     4.9090    -0.4840 C.3   1 <1>   0.2610 
 10 C       -1.7400     1.4850     2.1800 C.3   1 <1>  -0.2400 
 11 C       -3.3770     1.5210     0.2450 C.3   1 <1>  -0.2400 
 12 C       -2.8780     4.6070    -1.5840 C.ar  1 <1>  -0.1500 
 13 C       -2.9810     6.0480     0.3230 C.ar  1 <1>  -0.1500 
 14 C        0.7250     6.0880     0.3170 C.2   1 <1>   0.5690 
 15 C       -4.0020     5.2200    -2.1100 C.ar  1 <1>  -0.1500 
 16 C       -4.1050     6.6610    -0.2020 C.ar  1 <1>  -0.1500 
 17 O        0.0220     7.0340     0.5910 O.2   1 <1>  -0.5700 
 18 N        2.0270     6.0590     0.7040 N.am  1 <1>  -0.7300 
 19 C       -4.6170     6.2480    -1.4190 C.ar  1 <1>  -0.1500 
 20 C        2.7320     7.1060     1.5040 C.3   1 <1>   0.2010 
 21 C        2.9790     8.3930     0.7210 C.2   1 <1>   0.4490 
 22 N        4.1170     8.9420     0.5100 N.2   1 <1>  -0.5120 
 23 N        1.9440     9.0980     0.1600 N.am  1 <1>  -0.4900 
 24 N        3.8140    10.0660    -0.2340 N.am  1 <1>  -0.3680 
 25 C        2.4880    10.1520    -0.4500 C.2   1 <1>   0.6900 
 26 O        1.8970    11.0130    -1.0850 O.2   1 <1>  -0.5700 
 27 H        0.3720     3.0440    -2.3240 H     1 <1>   0.0800 
 28 H        1.5450     2.1010    -1.4290 H     1 <1>   0.0800 
 29 H       -1.0420     4.6220     1.2670 H     1 <1>   0.0800 
 30 H       -2.8720     3.1410     1.5040 H     1 <1>   0.0800 
 31 H       -0.1180     5.2800    -1.4550 H     1 <1>   0.0800 
 32 H       -1.2680     0.6000     1.7930 H     1 <1>   0.0800 
 33 H       -2.5120     1.1800     2.8620 H     1 <1>   0.0800 
 34 H       -1.0170     2.0660     2.7210 H     1 <1>   0.0800 
 35 H       -2.9450     0.6290    -0.1680 H     1 <1>   0.0800 
 36 H       -3.7750     2.1250    -0.5490 H     1 <1>   0.0800 
 37 H       -4.1900     1.2310     0.8850 H     1 <1>   0.0800 
 38 H       -2.4160     3.8040    -2.1320 H     1 <1>   0.1500 
 39 H       -2.5940     6.3900     1.2670 H     1 <1>   0.1500 
 40 H       -4.3990     4.8950    -3.0560 H     1 <1>   0.1500 
 41 H       -4.5800     7.4640     0.3360 H     1 <1>   0.1500 
 42 H        2.5850     5.2540     0.3950 H     1 <1>   0.3700 
 43 H       -5.4910     6.7250    -1.8270 H     1 <1>   0.1500 
 44 H        2.1390     7.3430     2.3700 H     1 <1>   0.0800 
 45 H        3.6760     6.7170     1.8420 H     1 <1>   0.0800 
 46 H        0.9630     8.8120     0.1420 H     1 <1>   0.3700 
 47 H        4.4890    10.7460    -0.5920 H     1 <1>   0.3700 
@<TRIPOS>BOND
  1   1   2  2   
  2   2   3  am  
  3   2   4  1   
  4   3   5  1   
  5   3   6  1   
  6   4   7  1   
  7   4  27  1   
  8   4  28  1   
  9   5   8  1   
 10   5   9  1   
 11   5  29  1   
 12   6  10  1   
 13   6  11  1   
 14   6  30  1   
 15   7   9  1   
 16   8  12  ar  
 17   8  13  ar  
 18   9  14  1   
 19   9  31  1   
 20  10  32  1   
 21  10  33  1   
 22  10  34  1   
 23  11  35  1   
 24  11  36  1   
 25  11  37  1   
 26  12  15  ar  
 27  12  38  1   
 28  13  16  ar  
 29  13  39  1   
 30  14  17  2   
 31  14  18  am  
 32  15  19  ar  
 33  15  40  1   
 34  16  19  ar  
 35  16  41  1   
 36  18  20  1   
 37  18  42  1   
 38  19  43  1   
 39  20  21  1   
 40  20  44  1   
 41  20  45  1   
 42  21  22  2   
 43  21  23  1   
 44  22  24  1   
 45  23  25  am  
 46  23  46  1   
 47  24  25  am  
 48  24  47  1   
 49  25  26  2   
@<TRIPOS>SUBSTRUCTURE
  1 ****   9 GROUP 4 **** **** 0

# MOE 2024.06 (io_trps.svl 2023.06)
