@<TRIPOS>MOLECULE
NONAME
56 58 1 0 0 
SMALL
USER_CHARGES


@<TRIPOS>ATOM
  1 F       -1.3040    -0.8140    -0.1700 F     1 <1>  -0.1900 
  2 C       -2.4480    -0.1980    -0.0150 C.ar  1 <1>   0.1900 
  3 C       -2.5220     1.1470     0.3630 C.ar  1 <1>   0.0830 
  4 C       -3.5850    -0.9480    -0.2430 C.ar  1 <1>  -0.1500 
  5 O       -1.4790     1.9880     0.6150 O.3   1 <1>  -0.3630 
  6 C       -3.7820     1.7060     0.5030 C.ar  1 <1>  -0.1500 
  7 C       -4.8270    -0.3590    -0.0930 C.ar  1 <1>  -0.1500 
  8 C       -0.1290     1.6050     0.4710 C.3   1 <1>   0.0400 
  9 C       -4.9570     0.9820     0.2810 C.ar  1 <1>   0.0530 
 10 C       -6.2480     1.6080     0.4440 C.2   1 <1>   0.0870 
 11 O       -6.3780     2.6660     1.2050 O.3   1 <1>  -0.0190 
 12 C       -7.4860     1.3240    -0.0400 C.2   1 <1>  -0.0860 
 13 N       -7.6070     3.1060     1.2650 N.2   1 <1>  -0.4100 
 14 C       -8.2970     2.3190     0.5140 C.2   1 <1>   0.3720 
 15 C       -7.9090     0.2730    -0.9070 C.2   1 <1>   0.7160 
 16 N       -9.6760     2.4610     0.2940 N.pl3 1 <1>  -0.8210 
 17 O       -7.4930     0.2280    -2.0510 O.2   1 <1>  -0.5700 
 18 N       -8.7320    -0.7330    -0.4650 N.am  1 <1>  -0.6600 
 19 C      -10.4120     3.2820     1.2960 C.3   1 <1>   0.1290 
 20 C      -10.0460     2.8200    -1.1030 C.3   1 <1>   0.1290 
 21 C       -9.0120    -1.9640    -1.2370 C.3   1 <1>   0.1400 
 22 C       -9.2450    -0.8550     0.9140 C.3   1 <1>   0.1400 
 23 C       -9.3090    -3.0420    -0.1820 C.3   1 <1>   0.0000 
 24 C       -9.9460    -2.2110     0.9470 C.3   1 <1>  -0.1600 
 25 C      -10.3160    -4.0880    -0.7180 C.3   1 <1>  -0.1600 
 26 C       -7.9650    -3.6730     0.2840 C.3   1 <1>  -0.1600 
 27 C       -9.8030    -4.9230    -1.9030 C.3   1 <1>  -0.2400 
 28 C       -8.0800    -4.8020     1.3230 C.3   1 <1>  -0.2400 
 29 H       -3.4960    -1.9790    -0.5340 H     1 <1>   0.1500 
 30 H       -3.8470     2.7400     0.7910 H     1 <1>   0.1500 
 31 H       -5.7010    -0.9570    -0.2700 H     1 <1>   0.1500 
 32 H        0.4860     2.4560     0.7020 H     1 <1>   0.0800 
 33 H        0.0420     1.2970    -0.5450 H     1 <1>   0.0800 
 34 H        0.0840     0.8050     1.1590 H     1 <1>   0.0800 
 35 H      -10.1430     2.9700     2.2910 H     1 <1>   0.0800 
 36 H      -11.4730     3.1540     1.1700 H     1 <1>   0.0800 
 37 H      -10.1600     4.3220     1.1790 H     1 <1>   0.0800 
 38 H       -9.4940     2.2250    -1.8080 H     1 <1>   0.0800 
 39 H       -9.8300     3.8590    -1.2840 H     1 <1>   0.0800 
 40 H      -11.0960     2.6440    -1.2580 H     1 <1>   0.0800 
 41 H       -8.1780    -2.2300    -1.8650 H     1 <1>   0.0800 
 42 H       -9.8740    -1.7880    -1.8560 H     1 <1>   0.0800 
 43 H       -9.9310    -0.0560     1.1410 H     1 <1>   0.0800 
 44 H       -8.4220    -0.8360     1.6080 H     1 <1>   0.0800 
 45 H      -10.9880    -2.0440     0.7390 H     1 <1>   0.0800 
 46 H       -9.8730    -2.6680     1.9150 H     1 <1>   0.0800 
 47 H      -11.2120    -3.5810    -1.0350 H     1 <1>   0.0800 
 48 H      -10.6040    -4.7520     0.0780 H     1 <1>   0.0800 
 49 H       -7.3350    -2.9040     0.6960 H     1 <1>   0.0800 
 50 H       -7.4440    -4.0630    -0.5720 H     1 <1>   0.0800 
 51 H       -9.5150    -4.2910    -2.7240 H     1 <1>   0.0800 
 52 H      -10.5810    -5.5830    -2.2440 H     1 <1>   0.0800 
 53 H       -8.9610    -5.5260    -1.6140 H     1 <1>   0.0800 
 54 H       -8.5690    -4.4640     2.2180 H     1 <1>   0.0800 
 55 H       -7.0960    -5.1440     1.5910 H     1 <1>   0.0800 
 56 H       -8.6230    -5.6390     0.9250 H     1 <1>   0.0800 
@<TRIPOS>BOND
  1   1   2  1   
  2   2   3  ar  
  3   2   4  ar  
  4   3   5  1   
  5   3   6  ar  
  6   4   7  ar  
  7   4  29  1   
  8   5   8  1   
  9   6   9  ar  
 10   6  30  1   
 11   7   9  ar  
 12   7  31  1   
 13   8  32  1   
 14   8  33  1   
 15   8  34  1   
 16   9  10  1   
 17  10  11  1   
 18  10  12  2   
 19  11  13  1   
 20  12  14  1   
 21  12  15  1   
 22  13  14  2   
 23  14  16  1   
 24  15  17  2   
 25  15  18  am  
 26  16  19  1   
 27  16  20  1   
 28  18  21  1   
 29  18  22  1   
 30  19  35  1   
 31  19  36  1   
 32  19  37  1   
 33  20  38  1   
 34  20  39  1   
 35  20  40  1   
 36  21  23  1   
 37  21  41  1   
 38  21  42  1   
 39  22  24  1   
 40  22  43  1   
 41  22  44  1   
 42  23  24  1   
 43  23  25  1   
 44  23  26  1   
 45  24  45  1   
 46  24  46  1   
 47  25  27  1   
 48  25  47  1   
 49  25  48  1   
 50  26  28  1   
 51  26  49  1   
 52  26  50  1   
 53  27  51  1   
 54  27  52  1   
 55  27  53  1   
 56  28  54  1   
 57  28  55  1   
 58  28  56  1   
@<TRIPOS>SUBSTRUCTURE
  1 ****  15 GROUP 4 **** **** 0

# MOE 2024.06 (io_trps.svl 2023.06)
