@<TRIPOS>MOLECULE
NONAME
47 49 1 0 0 
SMALL
USER_CHARGES


@<TRIPOS>ATOM
  1 O       -1.0830     1.6060     3.0720 O.3   1 <1>  -0.5600 
  2 C        0.1950     1.5220     2.5130 C.3   1 <1>   0.1200 
  3 C       -2.0580     1.4860     2.0760 C.3   1 <1>   0.1200 
  4 C        0.0490     1.9970     1.0730 C.3   1 <1>   0.2890 
  5 C       -1.3230     1.4310     0.7340 C.3   1 <1>  -0.0800 
  6 N        0.0350     3.4790     1.0630 N.pl3 1 <1>  -0.8690 
  7 C       -2.0700     2.1180    -0.4240 C.3   1 <1>  -0.0170 
  8 C        0.4170     4.2900     0.0280 C.ar  1 <1>   0.4100 
  9 C       -3.3980     1.4310    -0.7010 C.ar  1 <1>  -0.1430 
 10 N        0.9730     3.6950    -1.0070 N.ar  1 <1>  -0.6200 
 11 C        0.2170     5.6670     0.0560 C.ar  1 <1>  -0.1430 
 12 C       -4.5940     1.9320    -0.2280 C.ar  1 <1>  -0.1500 
 13 C       -3.4730     0.2670    -1.4390 C.ar  1 <1>  -0.1500 
 14 C        1.3320     4.4760    -2.0020 C.ar  1 <1>   0.4770 
 15 C        0.6380     6.3620    -1.0510 C.ar  1 <1>   0.1600 
 16 C       -0.4340     6.4390     1.2110 C.3   1 <1>   0.0630 
 17 C       -5.7740     1.2600    -0.5040 C.ar  1 <1>   0.1600 
 18 C       -4.7060    -0.3260    -1.6580 C.ar  1 <1>   0.1600 
 19 N        1.1980     5.7840    -2.0930 N.ar  1 <1>  -0.6200 
 20 C        1.9750     3.7840    -3.1790 C.3   1 <1>  -0.0970 
 21 C        0.3750     6.3360     2.5100 C.3   1 <1>  -0.2400 
 22 C       -1.8980     6.0330     1.4280 C.3   1 <1>  -0.2400 
 23 N       -5.8580     0.1420    -1.2060 N.ar  1 <1>  -0.6200 
 24 H        0.8820     2.1260     3.0790 H     1 <1>   0.0800 
 25 H        0.5010     0.4910     2.5430 H     1 <1>   0.0800 
 26 H       -2.6370     0.5960     2.2530 H     1 <1>   0.0800 
 27 H       -2.6940     2.3520     2.1410 H     1 <1>   0.0800 
 28 H        0.8310     1.6130     0.4400 H     1 <1>   0.0800 
 29 H       -1.1940     0.3930     0.4810 H     1 <1>   0.0800 
 30 H       -0.4520     3.8960     1.8580 H     1 <1>   0.4000 
 31 H       -1.4600     2.0880    -1.3100 H     1 <1>   0.0800 
 32 H       -2.2480     3.1540    -0.1960 H     1 <1>   0.0800 
 33 H       -4.6210     2.8370     0.3500 H     1 <1>   0.1500 
 34 H       -2.5860    -0.1820    -1.8450 H     1 <1>   0.1500 
 35 H        0.5170     7.4300    -1.0990 H     1 <1>   0.1500 
 36 H       -0.4450     7.4820     0.9430 H     1 <1>   0.0800 
 37 H       -6.6970     1.6650    -0.1270 H     1 <1>   0.1500 
 38 H       -4.7450    -1.2330    -2.2360 H     1 <1>   0.1500 
 39 H        2.2350     4.4960    -3.9400 H     1 <1>   0.0800 
 40 H        1.2890     3.0680    -3.5900 H     1 <1>   0.0800 
 41 H        2.8640     3.2780    -2.8540 H     1 <1>   0.0800 
 42 H        0.3710     5.3370     2.9040 H     1 <1>   0.0800 
 43 H       -0.0340     6.9950     3.2540 H     1 <1>   0.0800 
 44 H        1.3960     6.6230     2.3270 H     1 <1>   0.0800 
 45 H       -1.9820     5.0280     1.7960 H     1 <1>   0.0800 
 46 H       -2.4380     6.1040     0.5010 H     1 <1>   0.0800 
 47 H       -2.3600     6.6920     2.1410 H     1 <1>   0.0800 
@<TRIPOS>BOND
  1   1   2  1   
  2   1   3  1   
  3   2   4  1   
  4   2  24  1   
  5   2  25  1   
  6   3   5  1   
  7   3  26  1   
  8   3  27  1   
  9   4   5  1   
 10   4   6  1   
 11   4  28  1   
 12   5   7  1   
 13   5  29  1   
 14   6   8  1   
 15   6  30  1   
 16   7   9  1   
 17   7  31  1   
 18   7  32  1   
 19   8  10  ar  
 20   8  11  ar  
 21   9  12  ar  
 22   9  13  ar  
 23  10  14  ar  
 24  11  15  ar  
 25  11  16  1   
 26  12  17  ar  
 27  12  33  1   
 28  13  18  ar  
 29  13  34  1   
 30  14  19  ar  
 31  14  20  1   
 32  15  19  ar  
 33  15  35  1   
 34  16  21  1   
 35  16  22  1   
 36  16  36  1   
 37  17  23  ar  
 38  17  37  1   
 39  18  23  ar  
 40  18  38  1   
 41  20  39  1   
 42  20  40  1   
 43  20  41  1   
 44  21  42  1   
 45  21  43  1   
 46  21  44  1   
 47  22  45  1   
 48  22  46  1   
 49  22  47  1   
@<TRIPOS>SUBSTRUCTURE
  1 ****   7 GROUP 4 **** **** 0

# MOE 2024.06 (io_trps.svl 2023.06)
