@<TRIPOS>MOLECULE
NONAME
58 61 1 0 0 
SMALL
USER_CHARGES


@<TRIPOS>ATOM
  1 O        3.2790     0.2310    -2.9140 O.2   1 <1>  -0.5700 
  2 C        3.1020     0.7500    -1.8550 C.2   1 <1>   0.4480 
  3 C        2.6780    -0.0340    -0.6310 C.3   1 <1>  -0.0990 
  4 C        3.3210     2.2350    -1.6440 C.3   1 <1>  -0.0990 
  5 C        3.7100     0.1190     0.5100 C.3   1 <1>  -0.0800 
  6 C        3.4190     2.5890    -0.1470 C.3   1 <1>  -0.1600 
  7 C        4.2800     1.5820     0.6640 C.3   1 <1>   0.0000 
  8 C        4.7950    -0.9690     0.3350 C.3   1 <1>  -0.1600 
  9 C        5.7780     1.6100     0.1930 C.3   1 <1>  -0.0800 
 10 C        4.1350     1.9970     2.1480 C.3   1 <1>  -0.2400 
 11 C        6.0000    -0.7320     1.2490 C.3   1 <1>  -0.1600 
 12 C        6.4520     2.9920    -0.0640 C.3   1 <1>   0.2000 
 13 C        6.6780     0.6400     1.0200 C.3   1 <1>  -0.0800 
 14 O        6.4920     3.7530     1.0810 O.3   1 <1>  -0.6800 
 15 C        7.8870     2.8670    -0.6190 C.3   1 <1>  -0.1600 
 16 C        8.0370     0.5270     0.2930 C.3   1 <1>  -0.0800 
 17 C        8.7900     1.8700     0.1560 C.3   1 <1>   0.0000 
 18 C        9.1140    -0.4470     0.7810 C.3   1 <1>  -0.1600 
 19 C       10.0990     1.4040    -0.5680 C.3   1 <1>   0.3410 
 20 C        9.1590     2.4750     1.5520 C.3   1 <1>  -0.2400 
 21 C       10.4280     0.0770     0.1600 C.3   1 <1>  -0.1600 
 22 O        9.7970     1.0390    -1.8840 O.3   1 <1>  -0.6800 
 23 C       11.2780     2.4060    -0.6320 C.2   1 <1>   0.4480 
 24 O       11.2040     3.5670    -0.3380 O.2   1 <1>  -0.5700 
 25 C       12.6020     1.8430    -1.1390 C.3   1 <1>   0.1810 
 26 O       13.4370     1.4950    -0.0760 O.3   1 <1>  -0.6800 
 27 H        1.7230     0.3380    -0.3080 H     1 <1>   0.0800 
 28 H        2.5440    -1.0690    -0.8940 H     1 <1>   0.0800 
 29 H        4.2230     2.5180    -2.1550 H     1 <1>   0.0800 
 30 H        2.5080     2.7760    -2.0930 H     1 <1>   0.0800 
 31 H        3.1840    -0.1370     1.4150 H     1 <1>   0.0800 
 32 H        2.4220     2.5960     0.2590 H     1 <1>   0.0800 
 33 H        3.7910     3.5920    -0.0340 H     1 <1>   0.0800 
 34 H        4.3710    -1.9330     0.5540 H     1 <1>   0.0800 
 35 H        5.1340    -0.9990    -0.6880 H     1 <1>   0.0800 
 36 H        5.7500     1.1940    -0.7980 H     1 <1>   0.0800 
 37 H        3.1060     1.9460     2.4540 H     1 <1>   0.0800 
 38 H        4.4610     3.0080     2.3060 H     1 <1>   0.0800 
 39 H        4.6980     1.3560     2.7990 H     1 <1>   0.0800 
 40 H        6.6970    -1.5400     1.1240 H     1 <1>   0.0800 
 41 H        5.6580    -0.7810     2.2680 H     1 <1>   0.0800 
 42 H        5.8720     3.5510    -0.7760 H     1 <1>   0.0800 
 43 H        6.8350     1.0540     1.9960 H     1 <1>   0.0800 
 44 H        7.1890     3.4040     1.6650 H     1 <1>   0.4000 
 45 H        7.7910     2.5340    -1.6360 H     1 <1>   0.0800 
 46 H        8.3490     3.8380    -0.6640 H     1 <1>   0.0800 
 47 H        7.7790     0.1840    -0.6950 H     1 <1>   0.0800 
 48 H        9.1760    -0.4270     1.8560 H     1 <1>   0.0800 
 49 H        8.9110    -1.4550     0.4620 H     1 <1>   0.0800 
 50 H        8.3520     2.4700     2.2530 H     1 <1>   0.0800 
 51 H        9.4720     3.4990     1.4440 H     1 <1>   0.0800 
 52 H        9.9680     1.9460     2.0210 H     1 <1>   0.0800 
 53 H       10.8690    -0.6430    -0.5080 H     1 <1>   0.0800 
 54 H       11.1330     0.2580     0.9520 H     1 <1>   0.0800 
 55 H        9.0690     0.3890    -1.8720 H     1 <1>   0.4000 
 56 H       13.1060     2.5880    -1.7290 H     1 <1>   0.0800 
 57 H       12.4430     0.9700    -1.7460 H     1 <1>   0.0800 
 58 H       13.6250     2.2910     0.4650 H     1 <1>   0.4000 
@<TRIPOS>BOND
  1   1   2  2   
  2   2   3  1   
  3   2   4  1   
  4   3   5  1   
  5   3  27  1   
  6   3  28  1   
  7   4   6  1   
  8   4  29  1   
  9   4  30  1   
 10   5   7  1   
 11   5   8  1   
 12   5  31  1   
 13   6   7  1   
 14   6  32  1   
 15   6  33  1   
 16   7   9  1   
 17   7  10  1   
 18   8  11  1   
 19   8  34  1   
 20   8  35  1   
 21   9  12  1   
 22   9  13  1   
 23   9  36  1   
 24  10  37  1   
 25  10  38  1   
 26  10  39  1   
 27  11  13  1   
 28  11  40  1   
 29  11  41  1   
 30  12  14  1   
 31  12  15  1   
 32  12  42  1   
 33  13  16  1   
 34  13  43  1   
 35  14  44  1   
 36  15  17  1   
 37  15  45  1   
 38  15  46  1   
 39  16  17  1   
 40  16  18  1   
 41  16  47  1   
 42  17  19  1   
 43  17  20  1   
 44  18  21  1   
 45  18  48  1   
 46  18  49  1   
 47  19  21  1   
 48  19  22  1   
 49  19  23  1   
 50  20  50  1   
 51  20  51  1   
 52  20  52  1   
 53  21  53  1   
 54  21  54  1   
 55  22  55  1   
 56  23  24  2   
 57  23  25  1   
 58  25  26  1   
 59  25  56  1   
 60  25  57  1   
 61  26  58  1   
@<TRIPOS>SUBSTRUCTURE
  1 ****  16 GROUP 4 **** **** 0

# MOE 2024.06 (io_trps.svl 2023.06)
