@<TRIPOS>MOLECULE
NONAME
44 45 1 0 0 
SMALL
USER_CHARGES


@<TRIPOS>ATOM
  1 S        0.9330    -0.1160     0.7980 S.o2  1 <1>   1.3330 
  2 O        0.6180     0.9480     1.7240 O.2   1 <1>  -0.6500 
  3 O        1.8500    -1.1590     1.1990 O.2   1 <1>  -0.6500 
  4 N       -0.5200    -0.8600     0.3320 N.am  1 <1>  -0.8490 
  5 C        1.4900     0.6410    -0.7300 C.3   1 <1>  -0.0550 
  6 C       -1.4750    -0.9570     1.4410 C.3   1 <1>   0.1160 
  7 C       -0.3280    -2.1820    -0.2760 C.3   1 <1>   0.1160 
  8 C        2.7910     1.4540    -0.5790 C.3   1 <1>  -0.0800 
  9 C        3.0760     2.2650    -1.8310 C.3   1 <1>   0.2200 
 10 C        4.0230     0.5510    -0.5200 C.3   1 <1>   0.1200 
 11 N        3.9550     3.3990    -1.4780 N.am  1 <1>  -0.7300 
 12 C        3.8380     1.2680    -2.7040 C.3   1 <1>   0.1200 
 13 O        4.3790     0.3040    -1.8460 O.3   1 <1>  -0.5600 
 14 C        3.6520     4.7140    -1.6150 C.2   1 <1>   0.5690 
 15 O        2.6110     5.0770    -2.1070 O.2   1 <1>  -0.5700 
 16 C        4.6450     5.7610    -1.1370 C.3   1 <1>   0.0440 
 17 C        5.8200     5.1520    -0.3760 C.ar  1 <1>  -0.1440 
 18 C        5.7000     4.8650     0.9760 C.ar  1 <1>  -0.1500 
 19 C        7.0060     4.8560    -1.0310 C.ar  1 <1>  -0.1500 
 20 C        6.7510     4.2850     1.6640 C.ar  1 <1>  -0.1500 
 21 C        8.0580     4.2760    -0.3440 C.ar  1 <1>  -0.1500 
 22 C        7.9310     3.9890     1.0040 C.ar  1 <1>  -0.1500 
 23 H        1.6250    -0.1170    -1.4780 H     1 <1>   0.0800 
 24 H        0.7130     1.2990    -1.0690 H     1 <1>   0.0800 
 25 H       -2.3880    -1.4190     1.1080 H     1 <1>   0.0800 
 26 H       -1.7120     0.0270     1.8100 H     1 <1>   0.0800 
 27 H       -1.0550    -1.5370     2.2460 H     1 <1>   0.0800 
 28 H       -1.2680    -2.5640    -0.6350 H     1 <1>   0.0800 
 29 H        0.0790    -2.8730     0.4450 H     1 <1>   0.0800 
 30 H        0.3510    -2.1130    -1.1090 H     1 <1>   0.0800 
 31 H        2.7160     2.0860     0.2900 H     1 <1>   0.0800 
 32 H        2.1850     2.6260    -2.3170 H     1 <1>   0.0800 
 33 H        3.8570    -0.3870    -0.0200 H     1 <1>   0.0800 
 34 H        4.8480     1.0610    -0.0510 H     1 <1>   0.0800 
 35 H        4.8580     3.1520    -1.0580 H     1 <1>   0.3700 
 36 H        4.6290     1.7340    -3.2640 H     1 <1>   0.0800 
 37 H        3.1670     0.7610    -3.3750 H     1 <1>   0.0800 
 38 H        5.0010     6.3040    -1.9920 H     1 <1>   0.0800 
 39 H        4.1260     6.4560    -0.5050 H     1 <1>   0.0800 
 40 H        4.7850     5.0880     1.4990 H     1 <1>   0.1500 
 41 H        7.1180     5.0720    -2.0800 H     1 <1>   0.1500 
 42 H        6.6510     4.0640     2.7120 H     1 <1>   0.1500 
 43 H        8.9760     4.0480    -0.8570 H     1 <1>   0.1500 
 44 H        8.7490     3.5390     1.5390 H     1 <1>   0.1500 
@<TRIPOS>BOND
  1   1   2  2   
  2   1   3  2   
  3   1   4  am  
  4   1   5  1   
  5   4   6  1   
  6   4   7  1   
  7   5   8  1   
  8   5  23  1   
  9   5  24  1   
 10   6  25  1   
 11   6  26  1   
 12   6  27  1   
 13   7  28  1   
 14   7  29  1   
 15   7  30  1   
 16   8   9  1   
 17   8  10  1   
 18   8  31  1   
 19   9  11  1   
 20   9  12  1   
 21   9  32  1   
 22  10  13  1   
 23  10  33  1   
 24  10  34  1   
 25  11  14  am  
 26  11  35  1   
 27  12  13  1   
 28  12  36  1   
 29  12  37  1   
 30  14  15  2   
 31  14  16  1   
 32  16  17  1   
 33  16  38  1   
 34  16  39  1   
 35  17  18  ar  
 36  17  19  ar  
 37  18  20  ar  
 38  18  40  1   
 39  19  21  ar  
 40  19  41  1   
 41  20  22  ar  
 42  20  42  1   
 43  21  22  ar  
 44  21  43  1   
 45  22  44  1   
@<TRIPOS>SUBSTRUCTURE
  1 ****   8 GROUP 4 **** **** 0

# MOE 2024.06 (io_trps.svl 2023.06)
