@<TRIPOS>MOLECULE
NONAME
52 55 1 0 0 
SMALL
USER_CHARGES


@<TRIPOS>ATOM
  1 O       -1.6860     0.7930    -1.5820 O.2   1 <1>  -0.5700 
  2 C       -1.7570     1.0020    -0.3960 C.2   1 <1>   0.5690 
  3 N       -2.1000     0.0350     0.4860 N.am  1 <1>  -0.7300 
  4 C       -1.4420     2.3790     0.1320 C.3   1 <1>  -0.0990 
  5 C       -2.4140    -1.3660     0.1270 C.3   1 <1>   0.2200 
  6 C        0.0520     2.5120     0.4350 C.3   1 <1>   0.0210 
  7 C       -3.9060    -1.5990     0.2830 C.3   1 <1>  -0.0800 
  8 C       -1.8350    -2.3080     1.1780 C.3   1 <1>   0.1200 
  9 C        0.3360     3.8610     1.0600 C.2   1 <1>   0.1080 
 10 C       -4.0250    -1.8960     1.7810 C.3   1 <1>   0.1200 
 11 C       -4.3870    -2.7770    -0.5860 C.3   1 <1>  -0.0170 
 12 O       -2.7850    -2.3910     2.2000 O.3   1 <1>  -0.5600 
 13 N        0.1380     4.0920     2.3230 N.2   1 <1>  -0.7070 
 14 C        0.8140     4.9840     0.3920 C.2   1 <1>  -0.1810 
 15 C       -5.8860    -2.9960    -0.4470 C.ar  1 <1>  -0.1440 
 16 N        0.4920     5.3820     2.4930 N.pl3 1 <1>   0.3000 
 17 C        0.8970     5.9390     1.3350 C.2   1 <1>  -0.3320 
 18 C        1.1790     5.2020    -1.0650 C.3   1 <1>   0.0210 
 19 C       -6.8000    -2.1610    -1.0570 C.ar  1 <1>  -0.1500 
 20 C       -6.4100    -4.0380     0.2910 C.ar  1 <1>  -0.1500 
 21 C        1.3700     7.3620     1.1090 C.3   1 <1>   0.0200 
 22 C        1.9990     6.4980    -1.2170 C.3   1 <1>  -0.1600 
 23 C       -8.1560    -2.3980    -0.8980 C.ar  1 <1>   0.1600 
 24 C       -7.7840    -4.1870     0.3860 C.ar  1 <1>   0.1600 
 25 C        1.3980     7.6630    -0.4020 C.3   1 <1>  -0.1600 
 26 N       -8.6700    -3.3900    -0.1900 N.ar  1 <1>  -0.6200 
 27 H       -2.1440     0.2400     1.4880 H     1 <1>   0.3700 
 28 H       -1.7270     3.1120    -0.6010 H     1 <1>   0.0800 
 29 H       -2.0100     2.5630     1.0250 H     1 <1>   0.0800 
 30 H       -2.0490    -1.5880    -0.8630 H     1 <1>   0.0800 
 31 H        0.6220     2.3960    -0.4690 H     1 <1>   0.0800 
 32 H        0.3560     1.7450     1.1240 H     1 <1>   0.0800 
 33 H       -4.4670    -0.7210     0.0170 H     1 <1>   0.0800 
 34 H       -0.9010    -1.9580     1.5800 H     1 <1>   0.0800 
 35 H       -1.7080    -3.2960     0.7720 H     1 <1>   0.0800 
 36 H       -4.7880    -2.6170     2.0140 H     1 <1>   0.0800 
 37 H       -4.2120    -0.9900     2.3310 H     1 <1>   0.0800 
 38 H       -3.8650    -3.6790    -0.3170 H     1 <1>   0.0800 
 39 H       -4.1650    -2.5700    -1.6190 H     1 <1>   0.0800 
 40 H        0.4430     5.8480     3.4060 H     1 <1>   0.2700 
 41 H        1.7490     4.3680    -1.4330 H     1 <1>   0.0800 
 42 H        0.2720     5.2760    -1.6380 H     1 <1>   0.0800 
 43 H       -6.4720    -1.3290    -1.6530 H     1 <1>   0.1500 
 44 H       -5.7650    -4.7350     0.7940 H     1 <1>   0.1500 
 45 H        0.7160     8.0580     1.6040 H     1 <1>   0.0800 
 46 H        2.3590     7.4690     1.5180 H     1 <1>   0.0800 
 47 H        3.0020     6.3160    -0.8720 H     1 <1>   0.0800 
 48 H        2.0500     6.7670    -2.2580 H     1 <1>   0.0800 
 49 H       -8.8540    -1.7360    -1.3810 H     1 <1>   0.1500 
 50 H       -8.1750    -5.0050     0.9670 H     1 <1>   0.1500 
 51 H        0.3900     7.8350    -0.7390 H     1 <1>   0.0800 
 52 H        1.9630     8.5620    -0.5760 H     1 <1>   0.0800 
@<TRIPOS>BOND
  1   1   2  2   
  2   2   3  am  
  3   2   4  1   
  4   3   5  1   
  5   3  27  1   
  6   4   6  1   
  7   4  28  1   
  8   4  29  1   
  9   5   7  1   
 10   5   8  1   
 11   5  30  1   
 12   6   9  1   
 13   6  31  1   
 14   6  32  1   
 15   7  10  1   
 16   7  11  1   
 17   7  33  1   
 18   8  12  1   
 19   8  34  1   
 20   8  35  1   
 21   9  13  2   
 22   9  14  1   
 23  10  12  1   
 24  10  36  1   
 25  10  37  1   
 26  11  15  1   
 27  11  38  1   
 28  11  39  1   
 29  13  16  1   
 30  14  17  2   
 31  14  18  1   
 32  15  19  ar  
 33  15  20  ar  
 34  16  17  1   
 35  16  40  1   
 36  17  21  1   
 37  18  22  1   
 38  18  41  1   
 39  18  42  1   
 40  19  23  ar  
 41  19  43  1   
 42  20  24  ar  
 43  20  44  1   
 44  21  25  1   
 45  21  45  1   
 46  21  46  1   
 47  22  25  1   
 48  22  47  1   
 49  22  48  1   
 50  23  26  ar  
 51  23  49  1   
 52  24  26  ar  
 53  24  50  1   
 54  25  51  1   
 55  25  52  1   
@<TRIPOS>SUBSTRUCTURE
  1 ****   2 GROUP 4 **** **** 0

# MOE 2024.06 (io_trps.svl 2023.06)
