@<TRIPOS>MOLECULE
NONAME
49 51 1 0 0 
SMALL
USER_CHARGES


@<TRIPOS>ATOM
  1 S       -0.9660    -0.7730     0.6560 S.3   1 <1>  -0.0800 
  2 C       -1.6170    -1.3210    -0.8560 C.2   1 <1>   0.4420 
  3 C       -0.9420     0.8200    -0.0170 C.2   1 <1>   0.1980 
  4 N       -1.7610    -0.3590    -1.6930 N.2   1 <1>  -0.3380 
  5 N       -1.8860    -2.6700    -0.9620 N.am  1 <1>  -0.4940 
  6 N       -1.3740     0.8580    -1.2100 N.2   1 <1>  -0.3380 
  7 C       -0.4340     1.9640     0.8300 C.3   1 <1>   0.0200 
  8 C       -2.4200    -3.3610    -2.0110 C.2   1 <1>   0.5690 
  9 C       -0.5440     3.2630     0.0220 C.3   1 <1>   0.3430 
 10 O       -2.7680    -2.8540    -3.0440 O.2   1 <1>  -0.5700 
 11 C       -2.5770    -4.8620    -1.8540 C.3   1 <1>  -0.0990 
 12 N       -0.1230     4.4780     0.7970 N.4   1 <1>  -0.9590 
 13 C       -3.6870    -5.2310    -0.8550 C.3   1 <1>  -0.1600 
 14 C       -0.5180     5.7110     0.0440 C.3   1 <1>   0.2630 
 15 C        1.3490     4.5010     1.0760 C.3   1 <1>   0.2630 
 16 C       -3.8440    -6.7510    -0.7220 C.3   1 <1>   0.0210 
 17 C       -4.8960    -7.1360     0.3050 C.2   1 <1>  -0.1810 
 18 C       -5.1290    -8.4740     0.7010 C.ar  1 <1>   0.0000 
 19 C       -5.7590    -6.3520     0.9970 C.2   1 <1>  -0.3020 
 20 C       -6.1500    -8.4350     1.6450 C.ar  1 <1>  -0.1520 
 21 C       -4.5680    -9.7060     0.3450 C.ar  1 <1>  -0.1500 
 22 N       -6.5280    -7.1290     1.8160 N.pl3 1 <1>   0.0330 
 23 C       -6.6220    -9.6050     2.2430 C.ar  1 <1>  -0.1500 
 24 C       -5.0330   -10.8590     0.9350 C.ar  1 <1>  -0.1500 
 25 C       -6.0600   -10.8090     1.8850 C.ar  1 <1>  -0.1500 
 26 H       -1.6650    -3.2230    -0.1400 H     1 <1>   0.3700 
 27 H        0.5880     1.7650     1.0940 H     1 <1>   0.0800 
 28 H       -1.0340     2.0280     1.7190 H     1 <1>   0.0800 
 29 H       -1.5710     3.3750    -0.2900 H     1 <1>   0.0800 
 30 H        0.0540     3.1730    -0.8720 H     1 <1>   0.0800 
 31 H       -1.6380    -5.2800    -1.5390 H     1 <1>   0.0800 
 32 H       -2.8130    -5.2790    -2.8180 H     1 <1>   0.0800 
 33 H       -0.6320     4.4870     1.6950 H     1 <1>   0.4500 
 34 H       -4.6190    -4.8090    -1.1910 H     1 <1>   0.0800 
 35 H       -3.4620    -4.8190     0.1130 H     1 <1>   0.0800 
 36 H       -0.0140     5.7460    -0.9090 H     1 <1>   0.0800 
 37 H       -0.2550     6.5940     0.6050 H     1 <1>   0.0800 
 38 H       -1.5820     5.7200    -0.1300 H     1 <1>   0.0800 
 39 H        1.9060     4.4790     0.1530 H     1 <1>   0.0800 
 40 H        1.6350     3.6510     1.6730 H     1 <1>   0.0800 
 41 H        1.6130     5.3980     1.6150 H     1 <1>   0.0800 
 42 H       -2.9060    -7.1850    -0.4250 H     1 <1>   0.0800 
 43 H       -4.1220    -7.1720    -1.6720 H     1 <1>   0.0800 
 44 H       -5.8810    -5.2840     0.9610 H     1 <1>   0.1500 
 45 H       -3.7820    -9.7350    -0.3850 H     1 <1>   0.1500 
 46 H       -7.2670    -6.8090     2.4490 H     1 <1>   0.2700 
 47 H       -7.4120    -9.5580     2.9710 H     1 <1>   0.1500 
 48 H       -4.6110   -11.8130     0.6710 H     1 <1>   0.1500 
 49 H       -6.4060   -11.7250     2.3310 H     1 <1>   0.1500 
@<TRIPOS>BOND
  1   1   2  1   
  2   1   3  1   
  3   2   4  2   
  4   2   5  1   
  5   3   6  2   
  6   3   7  1   
  7   4   6  1   
  8   5   8  am  
  9   5  26  1   
 10   7   9  1   
 11   7  27  1   
 12   7  28  1   
 13   8  10  2   
 14   8  11  1   
 15   9  12  1   
 16   9  29  1   
 17   9  30  1   
 18  11  13  1   
 19  11  31  1   
 20  11  32  1   
 21  12  14  1   
 22  12  15  1   
 23  12  33  1   
 24  13  16  1   
 25  13  34  1   
 26  13  35  1   
 27  14  36  1   
 28  14  37  1   
 29  14  38  1   
 30  15  39  1   
 31  15  40  1   
 32  15  41  1   
 33  16  17  1   
 34  16  42  1   
 35  16  43  1   
 36  17  18  1   
 37  17  19  2   
 38  18  20  ar  
 39  18  21  ar  
 40  19  22  1   
 41  19  44  1   
 42  20  22  1   
 43  20  23  ar  
 44  21  24  ar  
 45  21  45  1   
 46  22  46  1   
 47  23  25  ar  
 48  23  47  1   
 49  24  25  ar  
 50  24  48  1   
 51  25  49  1   
@<TRIPOS>SUBSTRUCTURE
  1 ****   5 GROUP 4 **** **** 0

# MOE 2024.06 (io_trps.svl 2023.06)
