@<TRIPOS>MOLECULE
NONAME
47 49 1 0 0 
SMALL
USER_CHARGES


@<TRIPOS>ATOM
  1 CL       6.4240     1.4240    -2.8570 Cl    1 <1>  -0.1770 
  2 C        5.2710     1.9500    -1.6570 C.ar  1 <1>   0.1770 
  3 C        5.1250     3.3000    -1.4030 C.ar  1 <1>  -0.1500 
  4 C        4.5220     1.0060    -0.9810 C.ar  1 <1>  -0.1500 
  5 C        4.2120     3.7190    -0.4500 C.ar  1 <1>   0.0830 
  6 C        3.6050     1.4230    -0.0310 C.ar  1 <1>  -0.1500 
  7 O        4.1230     5.0540    -0.2410 O.3   1 <1>  -0.3630 
  8 C        3.4470     2.7750     0.2350 C.ar  1 <1>  -0.1500 
  9 C        3.3300     5.5890     0.8090 C.3   1 <1>   0.1810 
 10 C        3.5060     7.1020     0.9410 C.2   1 <1>   0.5690 
 11 O        2.4990     7.7680     0.8550 O.2   1 <1>  -0.5700 
 12 N        4.7320     7.6830     1.1890 N.am  1 <1>  -0.6600 
 13 C        6.0040     6.9000     1.3140 C.3   1 <1>   0.1400 
 14 C        4.8270     9.1600     1.4000 C.3   1 <1>   0.1400 
 15 C        6.7490     6.8120    -0.0260 C.3   1 <1>   0.1400 
 16 C        6.0600     9.8180     0.7630 C.3   1 <1>  -0.1600 
 17 N        7.3970     8.1060    -0.4010 N.am  1 <1>  -0.6600 
 18 C        6.4530     9.2400    -0.6000 C.3   1 <1>   0.1400 
 19 C        8.7650     8.1930    -0.5390 C.2   1 <1>   0.5770 
 20 O        9.4750     7.2350    -0.3360 O.2   1 <1>  -0.5700 
 21 C        9.4290     9.5070    -0.9590 C.3   1 <1>   0.0530 
 22 C       10.9850     9.5540    -0.9210 C.3   1 <1>   0.0000 
 23 C        9.4590    10.6030     0.1410 C.3   1 <1>   0.0000 
 24 C       10.8480    11.0120    -0.4140 C.3   1 <1>   0.0000 
 25 H        5.7160     4.0170    -1.9420 H     1 <1>   0.1500 
 26 H        4.6570    -0.0380    -1.1990 H     1 <1>   0.1500 
 27 H        3.0140     0.6960     0.5000 H     1 <1>   0.1500 
 28 H        2.7240     3.0680     0.9720 H     1 <1>   0.1500 
 29 H        3.6150     5.1170     1.7300 H     1 <1>   0.0800 
 30 H        2.3010     5.3690     0.5920 H     1 <1>   0.0800 
 31 H        5.7850     5.9020     1.6480 H     1 <1>   0.0800 
 32 H        6.6450     7.3460     2.0550 H     1 <1>   0.0800 
 33 H        4.8220     9.3620     2.4580 H     1 <1>   0.0800 
 34 H        3.9540     9.6320     0.9830 H     1 <1>   0.0800 
 35 H        6.0700     6.5190    -0.8060 H     1 <1>   0.0800 
 36 H        7.4910     6.0360     0.0540 H     1 <1>   0.0800 
 37 H        6.8930     9.7640     1.4410 H     1 <1>   0.0800 
 38 H        5.8330    10.8610     0.6370 H     1 <1>   0.0800 
 39 H        6.9120    10.0080    -1.1950 H     1 <1>   0.0800 
 40 H        5.5790     8.9020    -1.1320 H     1 <1>   0.0800 
 41 H        9.0570     9.8840    -1.8970 H     1 <1>   0.0000 
 42 H       11.4480     9.4730    -1.8880 H     1 <1>   0.0000 
 43 H       11.4270     8.9120    -0.1770 H     1 <1>   0.0000 
 44 H        9.5150    10.2000     1.1380 H     1 <1>   0.0000 
 45 H        8.7070    11.3630     0.0240 H     1 <1>   0.0000 
 46 H       10.7820    11.7280    -1.2160 H     1 <1>   0.0000 
 47 H       11.5600    11.2790     0.3470 H     1 <1>   0.0000 
@<TRIPOS>BOND
  1   1   2  1   
  2   2   3  ar  
  3   2   4  ar  
  4   3   5  ar  
  5   3  25  1   
  6   4   6  ar  
  7   4  26  1   
  8   5   7  1   
  9   5   8  ar  
 10   6   8  ar  
 11   6  27  1   
 12   7   9  1   
 13   8  28  1   
 14   9  10  1   
 15   9  29  1   
 16   9  30  1   
 17  10  11  2   
 18  10  12  am  
 19  12  13  1   
 20  12  14  1   
 21  13  15  1   
 22  13  31  1   
 23  13  32  1   
 24  14  16  1   
 25  14  33  1   
 26  14  34  1   
 27  15  17  1   
 28  15  35  1   
 29  15  36  1   
 30  16  18  1   
 31  16  37  1   
 32  16  38  1   
 33  17  18  1   
 34  17  19  am  
 35  18  39  1   
 36  18  40  1   
 37  19  20  2   
 38  19  21  1   
 39  21  22  1   
 40  21  23  1   
 41  21  41  1   
 42  22  24  1   
 43  22  42  1   
 44  22  43  1   
 45  23  24  1   
 46  23  44  1   
 47  23  45  1   
 48  24  46  1   
 49  24  47  1   
@<TRIPOS>SUBSTRUCTURE
  1 ****  15 GROUP 4 **** **** 0

# MOE 2024.06 (io_trps.svl 2023.06)
