@<TRIPOS>MOLECULE
NONAME
43 44 1 0 0 
SMALL
USER_CHARGES


@<TRIPOS>ATOM
  1 S       -0.3290     0.5660    -1.8010 S.o2  1 <1>   1.4470 
  2 O       -0.9730     1.8030    -2.1930 O.2   1 <1>  -0.6500 
  3 O        0.3170    -0.2040    -2.8460 O.2   1 <1>  -0.6500 
  4 N       -1.5130    -0.4450    -1.1260 N.am  1 <1>  -0.8490 
  5 C        0.8880     0.8500    -0.4810 C.ar  1 <1>  -0.0090 
  6 C       -1.0130    -1.7980    -0.8190 C.3   1 <1>   0.1960 
  7 C       -2.2210     0.1420     0.0090 C.3   1 <1>   0.1960 
  8 C        0.7140     1.8190     0.5040 C.ar  1 <1>   0.0820 
  9 C        2.0410     0.0720    -0.4140 C.ar  1 <1>  -0.1500 
 10 C       -2.0130    -2.6560    -0.0190 C.3   1 <1>  -0.1860 
 11 C       -3.5260    -0.6210     0.2600 C.3   1 <1>  -0.1600 
 12 O       -0.3910     2.5890     0.5270 O.3   1 <1>  -0.3620 
 13 C        1.6540     2.0010     1.5080 C.ar  1 <1>  -0.1500 
 14 C        2.9880     0.2450     0.5820 C.ar  1 <1>  -0.1440 
 15 C       -1.5330    -2.8110     1.4140 C.2   1 <1>   0.9060 
 16 C       -3.4350    -2.0940    -0.1590 C.3   1 <1>   0.2000 
 17 C       -0.2520     3.9110     0.0660 C.3   1 <1>   0.1200 
 18 C        2.7900     1.2170     1.5460 C.ar  1 <1>  -0.1500 
 19 C        4.2150    -0.6460     0.6190 C.3   1 <1>  -0.0970 
 20 O       -0.3530    -3.1200     1.6030 O.co2 1 <1>  -0.9000 
 21 O       -2.3240    -2.6590     2.3560 O.co2 1 <1>  -0.9000 
 22 O       -4.2910    -2.8250     0.6320 O.3   1 <1>  -0.6800 
 23 C       -1.6400     4.5430     0.0340 C.3   1 <1>  -0.2400 
 24 H       -0.8080    -2.2960    -1.7510 H     1 <1>   0.0800 
 25 H       -0.0780    -1.7290    -0.2880 H     1 <1>   0.0800 
 26 H       -1.5980     0.0920     0.8890 H     1 <1>   0.0800 
 27 H       -2.4540     1.1750    -0.1840 H     1 <1>   0.0800 
 28 H        2.1960    -0.6930    -1.1560 H     1 <1>   0.1500 
 29 H       -1.9970    -3.6430    -0.4340 H     1 <1>   0.0800 
 30 H       -4.3180    -0.1550    -0.2950 H     1 <1>   0.0800 
 31 H       -3.7570    -0.5430     1.3070 H     1 <1>   0.0800 
 32 H        1.4850     2.7460     2.2640 H     1 <1>   0.1500 
 33 H       -3.7600    -2.1960    -1.1810 H     1 <1>   0.0800 
 34 H        0.4010     4.4430     0.7350 H     1 <1>   0.0800 
 35 H        0.1750     3.8850    -0.9230 H     1 <1>   0.0800 
 36 H        3.5110     1.3590     2.3330 H     1 <1>   0.1500 
 37 H        4.9800    -0.2190     1.2420 H     1 <1>   0.0800 
 38 H        4.6130    -0.7740    -0.3720 H     1 <1>   0.0800 
 39 H        3.9470    -1.6100     1.0130 H     1 <1>   0.0800 
 40 H       -3.8270    -2.8850     1.5180 H     1 <1>   0.4000 
 41 H       -2.0720     4.5400     1.0190 H     1 <1>   0.0800 
 42 H       -2.2730     3.9940    -0.6410 H     1 <1>   0.0800 
 43 H       -1.5700     5.5580    -0.3110 H     1 <1>   0.0800 
@<TRIPOS>BOND
  1   1   2  2   
  2   1   3  2   
  3   1   4  am  
  4   1   5  1   
  5   4   6  1   
  6   4   7  1   
  7   5   8  ar  
  8   5   9  ar  
  9   6  10  1   
 10   6  24  1   
 11   6  25  1   
 12   7  11  1   
 13   7  26  1   
 14   7  27  1   
 15   8  12  1   
 16   8  13  ar  
 17   9  14  ar  
 18   9  28  1   
 19  10  15  1   
 20  10  16  1   
 21  10  29  1   
 22  11  16  1   
 23  11  30  1   
 24  11  31  1   
 25  12  17  1   
 26  13  18  ar  
 27  13  32  1   
 28  14  18  ar  
 29  14  19  1   
 30  15  20  ar  
 31  15  21  ar  
 32  16  22  1   
 33  16  33  1   
 34  17  23  1   
 35  17  34  1   
 36  17  35  1   
 37  18  36  1   
 38  19  37  1   
 39  19  38  1   
 40  19  39  1   
 41  22  40  1   
 42  23  41  1   
 43  23  42  1   
 44  23  43  1   
@<TRIPOS>SUBSTRUCTURE
  1 ****   4 GROUP 4 **** **** 0

# MOE 2024.06 (io_trps.svl 2023.06)
