@<TRIPOS>MOLECULE
NONAME
47 48 1 0 0 
SMALL
USER_CHARGES


@<TRIPOS>ATOM
  1 CL       1.1060    -0.8530     2.3670 Cl    1 <1>  -0.1770 
  2 C        0.6440    -2.4490     1.8310 C.ar  1 <1>   0.1770 
  3 C       -0.6670    -2.8620     1.9850 C.ar  1 <1>  -0.1500 
  4 C        1.5950    -3.2750     1.2620 C.ar  1 <1>  -0.1500 
  5 C       -1.0370    -4.1270     1.5610 C.ar  1 <1>  -0.1500 
  6 C        1.2230    -4.5390     0.8380 C.ar  1 <1>  -0.1500 
  7 C       -0.0890    -4.9720     0.9830 C.ar  1 <1>   0.0830 
  8 O       -0.3670    -6.2230     0.5380 O.3   1 <1>  -0.3630 
  9 C       -1.6870    -6.7200     0.5460 C.3   1 <1>   0.1200 
 10 C       -1.6600    -8.1500     0.0020 C.3   1 <1>   0.3430 
 11 N       -3.0400    -8.6680    -0.1440 N.4   1 <1>  -0.9590 
 12 C       -3.1760   -10.1550     0.0800 C.3   1 <1>   0.3430 
 13 C       -3.7790    -8.2220    -1.3530 C.3   1 <1>   0.3430 
 14 C       -4.5910   -10.6830    -0.2820 C.3   1 <1>   0.2000 
 15 C       -5.2910    -8.4230    -1.1380 C.3   1 <1>  -0.1600 
 16 O       -4.5750   -11.1360    -1.6030 O.3   1 <1>  -0.6800 
 17 C       -5.6470    -9.5630    -0.1260 C.3   1 <1>  -0.1060 
 18 C       -5.4800    -9.1060     1.3370 C.2   1 <1>   0.9060 
 19 C       -7.0840   -10.0980    -0.3790 C.3   1 <1>  -0.1600 
 20 O       -4.9980    -7.9850     1.5660 O.co2 1 <1>  -0.9000 
 21 O       -5.5850    -9.9480     2.2260 O.co2 1 <1>  -0.9000 
 22 C       -8.1830    -9.0470    -0.1500 C.3   1 <1>  -0.1600 
 23 C       -9.5710    -9.6460    -0.3910 C.3   1 <1>  -0.2400 
 24 H       -1.3840    -2.1980     2.4340 H     1 <1>   0.1500 
 25 H        2.6070    -2.9300     1.1540 H     1 <1>   0.1500 
 26 H       -2.0590    -4.4310     1.6940 H     1 <1>   0.1500 
 27 H        1.9490    -5.1960     0.3940 H     1 <1>   0.1500 
 28 H       -2.0500    -6.7170     1.5600 H     1 <1>   0.0800 
 29 H       -2.2880    -6.0800    -0.0740 H     1 <1>   0.0800 
 30 H       -1.1160    -8.7650     0.6990 H     1 <1>   0.0800 
 31 H       -1.1590    -8.1720    -0.9510 H     1 <1>   0.0800 
 32 H       -3.6070    -8.2550     0.6450 H     1 <1>   0.4500 
 33 H       -2.4450   -10.6960    -0.4950 H     1 <1>   0.0800 
 34 H       -3.0070   -10.3550     1.1260 H     1 <1>   0.0800 
 35 H       -3.5810    -7.1830    -1.5590 H     1 <1>   0.0800 
 36 H       -3.4580    -8.8100    -2.1970 H     1 <1>   0.0800 
 37 H       -4.8270   -11.5250     0.3480 H     1 <1>   0.0800 
 38 H       -5.7230    -7.4950    -0.8050 H     1 <1>   0.0800 
 39 H       -5.7260    -8.6350    -2.0990 H     1 <1>   0.0800 
 40 H       -5.4500   -11.5170    -1.8200 H     1 <1>   0.4000 
 41 H       -7.1680   -10.4690    -1.3850 H     1 <1>   0.0800 
 42 H       -7.2630   -10.9240     0.2900 H     1 <1>   0.0800 
 43 H       -8.1320    -8.6820     0.8630 H     1 <1>   0.0800 
 44 H       -8.0450    -8.2100    -0.8110 H     1 <1>   0.0800 
 45 H       -9.7450   -10.4660     0.2840 H     1 <1>   0.0800 
 46 H       -9.6610   -10.0000    -1.4020 H     1 <1>   0.0800 
 47 H      -10.3260    -8.8990    -0.2190 H     1 <1>   0.0800 
@<TRIPOS>BOND
  1   1   2  1   
  2   2   3  ar  
  3   2   4  ar  
  4   3   5  ar  
  5   3  24  1   
  6   4   6  ar  
  7   4  25  1   
  8   5   7  ar  
  9   5  26  1   
 10   6   7  ar  
 11   6  27  1   
 12   7   8  1   
 13   8   9  1   
 14   9  10  1   
 15   9  28  1   
 16   9  29  1   
 17  10  11  1   
 18  10  30  1   
 19  10  31  1   
 20  11  12  1   
 21  11  13  1   
 22  11  32  1   
 23  12  14  1   
 24  12  33  1   
 25  12  34  1   
 26  13  15  1   
 27  13  35  1   
 28  13  36  1   
 29  14  16  1   
 30  14  17  1   
 31  14  37  1   
 32  15  17  1   
 33  15  38  1   
 34  15  39  1   
 35  16  40  1   
 36  17  18  1   
 37  17  19  1   
 38  18  20  ar  
 39  18  21  ar  
 40  19  22  1   
 41  19  41  1   
 42  19  42  1   
 43  22  23  1   
 44  22  43  1   
 45  22  44  1   
 46  23  45  1   
 47  23  46  1   
 48  23  47  1   
@<TRIPOS>SUBSTRUCTURE
  1 ****   9 GROUP 4 **** **** 0

# MOE 2024.06 (io_trps.svl 2023.06)
