@<TRIPOS>MOLECULE
NONAME
56 60 1 0 0 
SMALL
USER_CHARGES


@<TRIPOS>ATOM
  1 N       -0.9220     1.5550    -1.4220 N.ar  1 <1>  -0.6200 
  2 C       -0.7070     2.6590    -0.7360 C.ar  1 <1>   0.4100 
  3 C       -0.1170     1.3460    -2.4420 C.ar  1 <1>   0.4760 
  4 N       -1.5550     2.9010     0.3170 N.pl3 1 <1>  -0.8380 
  5 C        0.3150     3.5360    -1.0750 C.ar  1 <1>  -0.1440 
  6 N        0.8820     2.1000    -2.8590 N.ar  1 <1>  -0.6200 
  7 C       -0.3660     0.0820    -3.2290 C.3   1 <1>  -0.0970 
  8 C       -2.8860     3.4810    -0.0520 C.3   1 <1>   0.2090 
  9 C       -1.5440     1.9170     1.4410 C.3   1 <1>   0.2090 
 10 C        1.0850     3.1970    -2.1570 C.ar  1 <1>   0.1600 
 11 C        0.5880     4.8190    -0.2970 C.3   1 <1>  -0.0160 
 12 C       -3.8210     3.6100     1.1650 C.3   1 <1>   0.1430 
 13 C       -2.9050     1.2280     1.5840 C.3   1 <1>  -0.1600 
 14 C        1.4830     4.5390     0.9140 C.3   1 <1>  -0.2400 
 15 C       -5.1010     4.2900     0.7070 C.ar  1 <1>   0.1670 
 16 C       -4.0770     2.2120     1.7890 C.3   1 <1>  -0.1600 
 17 C       -3.2590     4.6290     2.2020 C.3   1 <1>  -0.1600 
 18 N       -6.0240     3.7430    -0.0460 N.ar  1 <1>  -0.6200 
 19 C       -5.1790     5.5740     1.1480 C.ar  1 <1>  -0.1440 
 20 C       -3.9760     5.9690     1.9650 C.3   1 <1>  -0.0170 
 21 C       -7.0740     4.5160    -0.3520 C.ar  1 <1>   0.6200 
 22 C       -6.2840     6.3050     0.7960 C.ar  1 <1>   0.1600 
 23 N       -7.2330     5.7860     0.0510 N.ar  1 <1>  -0.6200 
 24 C       -8.1210     3.9330    -1.1840 C.ar  1 <1>   0.0000 
 25 C       -9.0070     4.7280    -1.9200 C.ar  1 <1>  -0.1500 
 26 C       -8.2920     2.5480    -1.2890 C.ar  1 <1>  -0.1500 
 27 C      -10.0010     4.1790    -2.7100 C.ar  1 <1>  -0.1500 
 28 C       -9.2820     1.9910    -2.0780 C.ar  1 <1>  -0.1500 
 29 C      -10.1410     2.8060    -2.7910 C.ar  1 <1>  -0.1500 
 30 H       -1.4120    -0.1640    -3.2090 H     1 <1>   0.0800 
 31 H        0.1950    -0.7220    -2.7930 H     1 <1>   0.0800 
 32 H       -0.0590     0.2150    -4.2500 H     1 <1>   0.0800 
 33 H       -3.3530     2.8470    -0.7870 H     1 <1>   0.0800 
 34 H       -2.7370     4.4470    -0.5010 H     1 <1>   0.0800 
 35 H       -1.2980     2.4320     2.3530 H     1 <1>   0.0800 
 36 H       -0.7830     1.1750     1.2650 H     1 <1>   0.0800 
 37 H        1.8940     3.8360    -2.4650 H     1 <1>   0.1500 
 38 H       -0.3400     5.2510     0.0330 H     1 <1>   0.0800 
 39 H        1.0690     5.5370    -0.9370 H     1 <1>   0.0800 
 40 H       -2.8710     0.5290     2.4010 H     1 <1>   0.0800 
 41 H       -3.0730     0.6600     0.6850 H     1 <1>   0.0800 
 42 H        0.9980     3.8440     1.5760 H     1 <1>   0.0800 
 43 H        1.6760     5.4500     1.4510 H     1 <1>   0.0800 
 44 H        2.4190     4.1170     0.5960 H     1 <1>   0.0800 
 45 H       -4.9450     1.7700     1.3320 H     1 <1>   0.0800 
 46 H       -4.3000     2.3040     2.8360 H     1 <1>   0.0800 
 47 H       -2.1920     4.7460     2.1250 H     1 <1>   0.0800 
 48 H       -3.4850     4.3060     3.2010 H     1 <1>   0.0800 
 49 H       -3.3550     6.6370     1.3940 H     1 <1>   0.0800 
 50 H       -4.2610     6.4350     2.8920 H     1 <1>   0.0800 
 51 H       -6.3910     7.3240     1.1250 H     1 <1>   0.1500 
 52 H       -8.9160     5.8000    -1.8740 H     1 <1>   0.1500 
 53 H       -7.6370     1.8930    -0.7430 H     1 <1>   0.1500 
 54 H      -10.6650     4.8210    -3.2620 H     1 <1>   0.1500 
 55 H       -9.3840     0.9210    -2.1360 H     1 <1>   0.1500 
 56 H      -10.9130     2.3760    -3.4050 H     1 <1>   0.1500 
@<TRIPOS>BOND
  1   1   2  ar  
  2   1   3  ar  
  3   2   4  1   
  4   2   5  ar  
  5   3   6  ar  
  6   3   7  1   
  7   4   8  1   
  8   4   9  1   
  9   5  10  ar  
 10   5  11  1   
 11   6  10  ar  
 12   7  30  1   
 13   7  31  1   
 14   7  32  1   
 15   8  12  1   
 16   8  33  1   
 17   8  34  1   
 18   9  13  1   
 19   9  35  1   
 20   9  36  1   
 21  10  37  1   
 22  11  14  1   
 23  11  38  1   
 24  11  39  1   
 25  12  15  1   
 26  12  16  1   
 27  12  17  1   
 28  13  16  1   
 29  13  40  1   
 30  13  41  1   
 31  14  42  1   
 32  14  43  1   
 33  14  44  1   
 34  15  18  ar  
 35  15  19  ar  
 36  16  45  1   
 37  16  46  1   
 38  17  20  1   
 39  17  47  1   
 40  17  48  1   
 41  18  21  ar  
 42  19  20  1   
 43  19  22  ar  
 44  20  49  1   
 45  20  50  1   
 46  21  23  ar  
 47  21  24  1   
 48  22  23  ar  
 49  22  51  1   
 50  24  25  ar  
 51  24  26  ar  
 52  25  27  ar  
 53  25  52  1   
 54  26  28  ar  
 55  26  53  1   
 56  27  29  ar  
 57  27  54  1   
 58  28  29  ar  
 59  28  55  1   
 60  29  56  1   
@<TRIPOS>SUBSTRUCTURE
  1 ****   8 GROUP 4 **** **** 0

# MOE 2024.06 (io_trps.svl 2023.06)
