@<TRIPOS>MOLECULE
NONAME
51 54 1 0 0 
SMALL
USER_CHARGES


@<TRIPOS>ATOM
  1 O        2.7500    -1.4750     1.5480 O.3   1 <1>  -0.0190 
  2 N        2.8990    -0.1940     1.6840 N.2   1 <1>  -0.4100 
  3 C        2.0150    -1.5980     0.4690 C.2   1 <1>   0.2980 
  4 C        2.2790     0.3590     0.7190 C.2   1 <1>   0.3350 
  5 N        1.6870    -0.5050    -0.0930 N.2   1 <1>  -0.5650 
  6 C        1.6320    -2.9900    -0.0040 C.3   1 <1>   0.1000 
  7 C        2.1930     1.8570     0.4870 C.3   1 <1>   0.0210 
  8 C        0.8330    -3.7120     1.0910 C.3   1 <1>   0.2090 
  9 C        2.8780    -3.7980    -0.4160 C.3   1 <1>  -0.1600 
 10 C        3.4340     2.4260    -0.2290 C.3   1 <1>  -0.0800 
 11 N        0.5430    -5.1290     0.7140 N.pl3 1 <1>  -0.8380 
 12 C        2.4930    -5.2360    -0.7970 C.3   1 <1>  -0.1600 
 13 C        3.3500     3.9560    -0.3080 C.3   1 <1>  -0.2400 
 14 C        3.5990     1.8470    -1.6420 C.3   1 <1>  -0.2400 
 15 C       -0.6930    -5.4600     0.1780 C.ar  1 <1>   0.4100 
 16 C        1.7280    -5.9390     0.3290 C.3   1 <1>   0.2090 
 17 N       -1.2010    -4.6340    -0.7150 N.ar  1 <1>  -0.3100 
 18 C       -1.3490    -6.6540     0.5750 C.ar  1 <1>   0.0000 
 19 N       -2.3440    -4.9230    -1.3240 N.ar  1 <1>  -0.3100 
 20 C       -2.5440    -6.9650    -0.0890 C.ar  1 <1>   0.0000 
 21 C       -0.8920    -7.5260     1.5880 C.ar  1 <1>  -0.1500 
 22 C       -2.9810    -6.0250    -1.0420 C.ar  1 <1>   0.1670 
 23 C       -3.2130    -8.1660     0.2460 C.ar  1 <1>  -0.1500 
 24 C       -1.5620    -8.6760     1.9010 C.ar  1 <1>  -0.1500 
 25 C       -4.2720    -6.2630    -1.8070 C.3   1 <1>  -0.0970 
 26 C       -2.7340    -9.0030     1.2150 C.ar  1 <1>  -0.1500 
 27 H        0.9920    -2.8810    -0.8620 H     1 <1>   0.0800 
 28 H        2.0870     2.3320     1.4450 H     1 <1>   0.0800 
 29 H        1.3070     2.0710    -0.0850 H     1 <1>   0.0800 
 30 H       -0.0910    -3.1850     1.2660 H     1 <1>   0.0800 
 31 H        1.3910    -3.7110     2.0120 H     1 <1>   0.0800 
 32 H        3.5780    -3.8240     0.4010 H     1 <1>   0.0800 
 33 H        3.3570    -3.3160    -1.2510 H     1 <1>   0.0800 
 34 H        4.3050     2.1650     0.3490 H     1 <1>   0.0800 
 35 H        3.3800    -5.7990    -1.0280 H     1 <1>   0.0800 
 36 H        1.8730    -5.2250    -1.6780 H     1 <1>   0.0800 
 37 H        2.4920     4.2620    -0.8820 H     1 <1>   0.0800 
 38 H        4.2330     4.3540    -0.7760 H     1 <1>   0.0800 
 39 H        3.2740     4.3800     0.6780 H     1 <1>   0.0800 
 40 H        2.7300     2.0540    -2.2420 H     1 <1>   0.0800 
 41 H        3.7390     0.7810    -1.6000 H     1 <1>   0.0800 
 42 H        4.4600     2.2760    -2.1240 H     1 <1>   0.0800 
 43 H        1.4160    -6.9140    -0.0040 H     1 <1>   0.0800 
 44 H        2.3650    -6.0630     1.1890 H     1 <1>   0.0800 
 45 H        0.0030    -7.2650     2.1230 H     1 <1>   0.1500 
 46 H       -4.1190    -8.4270    -0.2690 H     1 <1>   0.1500 
 47 H       -1.2010    -9.3360     2.6710 H     1 <1>   0.1500 
 48 H       -4.4640    -5.4500    -2.4850 H     1 <1>   0.0800 
 49 H       -5.0970    -6.3350    -1.1220 H     1 <1>   0.0800 
 50 H       -4.1980    -7.1700    -2.3780 H     1 <1>   0.0800 
 51 H       -3.2500    -9.9150     1.4660 H     1 <1>   0.1500 
@<TRIPOS>BOND
  1   1   2  1   
  2   1   3  1   
  3   2   4  2   
  4   3   5  2   
  5   3   6  1   
  6   4   5  1   
  7   4   7  1   
  8   6   8  1   
  9   6   9  1   
 10   6  27  1   
 11   7  10  1   
 12   7  28  1   
 13   7  29  1   
 14   8  11  1   
 15   8  30  1   
 16   8  31  1   
 17   9  12  1   
 18   9  32  1   
 19   9  33  1   
 20  10  13  1   
 21  10  14  1   
 22  10  34  1   
 23  11  15  1   
 24  11  16  1   
 25  12  16  1   
 26  12  35  1   
 27  12  36  1   
 28  13  37  1   
 29  13  38  1   
 30  13  39  1   
 31  14  40  1   
 32  14  41  1   
 33  14  42  1   
 34  15  17  ar  
 35  15  18  ar  
 36  16  43  1   
 37  16  44  1   
 38  17  19  ar  
 39  18  20  ar  
 40  18  21  ar  
 41  19  22  ar  
 42  20  22  ar  
 43  20  23  ar  
 44  21  24  ar  
 45  21  45  1   
 46  22  25  1   
 47  23  26  ar  
 48  23  46  1   
 49  24  26  ar  
 50  24  47  1   
 51  25  48  1   
 52  25  49  1   
 53  25  50  1   
 54  26  51  1   
@<TRIPOS>SUBSTRUCTURE
  1 ****   8 GROUP 4 **** **** 0

# MOE 2024.06 (io_trps.svl 2023.06)
