@<TRIPOS>MOLECULE
NONAME
41 42 1 0 0 
SMALL
USER_CHARGES


@<TRIPOS>ATOM
  1 CL      -3.8250     2.8900    -1.4830 Cl    1 <1>  -0.1770 
  2 C       -2.7590     2.1580    -0.2990 C.ar  1 <1>   0.1770 
  3 C       -1.5180     2.7460    -0.0200 C.ar  1 <1>   0.4100 
  4 C       -3.1550     1.0120     0.3440 C.ar  1 <1>  -0.1500 
  5 N       -0.6580     2.2430     0.8590 N.ar  1 <1>  -0.6200 
  6 N       -1.1090     3.8900    -0.6770 N.pl3 1 <1>  -0.8690 
  7 C       -2.2640     0.4930     1.2630 C.ar  1 <1>  -0.1500 
  8 C       -1.0550     1.1350     1.4760 C.ar  1 <1>   0.1600 
  9 C       -0.5040     5.0540     0.0620 C.3   1 <1>   0.2090 
 10 C        0.9840     5.2840    -0.3550 C.3   1 <1>   0.5030 
 11 N        1.6630     3.9480    -0.1760 N.4   1 <1>  -0.9590 
 12 C        1.0240     5.7220    -1.8420 C.3   1 <1>  -0.1600 
 13 C        1.6670     6.3790     0.5130 C.3   1 <1>  -0.1600 
 14 C        1.9990     3.5980     1.2410 C.3   1 <1>   0.2630 
 15 C        2.8190     3.6350    -1.0690 C.3   1 <1>   0.2630 
 16 C        0.2960     7.0570    -2.1100 C.3   1 <1>  -0.1600 
 17 C        1.6730     7.7970    -0.0980 C.3   1 <1>  -0.1600 
 18 C        0.4380     8.0720    -0.9610 C.3   1 <1>  -0.1600 
 19 H       -4.1060     0.5510     0.1400 H     1 <1>   0.1500 
 20 H       -1.8060     4.1950    -1.3720 H     1 <1>   0.4000 
 21 H       -2.5060    -0.4040     1.8080 H     1 <1>   0.1500 
 22 H       -0.3780     0.7080     2.1980 H     1 <1>   0.1500 
 23 H       -0.5570     4.8730     1.1220 H     1 <1>   0.0800 
 24 H       -1.0940     5.9310    -0.1290 H     1 <1>   0.0800 
 25 H        0.8720     3.3060    -0.4170 H     1 <1>   0.4500 
 26 H        0.6000     4.9620    -2.4750 H     1 <1>   0.0800 
 27 H        2.0460     5.8700    -2.1390 H     1 <1>   0.0800 
 28 H        2.6970     6.1250     0.6840 H     1 <1>   0.0800 
 29 H        1.1800     6.4250     1.4720 H     1 <1>   0.0800 
 30 H        2.8170     4.2000     1.6000 H     1 <1>   0.0800 
 31 H        2.2770     2.5600     1.3070 H     1 <1>   0.0800 
 32 H        1.1420     3.7550     1.8770 H     1 <1>   0.0800 
 33 H        3.6190     4.3380    -0.9040 H     1 <1>   0.0800 
 34 H        2.5200     3.6840    -2.1030 H     1 <1>   0.0800 
 35 H        3.1830     2.6400    -0.8710 H     1 <1>   0.0800 
 36 H       -0.7510     6.8800    -2.2940 H     1 <1>   0.0800 
 37 H        0.7000     7.4870    -3.0120 H     1 <1>   0.0800 
 38 H        2.5490     7.9150    -0.7140 H     1 <1>   0.0800 
 39 H        1.7390     8.5310     0.6880 H     1 <1>   0.0800 
 40 H       -0.4390     8.0520    -0.3380 H     1 <1>   0.0800 
 41 H        0.5010     9.0670    -1.3730 H     1 <1>   0.0800 
@<TRIPOS>BOND
  1   1   2  1   
  2   2   3  ar  
  3   2   4  ar  
  4   3   5  ar  
  5   3   6  1   
  6   4   7  ar  
  7   4  19  1   
  8   5   8  ar  
  9   6   9  1   
 10   6  20  1   
 11   7   8  ar  
 12   7  21  1   
 13   8  22  1   
 14   9  10  1   
 15   9  23  1   
 16   9  24  1   
 17  10  11  1   
 18  10  12  1   
 19  10  13  1   
 20  11  14  1   
 21  11  15  1   
 22  11  25  1   
 23  12  16  1   
 24  12  26  1   
 25  12  27  1   
 26  13  17  1   
 27  13  28  1   
 28  13  29  1   
 29  14  30  1   
 30  14  31  1   
 31  14  32  1   
 32  15  33  1   
 33  15  34  1   
 34  15  35  1   
 35  16  18  1   
 36  16  36  1   
 37  16  37  1   
 38  17  18  1   
 39  17  38  1   
 40  17  39  1   
 41  18  40  1   
 42  18  41  1   
@<TRIPOS>SUBSTRUCTURE
  1 ****   6 GROUP 4 **** **** 0

# MOE 2024.06 (io_trps.svl 2023.06)
