@<TRIPOS>MOLECULE
NONAME
40 42 1 0 0 
SMALL
USER_CHARGES


@<TRIPOS>ATOM
  1 O       -0.5160     0.2300    -0.4190 O.2   1 <1>  -0.5700 
  2 C       -1.5970     0.7710    -0.4290 C.2   1 <1>   0.5770 
  3 N       -2.7510     0.0360    -0.3580 N.am  1 <1>  -0.6600 
  4 C       -1.6720     2.2930    -0.5410 C.3   1 <1>   0.0530 
  5 C       -4.1380     0.5530    -0.4660 C.3   1 <1>   0.1400 
  6 C       -2.7470    -1.4420    -0.2380 C.3   1 <1>   0.1400 
  7 C       -0.3420     3.0750    -0.3380 C.3   1 <1>   0.0000 
  8 C       -2.1870     3.0100     0.7370 C.3   1 <1>   0.0000 
  9 C       -5.0010    -0.6930    -0.6550 C.3   1 <1>   0.2000 
 10 C       -4.2090    -1.8300    -0.0140 C.3   1 <1>  -0.0800 
 11 C       -1.1790     4.1420     0.4130 C.3   1 <1>   0.0000 
 12 O       -6.2340    -0.5570    -0.0400 O.3   1 <1>  -0.6800 
 13 C       -4.5720    -3.2140    -0.5730 C.3   1 <1>   0.0210 
 14 C       -3.6880    -4.2890     0.0270 C.2   1 <1>   0.1080 
 15 N       -3.6620    -4.5490     1.2970 N.2   1 <1>  -0.7070 
 16 C       -2.8120    -5.0950    -0.6930 C.2   1 <1>  -0.1500 
 17 N       -2.7590    -5.5400     1.4230 N.pl3 1 <1>   0.3000 
 18 C       -2.2290    -5.8870     0.2310 C.2   1 <1>  -0.3320 
 19 C       -1.1820    -6.9690     0.0460 C.3   1 <1>  -0.0600 
 20 H       -2.1930     2.6230    -1.4250 H     1 <1>   0.0000 
 21 H       -4.3980     1.0600     0.4460 H     1 <1>   0.0800 
 22 H       -4.2350     1.2160    -1.3080 H     1 <1>   0.0800 
 23 H       -2.3670    -1.8650    -1.1520 H     1 <1>   0.0800 
 24 H       -2.1260    -1.7590     0.5840 H     1 <1>   0.0800 
 25 H        0.3590     2.5820     0.3140 H     1 <1>   0.0000 
 26 H        0.0980     3.4320    -1.2520 H     1 <1>   0.0000 
 27 H       -3.2160     3.3170     0.6810 H     1 <1>   0.0000 
 28 H       -1.9410     2.4840     1.6440 H     1 <1>   0.0000 
 29 H       -5.1620    -0.8670    -1.7050 H     1 <1>   0.0800 
 30 H       -4.3730    -1.8290     1.0500 H     1 <1>   0.0800 
 31 H       -1.5890     4.8890    -0.2460 H     1 <1>   0.0000 
 32 H       -0.6890     4.5510     1.2790 H     1 <1>   0.0000 
 33 H       -6.1340    -0.5930     0.9320 H     1 <1>   0.4000 
 34 H       -4.4650    -3.2210    -1.6430 H     1 <1>   0.0800 
 35 H       -5.5960    -3.4390    -0.3370 H     1 <1>   0.0800 
 36 H       -2.6520    -5.0700    -1.7560 H     1 <1>   0.1500 
 37 H       -2.5270    -5.9550     2.3330 H     1 <1>   0.2700 
 38 H       -0.9210    -7.0570    -0.9940 H     1 <1>   0.0800 
 39 H       -1.5620    -7.9170     0.3850 H     1 <1>   0.0800 
 40 H       -0.2940    -6.7260     0.6020 H     1 <1>   0.0800 
@<TRIPOS>BOND
  1   1   2  2   
  2   2   3  am  
  3   2   4  1   
  4   3   5  1   
  5   3   6  1   
  6   4   7  1   
  7   4   8  1   
  8   4  20  1   
  9   5   9  1   
 10   5  21  1   
 11   5  22  1   
 12   6  10  1   
 13   6  23  1   
 14   6  24  1   
 15   7  11  1   
 16   7  25  1   
 17   7  26  1   
 18   8  11  1   
 19   8  27  1   
 20   8  28  1   
 21   9  10  1   
 22   9  12  1   
 23   9  29  1   
 24  10  13  1   
 25  10  30  1   
 26  11  31  1   
 27  11  32  1   
 28  12  33  1   
 29  13  14  1   
 30  13  34  1   
 31  13  35  1   
 32  14  15  2   
 33  14  16  1   
 34  15  17  1   
 35  16  18  2   
 36  16  36  1   
 37  17  18  1   
 38  17  37  1   
 39  18  19  1   
 40  19  38  1   
 41  19  39  1   
 42  19  40  1   
@<TRIPOS>SUBSTRUCTURE
  1 ****   6 GROUP 4 **** **** 0

# MOE 2024.06 (io_trps.svl 2023.06)
