@<TRIPOS>MOLECULE
NONAME
34 36 1 0 0 
SMALL
USER_CHARGES


@<TRIPOS>ATOM
  1 S        0.0590     0.3760     0.8840 S.3   1 <1>  -0.0800 
  2 C       -1.4110     1.1590     0.2450 C.2   1 <1>  -0.0450 
  3 C       -0.6970    -1.2110     0.9290 C.2   1 <1>  -0.1100 
  4 C       -2.3680     0.2000     0.1070 C.2   1 <1>   0.0620 
  5 C       -1.3930     2.5710    -0.0110 C.2   1 <1>   0.7150 
  6 C       -1.9620    -1.1230     0.4860 C.2   1 <1>   0.0620 
  7 O       -3.6190     0.4190    -0.3470 O.3   1 <1>  -0.3420 
  8 O       -2.3740     3.1520    -0.4340 O.2   1 <1>  -0.5700 
  9 N       -0.2370     3.2720     0.2320 N.am  1 <1>  -0.4940 
 10 O       -2.8160    -2.1770     0.3890 O.3   1 <1>  -0.3420 
 11 C       -4.5790    -0.6020    -0.1570 C.3   1 <1>   0.1200 
 12 C        0.0590     4.6300     0.0770 C.2   1 <1>   0.2040 
 13 C       -3.9550    -1.9790    -0.4290 C.3   1 <1>   0.1200 
 14 O       -0.8170     5.4990    -0.3680 O.3   1 <1>  -0.0190 
 15 C        1.2040     5.2970     0.3260 C.2   1 <1>  -0.1810 
 16 N       -0.3180     6.7080    -0.4290 N.2   1 <1>  -0.4100 
 17 C        0.8960     6.6130    -0.0180 C.2   1 <1>   0.1080 
 18 C        2.5330     4.7830     0.8540 C.3   1 <1>  -0.0590 
 19 C        1.8360     7.8030     0.0650 C.3   1 <1>   0.0210 
 20 C        2.6860     7.9320    -1.2030 C.3   1 <1>  -0.2400 
 21 H       -0.1180    -2.0460     1.2790 H     1 <1>   0.1500 
 22 H        0.5240     2.6980     0.5820 H     1 <1>   0.3700 
 23 H       -5.3970    -0.4120    -0.8280 H     1 <1>   0.0800 
 24 H       -4.9330    -0.5420     0.8570 H     1 <1>   0.0800 
 25 H       -4.6560    -2.7640    -0.2140 H     1 <1>   0.0800 
 26 H       -3.6470    -2.0530    -1.4570 H     1 <1>   0.0800 
 27 H        2.4910     3.7240     1.0260 H     1 <1>   0.0800 
 28 H        2.7730     5.2720     1.7810 H     1 <1>   0.0800 
 29 H        3.3130     4.9830     0.1410 H     1 <1>   0.0800 
 30 H        2.4730     7.7010     0.9250 H     1 <1>   0.0800 
 31 H        1.2520     8.6980     0.1940 H     1 <1>   0.0800 
 32 H        3.2880     7.0520    -1.3430 H     1 <1>   0.0800 
 33 H        3.3310     8.7890    -1.1330 H     1 <1>   0.0800 
 34 H        2.0460     8.0500    -2.0600 H     1 <1>   0.0800 
@<TRIPOS>BOND
  1   1   2  1   
  2   1   3  1   
  3   2   4  2   
  4   2   5  1   
  5   3   6  2   
  6   3  21  1   
  7   4   6  1   
  8   4   7  1   
  9   5   8  2   
 10   5   9  am  
 11   6  10  1   
 12   7  11  1   
 13   9  12  1   
 14   9  22  1   
 15  10  13  1   
 16  11  13  1   
 17  11  23  1   
 18  11  24  1   
 19  12  14  1   
 20  12  15  2   
 21  13  25  1   
 22  13  26  1   
 23  14  16  1   
 24  15  17  1   
 25  15  18  1   
 26  16  17  2   
 27  17  19  1   
 28  18  27  1   
 29  18  28  1   
 30  18  29  1   
 31  19  20  1   
 32  19  30  1   
 33  19  31  1   
 34  20  32  1   
 35  20  33  1   
 36  20  34  1   
@<TRIPOS>SUBSTRUCTURE
  1 ****   5 GROUP 4 **** **** 0

# MOE 2024.06 (io_trps.svl 2023.06)
