@<TRIPOS>MOLECULE
NONAME
48 50 1 0 0 
SMALL
USER_CHARGES


@<TRIPOS>ATOM
  1 F       -0.9290    -0.4670    -0.6830 F     1 <1>  -0.1900 
  2 C       -1.9730    -1.2360    -0.5170 C.ar  1 <1>   0.1900 
  3 C       -1.7950    -2.6060    -0.5020 C.ar  1 <1>  -0.1500 
  4 C       -3.2150    -0.6490    -0.3630 C.ar  1 <1>  -0.1500 
  5 C       -2.9020    -3.4210    -0.3270 C.ar  1 <1>  -0.1500 
  6 C       -4.3150    -1.4710    -0.1890 C.ar  1 <1>  -0.1500 
  7 C       -4.1680    -2.8520    -0.1700 C.ar  1 <1>   0.0820 
  8 O       -5.3010    -3.5770     0.0060 O.3   1 <1>  -0.3630 
  9 C       -5.2780    -4.9820     0.0330 C.3   1 <1>   0.1200 
 10 C       -6.7180    -5.4500     0.2400 C.3   1 <1>  -0.1600 
 11 C       -6.7990    -6.9740     0.2480 C.3   1 <1>   0.3430 
 12 N       -8.1870    -7.4080     0.5530 N.4   1 <1>  -0.9590 
 13 C       -9.2250    -7.0560    -0.4550 C.3   1 <1>   0.3430 
 14 C       -8.3360    -8.8750     0.7880 C.3   1 <1>   0.3430 
 15 C      -10.4130    -7.9310    -0.0570 C.3   1 <1>   0.2000 
 16 C       -9.7560    -9.2570     0.3330 C.3   1 <1>  -0.0800 
 17 O      -10.9740    -7.3790     1.0880 O.3   1 <1>  -0.6800 
 18 C       -9.7250   -10.2470    -0.8470 C.3   1 <1>  -0.0170 
 19 C       -8.8390   -11.4430    -0.5340 C.ar  1 <1>  -0.1430 
 20 C       -9.1390   -12.3270     0.4850 C.ar  1 <1>  -0.1500 
 21 C       -7.6860   -11.7050    -1.2480 C.ar  1 <1>  -0.1500 
 22 C       -8.2840   -13.3840     0.7480 C.ar  1 <1>   0.1600 
 23 C       -6.9000   -12.7930    -0.9050 C.ar  1 <1>   0.1600 
 24 N       -7.1670   -13.6280     0.0840 N.ar  1 <1>  -0.6200 
 25 H       -0.8110    -3.0200    -0.6250 H     1 <1>   0.1500 
 26 H       -3.3130     0.4210    -0.3800 H     1 <1>   0.1500 
 27 H       -2.7560    -4.4840    -0.3150 H     1 <1>   0.1500 
 28 H       -5.2950    -1.0450    -0.0660 H     1 <1>   0.1500 
 29 H       -4.8840    -5.3290    -0.9070 H     1 <1>   0.0800 
 30 H       -4.6450    -5.2930     0.8470 H     1 <1>   0.0800 
 31 H       -7.0690    -5.0630     1.1800 H     1 <1>   0.0800 
 32 H       -7.3180    -5.0520    -0.5590 H     1 <1>   0.0800 
 33 H       -6.1300    -7.3580     1.0020 H     1 <1>   0.0800 
 34 H       -6.4910    -7.3640    -0.7090 H     1 <1>   0.0800 
 35 H       -8.5110    -6.9480     1.4210 H     1 <1>   0.4500 
 36 H       -9.4840    -6.0110    -0.4250 H     1 <1>   0.0800 
 37 H       -8.8890    -7.3220    -1.4430 H     1 <1>   0.0800 
 38 H       -7.6050    -9.4220     0.2150 H     1 <1>   0.0800 
 39 H       -8.1980    -9.1050     1.8330 H     1 <1>   0.0800 
 40 H      -11.1680    -8.0040    -0.8230 H     1 <1>   0.0800 
 41 H      -10.2840    -9.7210     1.1480 H     1 <1>   0.0800 
 42 H      -11.8440    -7.7850     1.2940 H     1 <1>   0.4000 
 43 H       -9.3620    -9.7610    -1.7360 H     1 <1>   0.0800 
 44 H      -10.7220   -10.5970    -1.0550 H     1 <1>   0.0800 
 45 H      -10.0280   -12.2150     1.0780 H     1 <1>   0.1500 
 46 H       -7.3860   -11.0860    -2.0740 H     1 <1>   0.1500 
 47 H       -8.5300   -14.0650     1.5460 H     1 <1>   0.1500 
 48 H       -6.0060   -12.9890    -1.4730 H     1 <1>   0.1500 
@<TRIPOS>BOND
  1   1   2  1   
  2   2   3  ar  
  3   2   4  ar  
  4   3   5  ar  
  5   3  25  1   
  6   4   6  ar  
  7   4  26  1   
  8   5   7  ar  
  9   5  27  1   
 10   6   7  ar  
 11   6  28  1   
 12   7   8  1   
 13   8   9  1   
 14   9  10  1   
 15   9  29  1   
 16   9  30  1   
 17  10  11  1   
 18  10  31  1   
 19  10  32  1   
 20  11  12  1   
 21  11  33  1   
 22  11  34  1   
 23  12  13  1   
 24  12  14  1   
 25  12  35  1   
 26  13  15  1   
 27  13  36  1   
 28  13  37  1   
 29  14  16  1   
 30  14  38  1   
 31  14  39  1   
 32  15  16  1   
 33  15  17  1   
 34  15  40  1   
 35  16  18  1   
 36  16  41  1   
 37  17  42  1   
 38  18  19  1   
 39  18  43  1   
 40  18  44  1   
 41  19  20  ar  
 42  19  21  ar  
 43  20  22  ar  
 44  20  45  1   
 45  21  23  ar  
 46  21  46  1   
 47  22  24  ar  
 48  22  47  1   
 49  23  24  ar  
 50  23  48  1   
@<TRIPOS>SUBSTRUCTURE
  1 ****  11 GROUP 4 **** **** 0

# MOE 2024.06 (io_trps.svl 2023.06)
