@<TRIPOS>MOLECULE
NONAME
51 51 1 0 0 
SMALL
USER_CHARGES


@<TRIPOS>ATOM
  1 O        0.7970    -1.1740     1.4650 O.2   1 <1>  -0.5700 
  2 C        1.4150    -1.1370     0.4260 C.2   1 <1>   0.5690 
  3 N        1.9770     0.0140    -0.0510 N.am  1 <1>  -0.7300 
  4 C        1.5300    -2.4470    -0.4070 C.3   1 <1>   0.4840 
  5 C        1.9920     1.3440     0.5710 C.3   1 <1>   0.3000 
  6 N        0.2680    -3.2860    -0.4820 N.4   1 <1>  -0.9590 
  7 C        2.7080    -3.3250     0.0560 C.3   1 <1>  -0.1600 
  8 C        2.7140     1.2790     1.9170 C.3   1 <1>  -0.2400 
  9 C        0.5630     1.8650     0.7260 C.3   1 <1>  -0.2400 
 10 C        2.7660     2.2560    -0.3790 C.3   1 <1>  -0.2400 
 11 C       -0.8660    -2.4830    -1.0230 C.3   1 <1>   0.3430 
 12 C       -0.1300    -3.8740     0.8370 C.3   1 <1>   0.3430 
 13 C        4.0770    -2.6850    -0.2230 C.3   1 <1>  -0.2400 
 14 C       -2.0540    -3.4020    -1.2960 C.3   1 <1>  -0.1600 
 15 C       -1.2950    -4.8380     0.6340 C.3   1 <1>  -0.1600 
 16 C       -2.5010    -4.1520    -0.0310 C.3   1 <1>  -0.0800 
 17 C       -3.6020    -5.1620    -0.3960 C.3   1 <1>  -0.1600 
 18 C       -4.2220    -5.8650     0.8250 C.3   1 <1>  -0.2660 
 19 C       -5.2820    -6.8560     0.4060 C.2   1 <1>   0.9060 
 20 O       -4.9100    -7.9540    -0.0170 O.co2 1 <1>  -0.9000 
 21 O       -6.4660    -6.5230     0.4860 O.co2 1 <1>  -0.9000 
 22 H        2.5420     0.0000    -0.9010 H     1 <1>   0.3700 
 23 H        1.7580    -2.1340    -1.4110 H     1 <1>   0.0800 
 24 H        0.4280    -4.0710    -1.1210 H     1 <1>   0.4500 
 25 H        2.6740    -4.2710    -0.4560 H     1 <1>   0.0800 
 26 H        2.6330    -3.5060     1.1150 H     1 <1>   0.0800 
 27 H        2.1680     0.6750     2.6180 H     1 <1>   0.0800 
 28 H        2.8010     2.2650     2.3370 H     1 <1>   0.0800 
 29 H        3.7030     0.8740     1.8000 H     1 <1>   0.0800 
 30 H        0.0090     1.2650     1.4250 H     1 <1>   0.0800 
 31 H        0.0540     1.8670    -0.2200 H     1 <1>   0.0800 
 32 H        0.5780     2.8720     1.1030 H     1 <1>   0.0800 
 33 H        3.7760     1.9070    -0.5070 H     1 <1>   0.0800 
 34 H        2.8110     3.2520     0.0250 H     1 <1>   0.0800 
 35 H        2.2820     2.3100    -1.3370 H     1 <1>   0.0800 
 36 H       -0.5750    -1.9950    -1.9400 H     1 <1>   0.0800 
 37 H       -1.1510    -1.7260    -0.3080 H     1 <1>   0.0800 
 38 H       -0.4290    -3.0920     1.5170 H     1 <1>   0.0800 
 39 H        0.6960    -4.4070     1.2780 H     1 <1>   0.0800 
 40 H        4.2000    -2.4750    -1.2720 H     1 <1>   0.0800 
 41 H        4.8610    -3.3600     0.0760 H     1 <1>   0.0800 
 42 H        4.2010    -1.7730     0.3350 H     1 <1>   0.0800 
 43 H       -1.7930    -4.1030    -2.0700 H     1 <1>   0.0800 
 44 H       -2.8750    -2.8110    -1.6620 H     1 <1>   0.0800 
 45 H       -1.5840    -5.2170     1.5980 H     1 <1>   0.0800 
 46 H       -0.9720    -5.6780     0.0430 H     1 <1>   0.0800 
 47 H       -2.9160    -3.4370     0.6610 H     1 <1>   0.0800 
 48 H       -3.2120    -5.9160    -1.0600 H     1 <1>   0.0800 
 49 H       -4.3970    -4.6570    -0.9190 H     1 <1>   0.0800 
 50 H       -4.6780    -5.1490     1.4810 H     1 <1>   0.0800 
 51 H       -3.4870    -6.4200     1.3720 H     1 <1>   0.0800 
@<TRIPOS>BOND
  1   1   2  2   
  2   2   3  am  
  3   2   4  1   
  4   3   5  1   
  5   3  22  1   
  6   4   6  1   
  7   4   7  1   
  8   4  23  1   
  9   5   8  1   
 10   5   9  1   
 11   5  10  1   
 12   6  11  1   
 13   6  12  1   
 14   6  24  1   
 15   7  13  1   
 16   7  25  1   
 17   7  26  1   
 18   8  27  1   
 19   8  28  1   
 20   8  29  1   
 21   9  30  1   
 22   9  31  1   
 23   9  32  1   
 24  10  33  1   
 25  10  34  1   
 26  10  35  1   
 27  11  14  1   
 28  11  36  1   
 29  11  37  1   
 30  12  15  1   
 31  12  38  1   
 32  12  39  1   
 33  13  40  1   
 34  13  41  1   
 35  13  42  1   
 36  14  16  1   
 37  14  43  1   
 38  14  44  1   
 39  15  16  1   
 40  15  45  1   
 41  15  46  1   
 42  16  17  1   
 43  16  47  1   
 44  17  18  1   
 45  17  48  1   
 46  17  49  1   
 47  18  19  1   
 48  18  50  1   
 49  18  51  1   
 50  19  20  ar  
 51  19  21  ar  
@<TRIPOS>SUBSTRUCTURE
  1 ****   6 GROUP 4 **** **** 0

# MOE 2024.06 (io_trps.svl 2023.06)
