@<TRIPOS>MOLECULE
NONAME
53 55 1 0 0 
SMALL
USER_CHARGES


@<TRIPOS>ATOM
  1 O        0.5410    -1.1280    -1.3610 O.2   1 <1>  -0.5700 
  2 C        0.9260    -1.8470    -0.4570 C.2   1 <1>   0.5440 
  3 N        0.0440    -2.3790     0.4620 N.am  1 <1>  -0.4200 
  4 C        2.3260    -2.1290    -0.3000 C.ar  1 <1>   0.0860 
  5 C        0.5560    -3.0490     1.5510 C.2   1 <1>   0.4500 
  6 C       -1.4440    -2.5060     0.2280 C.3   1 <1>   0.2810 
  7 C        2.7170    -2.8530     0.8300 C.ar  1 <1>   0.1790 
  8 C        3.3070    -1.7210    -1.2100 C.ar  1 <1>  -0.1500 
  9 N        1.7940    -3.2860     1.7570 N.2   1 <1>  -0.6290 
 10 C       -1.7620    -3.6020    -0.8180 C.2   1 <1>   0.5690 
 11 C       -2.2580    -1.1800     0.0840 C.3   1 <1>  -0.0800 
 12 C        4.0620    -3.1460     1.0280 C.ar  1 <1>  -0.1500 
 13 C        4.6380    -2.0210    -1.0040 C.ar  1 <1>  -0.1500 
 14 O       -1.1680    -3.5930    -1.8730 O.2   1 <1>  -0.5700 
 15 N       -2.6580    -4.6120    -0.5490 N.am  1 <1>  -0.6600 
 16 C       -2.5640    -0.7080    -1.3500 C.3   1 <1>  -0.2400 
 17 C       -1.6860    -0.0220     0.9190 C.3   1 <1>  -0.2400 
 18 C        5.0180    -2.7370     0.1220 C.ar  1 <1>  -0.1500 
 19 C       -2.6150    -5.8750    -1.3550 C.3   1 <1>   0.3210 
 20 C       -3.6870    -4.5790     0.5440 C.3   1 <1>   0.1400 
 21 C       -1.9910    -7.0000    -0.5370 C.2   1 <1>   0.0460 
 22 C       -3.2650    -5.2950     1.8440 C.3   1 <1>   0.1200 
 23 N       -2.7610    -7.9900    -0.0380 N.2   1 <1>  -0.5650 
 24 C       -0.6950    -7.1730    -0.1760 C.2   1 <1>  -0.3320 
 25 O       -1.8900    -5.2440     2.0200 O.3   1 <1>  -0.6800 
 26 C       -1.9270    -8.7400     0.6050 C.2   1 <1>   0.0360 
 27 N       -0.6550    -8.2970     0.5620 N.pl3 1 <1>   0.0330 
 28 C        0.5490    -6.3500    -0.4730 C.3   1 <1>  -0.0600 
 29 H       -0.1560    -3.4010     2.2760 H     1 <1>   0.0600 
 30 H       -1.8170    -2.8980     1.1510 H     1 <1>   0.0800 
 31 H        3.0070    -1.1650    -2.0820 H     1 <1>   0.1500 
 32 H       -3.2240    -1.3960     0.5060 H     1 <1>   0.0800 
 33 H        4.3430    -3.7010     1.9050 H     1 <1>   0.1500 
 34 H        5.3820    -1.7000    -1.7130 H     1 <1>   0.1500 
 35 H       -1.6780    -0.3940    -1.8670 H     1 <1>   0.0800 
 36 H       -3.2390     0.1280    -1.3260 H     1 <1>   0.0800 
 37 H       -3.0280    -1.4890    -1.9250 H     1 <1>   0.0800 
 38 H       -0.7540     0.3210     0.5030 H     1 <1>   0.0800 
 39 H       -1.5170    -0.3310     1.9350 H     1 <1>   0.0800 
 40 H       -2.3710     0.8070     0.9270 H     1 <1>   0.0800 
 41 H        6.0560    -2.9700     0.2850 H     1 <1>   0.1500 
 42 H       -2.0380    -5.7420    -2.2530 H     1 <1>   0.0800 
 43 H       -3.6110    -6.1530    -1.6500 H     1 <1>   0.0800 
 44 H       -4.5980    -5.0260     0.1870 H     1 <1>   0.0800 
 45 H       -3.9270    -3.5590     0.7800 H     1 <1>   0.0800 
 46 H       -3.5570    -6.3300     1.8140 H     1 <1>   0.0800 
 47 H       -3.7340    -4.8360     2.6960 H     1 <1>   0.0800 
 48 H       -1.4820    -5.7920     1.3070 H     1 <1>   0.4000 
 49 H       -2.2020    -9.6370     1.1330 H     1 <1>   0.1500 
 50 H        0.1650    -8.7300     0.9970 H     1 <1>   0.2700 
 51 H        0.3310    -5.5640    -1.1720 H     1 <1>   0.0800 
 52 H        1.3130    -6.9720    -0.9040 H     1 <1>   0.0800 
 53 H        0.9320    -5.9070     0.4300 H     1 <1>   0.0800 
@<TRIPOS>BOND
  1   1   2  2   
  2   2   3  am  
  3   2   4  1   
  4   3   5  1   
  5   3   6  1   
  6   4   7  ar  
  7   4   8  ar  
  8   5   9  2   
  9   5  29  1   
 10   6  10  1   
 11   6  11  1   
 12   6  30  1   
 13   7   9  1   
 14   7  12  ar  
 15   8  13  ar  
 16   8  31  1   
 17  10  14  2   
 18  10  15  am  
 19  11  16  1   
 20  11  17  1   
 21  11  32  1   
 22  12  18  ar  
 23  12  33  1   
 24  13  18  ar  
 25  13  34  1   
 26  15  19  1   
 27  15  20  1   
 28  16  35  1   
 29  16  36  1   
 30  16  37  1   
 31  17  38  1   
 32  17  39  1   
 33  17  40  1   
 34  18  41  1   
 35  19  21  1   
 36  19  42  1   
 37  19  43  1   
 38  20  22  1   
 39  20  44  1   
 40  20  45  1   
 41  21  23  1   
 42  21  24  2   
 43  22  25  1   
 44  22  46  1   
 45  22  47  1   
 46  23  26  2   
 47  24  27  1   
 48  24  28  1   
 49  25  48  1   
 50  26  27  1   
 51  26  49  1   
 52  27  50  1   
 53  28  51  1   
 54  28  52  1   
 55  28  53  1   
@<TRIPOS>SUBSTRUCTURE
  1 ****   3 GROUP 4 **** **** 0

# MOE 2024.06 (io_trps.svl 2023.06)
