@<TRIPOS>MOLECULE
NONAME
48 49 1 0 0 
SMALL
USER_CHARGES


@<TRIPOS>ATOM
  1 O       -0.7500    -0.2080    -0.1820 O.2   1 <1>  -0.5700 
  2 C       -1.6650     0.5030    -0.5260 C.2   1 <1>   0.5690 
  3 N       -2.8460    -0.0220    -0.9820 N.am  1 <1>  -0.6600 
  4 C       -1.4850     2.0130    -0.4310 C.3   1 <1>  -0.0990 
  5 C       -3.0060    -1.4930    -1.1480 C.3   1 <1>   0.3200 
  6 C       -4.0190     0.7970    -1.4220 C.3   1 <1>   0.1400 
  7 C       -0.2170     2.4490     0.3190 C.3   1 <1>  -0.0170 
  8 C       -3.9990    -2.0180    -0.1300 C.2   1 <1>  -0.3320 
  9 C       -4.9600     1.1030    -0.2490 C.3   1 <1>   0.1200 
 10 C       -0.1620     3.9700     0.4060 C.ar  1 <1>  -0.1440 
 11 N       -3.7700    -2.0970     1.1970 N.pl3 1 <1>   0.0480 
 12 C       -5.2480    -2.4940    -0.3320 C.2   1 <1>   0.0770 
 13 O       -5.8180     2.1330    -0.6100 O.3   1 <1>  -0.6800 
 14 C        0.4840     4.7560    -0.5450 C.ar  1 <1>  -0.1430 
 15 C       -0.7940     4.5840     1.4770 C.ar  1 <1>  -0.1500 
 16 C       -4.9100    -2.6120     1.7090 C.2   1 <1>   0.0360 
 17 C       -2.5510    -1.7290     1.9400 C.3   1 <1>   0.0160 
 18 N       -5.8210    -2.8620     0.8260 N.2   1 <1>  -0.5650 
 19 C        0.4810     6.1360    -0.4040 C.ar  1 <1>  -0.1500 
 20 C        1.2060     4.1500    -1.7410 C.3   1 <1>  -0.0970 
 21 C       -0.7910     5.9610     1.6070 C.ar  1 <1>  -0.1500 
 22 C       -0.1540     6.7460     0.6640 C.ar  1 <1>  -0.1430 
 23 C       -0.1400     8.2580     0.7980 C.3   1 <1>  -0.0970 
 24 H       -2.3320     2.4340     0.0760 H     1 <1>   0.0800 
 25 H       -1.4550     2.4140    -1.4260 H     1 <1>   0.0800 
 26 H       -2.0650    -2.0020    -1.0300 H     1 <1>   0.0800 
 27 H       -3.3610    -1.7000    -2.1420 H     1 <1>   0.0800 
 28 H       -4.5680     0.2670    -2.1800 H     1 <1>   0.0800 
 29 H       -3.6710     1.7180    -1.8540 H     1 <1>   0.0800 
 30 H        0.6570     2.0600    -0.1730 H     1 <1>   0.0800 
 31 H       -0.2270     2.0330     1.3120 H     1 <1>   0.0800 
 32 H       -4.4140     1.4110     0.6250 H     1 <1>   0.0800 
 33 H       -5.5610     0.2420    -0.0110 H     1 <1>   0.0800 
 34 H       -5.7790    -2.5900    -1.2650 H     1 <1>   0.1500 
 35 H       -5.3550     2.9940    -0.6180 H     1 <1>   0.4000 
 36 H       -1.2940     3.9920     2.2220 H     1 <1>   0.1500 
 37 H       -5.0290    -2.7930     2.7630 H     1 <1>   0.1500 
 38 H       -1.6890    -2.1280     1.4360 H     1 <1>   0.0800 
 39 H       -2.5980    -2.1290     2.9360 H     1 <1>   0.0800 
 40 H       -2.4730    -0.6590     1.9850 H     1 <1>   0.0800 
 41 H        0.9810     6.7480    -1.1330 H     1 <1>   0.1500 
 42 H        0.5480     3.5000    -2.2880 H     1 <1>   0.0800 
 43 H        2.0590     3.5880    -1.4060 H     1 <1>   0.0800 
 44 H        1.5510     4.9160    -2.4120 H     1 <1>   0.0800 
 45 H       -1.2840     6.4170     2.4470 H     1 <1>   0.1500 
 46 H       -0.2420     8.7180    -0.1690 H     1 <1>   0.0800 
 47 H        0.7870     8.5750     1.2390 H     1 <1>   0.0800 
 48 H       -0.9520     8.5910     1.4190 H     1 <1>   0.0800 
@<TRIPOS>BOND
  1   1   2  2   
  2   2   3  am  
  3   2   4  1   
  4   3   5  1   
  5   3   6  1   
  6   4   7  1   
  7   4  24  1   
  8   4  25  1   
  9   5   8  1   
 10   5  26  1   
 11   5  27  1   
 12   6   9  1   
 13   6  28  1   
 14   6  29  1   
 15   7  10  1   
 16   7  30  1   
 17   7  31  1   
 18   8  11  1   
 19   8  12  2   
 20   9  13  1   
 21   9  32  1   
 22   9  33  1   
 23  10  14  ar  
 24  10  15  ar  
 25  11  16  1   
 26  11  17  1   
 27  12  18  1   
 28  12  34  1   
 29  13  35  1   
 30  14  19  ar  
 31  14  20  1   
 32  15  21  ar  
 33  15  36  1   
 34  16  18  2   
 35  16  37  1   
 36  17  38  1   
 37  17  39  1   
 38  17  40  1   
 39  19  22  ar  
 40  19  41  1   
 41  20  42  1   
 42  20  43  1   
 43  20  44  1   
 44  21  22  ar  
 45  21  45  1   
 46  22  23  1   
 47  23  46  1   
 48  23  47  1   
 49  23  48  1   
@<TRIPOS>SUBSTRUCTURE
  1 ****   4 GROUP 4 **** **** 0

# MOE 2024.06 (io_trps.svl 2023.06)
