@<TRIPOS>MOLECULE
NONAME
47 49 1 0 0 
SMALL
USER_CHARGES


@<TRIPOS>ATOM
  1 O       -0.0070    -4.7830    -1.8840 O.2   1 <1>  -0.5700 
  2 C        0.8010    -3.8950    -1.6870 C.2   1 <1>   0.6900 
  3 N        1.9630    -4.1480    -0.9930 N.am  1 <1>  -0.4200 
  4 N        0.5190    -2.6140    -2.0660 N.am  1 <1>  -0.5390 
  5 C        2.7050    -3.0970    -0.4920 C.2   1 <1>   0.6160 
  6 C        2.4470    -5.5480    -0.8010 C.3   1 <1>   0.1400 
  7 C        1.3000    -1.5400    -1.6880 C.2   1 <1>  -0.0290 
  8 O        3.5860    -3.3280     0.3130 O.2   1 <1>  -0.5700 
  9 C        2.3750    -1.7720    -0.9030 C.2   1 <1>  -0.1360 
 10 C        1.9280    -6.1550     0.5130 C.3   1 <1>   0.3430 
 11 C        0.8780    -0.1700    -2.1830 C.3   1 <1>  -0.1020 
 12 N        0.4370    -6.0540     0.6030 N.4   1 <1>  -0.9590 
 13 C       -0.0510    -5.0000     1.5540 C.3   1 <1>   0.3430 
 14 C       -0.2600    -7.3180     0.9530 C.3   1 <1>   0.3430 
 15 C       -1.2520    -5.6070     2.2980 C.3   1 <1>   0.2000 
 16 C       -1.6090    -6.8730     1.5190 C.3   1 <1>  -0.0800 
 17 O       -0.8660    -5.9660     3.5830 O.3   1 <1>  -0.6800 
 18 C       -2.6310    -6.5740     0.4020 C.3   1 <1>  -0.0170 
 19 C       -2.6830    -7.7110    -0.6050 C.ar  1 <1>  -0.1440 
 20 C       -3.1750    -8.9580    -0.2750 C.ar  1 <1>  -0.1500 
 21 C       -2.2240    -7.5570    -1.8990 C.ar  1 <1>  -0.1500 
 22 C       -3.1620    -9.9700    -1.2200 C.ar  1 <1>   0.1600 
 23 C       -2.2560    -8.6350    -2.7680 C.ar  1 <1>   0.1600 
 24 N       -2.7010    -9.8390    -2.4520 N.ar  1 <1>  -0.6200 
 25 H       -0.3130    -2.4900    -2.6490 H     1 <1>   0.3700 
 26 H        2.1310    -6.1570    -1.6300 H     1 <1>   0.0800 
 27 H        3.5240    -5.5580    -0.7940 H     1 <1>   0.0800 
 28 H        3.0250    -0.9910    -0.5540 H     1 <1>   0.1500 
 29 H        2.3890    -5.6430     1.3430 H     1 <1>   0.0800 
 30 H        2.2300    -7.1890     0.5550 H     1 <1>   0.0800 
 31 H       -0.1110     0.0640    -1.8320 H     1 <1>   0.0800 
 32 H        0.8820    -0.1480    -3.2580 H     1 <1>   0.0800 
 33 H        1.5540     0.5860    -1.8250 H     1 <1>   0.0800 
 34 H        0.0930    -5.7810    -0.3420 H     1 <1>   0.4500 
 35 H        0.7120    -4.7140     2.2590 H     1 <1>   0.0800 
 36 H       -0.3640    -4.1310     0.9980 H     1 <1>   0.0800 
 37 H       -0.3710    -7.9630     0.0960 H     1 <1>   0.0800 
 38 H        0.2920    -7.8400     1.7170 H     1 <1>   0.0800 
 39 H       -2.0700    -4.9120     2.3870 H     1 <1>   0.0800 
 40 H       -2.0180    -7.6320     2.1620 H     1 <1>   0.0800 
 41 H       -0.1990    -6.6790     3.6060 H     1 <1>   0.4000 
 42 H       -2.3800    -5.6620    -0.1120 H     1 <1>   0.0800 
 43 H       -3.6090    -6.4390     0.8330 H     1 <1>   0.0800 
 44 H       -3.5730    -9.1580     0.7040 H     1 <1>   0.1500 
 45 H       -1.8450    -6.6150    -2.2510 H     1 <1>   0.1500 
 46 H       -3.5500   -10.9380    -0.9490 H     1 <1>   0.1500 
 47 H       -1.8970    -8.5000    -3.7740 H     1 <1>   0.1500 
@<TRIPOS>BOND
  1   1   2  2   
  2   2   3  am  
  3   2   4  am  
  4   3   5  am  
  5   3   6  1   
  6   4   7  1   
  7   4  25  1   
  8   5   8  2   
  9   5   9  1   
 10   6  10  1   
 11   6  26  1   
 12   6  27  1   
 13   7   9  2   
 14   7  11  1   
 15   9  28  1   
 16  10  12  1   
 17  10  29  1   
 18  10  30  1   
 19  11  31  1   
 20  11  32  1   
 21  11  33  1   
 22  12  13  1   
 23  12  14  1   
 24  12  34  1   
 25  13  15  1   
 26  13  35  1   
 27  13  36  1   
 28  14  16  1   
 29  14  37  1   
 30  14  38  1   
 31  15  16  1   
 32  15  17  1   
 33  15  39  1   
 34  16  18  1   
 35  16  40  1   
 36  17  41  1   
 37  18  19  1   
 38  18  42  1   
 39  18  43  1   
 40  19  20  ar  
 41  19  21  ar  
 42  20  22  ar  
 43  20  44  1   
 44  21  23  ar  
 45  21  45  1   
 46  22  24  ar  
 47  22  46  1   
 48  23  24  ar  
 49  23  47  1   
@<TRIPOS>SUBSTRUCTURE
  1 ****  12 GROUP 4 **** **** 0

# MOE 2024.06 (io_trps.svl 2023.06)
