@<TRIPOS>MOLECULE
NONAME
45 46 1 0 0 
SMALL
USER_CHARGES


@<TRIPOS>ATOM
  1 O       -2.1170     0.1990    -2.4980 O.2   1 <1>  -0.5700 
  2 C       -2.6300     0.9470    -1.6920 C.2   1 <1>   0.5690 
  3 N       -3.8740     0.6570    -1.1780 N.am  1 <1>  -0.6600 
  4 C       -1.8460     2.2030    -1.2560 C.3   1 <1>   0.1250 
  5 C       -4.6640    -0.4790    -1.7240 C.3   1 <1>   0.3200 
  6 C       -4.4530     1.2900     0.0480 C.3   1 <1>   0.1400 
  7 C       -1.3600     2.0900     0.1940 C.ar  1 <1>  -0.1440 
  8 C       -0.6650     2.5340    -2.1980 C.3   1 <1>  -0.1600 
  9 C       -4.2250    -1.7560    -1.0420 C.2   1 <1>  -0.3320 
 10 C       -4.1310     0.4640     1.3030 C.3   1 <1>   0.1200 
 11 C       -0.7360     0.9350     0.6430 C.ar  1 <1>  -0.1500 
 12 C       -1.5480     3.1430     1.0790 C.ar  1 <1>  -0.1500 
 13 C        0.0250     3.8680    -1.8720 C.3   1 <1>  -0.2400 
 14 N       -2.9700    -2.2210    -1.1540 N.pl3 1 <1>   0.0330 
 15 C       -4.8860    -2.6330    -0.2550 C.2   1 <1>   0.0770 
 16 O       -3.8170     1.3180     2.3490 O.3   1 <1>  -0.6800 
 17 C       -0.3250     0.8260     1.9600 C.ar  1 <1>  -0.1500 
 18 C       -1.1330     3.0370     2.3950 C.ar  1 <1>  -0.1500 
 19 C       -2.9410    -3.3510    -0.4170 C.2   1 <1>   0.0060 
 20 N       -4.0740    -3.6330     0.1380 N.2   1 <1>  -0.5650 
 21 C       -0.5250     1.8760     2.8370 C.ar  1 <1>  -0.1500 
 22 C       -1.6940    -4.1940    -0.2660 C.3   1 <1>  -0.0600 
 23 H       -2.5350     3.0230    -1.3260 H     1 <1>   0.0800 
 24 H       -5.7150    -0.3130    -1.5630 H     1 <1>   0.0800 
 25 H       -4.5000    -0.5620    -2.7860 H     1 <1>   0.0800 
 26 H       -4.0730     2.2880     0.1630 H     1 <1>   0.0800 
 27 H       -5.5210     1.3680    -0.0570 H     1 <1>   0.0800 
 28 H        0.0620     1.7420    -2.1480 H     1 <1>   0.0800 
 29 H       -1.0290     2.5740    -3.2100 H     1 <1>   0.0800 
 30 H       -3.2880    -0.1860     1.1430 H     1 <1>   0.0800 
 31 H       -4.9820    -0.1250     1.5960 H     1 <1>   0.0800 
 32 H       -0.5690     0.1110    -0.0290 H     1 <1>   0.1500 
 33 H       -2.0180     4.0540     0.7500 H     1 <1>   0.1500 
 34 H        0.4790     3.8340    -0.8970 H     1 <1>   0.0800 
 35 H       -0.6810     4.6790    -1.9010 H     1 <1>   0.0800 
 36 H        0.7980     4.0640    -2.5940 H     1 <1>   0.0800 
 37 H       -2.2140    -1.7690    -1.6860 H     1 <1>   0.2700 
 38 H       -5.9150    -2.6000     0.0610 H     1 <1>   0.1500 
 39 H       -2.8930     1.6440     2.2430 H     1 <1>   0.4000 
 40 H        0.1530    -0.0760     2.3020 H     1 <1>   0.1500 
 41 H       -1.2840     3.8580     3.0760 H     1 <1>   0.1500 
 42 H       -0.2050     1.7920     3.8620 H     1 <1>   0.1500 
 43 H       -1.9050    -5.0440     0.3580 H     1 <1>   0.0800 
 44 H       -0.9120    -3.6160     0.1900 H     1 <1>   0.0800 
 45 H       -1.3670    -4.5430    -1.2280 H     1 <1>   0.0800 
@<TRIPOS>BOND
  1   1   2  2   
  2   2   3  am  
  3   2   4  1   
  4   3   5  1   
  5   3   6  1   
  6   4   7  1   
  7   4   8  1   
  8   4  23  1   
  9   5   9  1   
 10   5  24  1   
 11   5  25  1   
 12   6  10  1   
 13   6  26  1   
 14   6  27  1   
 15   7  11  ar  
 16   7  12  ar  
 17   8  13  1   
 18   8  28  1   
 19   8  29  1   
 20   9  14  1   
 21   9  15  2   
 22  10  16  1   
 23  10  30  1   
 24  10  31  1   
 25  11  17  ar  
 26  11  32  1   
 27  12  18  ar  
 28  12  33  1   
 29  13  34  1   
 30  13  35  1   
 31  13  36  1   
 32  14  19  1   
 33  14  37  1   
 34  15  20  1   
 35  15  38  1   
 36  16  39  1   
 37  17  21  ar  
 38  17  40  1   
 39  18  21  ar  
 40  18  41  1   
 41  19  20  2   
 42  19  22  1   
 43  21  42  1   
 44  22  43  1   
 45  22  44  1   
 46  22  45  1   
@<TRIPOS>SUBSTRUCTURE
  1 ****   2 GROUP 4 **** **** 0

# MOE 2024.06 (io_trps.svl 2023.06)
