@<TRIPOS>MOLECULE
NONAME
56 59 1 0 0 
SMALL
USER_CHARGES


@<TRIPOS>ATOM
  1 O        0.1340    -1.4130    -0.5420 O.2   1 <1>  -0.5700 
  2 C        1.1360    -2.0860    -0.5400 C.2   1 <1>   0.5690 
  3 N        1.6820    -2.6270    -1.6720 N.am  1 <1>  -0.6600 
  4 C        1.8340    -2.3590     0.7770 C.3   1 <1>  -0.0990 
  5 C        2.9030    -3.4680    -1.5880 C.3   1 <1>   0.1400 
  6 C        1.0720    -2.4590    -3.0170 C.3   1 <1>   0.0600 
  7 C        3.3530    -2.1650     0.6270 C.3   1 <1>  -0.0800 
  8 C        3.9370    -2.8130    -0.6510 C.3   1 <1>  -0.0800 
  9 C        4.1520    -2.7250     1.8120 C.3   1 <1>  -0.1600 
 10 C        5.0090    -3.7990    -0.1690 C.3   1 <1>  -0.1600 
 11 C        5.4400    -3.2430     1.1860 C.3   1 <1>   0.2200 
 12 N        6.1500    -4.2270     2.0560 N.am  1 <1>  -0.6600 
 13 C        7.3310    -3.8990     2.7000 C.2   1 <1>   0.7160 
 14 C        5.5630    -5.5940     2.2130 C.3   1 <1>   0.0600 
 15 O        7.8900    -4.7400     3.3800 O.2   1 <1>  -0.5700 
 16 C        7.9070    -2.5820     2.6030 C.2   1 <1>  -0.0860 
 17 C        8.6510    -1.9370     1.6500 C.2   1 <1>  -0.3320 
 18 C        7.7600    -1.6230     3.6070 C.2   1 <1>   0.1390 
 19 N        8.8860    -0.6980     2.1180 N.pl3 1 <1>   0.3000 
 20 C        9.2000    -2.3840     0.2970 C.3   1 <1>   0.1000 
 21 N        8.3280    -0.4960     3.3220 N.2   1 <1>  -0.7070 
 22 C        8.4750    -1.6480    -0.8420 C.3   1 <1>  -0.1600 
 23 C        9.1270    -3.9050     0.0860 C.3   1 <1>  -0.1600 
 24 C        9.0180    -2.0570    -2.2200 C.3   1 <1>  -0.1600 
 25 C        9.6920    -4.3110    -1.2820 C.3   1 <1>  -0.1600 
 26 C        8.9620    -3.5780    -2.4150 C.3   1 <1>  -0.1600 
 27 H        1.4490    -1.6980     1.5320 H     1 <1>   0.0800 
 28 H        1.6060    -3.3690     1.0630 H     1 <1>   0.0800 
 29 H        2.6170    -4.4350    -1.2100 H     1 <1>   0.0800 
 30 H        3.3320    -3.6000    -2.5660 H     1 <1>   0.0800 
 31 H        1.7700    -1.9720    -3.6750 H     1 <1>   0.0800 
 32 H        0.1810    -1.8570    -2.9550 H     1 <1>   0.0800 
 33 H        0.8100    -3.4210    -3.4210 H     1 <1>   0.0800 
 34 H        3.5400    -1.1060     0.5610 H     1 <1>   0.0800 
 35 H        4.4310    -2.0360    -1.2090 H     1 <1>   0.0800 
 36 H        3.6130    -3.5290     2.2770 H     1 <1>   0.0800 
 37 H        4.3550    -1.9630     2.5440 H     1 <1>   0.0800 
 38 H        5.8340    -3.8530    -0.8550 H     1 <1>   0.0800 
 39 H        4.5700    -4.7730    -0.0570 H     1 <1>   0.0800 
 40 H        6.0670    -2.3910     0.9940 H     1 <1>   0.0800 
 41 H        4.4890    -5.5550     2.1910 H     1 <1>   0.0800 
 42 H        5.8620    -6.0290     3.1520 H     1 <1>   0.0800 
 43 H        5.9110    -6.2280     1.4170 H     1 <1>   0.0800 
 44 H        7.2260    -1.8040     4.5250 H     1 <1>   0.1500 
 45 H        9.4290     0.0360     1.6460 H     1 <1>   0.2700 
 46 H       10.2420    -2.1100     0.2630 H     1 <1>   0.0800 
 47 H        7.4250    -1.8720    -0.7990 H     1 <1>   0.0800 
 48 H        8.5890    -0.5860    -0.7230 H     1 <1>   0.0800 
 49 H        9.6770    -4.4040     0.8660 H     1 <1>   0.0800 
 50 H        8.1060    -4.2320     0.1370 H     1 <1>   0.0800 
 51 H        8.4440    -1.5740    -2.9920 H     1 <1>   0.0800 
 52 H       10.0380    -1.7260    -2.3140 H     1 <1>   0.0800 
 53 H       10.7420    -4.0790    -1.3210 H     1 <1>   0.0800 
 54 H        9.5850    -5.3740    -1.4130 H     1 <1>   0.0800 
 55 H        9.4120    -3.8370    -3.3590 H     1 <1>   0.0800 
 56 H        7.9350    -3.8970    -2.4430 H     1 <1>   0.0800 
@<TRIPOS>BOND
  1   1   2  2   
  2   2   3  am  
  3   2   4  1   
  4   3   5  1   
  5   3   6  1   
  6   4   7  1   
  7   4  27  1   
  8   4  28  1   
  9   5   8  1   
 10   5  29  1   
 11   5  30  1   
 12   6  31  1   
 13   6  32  1   
 14   6  33  1   
 15   7   8  1   
 16   7   9  1   
 17   7  34  1   
 18   8  10  1   
 19   8  35  1   
 20   9  11  1   
 21   9  36  1   
 22   9  37  1   
 23  10  11  1   
 24  10  38  1   
 25  10  39  1   
 26  11  12  1   
 27  11  40  1   
 28  12  13  am  
 29  12  14  1   
 30  13  15  2   
 31  13  16  1   
 32  14  41  1   
 33  14  42  1   
 34  14  43  1   
 35  16  17  2   
 36  16  18  1   
 37  17  19  1   
 38  17  20  1   
 39  18  21  2   
 40  18  44  1   
 41  19  21  1   
 42  19  45  1   
 43  20  22  1   
 44  20  23  1   
 45  20  46  1   
 46  22  24  1   
 47  22  47  1   
 48  22  48  1   
 49  23  25  1   
 50  23  49  1   
 51  23  50  1   
 52  24  26  1   
 53  24  51  1   
 54  24  52  1   
 55  25  26  1   
 56  25  53  1   
 57  25  54  1   
 58  26  55  1   
 59  26  56  1   
@<TRIPOS>SUBSTRUCTURE
  1 ****  11 GROUP 4 **** **** 0

# MOE 2024.06 (io_trps.svl 2023.06)
