@<TRIPOS>MOLECULE
NONAME
45 48 1 0 0 
SMALL
USER_CHARGES


@<TRIPOS>ATOM
  1 CL      -0.6930    -1.8570     4.0290 Cl    1 <1>  -0.1240 
  2 C       -1.5850    -2.2220     2.5760 C.2   1 <1>   0.2640 
  3 O       -1.3520    -3.3560     1.9640 O.3   1 <1>  -0.2800 
  4 C       -2.5260    -1.4910     1.9470 C.2   1 <1>  -0.1500 
  5 C       -2.1450    -3.4130     0.8930 C.2   1 <1>   0.0550 
  6 C       -2.8920    -2.2680     0.8460 C.2   1 <1>  -0.1500 
  7 C       -2.1170    -4.5560     0.0050 C.2   1 <1>   0.7150 
  8 O       -1.0530    -5.0760    -0.2860 O.2   1 <1>  -0.5700 
  9 N       -3.2760    -5.0770    -0.5400 N.am  1 <1>  -0.6600 
 10 C       -3.2440    -6.0140    -1.6990 C.3   1 <1>   0.1400 
 11 C       -4.6090    -4.9780     0.1140 C.3   1 <1>   0.1400 
 12 C       -3.6600    -7.4100    -1.2340 C.3   1 <1>  -0.1600 
 13 C       -5.0330    -6.3660     0.5980 C.3   1 <1>  -0.1600 
 14 C       -5.0310    -7.4000    -0.5420 C.3   1 <1>   0.4240 
 15 O       -5.9400    -6.9620    -1.5240 O.3   1 <1>  -0.5600 
 16 C       -5.3810    -8.8110    -0.0190 C.ar  1 <1>  -0.1430 
 17 C       -7.2850    -7.2840    -1.3490 C.3   1 <1>   0.1200 
 18 C       -6.5250    -9.4750    -0.4500 C.ar  1 <1>  -0.1430 
 19 C       -4.5550    -9.4450     0.9020 C.ar  1 <1>  -0.1500 
 20 C       -7.4470    -8.7980    -1.4450 C.3   1 <1>  -0.0170 
 21 C       -6.8290   -10.7420     0.0220 C.ar  1 <1>  -0.1500 
 22 C       -4.8580   -10.7080     1.3760 C.ar  1 <1>  -0.1500 
 23 C       -5.9930   -11.3670     0.9410 C.ar  1 <1>   0.0820 
 24 O       -6.2180   -12.6030     1.4530 O.3   1 <1>  -0.3630 
 25 C       -7.3350   -13.3680     1.0590 C.3   1 <1>   0.0400 
 26 H       -2.9150    -0.5260     2.2170 H     1 <1>   0.1500 
 27 H       -3.6220    -1.9960     0.1040 H     1 <1>   0.1500 
 28 H       -2.2600    -6.0520    -2.1330 H     1 <1>   0.0800 
 29 H       -3.9250    -5.6610    -2.4560 H     1 <1>   0.0800 
 30 H       -5.3240    -4.6000    -0.5980 H     1 <1>   0.0800 
 31 H       -4.5810    -4.3080     0.9540 H     1 <1>   0.0800 
 32 H       -2.9050    -7.7750    -0.5640 H     1 <1>   0.0800 
 33 H       -3.6960    -8.0790    -2.0740 H     1 <1>   0.0800 
 34 H       -6.0060    -6.3190     1.0500 H     1 <1>   0.0800 
 35 H       -4.3470    -6.6770     1.3640 H     1 <1>   0.0800 
 36 H       -7.8460    -6.7960    -2.1270 H     1 <1>   0.0800 
 37 H       -7.6170    -6.9200    -0.3930 H     1 <1>   0.0800 
 38 H       -3.6630    -8.9620     1.2620 H     1 <1>   0.1500 
 39 H       -7.2050    -9.1210    -2.4410 H     1 <1>   0.0800 
 40 H       -8.4700    -9.0580    -1.2430 H     1 <1>   0.0800 
 41 H       -7.7160   -11.2290    -0.3330 H     1 <1>   0.1500 
 42 H       -4.2140   -11.1920     2.0870 H     1 <1>   0.1500 
 43 H       -7.2990   -14.3050     1.5840 H     1 <1>   0.0800 
 44 H       -7.2840   -13.5400    -0.0010 H     1 <1>   0.0800 
 45 H       -8.2320   -12.8360     1.3220 H     1 <1>   0.0800 
@<TRIPOS>BOND
  1   1   2  1   
  2   2   3  1   
  3   2   4  2   
  4   3   5  1   
  5   4   6  1   
  6   4  26  1   
  7   5   6  2   
  8   5   7  1   
  9   6  27  1   
 10   7   8  2   
 11   7   9  am  
 12   9  10  1   
 13   9  11  1   
 14  10  12  1   
 15  10  28  1   
 16  10  29  1   
 17  11  13  1   
 18  11  30  1   
 19  11  31  1   
 20  12  14  1   
 21  12  32  1   
 22  12  33  1   
 23  13  14  1   
 24  13  34  1   
 25  13  35  1   
 26  14  15  1   
 27  14  16  1   
 28  15  17  1   
 29  16  18  ar  
 30  16  19  ar  
 31  17  20  1   
 32  17  36  1   
 33  17  37  1   
 34  18  20  1   
 35  18  21  ar  
 36  19  22  ar  
 37  19  38  1   
 38  20  39  1   
 39  20  40  1   
 40  21  23  ar  
 41  21  41  1   
 42  22  23  ar  
 43  22  42  1   
 44  23  24  1   
 45  24  25  1   
 46  25  43  1   
 47  25  44  1   
 48  25  45  1   
@<TRIPOS>SUBSTRUCTURE
  1 ****  13 GROUP 4 **** **** 0

# MOE 2024.06 (io_trps.svl 2023.06)
