@<TRIPOS>MOLECULE
NONAME
58 61 1 0 0 
SMALL
USER_CHARGES


@<TRIPOS>ATOM
  1 O       -0.6280    -0.5050     0.1930 O.2   1 <1>  -0.5700 
  2 C        0.3710     0.1620     0.3360 C.2   1 <1>   0.5690 
  3 N        1.5770    -0.2110    -0.2030 N.am  1 <1>  -0.6600 
  4 C        0.2480     1.4460     1.1390 C.3   1 <1>  -0.0990 
  5 C        2.8610     0.4940     0.0670 C.3   1 <1>   0.1400 
  6 C        1.6870    -1.4430    -1.0270 C.3   1 <1>   0.1400 
  7 C        1.5870     1.9560     1.6860 C.3   1 <1>  -0.1600 
  8 C        2.6380     1.9220     0.5740 C.3   1 <1>  -0.1600 
  9 C        1.9640    -2.6470    -0.1290 C.3   1 <1>  -0.0990 
 10 C        1.8520    -3.9230    -0.9350 C.2   1 <1>   0.5690 
 11 O        2.8890    -4.4170    -1.3120 O.2   1 <1>  -0.5700 
 12 N        0.6310    -4.4790    -1.2290 N.am  1 <1>  -0.6600 
 13 C        0.5230    -5.7350    -2.0220 C.3   1 <1>   0.1400 
 14 C       -0.6980    -3.9210    -0.8380 C.3   1 <1>   0.1400 
 15 C       -0.2190    -6.7910    -1.2000 C.3   1 <1>  -0.1600 
 16 C       -1.4440    -4.9540     0.0080 C.3   1 <1>  -0.1600 
 17 C       -1.5960    -6.2940    -0.7340 C.3   1 <1>   0.4240 
 18 O       -2.3230    -6.0610    -1.9170 O.3   1 <1>  -0.5600 
 19 C       -2.2820    -7.3530     0.1580 C.ar  1 <1>  -0.1440 
 20 C       -3.7130    -6.0220    -1.8210 C.3   1 <1>   0.1200 
 21 C       -3.5230    -7.8840    -0.1790 C.ar  1 <1>  -0.1440 
 22 C       -1.6700    -7.7920     1.3270 C.ar  1 <1>  -0.1500 
 23 C       -4.2180    -7.4100    -1.4410 C.3   1 <1>  -0.0170 
 24 C       -4.1290    -8.8370     0.6250 C.ar  1 <1>  -0.1500 
 25 C       -2.2740    -8.7410     2.1320 C.ar  1 <1>  -0.1500 
 26 C       -3.5040    -9.2720     1.7890 C.ar  1 <1>   0.0820 
 27 O       -4.0270   -10.1990     2.6300 O.3   1 <1>  -0.3620 
 28 C       -5.2650   -10.8180     2.3600 C.3   1 <1>   0.0400 
 29 H       -0.4360     1.2830     1.9520 H     1 <1>   0.0800 
 30 H       -0.1810     2.1890     0.4920 H     1 <1>   0.0800 
 31 H        3.4510     0.5280    -0.8330 H     1 <1>   0.0800 
 32 H        3.4090    -0.0660     0.8060 H     1 <1>   0.0800 
 33 H        2.4720    -1.3370    -1.7560 H     1 <1>   0.0800 
 34 H        0.7650    -1.5910    -1.5640 H     1 <1>   0.0800 
 35 H        1.9060     1.3280     2.5010 H     1 <1>   0.0800 
 36 H        1.4710     2.9590     2.0590 H     1 <1>   0.0800 
 37 H        2.3220     2.5430    -0.2470 H     1 <1>   0.0800 
 38 H        3.5700     2.3150     0.9400 H     1 <1>   0.0800 
 39 H        1.2800    -2.6780     0.6960 H     1 <1>   0.0800 
 40 H        2.9600    -2.5750     0.2670 H     1 <1>   0.0800 
 41 H        1.4990    -6.1060    -2.2870 H     1 <1>   0.0800 
 42 H       -0.0130    -5.5320    -2.9330 H     1 <1>   0.0800 
 43 H       -1.2620    -3.7010    -1.7290 H     1 <1>   0.0800 
 44 H       -0.6030    -3.0080    -0.2810 H     1 <1>   0.0800 
 45 H        0.3930    -7.0430    -0.3550 H     1 <1>   0.0800 
 46 H       -0.3470    -7.6840    -1.7830 H     1 <1>   0.0800 
 47 H       -2.4070    -4.5730     0.2880 H     1 <1>   0.0800 
 48 H       -0.8910    -5.1060     0.9160 H     1 <1>   0.0800 
 49 H       -4.1010    -5.7290    -2.7800 H     1 <1>   0.0800 
 50 H       -3.9990    -5.2900    -1.0870 H     1 <1>   0.0800 
 51 H       -0.7140    -7.4000     1.6250 H     1 <1>   0.1500 
 52 H       -4.0150    -8.0960    -2.2440 H     1 <1>   0.0800 
 53 H       -5.2810    -7.3690    -1.2880 H     1 <1>   0.0800 
 54 H       -5.0830    -9.2310     0.3350 H     1 <1>   0.1500 
 55 H       -1.7940    -9.0770     3.0330 H     1 <1>   0.1500 
 56 H       -5.4680   -11.5160     3.1520 H     1 <1>   0.0800 
 57 H       -5.1970   -11.3390     1.4210 H     1 <1>   0.0800 
 58 H       -6.0320   -10.0650     2.3300 H     1 <1>   0.0800 
@<TRIPOS>BOND
  1   1   2  2   
  2   2   3  am  
  3   2   4  1   
  4   3   5  1   
  5   3   6  1   
  6   4   7  1   
  7   4  29  1   
  8   4  30  1   
  9   5   8  1   
 10   5  31  1   
 11   5  32  1   
 12   6   9  1   
 13   6  33  1   
 14   6  34  1   
 15   7   8  1   
 16   7  35  1   
 17   7  36  1   
 18   8  37  1   
 19   8  38  1   
 20   9  10  1   
 21   9  39  1   
 22   9  40  1   
 23  10  11  2   
 24  10  12  am  
 25  12  13  1   
 26  12  14  1   
 27  13  15  1   
 28  13  41  1   
 29  13  42  1   
 30  14  16  1   
 31  14  43  1   
 32  14  44  1   
 33  15  17  1   
 34  15  45  1   
 35  15  46  1   
 36  16  17  1   
 37  16  47  1   
 38  16  48  1   
 39  17  18  1   
 40  17  19  1   
 41  18  20  1   
 42  19  21  ar  
 43  19  22  ar  
 44  20  23  1   
 45  20  49  1   
 46  20  50  1   
 47  21  23  1   
 48  21  24  ar  
 49  22  25  ar  
 50  22  51  1   
 51  23  52  1   
 52  23  53  1   
 53  24  26  ar  
 54  24  54  1   
 55  25  26  ar  
 56  25  55  1   
 57  26  27  1   
 58  27  28  1   
 59  28  56  1   
 60  28  57  1   
 61  28  58  1   
@<TRIPOS>SUBSTRUCTURE
  1 ****  16 GROUP 4 **** **** 0

# MOE 2024.06 (io_trps.svl 2023.06)
