@<TRIPOS>MOLECULE
NONAME
45 47 1 0 0 
SMALL
USER_CHARGES


@<TRIPOS>ATOM
  1 F       -1.5160    -0.5570     0.0150 F     1 <1>  -0.3400 
  2 C       -2.4430     0.0980    -0.6670 C.3   1 <1>   1.1640 
  3 F       -1.8150     0.6200    -1.7150 F     1 <1>  -0.3400 
  4 F       -3.2670    -0.8130    -1.1740 F     1 <1>  -0.3400 
  5 C       -3.1760     1.1620     0.1680 C.ar  1 <1>  -0.1440 
  6 C       -4.0450     0.7710     1.1970 C.ar  1 <1>   0.0860 
  7 C       -2.9900     2.5180    -0.0890 C.ar  1 <1>  -0.1500 
  8 C       -4.2970    -0.6160     1.5290 C.2   1 <1>   0.5440 
  9 C       -4.7000     1.7600     1.9290 C.ar  1 <1>  -0.1500 
 10 C       -3.6530     3.4820     0.6500 C.ar  1 <1>  -0.1500 
 11 O       -3.4720    -1.2450     2.1600 O.2   1 <1>  -0.5700 
 12 N       -5.4500    -1.2370     1.1200 N.am  1 <1>  -0.6600 
 13 C       -4.5110     3.1010     1.6620 C.ar  1 <1>  -0.1500 
 14 C       -6.4350    -0.6650     0.1640 C.3   1 <1>   0.1400 
 15 C       -5.6640    -2.6960     1.2390 C.3   1 <1>   0.1400 
 16 C       -7.2760    -1.8510    -0.3320 C.3   1 <1>   0.2000 
 17 C       -6.3950    -3.0710    -0.0490 C.3   1 <1>  -0.0800 
 18 O       -8.4470    -1.9550     0.4280 O.3   1 <1>  -0.5600 
 19 C       -7.1470    -4.4110     0.0400 C.3   1 <1>   0.0200 
 20 C       -9.5160    -1.1800    -0.0170 C.3   1 <1>   0.0400 
 21 C       -6.2130    -5.6060     0.1340 C.2   1 <1>  -0.0400 
 22 O       -6.7250    -6.7960     0.3030 O.3   1 <1>  -0.0190 
 23 C       -4.8780    -5.7420     0.0750 C.2   1 <1>  -0.1500 
 24 N       -5.8080    -7.7180     0.3630 N.2   1 <1>  -0.4100 
 25 C       -4.6840    -7.1110     0.2300 C.2   1 <1>   0.1080 
 26 C       -3.3370    -7.7980     0.2420 C.3   1 <1>  -0.0590 
 27 H       -2.3240     2.8480    -0.8700 H     1 <1>   0.1500 
 28 H       -5.3640     1.4640     2.7230 H     1 <1>   0.1500 
 29 H       -3.4980     4.5270     0.4380 H     1 <1>   0.1500 
 30 H       -5.0270     3.8480     2.2420 H     1 <1>   0.1500 
 31 H       -7.0440     0.0790     0.6460 H     1 <1>   0.0800 
 32 H       -5.9090    -0.2240    -0.6640 H     1 <1>   0.0800 
 33 H       -4.7320    -3.2240     1.3450 H     1 <1>   0.0800 
 34 H       -6.2840    -2.8860     2.0990 H     1 <1>   0.0800 
 35 H       -7.5330    -1.7740    -1.3750 H     1 <1>   0.0800 
 36 H       -5.6640    -3.1350    -0.8360 H     1 <1>   0.0800 
 37 H       -7.7640    -4.5310    -0.8330 H     1 <1>   0.0800 
 38 H       -7.7940    -4.4100     0.9000 H     1 <1>   0.0800 
 39 H      -10.3420    -1.3370     0.6530 H     1 <1>   0.0800 
 40 H       -9.7930    -1.4930    -1.0090 H     1 <1>   0.0800 
 41 H       -9.2380    -0.1410    -0.0090 H     1 <1>   0.0800 
 42 H       -4.1050    -5.0080    -0.0590 H     1 <1>   0.1500 
 43 H       -2.7180    -7.3730     1.0100 H     1 <1>   0.0800 
 44 H       -2.8580    -7.6750    -0.7110 H     1 <1>   0.0800 
 45 H       -3.4630    -8.8480     0.4370 H     1 <1>   0.0800 
@<TRIPOS>BOND
  1   1   2  1   
  2   2   3  1   
  3   2   4  1   
  4   2   5  1   
  5   5   6  ar  
  6   5   7  ar  
  7   6   8  1   
  8   6   9  ar  
  9   7  10  ar  
 10   7  27  1   
 11   8  11  2   
 12   8  12  am  
 13   9  13  ar  
 14   9  28  1   
 15  10  13  ar  
 16  10  29  1   
 17  12  14  1   
 18  12  15  1   
 19  13  30  1   
 20  14  16  1   
 21  14  31  1   
 22  14  32  1   
 23  15  17  1   
 24  15  33  1   
 25  15  34  1   
 26  16  17  1   
 27  16  18  1   
 28  16  35  1   
 29  17  19  1   
 30  17  36  1   
 31  18  20  1   
 32  19  21  1   
 33  19  37  1   
 34  19  38  1   
 35  20  39  1   
 36  20  40  1   
 37  20  41  1   
 38  21  22  1   
 39  21  23  2   
 40  22  24  1   
 41  23  25  1   
 42  23  42  1   
 43  24  25  2   
 44  25  26  1   
 45  26  43  1   
 46  26  44  1   
 47  26  45  1   
@<TRIPOS>SUBSTRUCTURE
  1 ****  12 GROUP 4 **** **** 0

# MOE 2024.06 (io_trps.svl 2023.06)
