@<TRIPOS>MOLECULE
NONAME
51 53 1 0 0 
SMALL
USER_CHARGES


@<TRIPOS>ATOM
  1 S       -0.4600     0.1170     0.4500 S.3   1 <1>  -0.2860 
  2 C        1.1490     0.3580     1.2230 C.2   1 <1>  -0.0960 
  3 C       -0.5900    -1.7170     0.2590 C.3   1 <1>   0.0700 
  4 N        1.6300     1.5650     1.5040 N.pl3 1 <1>   0.3000 
  5 C        2.0820    -0.5150     1.6280 C.2   1 <1>   0.0770 
  6 C       -1.9840    -2.0490    -0.2710 C.3   1 <1>   0.1400 
  7 N        2.8400     1.4300     2.0680 N.2   1 <1>  -0.4180 
  8 N        3.1140     0.1680     2.1430 N.2   1 <1>  -0.2270 
  9 N       -2.0840    -3.4960    -0.5910 N.am  1 <1>  -0.7300 
 10 C       -2.2050    -4.4900     0.3400 C.2   1 <1>   0.5440 
 11 O       -2.1370    -4.1920     1.5150 O.2   1 <1>  -0.5700 
 12 C       -2.3890    -5.8750    -0.0590 C.ar  1 <1>   0.0860 
 13 C       -1.9010    -6.9140     0.7330 C.ar  1 <1>  -0.1500 
 14 C       -3.0590    -6.2310    -1.2310 C.ar  1 <1>  -0.1500 
 15 C       -2.0690    -8.2400     0.3790 C.ar  1 <1>  -0.1500 
 16 C       -3.2320    -7.5550    -1.5930 C.ar  1 <1>  -0.1500 
 17 C       -2.7440    -8.5720    -0.7860 C.ar  1 <1>  -0.1430 
 18 C       -2.9530   -10.0270    -1.1640 C.3   1 <1>   0.4860 
 19 N       -3.9540   -10.6240    -0.2380 N.4   1 <1>  -0.9590 
 20 C       -3.9600   -12.1080    -0.3560 C.3   1 <1>   0.3430 
 21 C       -5.2910    -9.9850    -0.4160 C.3   1 <1>   0.3430 
 22 C       -4.3620   -12.7320     0.9800 C.3   1 <1>  -0.1600 
 23 C       -6.2820   -10.3940     0.6750 C.3   1 <1>  -0.1600 
 24 C       -5.8760   -12.8880     1.2000 C.3   1 <1>  -0.1600 
 25 C       -6.7780   -11.8400     0.5340 C.3   1 <1>  -0.1600 
 26 H       -0.4300    -2.1530     1.2300 H     1 <1>   0.0800 
 27 H        0.1790    -2.0190    -0.4290 H     1 <1>   0.0800 
 28 H        1.1740     2.4650     1.3310 H     1 <1>   0.2700 
 29 H        2.0750    -1.5890     1.5820 H     1 <1>   0.1500 
 30 H       -2.1860    -1.4730    -1.1570 H     1 <1>   0.0800 
 31 H       -2.7180    -1.7980     0.4780 H     1 <1>   0.0800 
 32 H       -2.0120    -3.7380    -1.5800 H     1 <1>   0.3700 
 33 H       -1.3810    -6.6660     1.6440 H     1 <1>   0.1500 
 34 H       -3.4580    -5.4570    -1.8640 H     1 <1>   0.1500 
 35 H       -1.6630    -9.0010     1.0250 H     1 <1>   0.1500 
 36 H       -3.7530    -7.7790    -2.5100 H     1 <1>   0.1500 
 37 H       -2.0140   -10.5490    -1.0810 H     1 <1>   0.0800 
 38 H       -3.2960   -10.1020    -2.1830 H     1 <1>   0.0800 
 39 H       -3.6450   -10.3850     0.7120 H     1 <1>   0.4500 
 40 H       -2.9650   -12.4490    -0.5960 H     1 <1>   0.0800 
 41 H       -4.6250   -12.4320    -1.1410 H     1 <1>   0.0800 
 42 H       -5.6960   -10.2400    -1.3820 H     1 <1>   0.0800 
 43 H       -5.1790    -8.9130    -0.3770 H     1 <1>   0.0800 
 44 H       -3.9310   -12.1690     1.7890 H     1 <1>   0.0800 
 45 H       -3.9290   -13.7160     1.0310 H     1 <1>   0.0800 
 46 H       -7.1380    -9.7500     0.5720 H     1 <1>   0.0800 
 47 H       -5.8760   -10.2140     1.6550 H     1 <1>   0.0800 
 48 H       -6.0630   -12.8850     2.2610 H     1 <1>   0.0800 
 49 H       -6.1820   -13.8570     0.8400 H     1 <1>   0.0800 
 50 H       -6.9120   -12.0800    -0.5080 H     1 <1>   0.0800 
 51 H       -7.7510   -11.9140     0.9910 H     1 <1>   0.0800 
@<TRIPOS>BOND
  1   1   2  1   
  2   1   3  1   
  3   2   4  1   
  4   2   5  2   
  5   3   6  1   
  6   3  26  1   
  7   3  27  1   
  8   4   7  1   
  9   4  28  1   
 10   5   8  1   
 11   5  29  1   
 12   6   9  1   
 13   6  30  1   
 14   6  31  1   
 15   7   8  2   
 16   9  10  am  
 17   9  32  1   
 18  10  11  2   
 19  10  12  1   
 20  12  13  ar  
 21  12  14  ar  
 22  13  15  ar  
 23  13  33  1   
 24  14  16  ar  
 25  14  34  1   
 26  15  17  ar  
 27  15  35  1   
 28  16  17  ar  
 29  16  36  1   
 30  17  18  1   
 31  18  19  1   
 32  18  37  1   
 33  18  38  1   
 34  19  20  1   
 35  19  21  1   
 36  19  39  1   
 37  20  22  1   
 38  20  40  1   
 39  20  41  1   
 40  21  23  1   
 41  21  42  1   
 42  21  43  1   
 43  22  24  1   
 44  22  44  1   
 45  22  45  1   
 46  23  25  1   
 47  23  46  1   
 48  23  47  1   
 49  24  25  1   
 50  24  48  1   
 51  24  49  1   
 52  25  50  1   
 53  25  51  1   
@<TRIPOS>SUBSTRUCTURE
  1 ****  12 GROUP 4 **** **** 0

# MOE 2024.06 (io_trps.svl 2023.06)
