@<TRIPOS>MOLECULE
NONAME
40 42 1 0 0 
SMALL
USER_CHARGES


@<TRIPOS>ATOM
  1 F       -0.5680    -2.3090    -2.4390 F     1 <1>  -0.3400 
  2 C       -0.1470    -2.1150    -1.1920 C.3   1 <1>   1.1640 
  3 F        1.0650    -1.5730    -1.3070 F     1 <1>  -0.3400 
  4 F       -0.9170    -1.1550    -0.6860 F     1 <1>  -0.3400 
  5 C       -0.1590    -3.4130    -0.3370 C.ar  1 <1>   0.1660 
  6 N       -1.3140    -4.0740    -0.2060 N.ar  1 <1>  -0.6200 
  7 C        1.0190    -3.8510     0.2640 C.ar  1 <1>  -0.1500 
  8 C       -1.3110    -5.1880     0.5150 C.ar  1 <1>   0.4100 
  9 C        1.0240    -5.0020     1.0250 C.ar  1 <1>  -0.1500 
 10 N       -2.5060    -5.8780     0.6310 N.pl3 1 <1>  -0.8380 
 11 C       -0.1680    -5.6700     1.1450 C.ar  1 <1>  -0.1500 
 12 C       -3.7740    -5.2870     0.1060 C.3   1 <1>   0.2090 
 13 C       -2.5170    -7.3410     0.3390 C.3   1 <1>   0.2090 
 14 C       -4.7510    -6.4590     0.0580 C.3   1 <1>   0.2000 
 15 C       -3.8530    -7.6240    -0.3560 C.3   1 <1>  -0.0800 
 16 O       -5.2230    -6.6740     1.3450 O.3   1 <1>  -0.6800 
 17 C       -4.4110    -9.0330    -0.0780 C.3   1 <1>   0.0210 
 18 C       -3.4110   -10.1190    -0.4380 C.2   1 <1>   0.1080 
 19 N       -2.6400   -10.0670    -1.4810 N.2   1 <1>  -0.7070 
 20 C       -3.2100   -11.2790     0.3030 C.2   1 <1>  -0.1500 
 21 N       -1.9230   -11.2050    -1.4340 N.pl3 1 <1>   0.3000 
 22 C       -2.2490   -11.9560    -0.3600 C.2   1 <1>  -0.3320 
 23 C       -1.6140   -13.2940    -0.0310 C.3   1 <1>  -0.0600 
 24 H        1.9400    -3.3070     0.1500 H     1 <1>   0.1500 
 25 H        1.9210    -5.3580     1.5020 H     1 <1>   0.1500 
 26 H       -0.2340    -6.5680     1.7290 H     1 <1>   0.1500 
 27 H       -4.1280    -4.4900     0.7360 H     1 <1>   0.0800 
 28 H       -3.6160    -4.9130    -0.8910 H     1 <1>   0.0800 
 29 H       -1.6930    -7.6210    -0.2970 H     1 <1>   0.0800 
 30 H       -2.4510    -7.8840     1.2660 H     1 <1>   0.0800 
 31 H       -5.5860    -6.2980    -0.6020 H     1 <1>   0.0800 
 32 H       -3.6780    -7.5400    -1.4140 H     1 <1>   0.0800 
 33 H       -4.4640    -6.5470     1.9530 H     1 <1>   0.4000 
 34 H       -5.3040    -9.1820    -0.6570 H     1 <1>   0.0800 
 35 H       -4.6680    -9.1360     0.9600 H     1 <1>   0.0800 
 36 H       -3.7260   -11.5510     1.2060 H     1 <1>   0.1500 
 37 H       -1.2230   -11.4400    -2.1480 H     1 <1>   0.2700 
 38 H       -2.0430   -13.6960     0.8700 H     1 <1>   0.0800 
 39 H       -0.5550   -13.1790     0.1160 H     1 <1>   0.0800 
 40 H       -1.7840   -13.9930    -0.8310 H     1 <1>   0.0800 
@<TRIPOS>BOND
  1   1   2  1   
  2   2   3  1   
  3   2   4  1   
  4   2   5  1   
  5   5   6  ar  
  6   5   7  ar  
  7   6   8  ar  
  8   7   9  ar  
  9   7  24  1   
 10   8  10  1   
 11   8  11  ar  
 12   9  11  ar  
 13   9  25  1   
 14  10  12  1   
 15  10  13  1   
 16  11  26  1   
 17  12  14  1   
 18  12  27  1   
 19  12  28  1   
 20  13  15  1   
 21  13  29  1   
 22  13  30  1   
 23  14  15  1   
 24  14  16  1   
 25  14  31  1   
 26  15  17  1   
 27  15  32  1   
 28  16  33  1   
 29  17  18  1   
 30  17  34  1   
 31  17  35  1   
 32  18  19  2   
 33  18  20  1   
 34  19  21  1   
 35  20  22  2   
 36  20  36  1   
 37  21  22  1   
 38  21  37  1   
 39  22  23  1   
 40  23  38  1   
 41  23  39  1   
 42  23  40  1   
@<TRIPOS>SUBSTRUCTURE
  1 ****  13 GROUP 4 **** **** 0

# MOE 2024.06 (io_trps.svl 2023.06)
