@<TRIPOS>MOLECULE
NONAME
46 48 1 0 0 
SMALL
USER_CHARGES


@<TRIPOS>ATOM
  1 F        0.5110     1.2460    -0.1820 F     1 <1>  -0.1900 
  2 C        0.8430     2.5030    -0.0870 C.ar  1 <1>   0.1900 
  3 C        2.0490     2.8350     0.4960 C.ar  1 <1>  -0.1500 
  4 C       -0.0220     3.4630    -0.5750 C.ar  1 <1>  -0.1500 
  5 C        2.3910     4.1730     0.5930 C.ar  1 <1>  -0.1500 
  6 C        0.3360     4.7960    -0.4690 C.ar  1 <1>  -0.1500 
  7 C        1.5450     5.1840     0.1220 C.ar  1 <1>   0.0860 
  8 C        1.9250     6.5810     0.2480 C.2   1 <1>   0.5440 
  9 O        3.0950     6.9070     0.2720 O.2   1 <1>  -0.5700 
 10 N        0.9770     7.5630     0.3510 N.am  1 <1>  -0.7300 
 11 C        1.2770     9.0000     0.5500 C.3   1 <1>   0.1400 
 12 C        1.5600     9.6560    -0.7980 C.3   1 <1>  -0.0990 
 13 C        1.8890    11.1190    -0.6090 C.2   1 <1>   0.5690 
 14 O        1.0770    11.9400    -0.9630 O.2   1 <1>  -0.5700 
 15 N        3.0700    11.4800    -0.0390 N.am  1 <1>  -0.5100 
 16 C        3.7550    12.8070    -0.0770 C.3   1 <1>   0.2250 
 17 C        4.3910    10.7800     0.0720 C.3   1 <1>   0.2250 
 18 C        5.0270    12.0590    -0.5250 C.3   1 <1>   0.0850 
 19 N        6.2300    12.5500     0.1780 N.pl3 1 <1>   0.4850 
 20 N        6.8840    11.8300     1.1140 N.2   1 <1>  -0.7070 
 21 C        6.8460    13.7410    -0.0310 C.2   1 <1>  -0.3320 
 22 C        7.8800    12.5710     1.4780 C.2   1 <1>   0.1080 
 23 C        7.9110    13.7810     0.7980 C.2   1 <1>  -0.1500 
 24 C        6.3960    14.8000    -1.0240 C.3   1 <1>  -0.0600 
 25 C        8.8740    12.1310     2.5270 C.3   1 <1>  -0.0590 
 26 H        2.7030     2.0630     0.8610 H     1 <1>   0.1500 
 27 H       -0.9510     3.1650    -1.0280 H     1 <1>   0.1500 
 28 H        3.3300     4.4500     1.0430 H     1 <1>   0.1500 
 29 H       -0.3290     5.5450    -0.8600 H     1 <1>   0.1500 
 30 H       -0.0080     7.3030     0.4110 H     1 <1>   0.3700 
 31 H        2.1370     9.0980     1.1930 H     1 <1>   0.0800 
 32 H        0.4410     9.4820     1.0290 H     1 <1>   0.0800 
 33 H        0.6940     9.5730    -1.4290 H     1 <1>   0.0800 
 34 H        2.3840     9.1650    -1.2810 H     1 <1>   0.0800 
 35 H        3.8130    13.2370     0.9080 H     1 <1>   0.0000 
 36 H        3.3410    13.4540    -0.8290 H     1 <1>   0.0000 
 37 H        4.4520     9.9230    -0.5750 H     1 <1>   0.0000 
 38 H        4.6210    10.5800     1.1030 H     1 <1>   0.0000 
 39 H        5.1540    12.0230    -1.5930 H     1 <1>   0.0000 
 40 H        8.6420    14.5610     0.9240 H     1 <1>   0.1500 
 41 H        6.3560    14.3890    -2.0170 H     1 <1>   0.0800 
 42 H        7.0880    15.6240    -1.0260 H     1 <1>   0.0800 
 43 H        5.4240    15.1760    -0.7590 H     1 <1>   0.0800 
 44 H        8.3580    11.9360     3.4490 H     1 <1>   0.0800 
 45 H        9.6130    12.8930     2.6900 H     1 <1>   0.0800 
 46 H        9.3600    11.2300     2.2030 H     1 <1>   0.0800 
@<TRIPOS>BOND
  1   1   2  1   
  2   2   3  ar  
  3   2   4  ar  
  4   3   5  ar  
  5   3  26  1   
  6   4   6  ar  
  7   4  27  1   
  8   5   7  ar  
  9   5  28  1   
 10   6   7  ar  
 11   6  29  1   
 12   7   8  1   
 13   8   9  2   
 14   8  10  am  
 15  10  11  1   
 16  10  30  1   
 17  11  12  1   
 18  11  31  1   
 19  11  32  1   
 20  12  13  1   
 21  12  33  1   
 22  12  34  1   
 23  13  14  2   
 24  13  15  am  
 25  15  16  1   
 26  15  17  1   
 27  16  18  1   
 28  16  35  1   
 29  16  36  1   
 30  17  18  1   
 31  17  37  1   
 32  17  38  1   
 33  18  19  1   
 34  18  39  1   
 35  19  20  1   
 36  19  21  1   
 37  20  22  2   
 38  21  23  2   
 39  21  24  1   
 40  22  23  1   
 41  22  25  1   
 42  23  40  1   
 43  24  41  1   
 44  24  42  1   
 45  24  43  1   
 46  25  44  1   
 47  25  45  1   
 48  25  46  1   
@<TRIPOS>SUBSTRUCTURE
  1 ****  17 GROUP 4 **** **** 0

# MOE 2024.06 (io_trps.svl 2023.06)
