@<TRIPOS>MOLECULE
NONAME
51 53 1 0 0 
SMALL
USER_CHARGES


@<TRIPOS>ATOM
  1 S        0.7550     5.1380     0.9660 S.3   1 <1>  -0.4600 
  2 C        2.2190     5.0020     2.0130 C.3   1 <1>   0.0700 
  3 C        1.4990     5.8830    -0.5020 C.3   1 <1>   0.0700 
  4 C        3.2450     4.1280     1.2840 C.3   1 <1>   0.3430 
  5 C        2.6370     4.9780    -1.0000 C.3   1 <1>   0.3430 
  6 N        3.7450     4.7380    -0.0010 N.4   1 <1>  -0.9590 
  7 C        4.9400     4.0690    -0.6130 C.3   1 <1>   0.4230 
  8 C        5.9760     3.6430     0.4630 C.3   1 <1>  -0.1600 
  9 C        5.4840     4.9940    -1.7250 C.3   1 <1>  -0.1600 
 10 C        7.4420     3.6510     0.0260 C.3   1 <1>   0.3430 
 11 C        6.9740     4.8800    -2.0010 C.3   1 <1>   0.3430 
 12 N        7.6840     4.8940    -0.7140 N.4   1 <1>  -0.9590 
 13 C        9.1000     5.3590    -0.8180 C.3   1 <1>   0.4860 
 14 C        8.9490     6.7990    -0.4210 C.ar  1 <1>  -0.1430 
 15 C        9.0680     7.1250     0.9220 C.ar  1 <1>  -0.1500 
 16 C        8.4340     7.7100    -1.3340 C.ar  1 <1>  -0.1500 
 17 C        8.4340     8.2570     1.3910 C.ar  1 <1>  -0.1500 
 18 C        7.7850     8.8320    -0.8610 C.ar  1 <1>  -0.1500 
 19 C        7.6770     9.0060     0.5060 C.ar  1 <1>   0.0830 
 20 O        6.6500     9.7340     0.9660 O.3   1 <1>  -0.3630 
 21 C        5.6140     8.9440     1.5850 C.3   1 <1>   0.0140 
 22 C        5.2510     7.6050     0.8970 C.2   1 <1>   0.9060 
 23 O        4.1290     7.4290     0.4090 O.co2 1 <1>  -0.9000 
 24 O        6.0060     6.6170     0.8680 O.co2 1 <1>  -0.9000 
 25 H        1.9070     4.5540     2.9390 H     1 <1>   0.0800 
 26 H        2.5970     5.9940     2.1910 H     1 <1>   0.0800 
 27 H        1.8520     6.8630    -0.2330 H     1 <1>   0.0800 
 28 H        0.7220     5.9740    -1.2390 H     1 <1>   0.0800 
 29 H        2.8020     3.1680     1.0800 H     1 <1>   0.0800 
 30 H        4.0670     3.9790     1.9600 H     1 <1>   0.0800 
 31 H        3.0460     5.4450    -1.8790 H     1 <1>   0.0800 
 32 H        2.2120     4.0330    -1.2950 H     1 <1>   0.0800 
 33 H        4.0760     5.7130     0.2590 H     1 <1>   0.4500 
 34 H        4.6110     3.1620    -1.0930 H     1 <1>   0.0800 
 35 H        5.7360     2.6530     0.8040 H     1 <1>   0.0800 
 36 H        5.9230     4.2870     1.3190 H     1 <1>   0.0800 
 37 H        5.2970     6.0230    -1.4780 H     1 <1>   0.0800 
 38 H        4.9620     4.7920    -2.6420 H     1 <1>   0.0800 
 39 H        7.6590     2.8000    -0.5990 H     1 <1>   0.0800 
 40 H        8.0730     3.6110     0.9000 H     1 <1>   0.0800 
 41 H        7.2820     5.7150    -2.6080 H     1 <1>   0.0800 
 42 H        7.1930     3.9680    -2.5340 H     1 <1>   0.0800 
 43 H        7.2240     5.6610    -0.1390 H     1 <1>   0.4500 
 44 H        9.4860     5.2580    -1.8190 H     1 <1>   0.0800 
 45 H        9.7340     4.8430    -0.1160 H     1 <1>   0.0800 
 46 H        9.5610     6.4740     1.6230 H     1 <1>   0.1500 
 47 H        8.4470     7.5230    -2.3930 H     1 <1>   0.1500 
 48 H        8.4360     8.5020     2.4380 H     1 <1>   0.1500 
 49 H        7.2890     9.5180    -1.5250 H     1 <1>   0.1500 
 50 H        4.7320     9.5540     1.6220 H     1 <1>   0.0800 
 51 H        5.9240     8.7330     2.5890 H     1 <1>   0.0800 
@<TRIPOS>BOND
  1   1   2  1   
  2   1   3  1   
  3   2   4  1   
  4   2  25  1   
  5   2  26  1   
  6   3   5  1   
  7   3  27  1   
  8   3  28  1   
  9   4   6  1   
 10   4  29  1   
 11   4  30  1   
 12   5   6  1   
 13   5  31  1   
 14   5  32  1   
 15   6   7  1   
 16   6  33  1   
 17   7   8  1   
 18   7   9  1   
 19   7  34  1   
 20   8  10  1   
 21   8  35  1   
 22   8  36  1   
 23   9  11  1   
 24   9  37  1   
 25   9  38  1   
 26  10  12  1   
 27  10  39  1   
 28  10  40  1   
 29  11  12  1   
 30  11  41  1   
 31  11  42  1   
 32  12  13  1   
 33  12  43  1   
 34  13  14  1   
 35  13  44  1   
 36  13  45  1   
 37  14  15  ar  
 38  14  16  ar  
 39  15  17  ar  
 40  15  46  1   
 41  16  18  ar  
 42  16  47  1   
 43  17  19  ar  
 44  17  48  1   
 45  18  19  ar  
 46  18  49  1   
 47  19  20  1   
 48  20  21  1   
 49  21  22  1   
 50  21  50  1   
 51  21  51  1   
 52  22  23  ar  
 53  22  24  ar  
@<TRIPOS>SUBSTRUCTURE
  1 ****  24 GROUP 4 **** **** 0

# MOE 2024.06 (io_trps.svl 2023.06)
