@<TRIPOS>MOLECULE
NONAME
48 50 1 0 0 
SMALL
USER_CHARGES


@<TRIPOS>ATOM
  1 CL      -0.8140     0.1730    -0.2480 Cl    1 <1>  -0.1770 
  2 C       -0.7740     1.9100    -0.0780 C.ar  1 <1>   0.1770 
  3 C       -1.9580     2.6160    -0.0370 C.ar  1 <1>  -0.1500 
  4 C        0.4460     2.5490     0.0080 C.ar  1 <1>  -0.1500 
  5 C       -1.9400     4.0010     0.0960 C.ar  1 <1>   0.1170 
  6 C        0.4750     3.9260     0.1380 C.ar  1 <1>  -0.1500 
  7 N       -3.1270     4.7480     0.1210 N.am  1 <1>  -0.5470 
  8 C       -0.7050     4.6540     0.1830 C.ar  1 <1>  -0.1430 
  9 C       -4.3900     4.4320     0.5330 C.2   1 <1>   0.6900 
 10 C       -0.6260     6.1690     0.3340 C.3   1 <1>  -0.0960 
 11 O       -4.6230     3.3700     1.0800 O.2   1 <1>  -0.5700 
 12 N       -5.3860     5.3560     0.3440 N.am  1 <1>  -0.6600 
 13 C       -6.7370     5.1530     0.9450 C.3   1 <1>   0.1400 
 14 C       -5.3050     6.4510    -0.6720 C.3   1 <1>   0.1400 
 15 C       -7.7700     4.7760    -0.1400 C.3   1 <1>   0.0000 
 16 C       -6.6910     6.8520    -1.2030 C.3   1 <1>  -0.1600 
 17 C       -9.1910     4.9000     0.4390 C.3   1 <1>   0.2000 
 18 C       -7.5710     5.6160    -1.4420 C.3   1 <1>  -0.1600 
 19 C       -7.7230     3.2780    -0.4820 C.3   1 <1>  -0.1600 
 20 O       -9.6420     6.2220     0.4180 O.3   1 <1>  -0.5600 
 21 C      -10.0680     3.9820    -0.4190 C.3   1 <1>  -0.1600 
 22 C       -9.1140     2.9460    -1.0330 C.3   1 <1>  -0.1600 
 23 C      -10.7850     6.4660     1.1740 C.3   1 <1>   0.0400 
 24 H       -2.8880     2.0850    -0.1110 H     1 <1>   0.1500 
 25 H        1.3550     1.9750    -0.0270 H     1 <1>   0.1500 
 26 H        1.4270     4.4240     0.2060 H     1 <1>   0.1500 
 27 H       -3.0200     5.7360    -0.0690 H     1 <1>   0.3700 
 28 H        0.3910     6.4900     0.4700 H     1 <1>   0.0800 
 29 H       -1.1920     6.4830     1.1930 H     1 <1>   0.0800 
 30 H       -1.0170     6.6490    -0.5440 H     1 <1>   0.0800 
 31 H       -6.7040     4.3980     1.7120 H     1 <1>   0.0800 
 32 H       -7.0370     6.0720     1.4180 H     1 <1>   0.0800 
 33 H       -4.8250     7.3090    -0.2350 H     1 <1>   0.0800 
 34 H       -4.7110     6.1090    -1.5020 H     1 <1>   0.0800 
 35 H       -7.1750     7.5050    -0.4970 H     1 <1>   0.0800 
 36 H       -6.5760     7.4020    -2.1200 H     1 <1>   0.0800 
 37 H       -9.1880     4.5490     1.4580 H     1 <1>   0.0800 
 38 H       -7.0890     5.0190    -2.1950 H     1 <1>   0.0800 
 39 H       -8.5190     5.9230    -1.8490 H     1 <1>   0.0800 
 40 H       -6.9350     3.0300    -1.1720 H     1 <1>   0.0800 
 41 H       -7.5610     2.7070     0.4170 H     1 <1>   0.0800 
 42 H      -10.8150     3.5020     0.1860 H     1 <1>   0.0800 
 43 H      -10.5420     4.5450    -1.2050 H     1 <1>   0.0800 
 44 H       -9.3990     1.9400    -0.7780 H     1 <1>   0.0800 
 45 H       -9.1140     3.0480    -2.1050 H     1 <1>   0.0800 
 46 H      -11.0170     7.5140     1.0980 H     1 <1>   0.0800 
 47 H      -10.5930     6.2120     2.2020 H     1 <1>   0.0800 
 48 H      -11.6040     5.8870     0.7860 H     1 <1>   0.0800 
@<TRIPOS>BOND
  1   1   2  1   
  2   2   3  ar  
  3   2   4  ar  
  4   3   5  ar  
  5   3  24  1   
  6   4   6  ar  
  7   4  25  1   
  8   5   7  1   
  9   5   8  ar  
 10   6   8  ar  
 11   6  26  1   
 12   7   9  am  
 13   7  27  1   
 14   8  10  1   
 15   9  11  2   
 16   9  12  am  
 17  10  28  1   
 18  10  29  1   
 19  10  30  1   
 20  12  13  1   
 21  12  14  1   
 22  13  15  1   
 23  13  31  1   
 24  13  32  1   
 25  14  16  1   
 26  14  33  1   
 27  14  34  1   
 28  15  17  1   
 29  15  18  1   
 30  15  19  1   
 31  16  18  1   
 32  16  35  1   
 33  16  36  1   
 34  17  20  1   
 35  17  21  1   
 36  17  37  1   
 37  18  38  1   
 38  18  39  1   
 39  19  22  1   
 40  19  40  1   
 41  19  41  1   
 42  20  23  1   
 43  21  22  1   
 44  21  42  1   
 45  21  43  1   
 46  22  44  1   
 47  22  45  1   
 48  23  46  1   
 49  23  47  1   
 50  23  48  1   
@<TRIPOS>SUBSTRUCTURE
  1 ****   9 GROUP 4 **** **** 0

# MOE 2024.06 (io_trps.svl 2023.06)
