@<TRIPOS>MOLECULE
NONAME
60 63 1 0 0 
SMALL
USER_CHARGES


@<TRIPOS>ATOM
  1 O       -3.9940     0.9430    -2.3810 O.2   1 <1>  -0.5700 
  2 C       -3.7590     0.8380    -1.1920 C.2   1 <1>   0.7800 
  3 O       -3.4060     1.9150    -0.4910 O.3   1 <1>  -0.4300 
  4 N       -3.8600    -0.3570    -0.5230 N.am  1 <1>  -0.6600 
  5 C       -3.2780     3.1740    -1.1120 C.3   1 <1>   0.1200 
  6 C       -3.6490    -0.4900     0.9380 C.3   1 <1>   0.1400 
  7 C       -4.2440    -1.6050    -1.2260 C.3   1 <1>   0.1400 
  8 C       -2.8730     4.1880    -0.0480 C.3   1 <1>  -0.2400 
  9 C       -4.9520    -0.9840     1.5700 C.3   1 <1>  -0.1600 
 10 C       -5.5550    -2.1140    -0.6280 C.3   1 <1>  -0.1600 
 11 C       -5.4280    -2.2780     0.8980 C.3   1 <1>   0.4230 
 12 N       -6.6970    -2.7330     1.5430 N.4   1 <1>  -0.9590 
 13 C       -7.8740    -1.8260     1.3400 C.3   1 <1>   0.3430 
 14 C       -7.1320    -4.0910     1.1140 C.3   1 <1>   0.3430 
 15 C       -9.1100    -2.7180     1.2340 C.3   1 <1>  -0.0800 
 16 C       -8.6120    -4.1560     1.4660 C.3   1 <1>  -0.0800 
 17 C       -9.8110    -2.5110    -0.1250 C.3   1 <1>   0.4240 
 18 C       -9.3700    -5.2310     0.6570 C.3   1 <1>  -0.1600 
 19 O       -8.8890    -2.8220    -1.1130 O.3   1 <1>  -0.6800 
 20 C      -10.2290    -1.0370    -0.2900 C.ar  1 <1>  -0.1440 
 21 C      -10.9920    -3.4960    -0.3000 C.3   1 <1>  -0.1600 
 22 C      -10.8370    -4.8350     0.4570 C.3   1 <1>  -0.1600 
 23 C       -9.6360    -0.1810    -1.2170 C.ar  1 <1>  -0.1500 
 24 C      -11.2200    -0.5130     0.5370 C.ar  1 <1>  -0.1500 
 25 C      -10.0230     1.1440    -1.3150 C.ar  1 <1>  -0.1500 
 26 C      -11.6080     0.8110     0.4400 C.ar  1 <1>  -0.1500 
 27 C      -11.0100     1.6420    -0.4870 C.ar  1 <1>  -0.1500 
 28 H       -2.5290     3.0990    -1.8820 H     1 <1>   0.0800 
 29 H       -4.2260     3.4350    -1.5540 H     1 <1>   0.0800 
 30 H       -2.8510    -1.1910     1.1170 H     1 <1>   0.0800 
 31 H       -3.3650     0.4520     1.3780 H     1 <1>   0.0800 
 32 H       -4.3700    -1.4270    -2.2820 H     1 <1>   0.0800 
 33 H       -3.4610    -2.3340    -1.1050 H     1 <1>   0.0800 
 34 H       -1.9310     3.9090     0.3900 H     1 <1>   0.0800 
 35 H       -3.6260     4.2440     0.7170 H     1 <1>   0.0800 
 36 H       -2.7670     5.1600    -0.4960 H     1 <1>   0.0800 
 37 H       -5.6840    -0.2030     1.4620 H     1 <1>   0.0800 
 38 H       -4.7810    -1.1520     2.6170 H     1 <1>   0.0800 
 39 H       -5.7910    -3.0510    -1.0950 H     1 <1>   0.0800 
 40 H       -6.3200    -1.4060    -0.8860 H     1 <1>   0.0800 
 41 H       -4.6720    -3.0260     1.0760 H     1 <1>   0.0800 
 42 H       -6.5320    -2.7800     2.5540 H     1 <1>   0.4500 
 43 H       -7.9700    -1.1370     2.1630 H     1 <1>   0.0800 
 44 H       -7.7670    -1.2560     0.4330 H     1 <1>   0.0800 
 45 H       -7.0310    -4.1900     0.0460 H     1 <1>   0.0800 
 46 H       -6.5690    -4.8700     1.6020 H     1 <1>   0.0800 
 47 H       -9.8030    -2.4540     2.0120 H     1 <1>   0.0800 
 48 H       -8.7040    -4.3850     2.5140 H     1 <1>   0.0800 
 49 H       -8.9200    -5.3620    -0.3130 H     1 <1>   0.0800 
 50 H       -9.3140    -6.1780     1.1670 H     1 <1>   0.0800 
 51 H       -9.3310    -2.7030    -1.9770 H     1 <1>   0.4000 
 52 H      -11.9020    -3.0440     0.0470 H     1 <1>   0.0800 
 53 H      -11.1390    -3.6900    -1.3480 H     1 <1>   0.0800 
 54 H      -11.3050    -4.7510     1.4240 H     1 <1>   0.0800 
 55 H      -11.3560    -5.6120    -0.0800 H     1 <1>   0.0800 
 56 H       -8.8590    -0.5160    -1.8820 H     1 <1>   0.1500 
 57 H      -11.7080    -1.1280     1.2720 H     1 <1>   0.1500 
 58 H       -9.5550     1.7900    -2.0390 H     1 <1>   0.1500 
 59 H      -12.3790     1.1980     1.0850 H     1 <1>   0.1500 
 60 H      -11.3120     2.6730    -0.5650 H     1 <1>   0.1500 
@<TRIPOS>BOND
  1   1   2  2   
  2   2   3  1   
  3   2   4  am  
  4   3   5  1   
  5   4   6  1   
  6   4   7  1   
  7   5   8  1   
  8   5  28  1   
  9   5  29  1   
 10   6   9  1   
 11   6  30  1   
 12   6  31  1   
 13   7  10  1   
 14   7  32  1   
 15   7  33  1   
 16   8  34  1   
 17   8  35  1   
 18   8  36  1   
 19   9  11  1   
 20   9  37  1   
 21   9  38  1   
 22  10  11  1   
 23  10  39  1   
 24  10  40  1   
 25  11  12  1   
 26  11  41  1   
 27  12  13  1   
 28  12  14  1   
 29  12  42  1   
 30  13  15  1   
 31  13  43  1   
 32  13  44  1   
 33  14  16  1   
 34  14  45  1   
 35  14  46  1   
 36  15  16  1   
 37  15  17  1   
 38  15  47  1   
 39  16  18  1   
 40  16  48  1   
 41  17  19  1   
 42  17  20  1   
 43  17  21  1   
 44  18  22  1   
 45  18  49  1   
 46  18  50  1   
 47  19  51  1   
 48  20  23  ar  
 49  20  24  ar  
 50  21  22  1   
 51  21  52  1   
 52  21  53  1   
 53  22  54  1   
 54  22  55  1   
 55  23  25  ar  
 56  23  56  1   
 57  24  26  ar  
 58  24  57  1   
 59  25  27  ar  
 60  25  58  1   
 61  26  27  ar  
 62  26  59  1   
 63  27  60  1   
@<TRIPOS>SUBSTRUCTURE
  1 ****  13 GROUP 4 **** **** 0

# MOE 2024.06 (io_trps.svl 2023.06)
