@<TRIPOS>MOLECULE
NONAME
61 65 1 0 0 
SMALL
USER_CHARGES


@<TRIPOS>ATOM
  1 O       -0.7150     5.7910     2.2090 O.2   1 <1>  -0.5700 
  2 C       -1.2130     5.1640     1.3030 C.2   1 <1>   0.5690 
  3 N       -2.4040     4.4850     1.4740 N.am  1 <1>  -0.6600 
  4 C       -0.4550     5.2080    -0.0180 C.3   1 <1>   0.1570 
  5 C       -3.0700     3.6960     0.3920 C.3   1 <1>   0.2200 
  6 C       -3.0660     4.5000     2.8190 C.3   1 <1>   0.0600 
  7 N       -0.0450     3.8690    -0.4980 N.pl3 1 <1>   0.0480 
  8 C       -4.5800     3.8980     0.2670 C.3   1 <1>  -0.1600 
  9 C       -2.9160     2.1890     0.5830 C.3   1 <1>  -0.1600 
 10 C       -0.3550     3.3280    -1.7110 C.ar  1 <1>  -0.1520 
 11 C        0.6460     2.8980     0.1650 C.2   1 <1>   0.1010 
 12 C       -5.0390     2.6810    -0.5520 C.3   1 <1>  -0.0800 
 13 C       -3.9790     1.5930    -0.3450 C.3   1 <1>  -0.0800 
 14 C        0.1660     2.0480    -1.6880 C.ar  1 <1>   0.2270 
 15 C       -1.0390     3.8030    -2.8360 C.ar  1 <1>  -0.1500 
 16 N        0.7830     1.8050    -0.5030 N.2   1 <1>  -0.5650 
 17 C        1.1890     3.0950     1.5710 C.3   1 <1>  -0.0150 
 18 C       -6.3720     2.0500    -0.1230 C.3   1 <1>  -0.1600 
 19 C       -4.7280     0.3750     0.2140 C.3   1 <1>  -0.1600 
 20 C        0.0100     1.2080    -2.7880 C.ar  1 <1>  -0.1500 
 21 C       -1.1900     2.9660    -3.9190 C.ar  1 <1>  -0.1500 
 22 C        2.3140     4.0550     1.8100 C.3   1 <1>  -0.2000 
 23 C        2.5460     2.5820     1.9430 C.3   1 <1>  -0.2000 
 24 C       -6.1720     0.5370    -0.2690 C.3   1 <1>   0.4230 
 25 C       -0.6660     1.6670    -3.8970 C.ar  1 <1>  -0.1500 
 26 N       -6.2980     0.1180    -1.7040 N.4   1 <1>  -0.9590 
 27 C       -7.6590     0.3870    -2.2700 C.3   1 <1>   0.2630 
 28 C       -5.9750    -1.3300    -1.9140 C.3   1 <1>   0.2630 
 29 H        0.4310     5.8010     0.1090 H     1 <1>   0.0800 
 30 H       -1.0710     5.6830    -0.7540 H     1 <1>   0.0800 
 31 H       -2.6530     3.9570    -0.5620 H     1 <1>   0.0800 
 32 H       -3.5000     3.5430     3.0440 H     1 <1>   0.0800 
 33 H       -3.8360     5.2510     2.8330 H     1 <1>   0.0800 
 34 H       -2.3540     4.7290     3.5930 H     1 <1>   0.0800 
 35 H       -5.0470     3.8870     1.2340 H     1 <1>   0.0800 
 36 H       -4.8120     4.8220    -0.2320 H     1 <1>   0.0800 
 37 H       -1.9340     1.8460     0.3160 H     1 <1>   0.0800 
 38 H       -3.1100     1.9250     1.6060 H     1 <1>   0.0800 
 39 H       -5.0670     2.9430    -1.5980 H     1 <1>   0.0800 
 40 H       -3.5270     1.3540    -1.2950 H     1 <1>   0.0800 
 41 H       -1.4330     4.8030    -2.8590 H     1 <1>   0.1500 
 42 H        0.4220     3.0180     2.3220 H     1 <1>   0.1000 
 43 H       -7.2090     2.4520    -0.6620 H     1 <1>   0.0800 
 44 H       -6.5420     2.2480     0.9210 H     1 <1>   0.0800 
 45 H       -4.7440     0.4260     1.2890 H     1 <1>   0.0800 
 46 H       -4.2570    -0.5520    -0.0520 H     1 <1>   0.0800 
 47 H        0.4300     0.2200    -2.7420 H     1 <1>   0.1500 
 48 H       -1.7050     3.3060    -4.8010 H     1 <1>   0.1500 
 49 H        2.7560     4.5640     0.9720 H     1 <1>   0.1000 
 50 H        2.2740     4.6680     2.6940 H     1 <1>   0.1000 
 51 H        2.6790     2.1570     2.9220 H     1 <1>   0.1000 
 52 H        3.1110     2.0660     1.1860 H     1 <1>   0.1000 
 53 H       -6.8620    -0.0170     0.3480 H     1 <1>   0.0800 
 54 H       -0.7890     1.0340    -4.7580 H     1 <1>   0.1500 
 55 H       -5.6090     0.6810    -2.2230 H     1 <1>   0.4500 
 56 H       -8.4130    -0.1170    -1.6880 H     1 <1>   0.0800 
 57 H       -7.7160     0.0340    -3.2870 H     1 <1>   0.0800 
 58 H       -7.8720     1.4430    -2.2720 H     1 <1>   0.0800 
 59 H       -6.6130    -1.9490    -1.3040 H     1 <1>   0.0800 
 60 H       -4.9480    -1.5350    -1.6590 H     1 <1>   0.0800 
 61 H       -6.1210    -1.5980    -2.9480 H     1 <1>   0.0800 
@<TRIPOS>BOND
  1   1   2  2   
  2   2   3  am  
  3   2   4  1   
  4   3   5  1   
  5   3   6  1   
  6   4   7  1   
  7   4  29  1   
  8   4  30  1   
  9   5   8  1   
 10   5   9  1   
 11   5  31  1   
 12   6  32  1   
 13   6  33  1   
 14   6  34  1   
 15   7  10  1   
 16   7  11  1   
 17   8  12  1   
 18   8  35  1   
 19   8  36  1   
 20   9  13  1   
 21   9  37  1   
 22   9  38  1   
 23  10  14  ar  
 24  10  15  ar  
 25  11  16  2   
 26  11  17  1   
 27  12  13  1   
 28  12  18  1   
 29  12  39  1   
 30  13  19  1   
 31  13  40  1   
 32  14  16  1   
 33  14  20  ar  
 34  15  21  ar  
 35  15  41  1   
 36  17  22  1   
 37  17  23  1   
 38  17  42  1   
 39  18  24  1   
 40  18  43  1   
 41  18  44  1   
 42  19  24  1   
 43  19  45  1   
 44  19  46  1   
 45  20  25  ar  
 46  20  47  1   
 47  21  25  ar  
 48  21  48  1   
 49  22  23  1   
 50  22  49  1   
 51  22  50  1   
 52  23  51  1   
 53  23  52  1   
 54  24  26  1   
 55  24  53  1   
 56  25  54  1   
 57  26  27  1   
 58  26  28  1   
 59  26  55  1   
 60  27  56  1   
 61  27  57  1   
 62  27  58  1   
 63  28  59  1   
 64  28  60  1   
 65  28  61  1   
@<TRIPOS>SUBSTRUCTURE
  1 ****   9 GROUP 4 **** **** 0

# MOE 2024.06 (io_trps.svl 2023.06)
