@<TRIPOS>MOLECULE
NONAME
43 45 1 0 0 
SMALL
USER_CHARGES


@<TRIPOS>ATOM
  1 O       -2.4240    -0.1860    -2.7890 O.2   1 <1>  -0.5700 
  2 C       -2.4810    -0.6600    -1.6880 C.2   1 <1>   0.5690 
  3 N       -2.4250     0.1320    -0.6030 N.am  1 <1>  -0.7300 
  4 C       -2.6600    -2.1440    -1.5240 C.3   1 <1>  -0.0190 
  5 C       -2.4970    -0.3230     0.8040 C.3   1 <1>   0.2200 
  6 C       -1.4780    -2.7820    -0.7590 C.3   1 <1>   0.1200 
  7 C       -4.0660    -2.4050    -0.9670 C.3   1 <1>   0.3430 
  8 C       -1.3310    -1.2940     1.1170 C.3   1 <1>   0.1200 
  9 C       -3.9020    -0.9160     1.1140 C.3   1 <1>   0.3430 
 10 O       -1.5510    -2.5940     0.6300 O.3   1 <1>  -0.5600 
 11 N       -4.1650    -2.2790     0.5280 N.4   1 <1>  -0.9590 
 12 C       -5.3950    -2.9130     1.0750 C.3   1 <1>   0.4860 
 13 C       -5.4100    -4.3740     0.6610 C.ar  1 <1>  -0.1430 
 14 C       -6.3360    -4.8690    -0.2560 C.ar  1 <1>  -0.1430 
 15 C       -4.4600    -5.2260     1.2100 C.ar  1 <1>  -0.1500 
 16 C       -6.2840    -6.2090    -0.6090 C.ar  1 <1>  -0.1500 
 17 C       -7.4230    -4.0060    -0.8930 C.3   1 <1>  -0.0170 
 18 C       -4.4180    -6.5580     0.8470 C.ar  1 <1>  -0.1500 
 19 C       -5.3300    -7.0500    -0.0660 C.ar  1 <1>  -0.1500 
 20 C       -8.6220    -3.8630     0.0480 C.3   1 <1>  -0.2400 
 21 H       -2.2500     1.1270    -0.7830 H     1 <1>   0.3700 
 22 H       -2.6400    -2.5520    -2.5190 H     1 <1>   0.0800 
 23 H       -2.3670     0.5500     1.4200 H     1 <1>   0.0800 
 24 H       -0.5370    -2.3940    -1.1130 H     1 <1>   0.0800 
 25 H       -1.4800    -3.8460    -0.9270 H     1 <1>   0.0800 
 26 H       -4.3370    -3.4100    -1.2490 H     1 <1>   0.0800 
 27 H       -4.7660    -1.7360    -1.4400 H     1 <1>   0.0800 
 28 H       -1.2210    -1.3810     2.1840 H     1 <1>   0.0800 
 29 H       -0.4010    -0.9210     0.7200 H     1 <1>   0.0800 
 30 H       -4.6510    -0.2210     0.7710 H     1 <1>   0.0800 
 31 H       -3.9920    -0.9860     2.1850 H     1 <1>   0.0800 
 32 H       -3.3680    -2.8600     0.8550 H     1 <1>   0.4500 
 33 H       -5.3950    -2.8560     2.1510 H     1 <1>   0.0800 
 34 H       -6.2710    -2.4060     0.7080 H     1 <1>   0.0800 
 35 H       -3.7410    -4.8690     1.9280 H     1 <1>   0.1500 
 36 H       -6.9920    -6.6160    -1.3120 H     1 <1>   0.1500 
 37 H       -7.0420    -3.0360    -1.1550 H     1 <1>   0.0800 
 38 H       -7.7580    -4.4640    -1.8080 H     1 <1>   0.0800 
 39 H       -3.6800    -7.2160     1.2740 H     1 <1>   0.1500 
 40 H       -5.3020    -8.0880    -0.3500 H     1 <1>   0.1500 
 41 H       -8.3400    -3.3900     0.9700 H     1 <1>   0.0800 
 42 H       -9.0280    -4.8340     0.2750 H     1 <1>   0.0800 
 43 H       -9.3920    -3.2750    -0.4200 H     1 <1>   0.0800 
@<TRIPOS>BOND
  1   1   2  2   
  2   2   3  am  
  3   2   4  1   
  4   3   5  1   
  5   3  21  1   
  6   4   6  1   
  7   4   7  1   
  8   4  22  1   
  9   5   8  1   
 10   5   9  1   
 11   5  23  1   
 12   6  10  1   
 13   6  24  1   
 14   6  25  1   
 15   7  11  1   
 16   7  26  1   
 17   7  27  1   
 18   8  10  1   
 19   8  28  1   
 20   8  29  1   
 21   9  11  1   
 22   9  30  1   
 23   9  31  1   
 24  11  12  1   
 25  11  32  1   
 26  12  13  1   
 27  12  33  1   
 28  12  34  1   
 29  13  14  ar  
 30  13  15  ar  
 31  14  16  ar  
 32  14  17  1   
 33  15  18  ar  
 34  15  35  1   
 35  16  19  ar  
 36  16  36  1   
 37  17  20  1   
 38  17  37  1   
 39  17  38  1   
 40  18  19  ar  
 41  18  39  1   
 42  19  40  1   
 43  20  41  1   
 44  20  42  1   
 45  20  43  1   
@<TRIPOS>SUBSTRUCTURE
  1 ****  11 GROUP 4 **** **** 0

# MOE 2024.06 (io_trps.svl 2023.06)
