@<TRIPOS>MOLECULE
NONAME
57 59 1 0 0 
SMALL
USER_CHARGES


@<TRIPOS>ATOM
  1 O       -1.2210     0.9200     0.6050 O.2   1 <1>  -0.5700 
  2 C       -2.0510     1.5370    -0.0230 C.2   1 <1>   0.5690 
  3 N       -1.7750     2.7650    -0.5680 N.am  1 <1>  -0.6600 
  4 C       -3.4230     0.8630    -0.1550 C.3   1 <1>  -0.0190 
  5 C       -0.4280     3.3820    -0.3530 C.3   1 <1>   0.2840 
  6 C       -2.7010     3.5860    -1.3980 C.3   1 <1>   0.1400 
  7 C       -4.0770     0.7130     1.2320 C.3   1 <1>  -0.1600 
  8 C       -3.2930    -0.5160    -0.8330 C.3   1 <1>  -0.1600 
  9 C       -0.5240     4.5220     0.6490 C.ar  1 <1>  -0.1440 
 10 C       -3.6930     4.3420    -0.5140 C.3   1 <1>  -0.2400 
 11 C       -5.3780    -0.0830     1.1720 C.3   1 <1>   0.3430 
 12 C       -4.6130    -1.2820    -0.8360 C.3   1 <1>   0.3430 
 13 C       -0.3960     5.8420     0.2420 C.ar  1 <1>  -0.1500 
 14 C       -0.7450     4.2430     1.9890 C.ar  1 <1>  -0.1500 
 15 N       -5.1130    -1.4170     0.5630 N.4   1 <1>  -0.9590 
 16 C       -0.4930     6.8700     1.1650 C.ar  1 <1>  -0.1500 
 17 C       -0.8420     5.2690     2.9120 C.ar  1 <1>  -0.1500 
 18 C       -6.3520    -2.2550     0.6420 C.3   1 <1>   0.3430 
 19 C       -0.7170     6.5840     2.5000 C.ar  1 <1>  -0.1500 
 20 C       -6.0960    -3.7440     0.3800 C.3   1 <1>   0.0200 
 21 C       -7.4100    -4.4930     0.4850 C.2   1 <1>   0.0060 
 22 N       -8.5420    -3.8880     0.6520 N.2   1 <1>  -0.5650 
 23 N       -7.5200    -5.8440     0.4110 N.pl3 1 <1>   0.0480 
 24 C       -9.4410    -4.8880     0.6910 C.2   1 <1>   0.0770 
 25 C       -8.8350    -6.0850     0.5460 C.2   1 <1>  -0.3020 
 26 C       -6.4700    -6.8630     0.2260 C.3   1 <1>   0.0160 
 27 H       -4.0740     1.4600    -0.7620 H     1 <1>   0.0800 
 28 H       -0.0450     3.7430    -1.2910 H     1 <1>   0.0800 
 29 H        0.2740     2.6540     0.0150 H     1 <1>   0.0800 
 30 H       -3.2250     2.9560    -2.0950 H     1 <1>   0.0800 
 31 H       -2.1340     4.2970    -1.9760 H     1 <1>   0.0800 
 32 H       -4.2790     1.6900     1.6370 H     1 <1>   0.0800 
 33 H       -3.3980     0.2250     1.9110 H     1 <1>   0.0800 
 34 H       -2.5470    -1.1080    -0.3290 H     1 <1>   0.0800 
 35 H       -2.9600    -0.3820    -1.8470 H     1 <1>   0.0800 
 36 H       -4.2900     3.6700     0.0720 H     1 <1>   0.0800 
 37 H       -4.3490     4.9290    -1.1310 H     1 <1>   0.0800 
 38 H       -3.1740     5.0130     0.1470 H     1 <1>   0.0800 
 39 H       -6.1060     0.4520     0.5830 H     1 <1>   0.0800 
 40 H       -5.7700    -0.2030     2.1700 H     1 <1>   0.0800 
 41 H       -4.4570    -2.2550    -1.2730 H     1 <1>   0.0800 
 42 H       -5.3390    -0.7550    -1.4340 H     1 <1>   0.0800 
 43 H       -0.2210     6.0780    -0.7930 H     1 <1>   0.1500 
 44 H       -0.8420     3.2200     2.3130 H     1 <1>   0.1500 
 45 H       -4.3740    -1.8600     1.1260 H     1 <1>   0.4500 
 46 H       -0.3940     7.8920     0.8440 H     1 <1>   0.1500 
 47 H       -1.0140     5.0430     3.9500 H     1 <1>   0.1500 
 48 H       -7.0840    -1.8980    -0.0650 H     1 <1>   0.0800 
 49 H       -6.7890    -2.1660     1.6240 H     1 <1>   0.0800 
 50 H       -0.7930     7.3820     3.2170 H     1 <1>   0.1500 
 51 H       -5.4120    -4.1320     1.1120 H     1 <1>   0.0800 
 52 H       -5.6980    -3.8940    -0.6060 H     1 <1>   0.0800 
 53 H      -10.4930    -4.6940     0.8230 H     1 <1>   0.1500 
 54 H       -9.2660    -7.0700     0.5330 H     1 <1>   0.1500 
 55 H       -5.9310    -6.6630    -0.6810 H     1 <1>   0.0800 
 56 H       -6.9220    -7.8360     0.1610 H     1 <1>   0.0800 
 57 H       -5.7980    -6.8400     1.0640 H     1 <1>   0.0800 
@<TRIPOS>BOND
  1   1   2  2   
  2   2   3  am  
  3   2   4  1   
  4   3   5  1   
  5   3   6  1   
  6   4   7  1   
  7   4   8  1   
  8   4  27  1   
  9   5   9  1   
 10   5  28  1   
 11   5  29  1   
 12   6  10  1   
 13   6  30  1   
 14   6  31  1   
 15   7  11  1   
 16   7  32  1   
 17   7  33  1   
 18   8  12  1   
 19   8  34  1   
 20   8  35  1   
 21   9  13  ar  
 22   9  14  ar  
 23  10  36  1   
 24  10  37  1   
 25  10  38  1   
 26  11  15  1   
 27  11  39  1   
 28  11  40  1   
 29  12  15  1   
 30  12  41  1   
 31  12  42  1   
 32  13  16  ar  
 33  13  43  1   
 34  14  17  ar  
 35  14  44  1   
 36  15  18  1   
 37  15  45  1   
 38  16  19  ar  
 39  16  46  1   
 40  17  19  ar  
 41  17  47  1   
 42  18  20  1   
 43  18  48  1   
 44  18  49  1   
 45  19  50  1   
 46  20  21  1   
 47  20  51  1   
 48  20  52  1   
 49  21  22  2   
 50  21  23  1   
 51  22  24  1   
 52  23  25  1   
 53  23  26  1   
 54  24  25  2   
 55  24  53  1   
 56  25  54  1   
 57  26  55  1   
 58  26  56  1   
 59  26  57  1   
@<TRIPOS>SUBSTRUCTURE
  1 ****   7 GROUP 4 **** **** 0

# MOE 2024.06 (io_trps.svl 2023.06)
