@<TRIPOS>MOLECULE
NONAME
49 51 1 0 0 
SMALL
USER_CHARGES


@<TRIPOS>ATOM
  1 O       -1.7470     0.0730    -0.8010 O.2   1 <1>  -0.5700 
  2 C       -1.9570     1.1520    -0.2680 C.2   1 <1>   0.5440 
  3 N       -3.1000     1.2600     0.5140 N.am  1 <1>  -0.6600 
  4 C       -1.0140     2.2490    -0.5080 C.ar  1 <1>   0.3960 
  5 C       -3.8120     0.0270     0.9650 C.3   1 <1>   0.1400 
  6 C       -3.6750     2.5730     0.9320 C.3   1 <1>   0.1400 
  7 N       -0.7440     3.1510     0.4340 N.ar  1 <1>  -0.6200 
  8 C       -0.3820     2.3390    -1.7370 C.ar  1 <1>  -0.1500 
  9 C       -4.8850    -0.3990    -0.0470 C.3   1 <1>   0.1400 
 10 C       -5.2080     2.6270     0.8830 C.3   1 <1>  -0.1600 
 11 C        0.1090     4.0930     0.1010 C.ar  1 <1>   0.7200 
 12 C        0.5000     3.3660    -1.9590 C.ar  1 <1>   0.1660 
 13 N       -6.0920     0.4920    -0.0080 N.am  1 <1>  -0.6600 
 14 C       -5.8220     1.9230    -0.3320 C.3   1 <1>   0.1400 
 15 N        0.7530     4.2580    -1.0370 N.ar  1 <1>  -0.6200 
 16 N        0.3750     4.9950     1.0450 N.pl3 1 <1>  -0.9000 
 17 C        1.2230     3.5160    -3.2810 C.3   1 <1>  -0.0970 
 18 C       -7.3800     0.0670     0.2350 C.2   1 <1>   0.5690 
 19 O       -8.3040     0.8460     0.2780 O.2   1 <1>  -0.5700 
 20 C       -7.7230    -1.3910     0.4970 C.3   1 <1>   0.1570 
 21 N       -7.4750    -2.2390    -0.6890 N.pl3 1 <1>   0.0480 
 22 C       -6.9070    -3.4700    -0.7420 C.2   1 <1>   0.0060 
 23 C       -7.7570    -1.9400    -1.9720 C.2   1 <1>  -0.3020 
 24 N       -6.8060    -3.9450    -1.9390 N.2   1 <1>  -0.5650 
 25 C       -6.4310    -4.2400     0.4740 C.3   1 <1>  -0.0600 
 26 C       -7.3420    -2.9860    -2.7150 C.2   1 <1>   0.0770 
 27 H       -4.2520     0.1820     1.9340 H     1 <1>   0.0800 
 28 H       -3.0970    -0.7710     1.0610 H     1 <1>   0.0800 
 29 H       -3.3060     3.3410     0.2750 H     1 <1>   0.0800 
 30 H       -3.3350     2.8060     1.9270 H     1 <1>   0.0800 
 31 H       -0.5850     1.6080    -2.4970 H     1 <1>   0.1500 
 32 H       -5.1560    -1.4120     0.1740 H     1 <1>   0.0800 
 33 H       -4.4640    -0.3940    -1.0390 H     1 <1>   0.0800 
 34 H       -5.4900     3.6630     0.8490 H     1 <1>   0.0800 
 35 H       -5.6270     2.2260     1.7890 H     1 <1>   0.0800 
 36 H       -5.1660     1.9900    -1.1840 H     1 <1>   0.0800 
 37 H       -6.7420     2.4170    -0.5950 H     1 <1>   0.0800 
 38 H        1.2190     5.5400     0.8870 H     1 <1>   0.4000 
 39 H        0.2020     4.6960     2.0010 H     1 <1>   0.4000 
 40 H        0.9450     2.7350    -3.9650 H     1 <1>   0.0800 
 41 H        2.2840     3.4740    -3.1170 H     1 <1>   0.0800 
 42 H        0.9780     4.4660    -3.7190 H     1 <1>   0.0800 
 43 H       -8.7630    -1.4660     0.7520 H     1 <1>   0.0800 
 44 H       -7.1420    -1.7430     1.3260 H     1 <1>   0.0800 
 45 H       -8.2240    -1.0210    -2.2800 H     1 <1>   0.1500 
 46 H       -7.2400    -4.3740     1.1690 H     1 <1>   0.0800 
 47 H       -5.6240    -3.7190     0.9540 H     1 <1>   0.0800 
 48 H       -6.0780    -5.2100     0.1710 H     1 <1>   0.0800 
 49 H       -7.4010    -3.1020    -3.7850 H     1 <1>   0.1500 
@<TRIPOS>BOND
  1   1   2  2   
  2   2   3  am  
  3   2   4  1   
  4   3   5  1   
  5   3   6  1   
  6   4   7  ar  
  7   4   8  ar  
  8   5   9  1   
  9   5  27  1   
 10   5  28  1   
 11   6  10  1   
 12   6  29  1   
 13   6  30  1   
 14   7  11  ar  
 15   8  12  ar  
 16   8  31  1   
 17   9  13  1   
 18   9  32  1   
 19   9  33  1   
 20  10  14  1   
 21  10  34  1   
 22  10  35  1   
 23  11  15  ar  
 24  11  16  1   
 25  12  15  ar  
 26  12  17  1   
 27  13  14  1   
 28  13  18  am  
 29  14  36  1   
 30  14  37  1   
 31  16  38  1   
 32  16  39  1   
 33  17  40  1   
 34  17  41  1   
 35  17  42  1   
 36  18  19  2   
 37  18  20  1   
 38  20  21  1   
 39  20  43  1   
 40  20  44  1   
 41  21  22  1   
 42  21  23  1   
 43  22  24  2   
 44  22  25  1   
 45  23  26  2   
 46  23  45  1   
 47  24  26  1   
 48  25  46  1   
 49  25  47  1   
 50  25  48  1   
 51  26  49  1   
@<TRIPOS>SUBSTRUCTURE
  1 ****   3 GROUP 4 **** **** 0

# MOE 2024.06 (io_trps.svl 2023.06)
