@<TRIPOS>MOLECULE
NONAME
37 39 1 0 0 
SMALL
USER_CHARGES


@<TRIPOS>ATOM
  1 F       -1.6720     1.1270     1.3060 F     1 <1>  -0.1900 
  2 C       -1.2770     1.3930     0.0810 C.ar  1 <1>   0.1900 
  3 C       -1.3320     2.7030    -0.3820 C.ar  1 <1>   0.1000 
  4 C       -0.8110     0.3610    -0.7090 C.ar  1 <1>   0.1600 
  5 N       -1.7980     3.7600     0.4010 N.pl3 1 <1>  -0.8690 
  6 C       -0.8860     2.8580    -1.6870 C.ar  1 <1>  -0.1500 
  7 N       -0.3790     0.5180    -1.9560 N.ar  1 <1>  -0.6200 
  8 C       -1.3660     5.1650     0.2120 C.3   1 <1>   0.2890 
  9 C       -0.4310     1.7660    -2.4070 C.ar  1 <1>   0.1600 
 10 C        0.1470     5.3170     0.4400 C.3   1 <1>   0.1400 
 11 C       -2.1440     6.0480     1.1940 C.3   1 <1>  -0.1600 
 12 N        0.5420     6.7540     0.3250 N.am  1 <1>  -0.6600 
 13 C       -1.6740     7.5120     1.1110 C.3   1 <1>  -0.1600 
 14 C        1.2530     7.2110    -0.7700 C.2   1 <1>   0.7150 
 15 C       -0.1550     7.6540     1.2840 C.3   1 <1>   0.1400 
 16 O        1.2250     6.5350    -1.7860 O.2   1 <1>  -0.5700 
 17 C        2.0090     8.4490    -0.7710 C.2   1 <1>   0.0550 
 18 O        2.3700     9.0700     0.3520 O.3   1 <1>  -0.2800 
 19 C        2.4940     9.1650    -1.8240 C.2   1 <1>  -0.1500 
 20 C        3.0550    10.1470     0.0430 C.2   1 <1>  -0.0100 
 21 C        3.1680    10.2660    -1.2960 C.2   1 <1>  -0.1500 
 22 H       -0.7900    -0.6330    -0.2990 H     1 <1>   0.1500 
 23 H       -2.0130     3.5210     1.3760 H     1 <1>   0.4000 
 24 H       -0.8890     3.8260    -2.1510 H     1 <1>   0.1500 
 25 H       -1.5960     5.4700    -0.7950 H     1 <1>   0.0800 
 26 H       -0.0890     1.9270    -3.4160 H     1 <1>   0.1500 
 27 H        0.6850     4.7240    -0.2780 H     1 <1>   0.0800 
 28 H        0.4000     4.9640     1.4230 H     1 <1>   0.0800 
 29 H       -1.9900     5.6890     2.1960 H     1 <1>   0.0800 
 30 H       -3.1940     5.9940     0.9660 H     1 <1>   0.0800 
 31 H       -2.1710     8.0930     1.8670 H     1 <1>   0.0800 
 32 H       -1.9500     7.9230     0.1550 H     1 <1>   0.0800 
 33 H        0.1180     8.6810     1.1190 H     1 <1>   0.0800 
 34 H        0.1320     7.3880     2.2870 H     1 <1>   0.0800 
 35 H        2.3870     8.9320    -2.8700 H     1 <1>   0.1500 
 36 H        3.4290    10.7750     0.8340 H     1 <1>   0.1500 
 37 H        3.6670    11.0310    -1.8640 H     1 <1>   0.1500 
@<TRIPOS>BOND
  1   1   2  1   
  2   2   3  ar  
  3   2   4  ar  
  4   3   5  1   
  5   3   6  ar  
  6   4   7  ar  
  7   4  22  1   
  8   5   8  1   
  9   5  23  1   
 10   6   9  ar  
 11   6  24  1   
 12   7   9  ar  
 13   8  10  1   
 14   8  11  1   
 15   8  25  1   
 16   9  26  1   
 17  10  12  1   
 18  10  27  1   
 19  10  28  1   
 20  11  13  1   
 21  11  29  1   
 22  11  30  1   
 23  12  14  am  
 24  12  15  1   
 25  13  15  1   
 26  13  31  1   
 27  13  32  1   
 28  14  16  2   
 29  14  17  1   
 30  15  33  1   
 31  15  34  1   
 32  17  18  1   
 33  17  19  2   
 34  18  20  1   
 35  19  21  1   
 36  19  35  1   
 37  20  21  2   
 38  20  36  1   
 39  21  37  1   
@<TRIPOS>SUBSTRUCTURE
  1 ****  10 GROUP 4 **** **** 0

# MOE 2024.06 (io_trps.svl 2023.06)
