@<TRIPOS>MOLECULE
NONAME
55 57 1 0 0 
SMALL
USER_CHARGES


@<TRIPOS>ATOM
  1 O       -1.8110    -0.5040    -2.7580 O.2   1 <1>  -0.5700 
  2 C       -2.0170    -0.9780    -1.6750 C.2   1 <1>   0.5690 
  3 N       -1.8930    -0.2250    -0.5680 N.am  1 <1>  -0.7300 
  4 C       -2.4570    -2.4120    -1.5620 C.3   1 <1>  -0.0190 
  5 C       -2.1290    -0.6830     0.8200 C.3   1 <1>   0.2200 
  6 C       -1.4480    -3.2530    -0.7480 C.3   1 <1>   0.1200 
  7 C       -3.9180    -2.4350    -1.0910 C.3   1 <1>   0.3430 
  8 C       -1.1680    -1.8460     1.1750 C.3   1 <1>   0.1200 
  9 C       -3.6320    -1.0270     1.0310 C.3   1 <1>   0.3430 
 10 O       -1.5750    -3.0810     0.6390 O.3   1 <1>  -0.5600 
 11 N       -4.0820    -2.3200     0.3990 N.4   1 <1>  -0.9590 
 12 C       -5.4230    -2.7600     0.8630 C.3   1 <1>   0.4860 
 13 C       -5.5900    -4.2200     0.4910 C.ar  1 <1>  -0.1430 
 14 C       -4.7770    -5.1840     1.0730 C.ar  1 <1>  -0.1500 
 15 C       -6.5360    -4.6030    -0.4510 C.ar  1 <1>  -0.1500 
 16 C       -4.8910    -6.5140     0.7110 C.ar  1 <1>   0.0830 
 17 C       -6.6660    -5.9350    -0.8050 C.ar  1 <1>  -0.1500 
 18 O       -4.0400    -7.3880     1.2970 O.3   1 <1>  -0.3630 
 19 C       -5.8590    -6.8970    -0.2230 C.ar  1 <1>   0.0830 
 20 C       -3.1200    -8.0520     0.4590 C.3   1 <1>   0.1200 
 21 O       -6.0530    -8.1830    -0.5960 O.3   1 <1>  -0.3630 
 22 C       -2.2630    -8.9640     1.3310 C.3   1 <1>  -0.2400 
 23 C       -6.5320    -9.0650     0.3980 C.3   1 <1>   0.2580 
 24 C       -6.7310   -10.4420    -0.2220 C.2   1 <1>  -0.2760 
 25 C       -7.9230   -11.0410    -0.3080 C.2   1 <1>  -0.3000 
 26 C       -5.4510   -11.0860    -0.7330 C.3   1 <1>  -0.1020 
 27 H       -1.5370     0.7270    -0.7110 H     1 <1>   0.3700 
 28 H       -2.4470    -2.8000    -2.5640 H     1 <1>   0.0800 
 29 H       -1.8890     0.1450     1.4650 H     1 <1>   0.0800 
 30 H       -0.4350    -3.0230    -1.0360 H     1 <1>   0.0800 
 31 H       -1.6170    -4.2990    -0.9460 H     1 <1>   0.0800 
 32 H       -4.3410    -3.3730    -1.4140 H     1 <1>   0.0800 
 33 H       -4.4640    -1.6470    -1.5850 H     1 <1>   0.0800 
 34 H       -1.1440    -1.9700     2.2440 H     1 <1>   0.0800 
 35 H       -0.1650    -1.6320     0.8460 H     1 <1>   0.0800 
 36 H       -4.2280    -0.2110     0.6580 H     1 <1>   0.0800 
 37 H       -3.8000    -1.0930     2.0930 H     1 <1>   0.0800 
 38 H       -3.4060    -3.0250     0.7550 H     1 <1>   0.4500 
 39 H       -5.5000    -2.6590     1.9330 H     1 <1>   0.0800 
 40 H       -6.1940    -2.1650     0.4020 H     1 <1>   0.0800 
 41 H       -4.0380    -4.9280     1.8130 H     1 <1>   0.1500 
 42 H       -7.1830    -3.8780    -0.9170 H     1 <1>   0.1500 
 43 H       -7.3990    -6.2410    -1.5310 H     1 <1>   0.1500 
 44 H       -3.6570    -8.6270    -0.2740 H     1 <1>   0.0800 
 45 H       -2.5150    -7.3120    -0.0340 H     1 <1>   0.0800 
 46 H       -2.8820    -9.6890     1.8280 H     1 <1>   0.0800 
 47 H       -1.7300    -8.3840     2.0630 H     1 <1>   0.0800 
 48 H       -1.5490    -9.4860     0.7200 H     1 <1>   0.0800 
 49 H       -5.8200    -9.1150     1.2020 H     1 <1>   0.0800 
 50 H       -7.4620    -8.6750     0.7710 H     1 <1>   0.0800 
 51 H       -8.8440   -10.6120     0.0440 H     1 <1>   0.1500 
 52 H       -8.0800   -12.0130    -0.7430 H     1 <1>   0.1500 
 53 H       -5.0190   -10.4830    -1.5130 H     1 <1>   0.0800 
 54 H       -5.6520   -12.0630    -1.1340 H     1 <1>   0.0800 
 55 H       -4.7390   -11.1840     0.0660 H     1 <1>   0.0800 
@<TRIPOS>BOND
  1   1   2  2   
  2   2   3  am  
  3   2   4  1   
  4   3   5  1   
  5   3  27  1   
  6   4   6  1   
  7   4   7  1   
  8   4  28  1   
  9   5   8  1   
 10   5   9  1   
 11   5  29  1   
 12   6  10  1   
 13   6  30  1   
 14   6  31  1   
 15   7  11  1   
 16   7  32  1   
 17   7  33  1   
 18   8  10  1   
 19   8  34  1   
 20   8  35  1   
 21   9  11  1   
 22   9  36  1   
 23   9  37  1   
 24  11  12  1   
 25  11  38  1   
 26  12  13  1   
 27  12  39  1   
 28  12  40  1   
 29  13  14  ar  
 30  13  15  ar  
 31  14  16  ar  
 32  14  41  1   
 33  15  17  ar  
 34  15  42  1   
 35  16  18  1   
 36  16  19  ar  
 37  17  19  ar  
 38  17  43  1   
 39  18  20  1   
 40  19  21  1   
 41  20  22  1   
 42  20  44  1   
 43  20  45  1   
 44  21  23  1   
 45  22  46  1   
 46  22  47  1   
 47  22  48  1   
 48  23  24  1   
 49  23  49  1   
 50  23  50  1   
 51  24  25  2   
 52  24  26  1   
 53  25  51  1   
 54  25  52  1   
 55  26  53  1   
 56  26  54  1   
 57  26  55  1   
@<TRIPOS>SUBSTRUCTURE
  1 ****  14 GROUP 4 **** **** 0

# MOE 2024.06 (io_trps.svl 2023.06)
