@<TRIPOS>MOLECULE
NONAME
38 40 1 0 0 
SMALL
USER_CHARGES


@<TRIPOS>ATOM
  1 O        0.6670    -0.0460     0.7480 O.3   1 <1>  -0.6800 
  2 C        1.7760    -0.1730    -0.0770 C.3   1 <1>   0.2000 
  3 C        2.6200    -1.3740     0.3360 C.3   1 <1>  -0.0800 
  4 C        2.7030     1.0310     0.0620 C.3   1 <1>   0.2090 
  5 C        4.0510    -0.9930    -0.0550 C.3   1 <1>   0.2090 
  6 C        2.1510    -2.6880    -0.3080 C.3   1 <1>   0.0210 
  7 N        4.0690     0.4920    -0.1650 N.pl3 1 <1>  -0.8380 
  8 C        3.0140    -3.8500     0.1360 C.2   1 <1>   0.1080 
  9 C        5.2340     1.2210     0.0050 C.ar  1 <1>   0.4100 
 10 N        2.9070    -4.3870     1.3110 N.2   1 <1>  -0.7070 
 11 C        4.0000    -4.4580    -0.6330 C.2   1 <1>  -0.1500 
 12 N        6.3730     0.5380    -0.0320 N.ar  1 <1>  -0.6200 
 13 C        5.2070     2.6050     0.1900 C.ar  1 <1>  -0.1500 
 14 N        3.8360    -5.3610     1.3250 N.pl3 1 <1>   0.3000 
 15 C        4.5110    -5.4240     0.1580 C.2   1 <1>  -0.3320 
 16 C        7.4880     1.2300     0.1270 C.ar  1 <1>   0.1600 
 17 C        6.3760     3.3120     0.3530 C.ar  1 <1>  -0.1500 
 18 C        5.6210    -6.4170    -0.1330 C.3   1 <1>  -0.0600 
 19 C        7.5650     2.6010     0.3230 C.ar  1 <1>   0.0730 
 20 C        8.8320     3.2440     0.4850 C.1   1 <1>   0.4840 
 21 N        9.8440     3.7530     0.6160 N.1   1 <1>  -0.5570 
 22 H        0.2070    -0.9030     0.8360 H     1 <1>   0.4000 
 23 H        1.4420    -0.2580    -1.0980 H     1 <1>   0.0800 
 24 H        2.6000    -1.4720     1.4080 H     1 <1>   0.0800 
 25 H        2.6410     1.4340     1.0580 H     1 <1>   0.0800 
 26 H        2.4640     1.7830    -0.6690 H     1 <1>   0.0800 
 27 H        4.3210    -1.4110    -1.0090 H     1 <1>   0.0800 
 28 H        4.7500    -1.3370     0.6900 H     1 <1>   0.0800 
 29 H        2.1830    -2.6100    -1.3800 H     1 <1>   0.0800 
 30 H        1.1360    -2.8930    -0.0180 H     1 <1>   0.0800 
 31 H        4.2770    -4.1930    -1.6380 H     1 <1>   0.1500 
 32 H        4.2690     3.1230     0.2030 H     1 <1>   0.1500 
 33 H        3.9840    -5.9630     2.1440 H     1 <1>   0.2700 
 34 H        8.4050     0.6670     0.0980 H     1 <1>   0.1500 
 35 H        6.3690     4.3790     0.4980 H     1 <1>   0.1500 
 36 H        6.0010    -6.2660    -1.1280 H     1 <1>   0.0800 
 37 H        5.2490    -7.4240    -0.0580 H     1 <1>   0.0800 
 38 H        6.4280    -6.2870     0.5650 H     1 <1>   0.0800 
@<TRIPOS>BOND
  1   1   2  1   
  2   1  22  1   
  3   2   3  1   
  4   2   4  1   
  5   2  23  1   
  6   3   5  1   
  7   3   6  1   
  8   3  24  1   
  9   4   7  1   
 10   4  25  1   
 11   4  26  1   
 12   5   7  1   
 13   5  27  1   
 14   5  28  1   
 15   6   8  1   
 16   6  29  1   
 17   6  30  1   
 18   7   9  1   
 19   8  10  2   
 20   8  11  1   
 21   9  12  ar  
 22   9  13  ar  
 23  10  14  1   
 24  11  15  2   
 25  11  31  1   
 26  12  16  ar  
 27  13  17  ar  
 28  13  32  1   
 29  14  15  1   
 30  14  33  1   
 31  15  18  1   
 32  16  19  ar  
 33  16  34  1   
 34  17  19  ar  
 35  17  35  1   
 36  18  36  1   
 37  18  37  1   
 38  18  38  1   
 39  19  20  1   
 40  20  21  3   
@<TRIPOS>SUBSTRUCTURE
  1 ****   5 GROUP 4 **** **** 0

# MOE 2024.06 (io_trps.svl 2023.06)
