@<TRIPOS>MOLECULE
NONAME
48 51 1 0 0 
SMALL
USER_CHARGES


@<TRIPOS>ATOM
  1 O        3.2700    -1.3360     2.0700 O.2   1 <1>  -0.5700 
  2 C        2.3960    -1.8780     1.4090 C.2   1 <1>   0.5440 
  3 N        1.1140    -1.3460     1.3670 N.am  1 <1>  -0.2980 
  4 C        2.6370    -3.0790     0.6630 C.ar  1 <1>   0.0860 
  5 N        0.0860    -1.8670     0.6490 N.2   1 <1>  -0.5120 
  6 C        0.8240    -0.1070     2.1260 C.3   1 <1>   0.0600 
  7 C        1.5730    -3.6290    -0.0730 C.ar  1 <1>   0.0860 
  8 C        3.8840    -3.7130     0.6650 C.ar  1 <1>  -0.1500 
  9 C        0.2930    -2.9480    -0.0620 C.2   1 <1>   0.3640 
 10 C        1.8180    -4.8290    -0.7640 C.ar  1 <1>  -0.1500 
 11 C        4.0950    -4.8800    -0.0320 C.ar  1 <1>  -0.1500 
 12 C       -0.7970    -3.4870    -0.8600 C.2   1 <1>   0.6300 
 13 C        3.0520    -5.4420    -0.7480 C.ar  1 <1>  -0.1500 
 14 O       -0.6340    -3.6740    -2.0580 O.2   1 <1>  -0.5700 
 15 N       -2.0330    -3.8210    -0.3130 N.am  1 <1>  -0.6600 
 16 C       -3.1980    -4.1200    -1.2020 C.3   1 <1>   0.2200 
 17 C       -2.2520    -3.8260     1.1670 C.3   1 <1>   0.0600 
 18 C       -3.5710    -5.5980    -1.1900 C.3   1 <1>  -0.1600 
 19 C       -4.4890    -3.3950    -0.8250 C.3   1 <1>  -0.1600 
 20 C       -5.0040    -5.6350    -1.7370 C.3   1 <1>  -0.0800 
 21 C       -5.5980    -4.2250    -1.4850 C.3   1 <1>  -0.0800 
 22 C       -5.8240    -6.8160    -1.1810 C.3   1 <1>   0.1400 
 23 C       -6.9150    -4.2220    -0.6830 C.3   1 <1>  -0.0990 
 24 N       -7.2650    -6.5490    -1.3600 N.am  1 <1>  -0.7300 
 25 C       -7.8260    -5.3410    -1.1410 C.2   1 <1>   0.5690 
 26 O       -9.0050    -5.1570    -1.2890 O.2   1 <1>  -0.5700 
 27 H        1.0120    -0.2740     3.1710 H     1 <1>   0.0800 
 28 H       -0.2040     0.1770     1.9900 H     1 <1>   0.0800 
 29 H        1.4600     0.6850     1.7730 H     1 <1>   0.0800 
 30 H        4.6910    -3.2730     1.2280 H     1 <1>   0.1500 
 31 H        1.0370    -5.3010    -1.3320 H     1 <1>   0.1500 
 32 H        5.0610    -5.3570    -0.0210 H     1 <1>   0.1500 
 33 H        3.2120    -6.3580    -1.2930 H     1 <1>   0.1500 
 34 H       -2.9670    -3.8460    -2.2190 H     1 <1>   0.0800 
 35 H       -2.9920    -4.5560     1.4410 H     1 <1>   0.0800 
 36 H       -2.5840    -2.8520     1.4840 H     1 <1>   0.0800 
 37 H       -1.3400    -4.0650     1.6850 H     1 <1>   0.0800 
 38 H       -2.8980    -6.1700    -1.8040 H     1 <1>   0.0800 
 39 H       -3.5490    -5.9740    -0.1850 H     1 <1>   0.0800 
 40 H       -4.6320    -3.3910     0.2390 H     1 <1>   0.0800 
 41 H       -4.4850    -2.3830    -1.1880 H     1 <1>   0.0800 
 42 H       -4.9410    -5.7660    -2.8050 H     1 <1>   0.0800 
 43 H       -5.8080    -3.7970    -2.4520 H     1 <1>   0.0800 
 44 H       -5.6320    -6.9430    -0.1290 H     1 <1>   0.0800 
 45 H       -5.5530    -7.7250    -1.6910 H     1 <1>   0.0800 
 46 H       -7.4180    -3.2790    -0.7990 H     1 <1>   0.0800 
 47 H       -6.7220    -4.3750     0.3630 H     1 <1>   0.0800 
 48 H       -7.8830    -7.3140    -1.6400 H     1 <1>   0.3700 
@<TRIPOS>BOND
  1   1   2  2   
  2   2   3  am  
  3   2   4  1   
  4   3   5  1   
  5   3   6  1   
  6   4   7  ar  
  7   4   8  ar  
  8   5   9  2   
  9   6  27  1   
 10   6  28  1   
 11   6  29  1   
 12   7   9  1   
 13   7  10  ar  
 14   8  11  ar  
 15   8  30  1   
 16   9  12  1   
 17  10  13  ar  
 18  10  31  1   
 19  11  13  ar  
 20  11  32  1   
 21  12  14  2   
 22  12  15  am  
 23  13  33  1   
 24  15  16  1   
 25  15  17  1   
 26  16  18  1   
 27  16  19  1   
 28  16  34  1   
 29  17  35  1   
 30  17  36  1   
 31  17  37  1   
 32  18  20  1   
 33  18  38  1   
 34  18  39  1   
 35  19  21  1   
 36  19  40  1   
 37  19  41  1   
 38  20  21  1   
 39  20  22  1   
 40  20  42  1   
 41  21  23  1   
 42  21  43  1   
 43  22  24  1   
 44  22  44  1   
 45  22  45  1   
 46  23  25  1   
 47  23  46  1   
 48  23  47  1   
 49  24  25  am  
 50  24  48  1   
 51  25  26  2   
@<TRIPOS>SUBSTRUCTURE
  1 ****  15 GROUP 4 **** **** 0

# MOE 2024.06 (io_trps.svl 2023.06)
