@<TRIPOS>MOLECULE
NONAME
61 64 1 0 0 
SMALL
USER_CHARGES


@<TRIPOS>ATOM
  1 O       -1.4320     0.5210     0.1270 O.2   1 <1>  -0.5700 
  2 C       -2.1400     1.4000    -0.3360 C.2   1 <1>   0.5440 
  3 N       -3.2700     0.9980    -1.0190 N.am  1 <1>  -0.6600 
  4 C       -1.8250     2.7990    -0.1230 C.ar  1 <1>   0.0860 
  5 C       -3.3600    -0.4060    -1.4930 C.3   1 <1>   0.1400 
  6 C       -4.5920     1.6030    -0.7040 C.3   1 <1>   0.1400 
  7 C       -1.2010     3.2270     1.0500 C.ar  1 <1>  -0.1500 
  8 C       -2.1320     3.7770    -1.0720 C.ar  1 <1>  -0.1500 
  9 C       -3.9700    -1.2630    -0.3630 C.3   1 <1>   0.4230 
 10 C       -5.2430     0.7740     0.4120 C.3   1 <1>  -0.1600 
 11 C       -0.9230     4.5610     1.2740 C.ar  1 <1>  -0.1500 
 12 C       -1.8540     5.1110    -0.8490 C.ar  1 <1>  -0.1500 
 13 N       -3.9150    -2.7620    -0.6230 N.4   1 <1>  -0.9590 
 14 C       -5.3740    -0.7420     0.0730 C.3   1 <1>   0.0000 
 15 C       -1.2490     5.5290     0.3310 C.ar  1 <1>   0.1000 
 16 C       -4.8440    -3.5660     0.2350 C.3   1 <1>   0.3430 
 17 C       -4.0490    -3.1760    -2.0580 C.3   1 <1>   0.2630 
 18 C       -5.8290    -1.5020     1.3540 C.3   1 <1>  -0.1600 
 19 C       -6.4030    -0.9500    -1.0760 C.3   1 <1>   0.1200 
 20 N       -0.9700     6.8660     0.5700 N.pl3 1 <1>  -0.8380 
 21 C       -5.1220    -2.8560     1.5580 C.3   1 <1>  -0.1600 
 22 O       -7.6050    -0.3160    -0.8090 O.3   1 <1>  -0.6800 
 23 C        0.4090     7.3070     0.9040 C.3   1 <1>   0.2090 
 24 C       -1.9410     7.9470     0.2540 C.3   1 <1>   0.2090 
 25 C        0.9560     8.1900    -0.2220 C.3   1 <1>  -0.1600 
 26 C       -1.3920     8.8320    -0.8700 C.3   1 <1>  -0.1600 
 27 C        0.0130     9.3590    -0.5450 C.3   1 <1>  -0.1600 
 28 H       -3.9550    -0.4330    -2.3870 H     1 <1>   0.0800 
 29 H       -2.3720    -0.7620    -1.7310 H     1 <1>   0.0800 
 30 H       -4.4750     2.6210    -0.3710 H     1 <1>   0.0800 
 31 H       -5.2110     1.6130    -1.5850 H     1 <1>   0.0800 
 32 H       -0.9340     2.4980     1.7950 H     1 <1>   0.1500 
 33 H       -2.5920     3.4830    -1.9980 H     1 <1>   0.1500 
 34 H       -3.3300    -1.0860     0.4870 H     1 <1>   0.0800 
 35 H       -4.6370     0.8990     1.2940 H     1 <1>   0.0800 
 36 H       -6.2050     1.1990     0.6430 H     1 <1>   0.0800 
 37 H       -0.4540     4.8690     2.1890 H     1 <1>   0.1500 
 38 H       -2.0940     5.8420    -1.5970 H     1 <1>   0.1500 
 39 H       -2.9610    -3.0240    -0.3280 H     1 <1>   0.4500 
 40 H       -5.7810    -3.7100    -0.2780 H     1 <1>   0.0800 
 41 H       -4.4170    -4.5390     0.4240 H     1 <1>   0.0800 
 42 H       -5.0110    -2.8850    -2.4470 H     1 <1>   0.0800 
 43 H       -3.9520    -4.2460    -2.1480 H     1 <1>   0.0800 
 44 H       -3.2800    -2.7170    -2.6580 H     1 <1>   0.0800 
 45 H       -5.6420    -0.9090     2.2340 H     1 <1>   0.0800 
 46 H       -6.8930    -1.6650     1.3290 H     1 <1>   0.0800 
 47 H       -6.6170    -1.9920    -1.2300 H     1 <1>   0.0800 
 48 H       -6.0470    -0.5370    -2.0020 H     1 <1>   0.0800 
 49 H       -5.7390    -3.4860     2.1760 H     1 <1>   0.0800 
 50 H       -4.1930    -2.7140     2.0840 H     1 <1>   0.0800 
 51 H       -8.0400    -0.6680    -0.0080 H     1 <1>   0.4000 
 52 H        0.3870     7.8570     1.8280 H     1 <1>   0.0800 
 53 H        1.0490     6.4500     1.0320 H     1 <1>   0.0800 
 54 H       -2.8870     7.5210    -0.0340 H     1 <1>   0.0800 
 55 H       -2.0980     8.5390     1.1400 H     1 <1>   0.0800 
 56 H        1.9210     8.5700     0.0630 H     1 <1>   0.0800 
 57 H        1.0890     7.5800    -1.0980 H     1 <1>   0.0800 
 58 H       -1.3590     8.2550    -1.7770 H     1 <1>   0.0800 
 59 H       -2.0610     9.6570    -1.0300 H     1 <1>   0.0800 
 60 H        0.3970     9.9160    -1.3820 H     1 <1>   0.0800 
 61 H       -0.0390    10.0210     0.3030 H     1 <1>   0.0800 
@<TRIPOS>BOND
  1   1   2  2   
  2   2   3  am  
  3   2   4  1   
  4   3   5  1   
  5   3   6  1   
  6   4   7  ar  
  7   4   8  ar  
  8   5   9  1   
  9   5  28  1   
 10   5  29  1   
 11   6  10  1   
 12   6  30  1   
 13   6  31  1   
 14   7  11  ar  
 15   7  32  1   
 16   8  12  ar  
 17   8  33  1   
 18   9  13  1   
 19   9  14  1   
 20   9  34  1   
 21  10  14  1   
 22  10  35  1   
 23  10  36  1   
 24  11  15  ar  
 25  11  37  1   
 26  12  15  ar  
 27  12  38  1   
 28  13  16  1   
 29  13  17  1   
 30  13  39  1   
 31  14  18  1   
 32  14  19  1   
 33  15  20  1   
 34  16  21  1   
 35  16  40  1   
 36  16  41  1   
 37  17  42  1   
 38  17  43  1   
 39  17  44  1   
 40  18  21  1   
 41  18  45  1   
 42  18  46  1   
 43  19  22  1   
 44  19  47  1   
 45  19  48  1   
 46  20  23  1   
 47  20  24  1   
 48  21  49  1   
 49  21  50  1   
 50  22  51  1   
 51  23  25  1   
 52  23  52  1   
 53  23  53  1   
 54  24  26  1   
 55  24  54  1   
 56  24  55  1   
 57  25  27  1   
 58  25  56  1   
 59  25  57  1   
 60  26  27  1   
 61  26  58  1   
 62  26  59  1   
 63  27  60  1   
 64  27  61  1   
@<TRIPOS>SUBSTRUCTURE
  1 ****   2 GROUP 4 **** **** 0

# MOE 2024.06 (io_trps.svl 2023.06)
