@<TRIPOS>MOLECULE
NONAME
49 52 1 0 0 
SMALL
USER_CHARGES


@<TRIPOS>ATOM
  1 O       -4.3650    -2.4610    -2.0550 O.2   1 <1>  -0.5700 
  2 C       -3.6520    -2.0340    -1.1750 C.2   1 <1>   0.5690 
  3 N       -3.9180    -0.8500    -0.5370 N.am  1 <1>  -0.6600 
  4 C       -2.4060    -2.8320    -0.8280 C.3   1 <1>  -0.0190 
  5 C       -3.0090    -0.3090     0.5270 C.3   1 <1>   0.2200 
  6 C       -5.2350    -0.1700    -0.6700 C.3   1 <1>   0.0600 
  7 C       -1.1460    -2.0290    -1.1810 C.3   1 <1>   0.1200 
  8 C       -2.3930    -3.3810     0.6150 C.3   1 <1>   0.2090 
  9 C       -1.6210     0.0120    -0.0640 C.3   1 <1>   0.1200 
 10 C       -2.9100    -1.2160     1.7850 C.3   1 <1>   0.2090 
 11 O       -0.8010    -1.1170    -0.1830 O.3   1 <1>  -0.5600 
 12 N       -3.3080    -2.6440     1.5460 N.pl3 1 <1>  -0.8380 
 13 C       -4.6060    -3.0720     1.7720 C.ar  1 <1>   0.7200 
 14 N       -4.9410    -4.2610     1.2880 N.ar  1 <1>  -0.6200 
 15 N       -5.4150    -2.2520     2.4450 N.ar  1 <1>  -0.6200 
 16 C       -6.1890    -4.6530     1.4440 C.ar  1 <1>   0.3100 
 17 C       -6.6470    -2.6580     2.6110 C.ar  1 <1>   0.1600 
 18 C       -6.6030    -5.9250     0.9000 C.ar  1 <1>   0.0000 
 19 C       -7.0890    -3.8580     2.1210 C.ar  1 <1>  -0.1500 
 20 C       -6.6700    -6.1790    -0.4750 C.ar  1 <1>   0.1670 
 21 C       -6.9630    -6.9550     1.7580 C.ar  1 <1>  -0.1500 
 22 N       -7.0600    -7.3250    -1.0100 N.ar  1 <1>  -0.6200 
 23 C       -6.2790    -5.1080    -1.4820 C.3   1 <1>  -0.0970 
 24 C       -7.3660    -8.1500     1.2070 C.ar  1 <1>  -0.1500 
 25 C       -7.3990    -8.2850    -0.1700 C.ar  1 <1>   0.1670 
 26 C       -7.8380    -9.5890    -0.8010 C.3   1 <1>  -0.0970 
 27 H       -2.4010    -3.6850    -1.4800 H     1 <1>   0.0800 
 28 H       -3.4130     0.6320     0.8530 H     1 <1>   0.0800 
 29 H       -5.0900     0.8600    -0.9420 H     1 <1>   0.0800 
 30 H       -5.7620    -0.2260     0.2660 H     1 <1>   0.0800 
 31 H       -5.8340    -0.6450    -1.4280 H     1 <1>   0.0800 
 32 H       -1.2670    -1.5040    -2.1140 H     1 <1>   0.0800 
 33 H       -0.3130    -2.7040    -1.2800 H     1 <1>   0.0800 
 34 H       -1.3930    -3.3390     1.0100 H     1 <1>   0.0800 
 35 H       -2.6560    -4.4240     0.5870 H     1 <1>   0.0800 
 36 H       -1.1100     0.6880     0.5980 H     1 <1>   0.0800 
 37 H       -1.7130     0.4880    -1.0250 H     1 <1>   0.0800 
 38 H       -3.5150    -0.7840     2.5610 H     1 <1>   0.0800 
 39 H       -1.9020    -1.1990     2.1610 H     1 <1>   0.0800 
 40 H       -7.3220    -2.0150     3.1490 H     1 <1>   0.1500 
 41 H       -8.1050    -4.1750     2.2550 H     1 <1>   0.1500 
 42 H       -6.9190    -6.8220     2.8240 H     1 <1>   0.1500 
 43 H       -6.5850    -4.1320    -1.1550 H     1 <1>   0.0800 
 44 H       -6.7380    -5.3020    -2.4340 H     1 <1>   0.0800 
 45 H       -5.2120    -5.1100    -1.6090 H     1 <1>   0.0800 
 46 H       -7.6500    -8.9680     1.8420 H     1 <1>   0.1500 
 47 H       -8.0980   -10.3160    -0.0550 H     1 <1>   0.0800 
 48 H       -7.0400    -9.9790    -1.4060 H     1 <1>   0.0800 
 49 H       -8.6920    -9.4120    -1.4290 H     1 <1>   0.0800 
@<TRIPOS>BOND
  1   1   2  2   
  2   2   3  am  
  3   2   4  1   
  4   3   5  1   
  5   3   6  1   
  6   4   7  1   
  7   4   8  1   
  8   4  27  1   
  9   5   9  1   
 10   5  10  1   
 11   5  28  1   
 12   6  29  1   
 13   6  30  1   
 14   6  31  1   
 15   7  11  1   
 16   7  32  1   
 17   7  33  1   
 18   8  12  1   
 19   8  34  1   
 20   8  35  1   
 21   9  11  1   
 22   9  36  1   
 23   9  37  1   
 24  10  12  1   
 25  10  38  1   
 26  10  39  1   
 27  12  13  1   
 28  13  14  ar  
 29  13  15  ar  
 30  14  16  ar  
 31  15  17  ar  
 32  16  18  1   
 33  16  19  ar  
 34  17  19  ar  
 35  17  40  1   
 36  18  20  ar  
 37  18  21  ar  
 38  19  41  1   
 39  20  22  ar  
 40  20  23  1   
 41  21  24  ar  
 42  21  42  1   
 43  22  25  ar  
 44  23  43  1   
 45  23  44  1   
 46  23  45  1   
 47  24  25  ar  
 48  24  46  1   
 49  25  26  1   
 50  26  47  1   
 51  26  48  1   
 52  26  49  1   
@<TRIPOS>SUBSTRUCTURE
  1 ****  14 GROUP 4 **** **** 0

# MOE 2024.06 (io_trps.svl 2023.06)
