@<TRIPOS>MOLECULE
NONAME
53 55 1 0 0 
SMALL
USER_CHARGES


@<TRIPOS>ATOM
  1 S        0.9390     0.5570     1.4800 S.o2  1 <1>   1.3330 
  2 O        0.3710     1.6780     0.7660 O.2   1 <1>  -0.6500 
  3 O        0.0450    -0.4340     2.0350 O.2   1 <1>  -0.6500 
  4 N        2.0740    -0.2180     0.4730 N.am  1 <1>  -0.8490 
  5 C        1.9260     1.1430     2.8440 C.3   1 <1>  -0.1350 
  6 C        2.5650     0.6100    -0.6610 C.3   1 <1>   0.2760 
  7 C        1.5270    -1.5170     0.0390 C.3   1 <1>   0.1960 
  8 C        3.5190    -0.2030    -1.5680 C.3   1 <1>  -0.1600 
  9 C        3.3180     1.8600    -0.1500 C.3   1 <1>  -0.1600 
 10 C        2.5230    -2.3280    -0.7850 C.3   1 <1>  -0.1600 
 11 C        2.9440    -1.5430    -2.0200 C.3   1 <1>  -0.1600 
 12 C        3.8650     2.7600    -1.2590 C.3   1 <1>   0.2090 
 13 N        4.4390     3.9700    -0.6370 N.pl3 1 <1>  -0.8690 
 14 C        5.7820     4.2400    -0.6860 C.ar  1 <1>   0.4100 
 15 N        6.0500     5.4890    -0.9960 N.ar  1 <1>  -0.6200 
 16 C        6.7730     3.2810    -0.4260 C.ar  1 <1>   0.1600 
 17 C        7.3660     5.7620    -1.0560 C.ar  1 <1>   0.3960 
 18 N        8.0680     3.5090    -0.4820 N.ar  1 <1>  -0.6200 
 19 C        7.8550     7.1040    -1.3890 C.2   1 <1>   0.5440 
 20 C        8.3230     4.7700    -0.8070 C.ar  1 <1>   0.1600 
 21 O        8.9310     7.2110    -1.9550 O.2   1 <1>  -0.5700 
 22 N        7.1880     8.2770    -1.0790 N.am  1 <1>  -0.6600 
 23 C        7.7610     9.6160    -1.3440 C.3   1 <1>   0.1400 
 24 C        5.9320     8.3900    -0.3000 C.3   1 <1>   0.1400 
 25 C        7.0320    10.5450    -0.3820 C.3   1 <1>  -0.1600 
 26 C        5.6710     9.8880    -0.1740 C.3   1 <1>  -0.1600 
 27 H        1.2940     1.6150     3.5710 H     1 <1>   0.0800 
 28 H        2.6600     1.8500     2.5220 H     1 <1>   0.0800 
 29 H        2.4250     0.3180     3.3120 H     1 <1>   0.0800 
 30 H        1.7170     0.9210    -1.2510 H     1 <1>   0.0800 
 31 H        0.6270    -1.3560    -0.5330 H     1 <1>   0.0800 
 32 H        1.2710    -2.1110     0.9010 H     1 <1>   0.0800 
 33 H        4.4400    -0.3800    -1.0390 H     1 <1>   0.0800 
 34 H        3.7520     0.3570    -2.4540 H     1 <1>   0.0800 
 35 H        4.1310     1.5490     0.4800 H     1 <1>   0.0800 
 36 H        2.6580     2.4830     0.4180 H     1 <1>   0.0800 
 37 H        2.0660    -3.2550    -1.0830 H     1 <1>   0.0800 
 38 H        3.3790    -2.5590    -0.1760 H     1 <1>   0.0800 
 39 H        3.6830    -2.0960    -2.5740 H     1 <1>   0.0800 
 40 H        2.0920    -1.3800    -2.6580 H     1 <1>   0.0800 
 41 H        3.0690     3.0490    -1.9250 H     1 <1>   0.0800 
 42 H        4.6250     2.2560    -1.8330 H     1 <1>   0.0800 
 43 H        3.8950     4.8170    -0.8320 H     1 <1>   0.4000 
 44 H        6.4550     2.2920    -0.1590 H     1 <1>   0.1500 
 45 H        9.3620     5.0440    -0.8800 H     1 <1>   0.1500 
 46 H        7.5540     9.8870    -2.3650 H     1 <1>   0.0800 
 47 H        8.8250     9.6260    -1.1760 H     1 <1>   0.0800 
 48 H        6.0730     7.9440     0.6700 H     1 <1>   0.0800 
 49 H        5.1190     7.9030    -0.8110 H     1 <1>   0.0800 
 50 H        6.9530    11.5430    -0.7740 H     1 <1>   0.0800 
 51 H        7.5710    10.5740     0.5490 H     1 <1>   0.0800 
 52 H        5.2350    10.1380     0.7770 H     1 <1>   0.0800 
 53 H        4.9980    10.1900    -0.9570 H     1 <1>   0.0800 
@<TRIPOS>BOND
  1   1   2  2   
  2   1   3  2   
  3   1   4  am  
  4   1   5  1   
  5   4   6  1   
  6   4   7  1   
  7   5  27  1   
  8   5  28  1   
  9   5  29  1   
 10   6   8  1   
 11   6   9  1   
 12   6  30  1   
 13   7  10  1   
 14   7  31  1   
 15   7  32  1   
 16   8  11  1   
 17   8  33  1   
 18   8  34  1   
 19   9  12  1   
 20   9  35  1   
 21   9  36  1   
 22  10  11  1   
 23  10  37  1   
 24  10  38  1   
 25  11  39  1   
 26  11  40  1   
 27  12  13  1   
 28  12  41  1   
 29  12  42  1   
 30  13  14  1   
 31  13  43  1   
 32  14  15  ar  
 33  14  16  ar  
 34  15  17  ar  
 35  16  18  ar  
 36  16  44  1   
 37  17  19  1   
 38  17  20  ar  
 39  18  20  ar  
 40  19  21  2   
 41  19  22  am  
 42  20  45  1   
 43  22  23  1   
 44  22  24  1   
 45  23  25  1   
 46  23  46  1   
 47  23  47  1   
 48  24  26  1   
 49  24  48  1   
 50  24  49  1   
 51  25  26  1   
 52  25  50  1   
 53  25  51  1   
 54  26  52  1   
 55  26  53  1   
@<TRIPOS>SUBSTRUCTURE
  1 ****  13 GROUP 4 **** **** 0

# MOE 2024.06 (io_trps.svl 2023.06)
