@<TRIPOS>MOLECULE
NONAME
55 59 1 0 0 
SMALL
USER_CHARGES


@<TRIPOS>ATOM
  1 O       -3.7480     2.6580    -2.0970 O.2   1 <1>  -0.5700 
  2 C       -3.4160     2.2770    -0.9970 C.2   1 <1>   0.5690 
  3 N       -4.2120     1.4150    -0.2780 N.am  1 <1>  -0.6600 
  4 C       -2.0690     2.7710    -0.4440 C.3   1 <1>  -0.0190 
  5 C       -3.8360     0.7090     0.9800 C.3   1 <1>   0.1400 
  6 C       -5.5640     1.0270    -0.7720 C.3   1 <1>   0.1400 
  7 C       -1.6830     4.1710    -0.9730 C.3   1 <1>  -0.1600 
  8 C       -0.9450     1.7600    -0.7530 C.3   1 <1>  -0.1600 
  9 C       -3.8180    -0.7970     0.7130 C.3   1 <1>  -0.1600 
 10 C       -5.5770    -0.4730    -1.0640 C.3   1 <1>  -0.1600 
 11 C       -0.3330     4.6410    -0.4080 C.3   1 <1>  -0.1600 
 12 C        0.4080     2.2230    -0.1900 C.3   1 <1>  -0.1600 
 13 C       -5.1620    -1.2890     0.1680 C.3   1 <1>   0.4600 
 14 C        0.7650     3.6180    -0.7080 C.3   1 <1>   0.2000 
 15 O       -6.1000    -1.0790     1.2020 O.3   1 <1>  -0.5600 
 16 C       -5.0890    -2.7760    -0.1550 C.2   1 <1>  -0.3320 
 17 O        1.9230     4.0270    -0.0860 O.3   1 <1>  -0.6800 
 18 C       -7.2890    -1.8320     1.1820 C.3   1 <1>   0.1200 
 19 N       -4.2080    -3.3810    -1.0090 N.pl3 1 <1>   0.0330 
 20 C       -5.9060    -3.7080     0.3740 C.2   1 <1>  -0.1810 
 21 C       -6.9980    -3.3330     1.3440 C.3   1 <1>   0.0210 
 22 C       -4.4740    -4.7290    -1.0080 C.ar  1 <1>  -0.1520 
 23 C       -5.5380    -4.9680    -0.1420 C.ar  1 <1>   0.0000 
 24 C       -3.8660    -5.7780    -1.7020 C.ar  1 <1>  -0.1500 
 25 C       -6.0030    -6.2740     0.0390 C.ar  1 <1>  -0.1500 
 26 C       -4.3340    -7.0580    -1.5150 C.ar  1 <1>  -0.1500 
 27 C       -5.4020    -7.3070    -0.6440 C.ar  1 <1>  -0.1500 
 28 H       -2.1660     2.8700     0.6200 H     1 <1>   0.0800 
 29 H       -4.5630     0.9360     1.7420 H     1 <1>   0.0800 
 30 H       -2.8730     1.0140     1.3400 H     1 <1>   0.0800 
 31 H       -5.8210     1.5730    -1.6630 H     1 <1>   0.0800 
 32 H       -6.2950     1.2620    -0.0170 H     1 <1>   0.0800 
 33 H       -2.4510     4.8780    -0.7110 H     1 <1>   0.0800 
 34 H       -1.6210     4.1430    -2.0490 H     1 <1>   0.0800 
 35 H       -0.8650     1.6440    -1.8220 H     1 <1>   0.0800 
 36 H       -1.1900     0.7970    -0.3410 H     1 <1>   0.0800 
 37 H       -3.5930    -1.3300     1.6190 H     1 <1>   0.0800 
 38 H       -3.0390    -1.0120     0.0060 H     1 <1>   0.0800 
 39 H       -4.8910    -0.6650    -1.8680 H     1 <1>   0.0800 
 40 H       -6.5510    -0.7770    -1.3980 H     1 <1>   0.0800 
 41 H       -0.4270     4.7760     0.6550 H     1 <1>   0.0800 
 42 H       -0.0720     5.5850    -0.8530 H     1 <1>   0.0800 
 43 H        1.1740     1.5280    -0.4880 H     1 <1>   0.0800 
 44 H        0.3540     2.2370     0.8840 H     1 <1>   0.0800 
 45 H        0.9580     3.5820    -1.7680 H     1 <1>   0.0800 
 46 H        1.7730     4.1130     0.8730 H     1 <1>   0.4000 
 47 H       -7.7950    -1.6480     0.2510 H     1 <1>   0.0800 
 48 H       -7.9110    -1.4850     1.9880 H     1 <1>   0.0800 
 49 H       -3.4760    -2.9250    -1.5610 H     1 <1>   0.2700 
 50 H       -7.8870    -3.9000     1.1380 H     1 <1>   0.0800 
 51 H       -6.6800    -3.5410     2.3490 H     1 <1>   0.0800 
 52 H       -3.0460    -5.5790    -2.3680 H     1 <1>   0.1500 
 53 H       -6.8220    -6.4500     0.7100 H     1 <1>   0.1500 
 54 H       -3.8820    -7.8830    -2.0370 H     1 <1>   0.1500 
 55 H       -5.7480    -8.3170    -0.5150 H     1 <1>   0.1500 
@<TRIPOS>BOND
  1   1   2  2   
  2   2   3  am  
  3   2   4  1   
  4   3   5  1   
  5   3   6  1   
  6   4   7  1   
  7   4   8  1   
  8   4  28  1   
  9   5   9  1   
 10   5  29  1   
 11   5  30  1   
 12   6  10  1   
 13   6  31  1   
 14   6  32  1   
 15   7  11  1   
 16   7  33  1   
 17   7  34  1   
 18   8  12  1   
 19   8  35  1   
 20   8  36  1   
 21   9  13  1   
 22   9  37  1   
 23   9  38  1   
 24  10  13  1   
 25  10  39  1   
 26  10  40  1   
 27  11  14  1   
 28  11  41  1   
 29  11  42  1   
 30  12  14  1   
 31  12  43  1   
 32  12  44  1   
 33  13  15  1   
 34  13  16  1   
 35  14  17  1   
 36  14  45  1   
 37  15  18  1   
 38  16  19  1   
 39  16  20  2   
 40  17  46  1   
 41  18  21  1   
 42  18  47  1   
 43  18  48  1   
 44  19  22  1   
 45  19  49  1   
 46  20  21  1   
 47  20  23  1   
 48  21  50  1   
 49  21  51  1   
 50  22  23  ar  
 51  22  24  ar  
 52  23  25  ar  
 53  24  26  ar  
 54  24  52  1   
 55  25  27  ar  
 56  25  53  1   
 57  26  27  ar  
 58  26  54  1   
 59  27  55  1   
@<TRIPOS>SUBSTRUCTURE
  1 ****   9 GROUP 4 **** **** 0

# MOE 2024.06 (io_trps.svl 2023.06)
