@<TRIPOS>MOLECULE
NONAME
54 57 1 0 0 
SMALL
USER_CHARGES


@<TRIPOS>ATOM
  1 O        0.3680     0.6650    -1.5760 O.2   1 <1>  -0.5700 
  2 C        0.4950     0.0190    -0.5650 C.2   1 <1>   0.5690 
  3 N        1.3020     0.4660     0.4490 N.am  1 <1>  -0.6600 
  4 C       -0.2940    -1.2710    -0.4750 C.3   1 <1>  -0.0990 
  5 C        2.0650    -0.4170     1.3800 C.3   1 <1>   0.1400 
  6 C        1.5860     1.9190     0.5810 C.3   1 <1>   0.1400 
  7 C        0.3320    -2.4010    -1.3030 C.3   1 <1>   0.0960 
  8 C        3.5300    -0.6150     0.9270 C.3   1 <1>   0.3430 
  9 C        2.7240     2.3480    -0.3510 C.3   1 <1>  -0.1600 
 10 N        1.2070    -3.2620    -0.4830 N.pl3 1 <1>   0.3140 
 11 N        4.2800     0.6480     0.6050 N.4   1 <1>  -0.9590 
 12 C        3.7560     1.2630    -0.6540 C.3   1 <1>   0.3430 
 13 N        2.5500    -3.1420    -0.4510 N.2   1 <1>  -0.7070 
 14 C        0.7930    -4.2810     0.2940 C.2   1 <1>  -0.3020 
 15 C        5.7290     0.3370     0.4480 C.3   1 <1>   0.5230 
 16 C        2.9520    -4.1110     0.3120 C.2   1 <1>   0.1080 
 17 C        1.8940    -4.8520     0.8210 C.2   1 <1>  -0.1500 
 18 C        6.5640     1.6050     0.4130 C.2   1 <1>  -0.0400 
 19 C        4.4100    -4.3970     0.5910 C.3   1 <1>  -0.0590 
 20 O        7.8070     1.4770    -0.0360 O.3   1 <1>  -0.2800 
 21 C        6.3050     2.8850     0.7550 C.2   1 <1>  -0.1500 
 22 C        8.3760     2.6820     0.0030 C.ar  1 <1>   0.1400 
 23 C        7.4810     3.6160     0.4930 C.ar  1 <1>   0.0000 
 24 C        9.6660     3.0270    -0.3740 C.ar  1 <1>  -0.1500 
 25 C        7.8780     4.9480     0.6160 C.ar  1 <1>  -0.1500 
 26 C       10.0520     4.3470    -0.2510 C.ar  1 <1>  -0.1500 
 27 C        9.1590     5.3020     0.2430 C.ar  1 <1>  -0.1500 
 28 H       -1.2630    -1.0610    -0.8890 H     1 <1>   0.0800 
 29 H       -0.4510    -1.5670     0.5460 H     1 <1>   0.0800 
 30 H        1.5980    -1.3830     1.4470 H     1 <1>   0.0800 
 31 H        2.0480     0.0050     2.3690 H     1 <1>   0.0800 
 32 H        1.8380     2.1440     1.6030 H     1 <1>   0.0800 
 33 H        0.6970     2.4800     0.3380 H     1 <1>   0.0800 
 34 H        0.9000    -2.0030    -2.1250 H     1 <1>   0.0800 
 35 H       -0.4460    -3.0220    -1.7080 H     1 <1>   0.0800 
 36 H        3.5340    -1.2330     0.0480 H     1 <1>   0.0800 
 37 H        4.0460    -1.1590     1.7000 H     1 <1>   0.0800 
 38 H        3.2040     3.2240     0.0440 H     1 <1>   0.0800 
 39 H        2.2850     2.6410    -1.2890 H     1 <1>   0.0800 
 40 H        4.1820     1.3200     1.3710 H     1 <1>   0.4500 
 41 H        4.5600     1.7050    -1.2200 H     1 <1>   0.0800 
 42 H        3.2980     0.5020    -1.2680 H     1 <1>   0.0800 
 43 H       -0.2400    -4.5500     0.4180 H     1 <1>   0.1500 
 44 H        5.8850    -0.2120    -0.4670 H     1 <1>   0.0800 
 45 H        6.0710    -0.2750     1.2660 H     1 <1>   0.0800 
 46 H        1.9630    -5.7000     1.4800 H     1 <1>   0.1500 
 47 H        4.9840    -4.2560    -0.3070 H     1 <1>   0.0800 
 48 H        4.5300    -5.4140     0.9170 H     1 <1>   0.0800 
 49 H        4.7760    -3.7390     1.3550 H     1 <1>   0.0800 
 50 H        5.4180     3.3410     1.1550 H     1 <1>   0.1500 
 51 H       10.3360     2.2750    -0.7500 H     1 <1>   0.1500 
 52 H        7.1900     5.6820     0.9960 H     1 <1>   0.1500 
 53 H       11.0460     4.6490    -0.5340 H     1 <1>   0.1500 
 54 H        9.4830     6.3260     0.3310 H     1 <1>   0.1500 
@<TRIPOS>BOND
  1   1   2  2   
  2   2   3  am  
  3   2   4  1   
  4   3   5  1   
  5   3   6  1   
  6   4   7  1   
  7   4  28  1   
  8   4  29  1   
  9   5   8  1   
 10   5  30  1   
 11   5  31  1   
 12   6   9  1   
 13   6  32  1   
 14   6  33  1   
 15   7  10  1   
 16   7  34  1   
 17   7  35  1   
 18   8  11  1   
 19   8  36  1   
 20   8  37  1   
 21   9  12  1   
 22   9  38  1   
 23   9  39  1   
 24  10  13  1   
 25  10  14  1   
 26  11  12  1   
 27  11  15  1   
 28  11  40  1   
 29  12  41  1   
 30  12  42  1   
 31  13  16  2   
 32  14  17  2   
 33  14  43  1   
 34  15  18  1   
 35  15  44  1   
 36  15  45  1   
 37  16  17  1   
 38  16  19  1   
 39  17  46  1   
 40  18  20  1   
 41  18  21  2   
 42  19  47  1   
 43  19  48  1   
 44  19  49  1   
 45  20  22  1   
 46  21  23  1   
 47  21  50  1   
 48  22  23  ar  
 49  22  24  ar  
 50  23  25  ar  
 51  24  26  ar  
 52  24  51  1   
 53  25  27  ar  
 54  25  52  1   
 55  26  27  ar  
 56  26  53  1   
 57  27  54  1   
@<TRIPOS>SUBSTRUCTURE
  1 ****  11 GROUP 4 **** **** 0

# MOE 2024.06 (io_trps.svl 2023.06)
