@<TRIPOS>MOLECULE
NONAME
49 50 1 0 0 
SMALL
USER_CHARGES


@<TRIPOS>ATOM
  1 O        0.4010    -0.5300    -1.3270 O.2   1 <1>  -0.5700 
  2 C        1.4060    -0.9450    -0.8010 C.2   1 <1>   0.5690 
  3 N        2.5620    -0.2010    -0.7960 N.am  1 <1>  -0.6600 
  4 C        1.3690    -2.3140    -0.1280 C.3   1 <1>  -0.0990 
  5 C        2.6250     1.1230    -1.4900 C.3   1 <1>   0.1400 
  6 C        3.8150    -0.5550    -0.0720 C.3   1 <1>   0.1400 
  7 C        0.0440    -3.0830    -0.3040 C.3   1 <1>  -0.1600 
  8 C        2.9040     2.2370    -0.4730 C.3   1 <1>   0.1200 
  9 C        4.1150     0.5270     0.9730 C.3   1 <1>  -0.1600 
 10 C        0.0880    -4.4540     0.3810 C.3   1 <1>  -0.0160 
 11 C        3.0270     3.5420    -1.1820 C.1   1 <1>   0.3570 
 12 C        4.1780     1.9290     0.3420 C.3   1 <1>  -0.1600 
 13 C       -1.2270    -5.1920     0.1910 C.ar  1 <1>  -0.1440 
 14 N        3.1360     4.5330    -1.7300 N.1   1 <1>  -0.5570 
 15 C       -2.2440    -5.0640     1.1240 C.ar  1 <1>  -0.1500 
 16 C       -1.4220    -5.9990    -0.9170 C.ar  1 <1>  -0.1500 
 17 C       -3.4460    -5.7350     0.9630 C.ar  1 <1>  -0.1440 
 18 C       -2.6170    -6.6740    -1.0900 C.ar  1 <1>  -0.1500 
 19 C       -3.6370    -6.5480    -0.1500 C.ar  1 <1>   0.0820 
 20 C       -4.5460    -5.5770     2.0030 C.3   1 <1>  -0.0970 
 21 O       -4.8320    -7.1880    -0.2660 O.3   1 <1>  -0.3630 
 22 C       -5.1260    -8.0120    -1.3690 C.3   1 <1>   0.1200 
 23 C       -6.5400    -8.5540    -1.1880 C.3   1 <1>  -0.2400 
 24 H        1.5500    -2.1740     0.9210 H     1 <1>   0.0800 
 25 H        2.1650    -2.9080    -0.5380 H     1 <1>   0.0800 
 26 H        1.7020     1.3300    -2.0050 H     1 <1>   0.0800 
 27 H        3.4100     1.0930    -2.2260 H     1 <1>   0.0800 
 28 H        4.6240    -0.6120    -0.7810 H     1 <1>   0.0800 
 29 H        3.7360    -1.5090     0.4150 H     1 <1>   0.0800 
 30 H       -0.1560    -3.2150    -1.3540 H     1 <1>   0.0800 
 31 H       -0.7640    -2.5040     0.1100 H     1 <1>   0.0800 
 32 H        2.0610     2.3040     0.1920 H     1 <1>   0.0800 
 33 H        5.0520     0.3070     1.4530 H     1 <1>   0.0800 
 34 H        3.3480     0.5020     1.7280 H     1 <1>   0.0800 
 35 H        0.2790    -4.3310     1.4330 H     1 <1>   0.0800 
 36 H        0.8890    -5.0430    -0.0300 H     1 <1>   0.0800 
 37 H        4.3010     2.6690     1.1150 H     1 <1>   0.0800 
 38 H        5.0370     1.9840    -0.3060 H     1 <1>   0.0800 
 39 H       -2.0970    -4.4330     1.9820 H     1 <1>   0.1500 
 40 H       -0.6430    -6.1030    -1.6510 H     1 <1>   0.1500 
 41 H       -2.7310    -7.2900    -1.9600 H     1 <1>   0.1500 
 42 H       -4.2470    -4.9080     2.7890 H     1 <1>   0.0800 
 43 H       -4.7770    -6.5340     2.4330 H     1 <1>   0.0800 
 44 H       -5.4320    -5.1850     1.5360 H     1 <1>   0.0800 
 45 H       -4.4100    -8.8160    -1.3930 H     1 <1>   0.0800 
 46 H       -5.0560    -7.4190    -2.2640 H     1 <1>   0.0800 
 47 H       -6.6020    -9.1280    -0.2820 H     1 <1>   0.0800 
 48 H       -6.7960    -9.1890    -2.0170 H     1 <1>   0.0800 
 49 H       -7.2430    -7.7410    -1.1480 H     1 <1>   0.0800 
@<TRIPOS>BOND
  1   1   2  2   
  2   2   3  am  
  3   2   4  1   
  4   3   5  1   
  5   3   6  1   
  6   4   7  1   
  7   4  24  1   
  8   4  25  1   
  9   5   8  1   
 10   5  26  1   
 11   5  27  1   
 12   6   9  1   
 13   6  28  1   
 14   6  29  1   
 15   7  10  1   
 16   7  30  1   
 17   7  31  1   
 18   8  11  1   
 19   8  12  1   
 20   8  32  1   
 21   9  12  1   
 22   9  33  1   
 23   9  34  1   
 24  10  13  1   
 25  10  35  1   
 26  10  36  1   
 27  11  14  3   
 28  12  37  1   
 29  12  38  1   
 30  13  15  ar  
 31  13  16  ar  
 32  15  17  ar  
 33  15  39  1   
 34  16  18  ar  
 35  16  40  1   
 36  17  19  ar  
 37  17  20  1   
 38  18  19  ar  
 39  18  41  1   
 40  19  21  1   
 41  20  42  1   
 42  20  43  1   
 43  20  44  1   
 44  21  22  1   
 45  22  23  1   
 46  22  45  1   
 47  22  46  1   
 48  23  47  1   
 49  23  48  1   
 50  23  49  1   
@<TRIPOS>SUBSTRUCTURE
  1 ****   7 GROUP 4 **** **** 0

# MOE 2024.06 (io_trps.svl 2023.06)
