@<TRIPOS>MOLECULE
NONAME
51 54 1 0 0 
SMALL
USER_CHARGES


@<TRIPOS>ATOM
  1 O        1.4130     0.2780     2.3670 O.2   1 <1>  -0.5700 
  2 C        1.7240     0.6800     1.2600 C.2   1 <1>   0.5440 
  3 N        1.1170     1.8200     0.7820 N.am  1 <1>  -0.6600 
  4 C        2.7130    -0.0120     0.4770 C.ar  1 <1>   0.0860 
  5 C        0.0660     2.5420     1.5290 C.3   1 <1>   0.1400 
  6 C        1.2970     2.3830    -0.5740 C.3   1 <1>   0.1400 
  7 C        2.4630    -1.2640    -0.1250 C.ar  1 <1>   0.4100 
  8 C        3.9680     0.5570     0.3090 C.ar  1 <1>  -0.1500 
  9 C       -0.3250     3.7080     0.6260 C.3   1 <1>  -0.1600 
 10 C        0.0710     3.2640    -0.7810 C.3   1 <1>  -0.1600 
 11 N        3.3830    -1.9260    -0.8270 N.ar  1 <1>  -0.6200 
 12 N        1.2520    -1.9250    -0.0410 N.pl3 1 <1>  -0.8380 
 13 C        4.9040    -0.1290    -0.4280 C.ar  1 <1>  -0.1500 
 14 C        4.5620    -1.3560    -0.9660 C.ar  1 <1>   0.1600 
 15 C        1.2320    -3.2800     0.5910 C.3   1 <1>   0.3900 
 16 C       -0.0770    -1.2480    -0.1920 C.3   1 <1>   0.2090 
 17 C       -0.0230    -4.0410     0.1900 C.2   1 <1>  -0.1810 
 18 C       -1.0610    -2.0960    -1.0180 C.3   1 <1>   0.0200 
 19 C       -1.0440    -3.5280    -0.5200 C.2   1 <1>  -0.3320 
 20 C       -0.3900    -5.3590     0.4390 C.2   1 <1>   0.1080 
 21 N       -1.9580    -4.5070    -0.6820 N.pl3 1 <1>   0.3140 
 22 N       -1.5530    -5.6440    -0.0810 N.2   1 <1>  -0.7070 
 23 C        0.4480    -6.3660     1.2170 C.3   1 <1>   0.3010 
 24 C       -3.2410    -4.4270    -1.4080 C.3   1 <1>   0.0960 
 25 O       -0.3920    -7.3890     1.6070 O.3   1 <1>  -0.6800 
 26 C       -4.3670    -3.9360    -0.4900 C.3   1 <1>  -0.2400 
 27 H        0.4410     2.8810     2.4800 H     1 <1>   0.0800 
 28 H       -0.7700     1.8820     1.6870 H     1 <1>   0.0800 
 29 H        1.3600     1.6090    -1.3200 H     1 <1>   0.0800 
 30 H        2.1930     2.9800    -0.5900 H     1 <1>   0.0800 
 31 H        4.1950     1.5100     0.7550 H     1 <1>   0.1500 
 32 H        0.2460     4.5740     0.9100 H     1 <1>   0.0800 
 33 H       -1.3720     3.9400     0.7050 H     1 <1>   0.0800 
 34 H       -0.7170     2.6720    -1.2130 H     1 <1>   0.0800 
 35 H        0.2810     4.0960    -1.4300 H     1 <1>   0.0800 
 36 H        5.8890     0.2740    -0.5830 H     1 <1>   0.1500 
 37 H        5.2980    -1.8930    -1.5390 H     1 <1>   0.1500 
 38 H        1.2570    -3.1650     1.6610 H     1 <1>   0.0800 
 39 H        2.0990    -3.8380     0.2840 H     1 <1>   0.0800 
 40 H        0.0490    -0.2940    -0.6710 H     1 <1>   0.0800 
 41 H       -0.4900    -1.0850     0.7890 H     1 <1>   0.0800 
 42 H       -0.7680    -2.0720    -2.0520 H     1 <1>   0.0800 
 43 H       -2.0450    -1.6750    -0.9290 H     1 <1>   0.0800 
 44 H        0.8790    -5.9250     2.0970 H     1 <1>   0.0800 
 45 H        1.2160    -6.7810     0.5890 H     1 <1>   0.0800 
 46 H       -3.4730    -5.4090    -1.7810 H     1 <1>   0.0800 
 47 H       -3.1200    -3.7650    -2.2450 H     1 <1>   0.0800 
 48 H       -1.2200    -7.2260     1.0930 H     1 <1>   0.4000 
 49 H       -4.4850    -4.6130     0.3370 H     1 <1>   0.0800 
 50 H       -5.2930    -3.8970    -1.0360 H     1 <1>   0.0800 
 51 H       -4.1450    -2.9530    -0.1150 H     1 <1>   0.0800 
@<TRIPOS>BOND
  1   1   2  2   
  2   2   3  am  
  3   2   4  1   
  4   3   5  1   
  5   3   6  1   
  6   4   7  ar  
  7   4   8  ar  
  8   5   9  1   
  9   5  27  1   
 10   5  28  1   
 11   6  10  1   
 12   6  29  1   
 13   6  30  1   
 14   7  11  ar  
 15   7  12  1   
 16   8  13  ar  
 17   8  31  1   
 18   9  10  1   
 19   9  32  1   
 20   9  33  1   
 21  10  34  1   
 22  10  35  1   
 23  11  14  ar  
 24  12  15  1   
 25  12  16  1   
 26  13  14  ar  
 27  13  36  1   
 28  14  37  1   
 29  15  17  1   
 30  15  38  1   
 31  15  39  1   
 32  16  18  1   
 33  16  40  1   
 34  16  41  1   
 35  17  19  2   
 36  17  20  1   
 37  18  19  1   
 38  18  42  1   
 39  18  43  1   
 40  19  21  1   
 41  20  22  2   
 42  20  23  1   
 43  21  22  1   
 44  21  24  1   
 45  23  25  1   
 46  23  44  1   
 47  23  45  1   
 48  24  26  1   
 49  24  46  1   
 50  24  47  1   
 51  25  48  1   
 52  26  49  1   
 53  26  50  1   
 54  26  51  1   
@<TRIPOS>SUBSTRUCTURE
  1 ****  12 GROUP 4 **** **** 0

# MOE 2024.06 (io_trps.svl 2023.06)
