@<TRIPOS>MOLECULE
NONAME
37 38 1 0 0 
SMALL
USER_CHARGES


@<TRIPOS>ATOM
  1 O       -2.6710    -0.7280    -2.5620 O.2   1 <1>  -0.5700 
  2 C       -3.0750    -1.3030    -1.5570 C.2   1 <1>   0.5410 
  3 C       -2.5770    -2.5740    -1.1790 C.2   1 <1>  -0.1360 
  4 C       -4.0650    -0.7270    -0.7230 C.2   1 <1>  -0.1360 
  5 C       -3.0550    -3.2110    -0.0780 C.2   1 <1>  -0.0500 
  6 C       -4.5260    -1.3860     0.3720 C.2   1 <1>  -0.0500 
  7 N       -4.0440    -2.6380     0.6970 N.pl3 1 <1>  -0.5690 
  8 C       -4.5830    -3.3760     1.8950 C.3   1 <1>   0.2700 
  9 C       -4.8620    -4.8680     1.6590 C.2   1 <1>   0.5690 
 10 O       -4.2370    -5.6490     2.3400 O.2   1 <1>  -0.5700 
 11 N       -5.7780    -5.3110     0.7280 N.am  1 <1>  -0.6600 
 12 C       -5.9570    -6.7740     0.4600 C.3   1 <1>   0.1400 
 13 C       -6.5570    -4.4250    -0.1830 C.3   1 <1>   0.1400 
 14 C       -7.4440    -7.1560     0.4840 C.3   1 <1>   0.2000 
 15 C       -8.0450    -4.7860    -0.1240 C.3   1 <1>  -0.1600 
 16 O       -7.5790    -8.4840     0.1070 O.3   1 <1>  -0.6800 
 17 C       -8.2920    -6.2740    -0.4520 C.3   1 <1>  -0.0800 
 18 C       -9.7790    -6.6550    -0.3490 C.3   1 <1>   0.1200 
 19 O      -10.5260    -5.8700    -1.2130 O.3   1 <1>  -0.6800 
 20 H       -1.8120    -2.9970    -1.8000 H     1 <1>   0.1500 
 21 H       -4.4220     0.2450    -1.0030 H     1 <1>   0.1500 
 22 H       -2.6760    -4.1780     0.2170 H     1 <1>   0.1500 
 23 H       -5.2760    -0.9490     1.0120 H     1 <1>   0.1500 
 24 H       -3.8680    -3.2890     2.6920 H     1 <1>   0.0800 
 25 H       -5.4950    -2.9130     2.2230 H     1 <1>   0.0800 
 26 H       -5.5400    -6.9950    -0.5060 H     1 <1>   0.0800 
 27 H       -5.4370    -7.3600     1.1980 H     1 <1>   0.0800 
 28 H       -6.4420    -3.3920     0.0860 H     1 <1>   0.0800 
 29 H       -6.1880    -4.5470    -1.1880 H     1 <1>   0.0800 
 30 H       -7.8030    -7.0760     1.4960 H     1 <1>   0.0800 
 31 H       -8.4210    -4.5570     0.8580 H     1 <1>   0.0800 
 32 H       -8.5650    -4.1640    -0.8310 H     1 <1>   0.0800 
 33 H       -7.3270    -8.6060    -0.8280 H     1 <1>   0.4000 
 34 H       -7.9680    -6.4530    -1.4630 H     1 <1>   0.0800 
 35 H      -10.1530    -6.5140     0.6510 H     1 <1>   0.0800 
 36 H       -9.9300    -7.6830    -0.6350 H     1 <1>   0.0800 
 37 H      -10.5640    -4.9480    -0.8960 H     1 <1>   0.4000 
@<TRIPOS>BOND
  1   1   2  2   
  2   2   3  1   
  3   2   4  1   
  4   3   5  2   
  5   3  20  1   
  6   4   6  2   
  7   4  21  1   
  8   5   7  1   
  9   5  22  1   
 10   6   7  1   
 11   6  23  1   
 12   7   8  1   
 13   8   9  1   
 14   8  24  1   
 15   8  25  1   
 16   9  10  2   
 17   9  11  am  
 18  11  12  1   
 19  11  13  1   
 20  12  14  1   
 21  12  26  1   
 22  12  27  1   
 23  13  15  1   
 24  13  28  1   
 25  13  29  1   
 26  14  16  1   
 27  14  17  1   
 28  14  30  1   
 29  15  17  1   
 30  15  31  1   
 31  15  32  1   
 32  16  33  1   
 33  17  18  1   
 34  17  34  1   
 35  18  19  1   
 36  18  35  1   
 37  18  36  1   
 38  19  37  1   
@<TRIPOS>SUBSTRUCTURE
  1 ****  13 GROUP 4 **** **** 0

# MOE 2024.06 (io_trps.svl 2023.06)
