@<TRIPOS>MOLECULE
NONAME
61 65 1 0 0 
SMALL
USER_CHARGES


@<TRIPOS>ATOM
  1 O        1.4970    -0.3700    -1.6600 O.2   1 <1>  -0.5700 
  2 C        1.3770    -1.4050    -1.0480 C.2   1 <1>   0.5690 
  3 N        2.2740    -2.4300    -1.2490 N.am  1 <1>  -0.6600 
  4 C        0.2320    -1.4560    -0.0580 C.3   1 <1>  -0.0990 
  5 C        2.2920    -3.7320    -0.4930 C.3   1 <1>   0.1400 
  6 C        3.1760    -2.4390    -2.4630 C.3   1 <1>   0.1400 
  7 C       -0.2230    -2.8510     0.3510 C.3   1 <1>   0.1200 
  8 C        1.9690    -3.6900     1.0340 C.3   1 <1>   0.2800 
  9 C        4.0670    -1.1850    -2.5810 C.3   1 <1>   0.3430 
 10 O        0.6320    -3.3770     1.3170 O.3   1 <1>  -0.5600 
 11 C        2.1590    -5.0980     1.6250 C.3   1 <1>  -0.1600 
 12 C        2.8470    -2.6790     1.8170 C.3   1 <1>  -0.1600 
 13 N        4.4740    -0.7190    -1.2280 N.4   1 <1>  -0.9590 
 14 C        3.6120    -5.5850     1.5330 C.3   1 <1>   0.2090 
 15 C        4.0960    -3.2960     2.4640 C.3   1 <1>   0.2090 
 16 C        4.3850     0.7620    -1.0560 C.3   1 <1>   0.3430 
 17 C        5.7450    -1.2950    -0.6830 C.3   1 <1>   0.3430 
 18 N        4.5530    -4.4360     1.6350 N.pl3 1 <1>  -0.8220 
 19 C        4.5730     1.1500     0.4300 C.3   1 <1>   0.1200 
 20 C        6.1900    -0.5590     0.6020 C.3   1 <1>   0.1200 
 21 C        5.7200    -4.4050     0.9170 C.2   1 <1>   0.5620 
 22 O        5.1020     0.0960     1.1970 O.3   1 <1>  -0.5600 
 23 O        6.7640    -3.7480     1.4060 O.3   1 <1>  -0.2800 
 24 N        5.9020    -4.9320    -0.2450 N.2   1 <1>  -0.5650 
 25 C        7.7160    -3.8910     0.5050 C.ar  1 <1>   0.1400 
 26 C        7.1920    -4.6280    -0.5270 C.ar  1 <1>   0.2270 
 27 C        9.0170    -3.4130     0.4980 C.ar  1 <1>  -0.1500 
 28 C        7.9810    -4.9190    -1.6340 C.ar  1 <1>  -0.1500 
 29 C        9.7990    -3.6990    -0.6060 C.ar  1 <1>  -0.1500 
 30 C        9.2820    -4.4490    -1.6670 C.ar  1 <1>  -0.1500 
 31 H       -0.6040    -0.9660    -0.5220 H     1 <1>   0.0800 
 32 H        0.4860    -0.8870     0.8170 H     1 <1>   0.0800 
 33 H        3.2780    -4.1420    -0.5940 H     1 <1>   0.0800 
 34 H        1.6310    -4.4300    -0.9760 H     1 <1>   0.0800 
 35 H        2.5690    -2.5190    -3.3490 H     1 <1>   0.0800 
 36 H        3.8180    -3.3030    -2.4410 H     1 <1>   0.0800 
 37 H       -0.3000    -3.5240    -0.4860 H     1 <1>   0.0800 
 38 H       -1.1940    -2.7830     0.8110 H     1 <1>   0.0800 
 39 H        3.4810    -0.4160    -3.0580 H     1 <1>   0.0800 
 40 H        4.9260    -1.3830    -3.2010 H     1 <1>   0.0800 
 41 H        1.5200    -5.8030     1.1250 H     1 <1>   0.0800 
 42 H        1.8730    -5.0830     2.6620 H     1 <1>   0.0800 
 43 H        2.2680    -2.2360     2.6070 H     1 <1>   0.0800 
 44 H        3.1610    -1.8800     1.1780 H     1 <1>   0.0800 
 45 H        3.7220    -1.0830    -0.6170 H     1 <1>   0.4500 
 46 H        3.7640    -6.0970     0.5970 H     1 <1>   0.0800 
 47 H        3.8140    -6.2850     2.3260 H     1 <1>   0.0800 
 48 H        3.8560    -3.6610     3.4480 H     1 <1>   0.0800 
 49 H        4.8680    -2.5520     2.5660 H     1 <1>   0.0800 
 50 H        3.4260     1.1210    -1.3960 H     1 <1>   0.0800 
 51 H        5.1460     1.2450    -1.6470 H     1 <1>   0.0800 
 52 H        6.5330    -1.2320    -1.4140 H     1 <1>   0.0800 
 53 H        5.5920    -2.3360    -0.4580 H     1 <1>   0.0800 
 54 H        3.6230     1.4150     0.8610 H     1 <1>   0.0800 
 55 H        5.2280     2.0000     0.5170 H     1 <1>   0.0800 
 56 H        6.9480     0.1710     0.3790 H     1 <1>   0.0800 
 57 H        6.5950    -1.2510     1.3170 H     1 <1>   0.0800 
 58 H        9.3940    -2.8470     1.3320 H     1 <1>   0.1500 
 59 H        7.5700    -5.5040    -2.4370 H     1 <1>   0.1500 
 60 H       10.8180    -3.3510    -0.6520 H     1 <1>   0.1500 
 61 H        9.9120    -4.6670    -2.5140 H     1 <1>   0.1500 
@<TRIPOS>BOND
  1   1   2  2   
  2   2   3  am  
  3   2   4  1   
  4   3   5  1   
  5   3   6  1   
  6   4   7  1   
  7   4  31  1   
  8   4  32  1   
  9   5   8  1   
 10   5  33  1   
 11   5  34  1   
 12   6   9  1   
 13   6  35  1   
 14   6  36  1   
 15   7  10  1   
 16   7  37  1   
 17   7  38  1   
 18   8  10  1   
 19   8  11  1   
 20   8  12  1   
 21   9  13  1   
 22   9  39  1   
 23   9  40  1   
 24  11  14  1   
 25  11  41  1   
 26  11  42  1   
 27  12  15  1   
 28  12  43  1   
 29  12  44  1   
 30  13  16  1   
 31  13  17  1   
 32  13  45  1   
 33  14  18  1   
 34  14  46  1   
 35  14  47  1   
 36  15  18  1   
 37  15  48  1   
 38  15  49  1   
 39  16  19  1   
 40  16  50  1   
 41  16  51  1   
 42  17  20  1   
 43  17  52  1   
 44  17  53  1   
 45  18  21  1   
 46  19  22  1   
 47  19  54  1   
 48  19  55  1   
 49  20  22  1   
 50  20  56  1   
 51  20  57  1   
 52  21  23  1   
 53  21  24  2   
 54  23  25  1   
 55  24  26  1   
 56  25  26  ar  
 57  25  27  ar  
 58  26  28  ar  
 59  27  29  ar  
 60  27  58  1   
 61  28  30  ar  
 62  28  59  1   
 63  29  30  ar  
 64  29  60  1   
 65  30  61  1   
@<TRIPOS>SUBSTRUCTURE
  1 ****  17 GROUP 4 **** **** 0

# MOE 2024.06 (io_trps.svl 2023.06)
