@<TRIPOS>MOLECULE
NONAME
46 48 1 0 0 
SMALL
USER_CHARGES


@<TRIPOS>ATOM
  1 O        4.0850    -0.2850     1.1790 O.2   1 <1>  -0.5700 
  2 C        3.0860    -0.6810     0.6050 C.2   1 <1>   0.7160 
  3 N        2.5980     0.1290    -0.3900 N.am  1 <1>  -0.6600 
  4 C        2.5600    -2.0020     0.8390 C.2   1 <1>  -0.0860 
  5 C        2.9120    -0.2250    -1.8060 C.3   1 <1>   0.1400 
  6 C        2.2840     1.5620    -0.1290 C.3   1 <1>   0.1400 
  7 C        1.2830    -2.5090     0.5590 C.2   1 <1>   0.1080 
  8 C        3.1980    -3.0750     1.3840 C.2   1 <1>  -0.3020 
  9 C        4.4260    -0.1060    -2.0980 C.3   1 <1>   0.3430 
 10 C        3.5310     2.4620    -0.1330 C.3   1 <1>  -0.1600 
 11 N        1.1620    -3.7570     0.8710 N.2   1 <1>  -0.7070 
 12 C        0.1110    -1.7450    -0.0220 C.3   1 <1>  -0.0590 
 13 N        2.3450    -4.1070     1.3910 N.pl3 1 <1>   0.3140 
 14 N        5.0970     0.9090    -1.2220 N.4   1 <1>  -0.9590 
 15 C        4.4890     2.2650    -1.3100 C.3   1 <1>   0.3430 
 16 C        2.5850    -5.4630     1.8960 C.3   1 <1>   0.0160 
 17 C        6.5960     0.9140    -1.3590 C.3   1 <1>   0.5240 
 18 C        7.3100     1.5930    -0.1870 C.2   1 <1>   0.3350 
 19 N        8.0500     0.9800     0.6460 N.2   1 <1>  -0.4100 
 20 N        7.2090     2.8960     0.0550 N.2   1 <1>  -0.5650 
 21 O        8.4820     1.8610     1.4960 O.3   1 <1>  -0.0190 
 22 C        7.9460     2.9840     1.0900 C.2   1 <1>   0.2980 
 23 C        8.2410     4.2500     1.8620 C.3   1 <1>  -0.0600 
 24 H        2.3650     0.4220    -2.4690 H     1 <1>   0.0800 
 25 H        2.5910    -1.2340    -2.0070 H     1 <1>   0.0800 
 26 H        1.7990     1.6420     0.8310 H     1 <1>   0.0800 
 27 H        1.5820     1.9060    -0.8710 H     1 <1>   0.0800 
 28 H        4.2030    -3.1360     1.7610 H     1 <1>   0.1500 
 29 H        4.5730     0.1360    -3.1380 H     1 <1>   0.0800 
 30 H        4.8740    -1.0700    -1.9200 H     1 <1>   0.0800 
 31 H        4.0710     2.3360     0.7890 H     1 <1>   0.0800 
 32 H        3.1960     3.4840    -0.1440 H     1 <1>   0.0800 
 33 H        0.0290    -0.7800     0.4410 H     1 <1>   0.0800 
 34 H       -0.8000    -2.2880     0.1600 H     1 <1>   0.0800 
 35 H        0.2350    -1.6300    -1.0810 H     1 <1>   0.0800 
 36 H        4.9040     0.5990    -0.2420 H     1 <1>   0.4500 
 37 H        5.2550     3.0210    -1.2610 H     1 <1>   0.0800 
 38 H        3.9630     2.3840    -2.2440 H     1 <1>   0.0800 
 39 H        3.5960    -5.5470     2.2470 H     1 <1>   0.0800 
 40 H        2.4120    -6.1650     1.1020 H     1 <1>   0.0800 
 41 H        1.9020    -5.6580     2.7020 H     1 <1>   0.0800 
 42 H        6.8800     1.4110    -2.2700 H     1 <1>   0.0800 
 43 H        6.9530    -0.1010    -1.4050 H     1 <1>   0.0800 
 44 H        7.7380     5.0860     1.4100 H     1 <1>   0.0800 
 45 H        9.2990     4.4370     1.8620 H     1 <1>   0.0800 
 46 H        7.9020     4.1440     2.8760 H     1 <1>   0.0800 
@<TRIPOS>BOND
  1   1   2  2   
  2   2   3  am  
  3   2   4  1   
  4   3   5  1   
  5   3   6  1   
  6   4   7  1   
  7   4   8  2   
  8   5   9  1   
  9   5  24  1   
 10   5  25  1   
 11   6  10  1   
 12   6  26  1   
 13   6  27  1   
 14   7  11  2   
 15   7  12  1   
 16   8  13  1   
 17   8  28  1   
 18   9  14  1   
 19   9  29  1   
 20   9  30  1   
 21  10  15  1   
 22  10  31  1   
 23  10  32  1   
 24  11  13  1   
 25  12  33  1   
 26  12  34  1   
 27  12  35  1   
 28  13  16  1   
 29  14  15  1   
 30  14  17  1   
 31  14  36  1   
 32  15  37  1   
 33  15  38  1   
 34  16  39  1   
 35  16  40  1   
 36  16  41  1   
 37  17  18  1   
 38  17  42  1   
 39  17  43  1   
 40  18  19  2   
 41  18  20  1   
 42  19  21  1   
 43  20  22  2   
 44  21  22  1   
 45  22  23  1   
 46  23  44  1   
 47  23  45  1   
 48  23  46  1   
@<TRIPOS>SUBSTRUCTURE
  1 ****   1 GROUP 4 **** **** 0

# MOE 2024.06 (io_trps.svl 2023.06)
