@<TRIPOS>MOLECULE
NONAME
46 48 1 0 0 
SMALL
USER_CHARGES


@<TRIPOS>ATOM
  1 CL      -0.6340     0.2230     0.2680 Cl    1 <1>  -0.1770 
  2 C       -2.1280    -0.6580     0.0250 C.ar  1 <1>   0.1770 
  3 C       -2.1100    -2.0000    -0.3370 C.ar  1 <1>   0.0830 
  4 C       -3.3200     0.0160     0.2000 C.ar  1 <1>  -0.1500 
  5 O       -0.9530    -2.6810    -0.5160 O.3   1 <1>  -0.3630 
  6 C       -3.3110    -2.6600    -0.5390 C.ar  1 <1>  -0.1500 
  7 C       -4.5290    -0.6430     0.0120 C.ar  1 <1>   0.1170 
  8 C       -0.3370    -3.1600     0.6570 C.3   1 <1>   0.0400 
  9 C       -4.5070    -1.9850    -0.3640 C.ar  1 <1>  -0.1500 
 10 N       -5.7260     0.0680     0.1840 N.am  1 <1>  -0.5470 
 11 C       -6.9660    -0.3570     0.5640 C.2   1 <1>   0.6900 
 12 O       -7.1320    -1.4930     0.9690 O.2   1 <1>  -0.5700 
 13 N       -8.0200     0.5220     0.5060 N.am  1 <1>  -0.6600 
 14 C       -9.3480     0.1670     1.0930 C.3   1 <1>   0.1400 
 15 C       -8.0360     1.7920    -0.2720 C.3   1 <1>   0.1400 
 16 C      -10.4300     0.0280    -0.0070 C.3   1 <1>   0.0000 
 17 C       -9.0910     1.7110    -1.3820 C.3   1 <1>  -0.1600 
 18 C      -11.8150    -0.3190     0.5790 C.3   1 <1>   0.2000 
 19 C      -10.4770     1.3300    -0.8350 C.3   1 <1>  -0.1600 
 20 C      -10.1520    -1.2060    -0.8850 C.3   1 <1>  -0.1600 
 21 O      -12.0630     0.3000     1.7920 O.3   1 <1>  -0.6800 
 22 C      -11.8590    -1.8400     0.7460 C.3   1 <1>  -0.1600 
 23 C      -10.7060    -2.3960    -0.0980 C.3   1 <1>  -0.1600 
 24 H       -3.3010     1.0500     0.4850 H     1 <1>   0.1500 
 25 H       -3.3060    -3.6940    -0.8320 H     1 <1>   0.1500 
 26 H        0.5520    -3.6950     0.3750 H     1 <1>   0.0800 
 27 H       -1.0200    -3.8180     1.1650 H     1 <1>   0.0800 
 28 H       -0.0790    -2.3270     1.2870 H     1 <1>   0.0800 
 29 H       -5.4340    -2.5070    -0.5240 H     1 <1>   0.1500 
 30 H       -5.6560     1.0770     0.1360 H     1 <1>   0.3700 
 31 H       -9.2790    -0.7440     1.6620 H     1 <1>   0.0800 
 32 H       -9.6260     0.9510     1.7750 H     1 <1>   0.0800 
 33 H       -8.2750     2.6040     0.3940 H     1 <1>   0.0800 
 34 H       -7.0770     1.9920    -0.7150 H     1 <1>   0.0800 
 35 H       -9.1530     2.6620    -1.8810 H     1 <1>   0.0800 
 36 H       -8.7730     0.9850    -2.1100 H     1 <1>   0.0800 
 37 H      -12.5860    -0.0130    -0.1090 H     1 <1>   0.0800 
 38 H      -11.1700     1.2270    -1.6520 H     1 <1>   0.0800 
 39 H      -10.8350     2.1270    -0.2050 H     1 <1>   0.0800 
 40 H      -10.6950    -1.1230    -1.8110 H     1 <1>   0.0800 
 41 H       -9.1090    -1.3370    -1.1140 H     1 <1>   0.0800 
 42 H      -11.5350    -0.1250     2.4940 H     1 <1>   0.4000 
 43 H      -11.7330    -2.1360     1.7730 H     1 <1>   0.0800 
 44 H      -12.8000    -2.2140     0.3830 H     1 <1>   0.0800 
 45 H       -9.9350    -2.7820     0.5490 H     1 <1>   0.0800 
 46 H      -11.0310    -3.1840    -0.7550 H     1 <1>   0.0800 
@<TRIPOS>BOND
  1   1   2  1   
  2   2   3  ar  
  3   2   4  ar  
  4   3   5  1   
  5   3   6  ar  
  6   4   7  ar  
  7   4  24  1   
  8   5   8  1   
  9   6   9  ar  
 10   6  25  1   
 11   7   9  ar  
 12   7  10  1   
 13   8  26  1   
 14   8  27  1   
 15   8  28  1   
 16   9  29  1   
 17  10  11  am  
 18  10  30  1   
 19  11  12  2   
 20  11  13  am  
 21  13  14  1   
 22  13  15  1   
 23  14  16  1   
 24  14  31  1   
 25  14  32  1   
 26  15  17  1   
 27  15  33  1   
 28  15  34  1   
 29  16  18  1   
 30  16  19  1   
 31  16  20  1   
 32  17  19  1   
 33  17  35  1   
 34  17  36  1   
 35  18  21  1   
 36  18  22  1   
 37  18  37  1   
 38  19  38  1   
 39  19  39  1   
 40  20  23  1   
 41  20  40  1   
 42  20  41  1   
 43  21  42  1   
 44  22  23  1   
 45  22  43  1   
 46  22  44  1   
 47  23  45  1   
 48  23  46  1   
@<TRIPOS>SUBSTRUCTURE
  1 ****  11 GROUP 4 **** **** 0

# MOE 2024.06 (io_trps.svl 2023.06)
