@<TRIPOS>MOLECULE
NONAME
41 42 1 0 0 
SMALL
USER_CHARGES


@<TRIPOS>ATOM
  1 S        0.5780     0.0470     0.5360 S.o2  1 <1>   1.3330 
  2 O        0.4450     0.6440     1.8450 O.2   1 <1>  -0.6500 
  3 O        0.6630    -1.3920     0.4150 O.2   1 <1>  -0.6500 
  4 N       -0.7290     0.5630    -0.4180 N.am  1 <1>  -0.8490 
  5 C        1.9970     0.7860    -0.2690 C.3   1 <1>  -0.0550 
  6 C       -0.9130    -0.2320    -1.6370 C.3   1 <1>   0.1160 
  7 C       -1.9820     0.6130     0.3400 C.3   1 <1>   0.1160 
  8 C        3.3200     0.5360     0.4750 C.3   1 <1>  -0.0800 
  9 C        4.5110     1.1360    -0.2430 C.3   1 <1>   0.2200 
 10 C        3.7220    -0.9330     0.5780 C.3   1 <1>   0.1200 
 11 N        4.6770     2.5640     0.1020 N.am  1 <1>  -0.7300 
 12 C        5.6690     0.2670     0.2350 C.3   1 <1>   0.1200 
 13 O        5.1170    -0.9590     0.6190 O.3   1 <1>  -0.5600 
 14 C        4.2290     3.6240    -0.6310 C.2   1 <1>   0.6160 
 15 O        3.6020     3.3680    -1.6430 O.2   1 <1>  -0.5700 
 16 C        4.4610     4.9970    -0.2460 C.2   1 <1>   0.0290 
 17 C        5.2240     5.3140     0.9310 C.2   1 <1>   0.6160 
 18 C        3.9650     6.0480    -0.9870 C.2   1 <1>  -0.1500 
 19 O        5.7260     4.4930     1.6890 O.2   1 <1>  -0.5700 
 20 N        5.4220     6.6300     1.2570 N.am  1 <1>  -0.5390 
 21 C        4.1940     7.3870    -0.6070 C.2   1 <1>  -0.1500 
 22 C        4.9200     7.6610     0.5090 C.2   1 <1>  -0.0410 
 23 H        2.0760     0.4100    -1.2700 H     1 <1>   0.0800 
 24 H        1.8380     1.8450    -0.3340 H     1 <1>   0.0800 
 25 H       -1.6980     0.1940    -2.2400 H     1 <1>   0.0800 
 26 H       -1.1730    -1.2480    -1.3890 H     1 <1>   0.0800 
 27 H       -0.0070    -0.2380    -2.2180 H     1 <1>   0.0800 
 28 H       -2.7850     0.9600    -0.2870 H     1 <1>   0.0800 
 29 H       -1.8840     1.2950     1.1690 H     1 <1>   0.0800 
 30 H       -2.2270    -0.3640     0.7240 H     1 <1>   0.0800 
 31 H        3.2570     0.9320     1.4740 H     1 <1>   0.0800 
 32 H        4.4100     1.0190    -1.3100 H     1 <1>   0.0800 
 33 H        3.4130    -1.4900    -0.2910 H     1 <1>   0.0800 
 34 H        3.3350    -1.4040     1.4660 H     1 <1>   0.0800 
 35 H        5.1740     2.7760     0.9790 H     1 <1>   0.3700 
 36 H        6.1460     0.6920     1.1010 H     1 <1>   0.0800 
 37 H        6.3890     0.0950    -0.5450 H     1 <1>   0.0800 
 38 H        3.3860     5.8670    -1.8780 H     1 <1>   0.1500 
 39 H        5.9750     6.7830     2.1030 H     1 <1>   0.3700 
 40 H        3.7850     8.1760    -1.2170 H     1 <1>   0.1500 
 41 H        5.1190     8.6710     0.8340 H     1 <1>   0.1500 
@<TRIPOS>BOND
  1   1   2  2   
  2   1   3  2   
  3   1   4  am  
  4   1   5  1   
  5   4   6  1   
  6   4   7  1   
  7   5   8  1   
  8   5  23  1   
  9   5  24  1   
 10   6  25  1   
 11   6  26  1   
 12   6  27  1   
 13   7  28  1   
 14   7  29  1   
 15   7  30  1   
 16   8   9  1   
 17   8  10  1   
 18   8  31  1   
 19   9  11  1   
 20   9  12  1   
 21   9  32  1   
 22  10  13  1   
 23  10  33  1   
 24  10  34  1   
 25  11  14  am  
 26  11  35  1   
 27  12  13  1   
 28  12  36  1   
 29  12  37  1   
 30  14  15  2   
 31  14  16  1   
 32  16  17  1   
 33  16  18  2   
 34  17  19  2   
 35  17  20  am  
 36  18  21  1   
 37  18  38  1   
 38  20  22  1   
 39  20  39  1   
 40  21  22  2   
 41  21  40  1   
 42  22  41  1   
@<TRIPOS>SUBSTRUCTURE
  1 ****  11 GROUP 4 **** **** 0

# MOE 2024.06 (io_trps.svl 2023.06)
