@<TRIPOS>MOLECULE
Untitled Document
64 67 1 0 0 
SMALL
USER_CHARGES


@<TRIPOS>ATOM
  1 O        1.8320    -0.7980    -1.6230 O.co2 1 <1>  -0.9000 
  2 C        1.5250    -1.5310    -0.6780 C.2   1 <1>   0.9060 
  3 O        1.8550    -1.2910     0.4880 O.co2 1 <1>  -0.9000 
  4 C        0.7330    -2.7880    -0.9600 C.3   1 <1>  -0.2660 
  5 C       -0.7280    -2.7390    -0.4480 C.3   1 <1>  -0.0800 
  6 C       -1.4050    -4.1380    -0.5680 C.3   1 <1>  -0.0800 
  7 C       -1.4880    -1.6450    -1.2180 C.3   1 <1>  -0.2400 
  8 C       -2.8800    -4.3300    -0.1200 C.3   1 <1>   0.0000 
  9 C       -0.6400    -5.2230     0.2300 C.3   1 <1>  -0.1600 
 10 C       -2.9470    -5.8630    -0.0320 C.3   1 <1>  -0.0800 
 11 C       -3.9620    -3.9090    -1.1360 C.3   1 <1>  -0.1600 
 12 C       -3.1170    -3.6280     1.2460 C.3   1 <1>  -0.2400 
 13 C       -1.6690    -6.2610     0.6990 C.3   1 <1>  -0.1600 
 14 C       -4.2940    -6.4180     0.4770 C.3   1 <1>  -0.0800 
 15 C       -5.3660    -4.4020    -0.7250 C.3   1 <1>  -0.1600 
 16 C       -4.2420    -7.9620     0.5730 C.3   1 <1>   0.2000 
 17 C       -5.4410    -5.9330    -0.4560 C.3   1 <1>  -0.0800 
 18 O       -4.1020    -8.3170     1.9010 O.3   1 <1>  -0.6800 
 19 C       -5.4860    -8.6660     0.0290 C.3   1 <1>  -0.1600 
 20 C       -6.8470    -6.4480     0.0230 C.3   1 <1>   0.0000 
 21 C       -6.7940    -7.9660     0.4360 C.3   1 <1>  -0.0800 
 22 C       -7.8760    -6.2500    -1.1230 C.3   1 <1>  -0.1600 
 23 C       -7.3360    -5.6330     1.2470 C.3   1 <1>  -0.2400 
 24 C       -7.9710    -8.8170    -0.0920 C.3   1 <1>  -0.1600 
 25 C       -9.2950    -6.7650    -0.8010 C.3   1 <1>  -0.1600 
 26 C       -9.2970    -8.0700     0.0070 C.3   1 <1>   0.2000 
 27 O      -10.2890    -8.8910    -0.4800 O.3   1 <1>  -0.6800 
 28 H        0.7490    -2.9620    -2.0190 H     1 <1>   0.0800 
 29 H        1.2780    -3.5780    -0.4870 H     1 <1>   0.0800 
 30 H       -0.6890    -2.4540     0.5900 H     1 <1>   0.0800 
 31 H       -1.3520    -4.4200    -1.6060 H     1 <1>   0.0800 
 32 H       -1.6570    -1.9460    -2.2350 H     1 <1>   0.0800 
 33 H       -0.9220    -0.7300    -1.2290 H     1 <1>   0.0800 
 34 H       -2.4230    -1.4220    -0.7460 H     1 <1>   0.0800 
 35 H        0.1080    -5.6810    -0.3920 H     1 <1>   0.0800 
 36 H       -0.1540    -4.7930     1.0900 H     1 <1>   0.0800 
 37 H       -2.8300    -6.2420    -1.0340 H     1 <1>   0.0800 
 38 H       -3.9940    -2.8420    -1.2350 H     1 <1>   0.0800 
 39 H       -3.7200    -4.3110    -2.1040 H     1 <1>   0.0800 
 40 H       -3.1020    -2.5610     1.1240 H     1 <1>   0.0800 
 41 H       -2.3490    -3.8810     1.9530 H     1 <1>   0.0800 
 42 H       -4.0600    -3.8850     1.6840 H     1 <1>   0.0800 
 43 H       -1.8110    -6.1910     1.7640 H     1 <1>   0.0800 
 44 H       -1.3590    -7.2610     0.4540 H     1 <1>   0.0800 
 45 H       -4.4680    -6.0260     1.4600 H     1 <1>   0.0800 
 46 H       -6.0430    -4.1360    -1.5150 H     1 <1>   0.0800 
 47 H       -5.6680    -3.8530     0.1450 H     1 <1>   0.0800 
 48 H       -3.3810    -8.3480     0.0540 H     1 <1>   0.0800 
 49 H       -5.2530    -6.3870    -1.4140 H     1 <1>   0.0800 
 50 H       -4.8670    -7.9850     2.4050 H     1 <1>   0.4000 
 51 H       -5.4200    -8.6830    -1.0450 H     1 <1>   0.0800 
 52 H       -5.4840    -9.6920     0.3580 H     1 <1>   0.0800 
 53 H       -6.8410    -8.0190     1.5110 H     1 <1>   0.0800 
 54 H       -7.9590    -5.2120    -1.3880 H     1 <1>   0.0800 
 55 H       -7.5190    -6.7690    -1.9970 H     1 <1>   0.0800 
 56 H       -8.2210    -6.0630     1.6770 H     1 <1>   0.0800 
 57 H       -7.5780    -4.6230     0.9710 H     1 <1>   0.0800 
 58 H       -6.5880    -5.6020     2.0180 H     1 <1>   0.0800 
 59 H       -8.0330    -9.7280     0.4780 H     1 <1>   0.0800 
 60 H       -7.7950    -9.0750    -1.1220 H     1 <1>   0.0800 
 61 H       -9.8280    -6.8880    -1.7270 H     1 <1>   0.0800 
 62 H       -9.8170    -6.0200    -0.2270 H     1 <1>   0.0800 
 63 H       -9.5250    -7.8690     1.0410 H     1 <1>   0.0800 
 64 H      -10.1070    -9.1100    -1.4120 H     1 <1>   0.4000 
@<TRIPOS>BOND
  1   1   2  ar  
  2   2   3  ar  
  3   2   4  1   
  4   4   5  1   
  5   4  28  1   
  6   4  29  1   
  7   5   6  1   
  8   5   7  1   
  9   5  30  1   
 10   6   8  1   
 11   6   9  1   
 12   6  31  1   
 13   7  32  1   
 14   7  33  1   
 15   7  34  1   
 16   8  10  1   
 17   8  11  1   
 18   8  12  1   
 19   9  13  1   
 20   9  35  1   
 21   9  36  1   
 22  10  13  1   
 23  10  14  1   
 24  10  37  1   
 25  11  15  1   
 26  11  38  1   
 27  11  39  1   
 28  12  40  1   
 29  12  41  1   
 30  12  42  1   
 31  13  43  1   
 32  13  44  1   
 33  14  16  1   
 34  14  17  1   
 35  14  45  1   
 36  15  17  1   
 37  15  46  1   
 38  15  47  1   
 39  16  18  1   
 40  16  19  1   
 41  16  48  1   
 42  17  20  1   
 43  17  49  1   
 44  18  50  1   
 45  19  21  1   
 46  19  51  1   
 47  19  52  1   
 48  20  21  1   
 49  20  22  1   
 50  20  23  1   
 51  21  24  1   
 52  21  53  1   
 53  22  25  1   
 54  22  54  1   
 55  22  55  1   
 56  23  56  1   
 57  23  57  1   
 58  23  58  1   
 59  24  26  1   
 60  24  59  1   
 61  24  60  1   
 62  25  26  1   
 63  25  61  1   
 64  25  62  1   
 65  26  27  1   
 66  26  63  1   
 67  27  64  1   
@<TRIPOS>SUBSTRUCTURE
  1 ****  10 GROUP 4 **** **** 0

# MOE 2024.06 (io_trps.svl 2023.06)
