@<TRIPOS>MOLECULE
NONAME
50 52 1 0 0 
SMALL
USER_CHARGES


@<TRIPOS>ATOM
  1 O        1.8760    -1.0010    -1.8260 O.2   1 <1>  -0.5700 
  2 C        2.1340    -0.9860    -0.6460 C.2   1 <1>   0.5690 
  3 N        2.5140     0.1360     0.0260 N.am  1 <1>  -0.4930 
  4 C        2.0230    -2.3080     0.1160 C.3   1 <1>  -0.0190 
  5 C        2.6780     1.4510    -0.4790 C.2   1 <1>   0.0630 
  6 C        2.9690    -3.3660    -0.4880 C.3   1 <1>  -0.1600 
  7 C        0.5690    -2.8210     0.1010 C.3   1 <1>  -0.1600 
  8 C        2.4990     1.9400    -1.7730 C.2   1 <1>   0.1390 
  9 C        3.0590     2.5280     0.2380 C.2   1 <1>  -0.3020 
 10 C        2.7780    -4.7480     0.1350 C.3   1 <1>   0.3430 
 11 C        0.4320    -4.2150     0.7100 C.3   1 <1>   0.3430 
 12 N        2.7460     3.2140    -1.8580 N.2   1 <1>  -0.7070 
 13 N        3.0950     3.5830    -0.6110 N.pl3 1 <1>   0.3140 
 14 N        1.3530    -5.1570     0.0060 N.4   1 <1>  -0.9590 
 15 C        3.4590     4.9900    -0.2880 C.3   1 <1>   0.1760 
 16 C        1.1490    -6.5720     0.4320 C.3   1 <1>   0.4860 
 17 C        4.9080     5.0760     0.2120 C.3   1 <1>  -0.2400 
 18 C        2.4850     5.5820     0.7400 C.3   1 <1>  -0.2400 
 19 C       -0.2670    -6.9900     0.1000 C.ar  1 <1>  -0.1430 
 20 C       -1.1940    -7.1540     1.1190 C.ar  1 <1>   0.1600 
 21 C       -0.6650    -7.2080    -1.2060 C.ar  1 <1>  -0.1500 
 22 N       -2.4580    -7.4840     0.9390 N.ar  1 <1>  -0.6200 
 23 C       -1.9820    -7.5650    -1.4060 C.ar  1 <1>  -0.1500 
 24 C       -2.8260    -7.6860    -0.3160 C.ar  1 <1>   0.1600 
 25 H        2.7110     0.0550     1.0210 H     1 <1>   0.3700 
 26 H        2.3120    -2.1400     1.1390 H     1 <1>   0.0800 
 27 H        3.9890    -3.0530    -0.3470 H     1 <1>   0.0800 
 28 H        2.8070    -3.4390    -1.5500 H     1 <1>   0.0800 
 29 H        0.1990    -2.8470    -0.9110 H     1 <1>   0.0800 
 30 H       -0.0580    -2.1360     0.6460 H     1 <1>   0.0800 
 31 H        2.1910     1.3400    -2.6130 H     1 <1>   0.1500 
 32 H        3.3030     2.6130     1.2780 H     1 <1>   0.1500 
 33 H        3.0600    -4.7180     1.1760 H     1 <1>   0.0800 
 34 H        3.4160    -5.4560    -0.3710 H     1 <1>   0.0800 
 35 H       -0.5910    -4.5440     0.6050 H     1 <1>   0.0800 
 36 H        0.6720    -4.1800     1.7600 H     1 <1>   0.0800 
 37 H        1.1020    -5.1110    -0.9910 H     1 <1>   0.4500 
 38 H        3.3780     5.5530    -1.2010 H     1 <1>   0.0800 
 39 H        1.3240    -6.6710     1.4910 H     1 <1>   0.0800 
 40 H        1.8380    -7.2180    -0.0880 H     1 <1>   0.0800 
 41 H        5.0280     4.5380     1.1350 H     1 <1>   0.0800 
 42 H        5.1790     6.1030     0.3760 H     1 <1>   0.0800 
 43 H        5.5740     4.6650    -0.5270 H     1 <1>   0.0800 
 44 H        2.5480     5.0570     1.6760 H     1 <1>   0.0800 
 45 H        1.4780     5.5210     0.3660 H     1 <1>   0.0800 
 46 H        2.7190     6.6180     0.9120 H     1 <1>   0.0800 
 47 H       -0.8930    -7.0050     2.1430 H     1 <1>   0.1500 
 48 H        0.0050    -7.1150    -2.0450 H     1 <1>   0.1500 
 49 H       -2.3580    -7.7530    -2.3960 H     1 <1>   0.1500 
 50 H       -3.8540    -7.9640    -0.4830 H     1 <1>   0.1500 
@<TRIPOS>BOND
  1   1   2  2   
  2   2   3  am  
  3   2   4  1   
  4   3   5  1   
  5   3  25  1   
  6   4   6  1   
  7   4   7  1   
  8   4  26  1   
  9   5   8  1   
 10   5   9  2   
 11   6  10  1   
 12   6  27  1   
 13   6  28  1   
 14   7  11  1   
 15   7  29  1   
 16   7  30  1   
 17   8  12  2   
 18   8  31  1   
 19   9  13  1   
 20   9  32  1   
 21  10  14  1   
 22  10  33  1   
 23  10  34  1   
 24  11  14  1   
 25  11  35  1   
 26  11  36  1   
 27  12  13  1   
 28  13  15  1   
 29  14  16  1   
 30  14  37  1   
 31  15  17  1   
 32  15  18  1   
 33  15  38  1   
 34  16  19  1   
 35  16  39  1   
 36  16  40  1   
 37  17  41  1   
 38  17  42  1   
 39  17  43  1   
 40  18  44  1   
 41  18  45  1   
 42  18  46  1   
 43  19  20  ar  
 44  19  21  ar  
 45  20  22  ar  
 46  20  47  1   
 47  21  23  ar  
 48  21  48  1   
 49  22  24  ar  
 50  23  24  ar  
 51  23  49  1   
 52  24  50  1   
@<TRIPOS>SUBSTRUCTURE
  1 ****   4 GROUP 4 **** **** 0

# MOE 2024.06 (io_trps.svl 2023.06)
