@<TRIPOS>MOLECULE
NONAME
57 59 1 0 0 
SMALL
USER_CHARGES


@<TRIPOS>ATOM
  1 O        0.2700     1.1340     1.3330 O.2   1 <1>  -0.5700 
  2 C        0.1900     2.1950     0.7700 C.2   1 <1>   0.5690 
  3 N       -0.4270     3.2450     1.3570 N.am  1 <1>  -0.7300 
  4 C        0.7680     2.3680    -0.6360 C.3   1 <1>   0.1810 
  5 C       -0.6300     4.5570     0.6990 C.3   1 <1>   0.3640 
  6 O        0.9960     3.7240    -0.9570 O.3   1 <1>  -0.5600 
  7 C       -2.1040     4.9330     0.7990 C.ar  1 <1>  -0.1440 
  8 C       -0.1390     4.5620    -0.7720 C.3   1 <1>   0.2610 
  9 C       -2.4680     6.2110     1.2020 C.ar  1 <1>  -0.1500 
 10 C       -3.1010     4.0170     0.4860 C.ar  1 <1>  -0.1500 
 11 C        0.1300     6.0070    -1.2270 C.2   1 <1>   0.5690 
 12 C       -3.8030     6.5650     1.2940 C.ar  1 <1>  -0.1500 
 13 C       -4.4360     4.3710     0.5780 C.ar  1 <1>  -0.1500 
 14 O       -0.7660     6.5620    -1.8160 O.2   1 <1>  -0.5700 
 15 N        1.3170     6.6820    -0.9940 N.am  1 <1>  -0.6600 
 16 C       -4.7880     5.6450     0.9820 C.ar  1 <1>  -0.1500 
 17 C        1.5720     7.9770    -1.7120 C.3   1 <1>   0.1400 
 18 C        2.5070     6.0930    -0.2930 C.3   1 <1>   0.1400 
 19 C        2.3820     8.9730    -0.8650 C.3   1 <1>   0.3430 
 20 C        3.3140     7.1440     0.4960 C.3   1 <1>   0.3430 
 21 N        3.6460     8.3560    -0.3290 N.4   1 <1>  -0.9590 
 22 C        4.4540     9.3290     0.4820 C.3   1 <1>   0.3430 
 23 C        5.0530    10.4640    -0.3570 C.3   1 <1>   0.1200 
 24 O        5.7810    11.2610     0.5120 O.3   1 <1>  -0.5600 
 25 C        6.4200    12.3420    -0.0880 C.3   1 <1>   0.1200 
 26 C        7.1650    13.1080     1.0030 C.3   1 <1>  -0.1600 
 27 C        7.9010    14.3230     0.4280 C.3   1 <1>  -0.2400 
 28 H       -0.8960     3.0940     2.2530 H     1 <1>   0.3700 
 29 H        0.0900     1.9530    -1.3600 H     1 <1>   0.0800 
 30 H        1.7070     1.8490    -0.7030 H     1 <1>   0.0800 
 31 H       -0.0590     5.2840     1.2480 H     1 <1>   0.0800 
 32 H       -0.9220     4.1720    -1.3990 H     1 <1>   0.0800 
 33 H       -1.7210     6.9450     1.4460 H     1 <1>   0.1500 
 34 H       -2.8490     3.0190     0.1700 H     1 <1>   0.1500 
 35 H       -4.0790     7.5570     1.6060 H     1 <1>   0.1500 
 36 H       -5.2010     3.6540     0.3340 H     1 <1>   0.1500 
 37 H       -5.8250     5.9210     1.0520 H     1 <1>   0.1500 
 38 H        2.0990     7.7690    -2.6280 H     1 <1>   0.0800 
 39 H        0.6410     8.4470    -1.9810 H     1 <1>   0.0800 
 40 H        2.1930     5.3350     0.4020 H     1 <1>   0.0800 
 41 H        3.1430     5.6200    -1.0220 H     1 <1>   0.0800 
 42 H        1.7650     9.3080    -0.0480 H     1 <1>   0.0800 
 43 H        2.6170     9.8310    -1.4730 H     1 <1>   0.0800 
 44 H        4.2220     6.6870     0.8560 H     1 <1>   0.0800 
 45 H        2.7360     7.4430     1.3550 H     1 <1>   0.0800 
 46 H        4.2140     8.0400    -1.1270 H     1 <1>   0.4500 
 47 H        3.8380     9.7600     1.2540 H     1 <1>   0.0800 
 48 H        5.2700     8.8080     0.9570 H     1 <1>   0.0800 
 49 H        4.2860    11.0700    -0.8050 H     1 <1>   0.0800 
 50 H        5.7240    10.0780    -1.1050 H     1 <1>   0.0800 
 51 H        7.1120    11.9750    -0.8280 H     1 <1>   0.0800 
 52 H        5.6820    12.9740    -0.5540 H     1 <1>   0.0800 
 53 H        6.4620    13.4410     1.7470 H     1 <1>   0.0800 
 54 H        7.8780    12.4540     1.4740 H     1 <1>   0.0800 
 55 H        7.2070    15.0040    -0.0320 H     1 <1>   0.0800 
 56 H        8.6250    14.0150    -0.3060 H     1 <1>   0.0800 
 57 H        8.4170    14.8450     1.2150 H     1 <1>   0.0800 
@<TRIPOS>BOND
  1   1   2  2   
  2   2   3  am  
  3   2   4  1   
  4   3   5  1   
  5   3  28  1   
  6   4   6  1   
  7   4  29  1   
  8   4  30  1   
  9   5   7  1   
 10   5   8  1   
 11   5  31  1   
 12   6   8  1   
 13   7   9  ar  
 14   7  10  ar  
 15   8  11  1   
 16   8  32  1   
 17   9  12  ar  
 18   9  33  1   
 19  10  13  ar  
 20  10  34  1   
 21  11  14  2   
 22  11  15  am  
 23  12  16  ar  
 24  12  35  1   
 25  13  16  ar  
 26  13  36  1   
 27  15  17  1   
 28  15  18  1   
 29  16  37  1   
 30  17  19  1   
 31  17  38  1   
 32  17  39  1   
 33  18  20  1   
 34  18  40  1   
 35  18  41  1   
 36  19  21  1   
 37  19  42  1   
 38  19  43  1   
 39  20  21  1   
 40  20  44  1   
 41  20  45  1   
 42  21  22  1   
 43  21  46  1   
 44  22  23  1   
 45  22  47  1   
 46  22  48  1   
 47  23  24  1   
 48  23  49  1   
 49  23  50  1   
 50  24  25  1   
 51  25  26  1   
 52  25  51  1   
 53  25  52  1   
 54  26  27  1   
 55  26  53  1   
 56  26  54  1   
 57  27  55  1   
 58  27  56  1   
 59  27  57  1   
@<TRIPOS>SUBSTRUCTURE
  1 ****  15 GROUP 4 **** **** 0

# MOE 2024.06 (io_trps.svl 2023.06)
