@<TRIPOS>MOLECULE
NONAME
52 53 1 0 0 
SMALL
USER_CHARGES


@<TRIPOS>ATOM
  1 S       -0.7760     0.5250     1.5470 S.o2  1 <1>   1.4470 
  2 O       -1.1160     1.8330     2.0710 O.2   1 <1>  -0.6500 
  3 O       -0.6400    -0.5400     2.5170 O.2   1 <1>  -0.6500 
  4 N       -2.0220     0.0920     0.4780 N.am  1 <1>  -0.8490 
  5 C        0.7460     0.6380     0.5690 C.ar  1 <1>  -0.0090 
  6 C       -1.7510    -0.9180    -0.5670 C.3   1 <1>   0.1960 
  7 C       -3.3580     0.0070     1.0830 C.3   1 <1>   0.1960 
  8 C        0.8640     1.5250    -0.4970 C.ar  1 <1>   0.0820 
  9 C        1.8440    -0.1640     0.8640 C.ar  1 <1>  -0.1500 
 10 C       -1.9230    -2.4050    -0.1370 C.3   1 <1>  -0.1060 
 11 C       -3.9810    -1.3930     0.9820 C.3   1 <1>  -0.1600 
 12 O       -0.1670     2.3180    -0.8410 O.3   1 <1>  -0.3630 
 13 C        2.0290     1.5960    -1.2460 C.ar  1 <1>  -0.1500 
 14 C        3.0170    -0.0970     0.1280 C.ar  1 <1>  -0.1440 
 15 C       -2.4930    -3.1310    -1.3750 C.2   1 <1>   0.9060 
 16 C       -2.8870    -2.4500     1.0850 C.3   1 <1>   0.2000 
 17 C       -0.5820    -3.0750     0.2940 C.3   1 <1>  -0.1600 
 18 C       -0.1110     3.6550    -0.4060 C.3   1 <1>   0.1200 
 19 C        3.1040     0.7880    -0.9320 C.ar  1 <1>  -0.1500 
 20 C        4.1960    -0.9900     0.4680 C.3   1 <1>  -0.0960 
 21 O       -3.2880    -4.0740    -1.2430 O.co2 1 <1>  -0.9000 
 22 O       -2.1460    -2.7650    -2.5050 O.co2 1 <1>  -0.9000 
 23 O       -3.4800    -3.6850     1.2430 O.3   1 <1>  -0.6800 
 24 C        0.5260    -3.1360    -0.7740 C.3   1 <1>  -0.1600 
 25 C       -1.4670     4.2940    -0.6830 C.3   1 <1>  -0.2400 
 26 C        1.7630    -3.8590    -0.2330 C.3   1 <1>  -0.2400 
 27 H       -2.4640    -0.7110    -1.3490 H     1 <1>   0.0800 
 28 H       -0.7920    -0.7530    -1.0180 H     1 <1>   0.0800 
 29 H       -3.2970     0.2850     2.1230 H     1 <1>   0.0800 
 30 H       -4.0040     0.7180     0.5970 H     1 <1>   0.0800 
 31 H        1.7720    -0.8580     1.6840 H     1 <1>   0.1500 
 32 H       -4.4960    -1.4950     0.0430 H     1 <1>   0.0800 
 33 H       -4.6930    -1.5190     1.7760 H     1 <1>   0.0800 
 34 H        2.0840     2.2780    -2.0750 H     1 <1>   0.1500 
 35 H       -2.3370    -2.2690     1.9920 H     1 <1>   0.0800 
 36 H       -0.1930    -2.5810     1.1630 H     1 <1>   0.0800 
 37 H       -0.8090    -4.0860     0.5890 H     1 <1>   0.0800 
 38 H        0.1050     3.6650     0.6490 H     1 <1>   0.0800 
 39 H        0.6740     4.1570    -0.9450 H     1 <1>   0.0800 
 40 H        4.0050     0.8460    -1.5180 H     1 <1>   0.1500 
 41 H        5.1030    -0.4130     0.4910 H     1 <1>   0.0800 
 42 H        4.2920    -1.7610    -0.2740 H     1 <1>   0.0800 
 43 H        4.0630    -1.4520     1.4300 H     1 <1>   0.0800 
 44 H       -3.5750    -4.0600     0.3090 H     1 <1>   0.4000 
 45 H        0.1680    -3.6620    -1.6430 H     1 <1>   0.0800 
 46 H        0.8120    -2.1480    -1.0850 H     1 <1>   0.0800 
 47 H       -2.2310     3.7690    -0.1360 H     1 <1>   0.0800 
 48 H       -1.6870     4.2560    -1.7350 H     1 <1>   0.0800 
 49 H       -1.4590     5.3200    -0.3650 H     1 <1>   0.0800 
 50 H        1.5120    -4.8700     0.0350 H     1 <1>   0.0800 
 51 H        2.1440    -3.3520     0.6350 H     1 <1>   0.0800 
 52 H        2.5290    -3.8840    -0.9870 H     1 <1>   0.0800 
@<TRIPOS>BOND
  1   1   2  2   
  2   1   3  2   
  3   1   4  am  
  4   1   5  1   
  5   4   6  1   
  6   4   7  1   
  7   5   8  ar  
  8   5   9  ar  
  9   6  10  1   
 10   6  27  1   
 11   6  28  1   
 12   7  11  1   
 13   7  29  1   
 14   7  30  1   
 15   8  12  1   
 16   8  13  ar  
 17   9  14  ar  
 18   9  31  1   
 19  10  15  1   
 20  10  16  1   
 21  10  17  1   
 22  11  16  1   
 23  11  32  1   
 24  11  33  1   
 25  12  18  1   
 26  13  19  ar  
 27  13  34  1   
 28  14  19  ar  
 29  14  20  1   
 30  15  21  ar  
 31  15  22  ar  
 32  16  23  1   
 33  16  35  1   
 34  17  24  1   
 35  17  36  1   
 36  17  37  1   
 37  18  25  1   
 38  18  38  1   
 39  18  39  1   
 40  19  40  1   
 41  20  41  1   
 42  20  42  1   
 43  20  43  1   
 44  23  44  1   
 45  24  26  1   
 46  24  45  1   
 47  24  46  1   
 48  25  47  1   
 49  25  48  1   
 50  25  49  1   
 51  26  50  1   
 52  26  51  1   
 53  26  52  1   
@<TRIPOS>SUBSTRUCTURE
  1 ****   6 GROUP 4 **** **** 0

# MOE 2024.06 (io_trps.svl 2023.06)
