@<TRIPOS>MOLECULE
NONAME
49 52 1 0 0 
SMALL
USER_CHARGES


@<TRIPOS>ATOM
  1 F       -4.8970    -0.9710     2.7100 F     1 <1>  -0.1900 
  2 C       -4.7710    -1.1330     1.4180 C.ar  1 <1>   0.1900 
  3 C       -4.2140    -2.3200     0.9440 C.ar  1 <1>  -0.1520 
  4 C       -5.1850    -0.1450     0.5600 C.ar  1 <1>  -0.1500 
  5 N       -3.7370    -3.4210     1.5990 N.pl3 1 <1>   0.0330 
  6 C       -4.0730    -2.5160    -0.4240 C.ar  1 <1>   0.0000 
  7 C       -5.0380    -0.3400    -0.8190 C.ar  1 <1>  -0.1500 
  8 C       -3.3010    -4.3170     0.6630 C.2   1 <1>  -0.3320 
  9 C       -3.5020    -3.8020    -0.5780 C.2   1 <1>  -0.1810 
 10 C       -4.4890    -1.5070    -1.3070 C.ar  1 <1>  -0.1500 
 11 C       -2.6970    -5.6460     1.0920 C.3   1 <1>  -0.0600 
 12 C       -3.2190    -4.4370    -1.9400 C.3   1 <1>   0.0820 
 13 C       -3.7150    -5.8730    -2.0310 C.2   1 <1>   0.5690 
 14 O       -2.9000    -6.7380    -2.2580 O.2   1 <1>  -0.5700 
 15 N       -5.0350    -6.1900    -1.8340 N.am  1 <1>  -0.6600 
 16 C       -6.1690    -5.2560    -1.6040 C.3   1 <1>   0.1400 
 17 C       -5.4160    -7.5420    -1.3570 C.3   1 <1>   0.1400 
 18 C       -6.8870    -5.8520    -0.3990 C.3   1 <1>   0.2000 
 19 C       -6.7500    -7.3660    -0.6160 C.3   1 <1>  -0.0800 
 20 O       -6.2060    -5.4680     0.7480 O.3   1 <1>  -0.6800 
 21 C       -6.8610    -8.2110     0.6680 C.3   1 <1>   0.0200 
 22 C       -6.8690    -9.7070     0.4020 C.2   1 <1>  -0.0400 
 23 O       -6.8460   -10.5230     1.4230 O.3   1 <1>  -0.0190 
 24 C       -6.8980   -10.4530    -0.7140 C.2   1 <1>  -0.1500 
 25 N       -6.8550   -11.7710     1.0510 N.2   1 <1>  -0.4100 
 26 C       -6.8860   -11.7590    -0.2330 C.2   1 <1>   0.1080 
 27 C       -6.9060   -13.0030    -1.0930 C.3   1 <1>  -0.0590 
 28 H       -5.6140     0.7650     0.9410 H     1 <1>   0.1500 
 29 H       -3.7280    -3.5330     2.6190 H     1 <1>   0.2700 
 30 H       -5.3580     0.4350    -1.4940 H     1 <1>   0.1500 
 31 H       -4.3730    -1.6520    -2.3650 H     1 <1>   0.1500 
 32 H       -2.2530    -6.1570     0.2580 H     1 <1>   0.0800 
 33 H       -3.4520    -6.2800     1.5210 H     1 <1>   0.0800 
 34 H       -1.9270    -5.4810     1.8240 H     1 <1>   0.0800 
 35 H       -2.1590    -4.4200    -2.1150 H     1 <1>   0.0800 
 36 H       -3.6890    -3.8740    -2.7220 H     1 <1>   0.0800 
 37 H       -5.8710    -4.2410    -1.4270 H     1 <1>   0.0800 
 38 H       -6.8170    -5.2850    -2.4620 H     1 <1>   0.0800 
 39 H       -5.5120    -8.2140    -2.1920 H     1 <1>   0.0800 
 40 H       -4.6520    -7.9130    -0.6930 H     1 <1>   0.0800 
 41 H       -7.9100    -5.5280    -0.3100 H     1 <1>   0.0800 
 42 H       -7.5350    -7.6650    -1.2870 H     1 <1>   0.0800 
 43 H       -5.2710    -5.2590     0.5150 H     1 <1>   0.4000 
 44 H       -7.7670    -7.9530     1.1870 H     1 <1>   0.0800 
 45 H       -6.0370    -7.9880     1.3240 H     1 <1>   0.0800 
 46 H       -6.9270   -10.1650    -1.7480 H     1 <1>   0.1500 
 47 H       -6.0820   -12.9840    -1.7820 H     1 <1>   0.0800 
 48 H       -7.8280   -13.0510    -1.6420 H     1 <1>   0.0800 
 49 H       -6.8230   -13.8780    -0.4740 H     1 <1>   0.0800 
@<TRIPOS>BOND
  1   1   2  1   
  2   2   3  ar  
  3   2   4  ar  
  4   3   5  1   
  5   3   6  ar  
  6   4   7  ar  
  7   4  28  1   
  8   5   8  1   
  9   5  29  1   
 10   6   9  1   
 11   6  10  ar  
 12   7  10  ar  
 13   7  30  1   
 14   8   9  2   
 15   8  11  1   
 16   9  12  1   
 17  10  31  1   
 18  11  32  1   
 19  11  33  1   
 20  11  34  1   
 21  12  13  1   
 22  12  35  1   
 23  12  36  1   
 24  13  14  2   
 25  13  15  am  
 26  15  16  1   
 27  15  17  1   
 28  16  18  1   
 29  16  37  1   
 30  16  38  1   
 31  17  19  1   
 32  17  39  1   
 33  17  40  1   
 34  18  19  1   
 35  18  20  1   
 36  18  41  1   
 37  19  21  1   
 38  19  42  1   
 39  20  43  1   
 40  21  22  1   
 41  21  44  1   
 42  21  45  1   
 43  22  23  1   
 44  22  24  2   
 45  23  25  1   
 46  24  26  1   
 47  24  46  1   
 48  25  26  2   
 49  26  27  1   
 50  27  47  1   
 51  27  48  1   
 52  27  49  1   
@<TRIPOS>SUBSTRUCTURE
  1 ****  20 GROUP 4 **** **** 0

# MOE 2024.06 (io_trps.svl 2023.06)
