@<TRIPOS>MOLECULE
NONAME
47 49 1 0 0 
SMALL
USER_CHARGES


@<TRIPOS>ATOM
  1 S        0.5750    -0.9400    -0.8520 S.3   1 <1>  -0.0800 
  2 C       -0.3010     0.5030    -0.3980 C.2   1 <1>   0.1980 
  3 C       -0.9340    -1.8030    -0.8910 C.2   1 <1>  -0.1100 
  4 N       -1.5580     0.3460    -0.2920 N.2   1 <1>  -0.5650 
  5 C        0.5040     1.7630    -0.1820 C.3   1 <1>  -0.0600 
  6 C       -1.9330    -0.9620    -0.5730 C.2   1 <1>   0.0460 
  7 C       -3.4270    -1.2480    -0.4650 C.3   1 <1>   0.0820 
  8 C       -3.8990    -2.6530    -0.8390 C.2   1 <1>   0.5690 
  9 O       -3.3090    -3.2490    -1.7110 O.2   1 <1>  -0.5700 
 10 N       -4.9940    -3.2100    -0.2220 N.am  1 <1>  -0.6600 
 11 C       -5.3410    -4.6580    -0.4060 C.3   1 <1>   0.1400 
 12 C       -5.9890    -2.4790     0.6200 C.3   1 <1>   0.1400 
 13 C       -6.7410    -4.7920    -1.0230 C.3   1 <1>   0.2000 
 14 C       -7.3930    -2.6200     0.0140 C.3   1 <1>  -0.1600 
 15 O       -7.0410    -6.1340    -1.1900 O.3   1 <1>  -0.6800 
 16 C       -7.8270    -4.1050    -0.1570 C.3   1 <1>  -0.1060 
 17 C       -7.9240    -4.8290     1.2020 C.2   1 <1>   0.9060 
 18 C       -9.1940    -4.1970    -0.8900 C.3   1 <1>  -0.0170 
 19 O       -7.9700    -6.0680     1.2120 O.co2 1 <1>  -0.9000 
 20 O       -7.9390    -4.1890     2.2600 O.co2 1 <1>  -0.9000 
 21 C      -10.2510    -3.1950    -0.4290 C.ar  1 <1>  -0.1440 
 22 C      -10.6610    -2.1720    -1.2720 C.ar  1 <1>  -0.1500 
 23 C      -10.8170    -3.2970     0.8320 C.ar  1 <1>  -0.1500 
 24 C      -11.6200    -1.2620    -0.8590 C.ar  1 <1>  -0.1500 
 25 C      -11.7740    -2.3880     1.2480 C.ar  1 <1>  -0.1500 
 26 C      -12.1780    -1.3700     0.4030 C.ar  1 <1>  -0.1500 
 27 H       -0.9120    -2.8460    -1.1500 H     1 <1>   0.1500 
 28 H       -0.1520     2.5690     0.0910 H     1 <1>   0.0800 
 29 H        1.0220     2.0220    -1.0860 H     1 <1>   0.0800 
 30 H        1.2170     1.6080     0.6060 H     1 <1>   0.0800 
 31 H       -3.9520    -0.5510    -1.0880 H     1 <1>   0.0800 
 32 H       -3.6890    -1.0490     0.5550 H     1 <1>   0.0800 
 33 H       -4.6270    -5.1400    -1.0500 H     1 <1>   0.0800 
 34 H       -5.3180    -5.1470     0.5530 H     1 <1>   0.0800 
 35 H       -5.9710    -2.8840     1.6180 H     1 <1>   0.0800 
 36 H       -5.7600    -1.4330     0.6880 H     1 <1>   0.0800 
 37 H       -6.7140    -4.3550    -2.0050 H     1 <1>   0.0800 
 38 H       -8.0850    -2.1170     0.6680 H     1 <1>   0.0800 
 39 H       -7.4190    -2.1160    -0.9350 H     1 <1>   0.0800 
 40 H       -7.3990    -6.4400    -0.3000 H     1 <1>   0.4000 
 41 H       -9.0330    -4.0570    -1.9440 H     1 <1>   0.0800 
 42 H       -9.5900    -5.1910    -0.7740 H     1 <1>   0.0800 
 43 H      -10.2320    -2.0790    -2.2530 H     1 <1>   0.1500 
 44 H      -10.5060    -4.0820     1.5020 H     1 <1>   0.1500 
 45 H      -11.9310    -0.4730    -1.5190 H     1 <1>   0.1500 
 46 H      -12.1970    -2.4790     2.2330 H     1 <1>   0.1500 
 47 H      -12.9210    -0.6650     0.7280 H     1 <1>   0.1500 
@<TRIPOS>BOND
  1   1   2  1   
  2   1   3  1   
  3   2   4  2   
  4   2   5  1   
  5   3   6  2   
  6   3  27  1   
  7   4   6  1   
  8   5  28  1   
  9   5  29  1   
 10   5  30  1   
 11   6   7  1   
 12   7   8  1   
 13   7  31  1   
 14   7  32  1   
 15   8   9  2   
 16   8  10  am  
 17  10  11  1   
 18  10  12  1   
 19  11  13  1   
 20  11  33  1   
 21  11  34  1   
 22  12  14  1   
 23  12  35  1   
 24  12  36  1   
 25  13  15  1   
 26  13  16  1   
 27  13  37  1   
 28  14  16  1   
 29  14  38  1   
 30  14  39  1   
 31  15  40  1   
 32  16  17  1   
 33  16  18  1   
 34  17  19  ar  
 35  17  20  ar  
 36  18  21  1   
 37  18  41  1   
 38  18  42  1   
 39  21  22  ar  
 40  21  23  ar  
 41  22  24  ar  
 42  22  43  1   
 43  23  25  ar  
 44  23  44  1   
 45  24  26  ar  
 46  24  45  1   
 47  25  26  ar  
 48  25  46  1   
 49  26  47  1   
@<TRIPOS>SUBSTRUCTURE
  1 ****  12 GROUP 4 **** **** 0

# MOE 2024.06 (io_trps.svl 2023.06)
