@<TRIPOS>MOLECULE
NONAME
43 45 1 0 0 
SMALL
USER_CHARGES


@<TRIPOS>ATOM
  1 CL       0.5580     0.6120    -1.5250 Cl    1 <1>  -0.1770 
  2 C        1.9320     1.5270    -0.9680 C.ar  1 <1>   0.1770 
  3 C        1.9250     2.8960    -1.0620 C.ar  1 <1>  -0.1500 
  4 C        3.0200     0.8430    -0.4340 C.ar  1 <1>  -0.1500 
  5 C        3.0290     3.6350    -0.6150 C.ar  1 <1>   0.0000 
  6 C        4.1120     1.5530     0.0100 C.ar  1 <1>  -0.1500 
  7 C        4.1340     2.9520    -0.0730 C.ar  1 <1>   0.3610 
  8 C        3.0900     5.0520    -0.6800 C.ar  1 <1>  -0.1500 
  9 N        5.2200     3.6930     0.3650 N.ar  1 <1>  -0.1790 
 10 C        4.1900     5.7150    -0.2310 C.ar  1 <1>  -0.1500 
 11 C        5.3110     5.0270     0.3120 C.ar  1 <1>   0.4610 
 12 N        6.4290     5.6410     0.7700 N.pl3 1 <1>  -0.8380 
 13 C        6.5760     7.1380     0.8280 C.3   1 <1>   0.2090 
 14 C        7.5910     4.9420     1.4220 C.3   1 <1>   0.1290 
 15 C        6.9550     7.7520    -0.5370 C.3   1 <1>  -0.0800 
 16 C        8.3290     7.2670    -1.0350 C.3   1 <1>   0.1400 
 17 C        7.1440     9.2740    -0.3710 C.3   1 <1>  -0.0990 
 18 N        9.2580     8.2610    -0.4770 N.am  1 <1>  -0.6600 
 19 C        8.6230     9.4030    -0.1280 C.2   1 <1>   0.5690 
 20 C       10.7250     8.0820    -0.5240 C.3   1 <1>   0.1400 
 21 O        9.1320    10.3980     0.3220 O.2   1 <1>  -0.5700 
 22 C       11.1490     7.0480     0.5160 C.3   1 <1>  -0.2400 
 23 H        1.0690     3.3970    -1.4800 H     1 <1>   0.1500 
 24 H        2.9820    -0.2330    -0.3800 H     1 <1>   0.1500 
 25 H        4.9520     1.0210     0.4230 H     1 <1>   0.1500 
 26 H        2.2440     5.5820    -1.0900 H     1 <1>   0.1500 
 27 H        6.0090     3.2010     0.7660 H     1 <1>   0.4570 
 28 H        4.2120     6.7860    -0.2840 H     1 <1>   0.1500 
 29 H        7.3260     7.4060     1.5560 H     1 <1>   0.0800 
 30 H        5.6540     7.5740     1.1730 H     1 <1>   0.0800 
 31 H        7.8270     4.0230     0.9160 H     1 <1>   0.0800 
 32 H        7.3630     4.7380     2.4550 H     1 <1>   0.0800 
 33 H        8.4730     5.5610     1.3950 H     1 <1>   0.0800 
 34 H        6.1910     7.5410    -1.2620 H     1 <1>   0.0800 
 35 H        8.3780     7.3100    -2.1100 H     1 <1>   0.0800 
 36 H        8.5700     6.2730    -0.7100 H     1 <1>   0.0800 
 37 H        6.5830     9.6930     0.4450 H     1 <1>   0.0800 
 38 H        6.9050     9.7940    -1.2800 H     1 <1>   0.0800 
 39 H       11.2060     9.0230    -0.3110 H     1 <1>   0.0800 
 40 H       11.0210     7.7680    -1.5110 H     1 <1>   0.0800 
 41 H       10.8290     7.3580     1.4940 H     1 <1>   0.0800 
 42 H       12.2210     6.9660     0.5210 H     1 <1>   0.0800 
 43 H       10.7380     6.0830     0.2840 H     1 <1>   0.0800 
@<TRIPOS>BOND
  1   1   2  1   
  2   2   3  ar  
  3   2   4  ar  
  4   3   5  ar  
  5   3  23  1   
  6   4   6  ar  
  7   4  24  1   
  8   5   7  ar  
  9   5   8  ar  
 10   6   7  ar  
 11   6  25  1   
 12   7   9  ar  
 13   8  10  ar  
 14   8  26  1   
 15   9  11  ar  
 16   9  27  1   
 17  10  11  ar  
 18  10  28  1   
 19  11  12  1   
 20  12  13  1   
 21  12  14  1   
 22  13  15  1   
 23  13  29  1   
 24  13  30  1   
 25  14  31  1   
 26  14  32  1   
 27  14  33  1   
 28  15  16  1   
 29  15  17  1   
 30  15  34  1   
 31  16  18  1   
 32  16  35  1   
 33  16  36  1   
 34  17  19  1   
 35  17  37  1   
 36  17  38  1   
 37  18  19  am  
 38  18  20  1   
 39  19  21  2   
 40  20  22  1   
 41  20  39  1   
 42  20  40  1   
 43  22  41  1   
 44  22  42  1   
 45  22  43  1   
@<TRIPOS>SUBSTRUCTURE
  1 ****  11 GROUP 4 **** **** 0

# MOE 2024.06 (io_trps.svl 2023.06)
