@<TRIPOS>MOLECULE
NONAME
43 46 1 0 0 
SMALL
USER_CHARGES


@<TRIPOS>ATOM
  1 S       -1.0840    -0.4040     1.3550 S.3   1 <1>  -0.0800 
  2 C       -1.4140     1.1000     0.5090 C.2   1 <1>  -0.1400 
  3 C       -2.7480    -0.9290     1.1330 C.2   1 <1>  -0.1100 
  4 C       -2.6890     1.1480     0.1050 C.2   1 <1>  -0.1810 
  5 C       -0.3580     2.1740     0.3020 C.3   1 <1>   0.4600 
  6 C       -3.4600    -0.0030     0.4610 C.2   1 <1>  -0.1500 
  7 C       -3.1870     2.3590    -0.6520 C.3   1 <1>   0.0210 
  8 O       -0.9620     3.3090    -0.2820 O.3   1 <1>  -0.5600 
  9 C        0.2070     2.6460     1.6410 C.3   1 <1>  -0.1600 
 10 C        0.7860     1.7020    -0.6120 C.3   1 <1>  -0.1600 
 11 C       -1.9800     3.1140    -1.2420 C.3   1 <1>   0.1200 
 12 C        1.1500     3.8390     1.4710 C.3   1 <1>   0.3430 
 13 C        2.0840     2.4940    -0.4300 C.3   1 <1>   0.3430 
 14 N        1.7990     3.8390     0.1260 N.4   1 <1>  -0.9590 
 15 C        2.9150     4.8140     0.0220 C.3   1 <1>   0.5230 
 16 C        2.3120     6.1920    -0.2130 C.2   1 <1>   0.0070 
 17 N        2.9910     7.3480    -0.0210 N.pl3 1 <1>   0.0330 
 18 N        1.0950     6.3710    -0.6270 N.2   1 <1>  -0.5650 
 19 C        2.1200     8.3220    -0.3380 C.2   1 <1>  -0.3320 
 20 C        0.9730     7.7100    -0.7050 C.2   1 <1>   0.0770 
 21 C        2.4510     9.8030    -0.2710 C.3   1 <1>  -0.0600 
 22 H       -3.0220    -1.8880     1.5360 H     1 <1>   0.1500 
 23 H       -4.5000    -0.0820     0.1990 H     1 <1>   0.1500 
 24 H       -3.7360     3.0040     0.0110 H     1 <1>   0.0800 
 25 H       -3.8420     2.0550    -1.4490 H     1 <1>   0.0800 
 26 H        0.7380     1.8390     2.1110 H     1 <1>   0.0800 
 27 H       -0.6000     2.9160     2.2980 H     1 <1>   0.0800 
 28 H        0.4760     1.7370    -1.6390 H     1 <1>   0.0800 
 29 H        1.0090     0.6730    -0.3970 H     1 <1>   0.0800 
 30 H       -2.2880     4.0830    -1.5960 H     1 <1>   0.0800 
 31 H       -1.5690     2.5620    -2.0690 H     1 <1>   0.0800 
 32 H        1.8930     3.8200     2.2510 H     1 <1>   0.0800 
 33 H        0.5800     4.7500     1.5720 H     1 <1>   0.0800 
 34 H        2.5850     2.5790    -1.3810 H     1 <1>   0.0800 
 35 H        2.7330     1.9630     0.2480 H     1 <1>   0.0800 
 36 H        1.0660     4.2750    -0.4770 H     1 <1>   0.4500 
 37 H        3.5440     4.5670    -0.8160 H     1 <1>   0.0800 
 38 H        3.5070     4.8050     0.9220 H     1 <1>   0.0800 
 39 H        3.9580     7.4860     0.2920 H     1 <1>   0.2700 
 40 H        0.0520     8.1720    -1.0260 H     1 <1>   0.1500 
 41 H        3.2700    10.0340    -0.9290 H     1 <1>   0.0800 
 42 H        2.7170    10.0830     0.7330 H     1 <1>   0.0800 
 43 H        1.5980    10.3870    -0.5720 H     1 <1>   0.0800 
@<TRIPOS>BOND
  1   1   2  1   
  2   1   3  1   
  3   2   4  2   
  4   2   5  1   
  5   3   6  2   
  6   3  22  1   
  7   4   6  1   
  8   4   7  1   
  9   5   8  1   
 10   5   9  1   
 11   5  10  1   
 12   6  23  1   
 13   7  11  1   
 14   7  24  1   
 15   7  25  1   
 16   8  11  1   
 17   9  12  1   
 18   9  26  1   
 19   9  27  1   
 20  10  13  1   
 21  10  28  1   
 22  10  29  1   
 23  11  30  1   
 24  11  31  1   
 25  12  14  1   
 26  12  32  1   
 27  12  33  1   
 28  13  14  1   
 29  13  34  1   
 30  13  35  1   
 31  14  15  1   
 32  14  36  1   
 33  15  16  1   
 34  15  37  1   
 35  15  38  1   
 36  16  17  1   
 37  16  18  2   
 38  17  19  1   
 39  17  39  1   
 40  18  20  1   
 41  19  20  2   
 42  19  21  1   
 43  20  40  1   
 44  21  41  1   
 45  21  42  1   
 46  21  43  1   
@<TRIPOS>SUBSTRUCTURE
  1 ****   8 GROUP 4 **** **** 0

# MOE 2024.06 (io_trps.svl 2023.06)
