@<TRIPOS>MOLECULE
NONAME
51 53 1 0 0 
SMALL
USER_CHARGES


@<TRIPOS>ATOM
  1 CL      -1.3970    -0.6940    -0.4410 Cl    1 <1>  -0.1770 
  2 C       -1.6320    -2.3730    -0.8530 C.ar  1 <1>   0.1770 
  3 C       -1.3120    -3.3480     0.0600 C.ar  1 <1>  -0.1500 
  4 C       -2.1490    -2.6830    -2.1150 C.ar  1 <1>  -0.1500 
  5 C       -1.5220    -4.6860    -0.2950 C.ar  1 <1>  -0.1520 
  6 C       -2.3540    -3.9970    -2.4650 C.ar  1 <1>  -0.1500 
  7 N       -1.2930    -5.8510     0.3950 N.pl3 1 <1>   0.0480 
  8 C       -2.0440    -5.0090    -1.5450 C.ar  1 <1>   0.0000 
  9 C       -1.7240    -6.9040    -0.3810 C.2   1 <1>  -0.2370 
 10 C       -0.5220    -5.9710     1.6510 C.3   1 <1>   0.0160 
 11 C       -2.1500    -6.4070    -1.5780 C.2   1 <1>  -0.1500 
 12 C       -1.7110    -8.2690     0.0710 C.2   1 <1>   0.7150 
 13 O       -0.8030    -9.0070    -0.2470 O.2   1 <1>  -0.5700 
 14 N       -2.7360    -8.7330     0.8600 N.am  1 <1>  -0.6600 
 15 C       -2.8420   -10.1850     1.2050 C.3   1 <1>   0.3210 
 16 C       -3.8870    -7.8840     1.2780 C.3   1 <1>   0.1400 
 17 C       -3.9600   -10.8530     0.4080 C.2   1 <1>   0.0460 
 18 C       -4.8680    -7.6800     0.1080 C.3   1 <1>   0.3430 
 19 N       -5.2570   -10.7280     0.7720 N.2   1 <1>  -0.5650 
 20 C       -3.8430   -11.6320    -0.6930 C.2   1 <1>  -0.3320 
 21 N       -5.7340    -6.4650     0.2790 N.4   1 <1>  -0.9590 
 22 C       -5.8900   -11.4540    -0.0920 C.2   1 <1>   0.0360 
 23 N       -5.0880   -12.0290    -1.0110 N.pl3 1 <1>   0.0330 
 24 C       -2.6170   -12.0530    -1.4880 C.3   1 <1>  -0.0600 
 25 C       -6.8910    -6.5390    -0.6630 C.3   1 <1>   0.2630 
 26 C       -4.9620    -5.1990     0.0560 C.3   1 <1>   0.2630 
 27 H       -0.9080    -3.0820     1.0190 H     1 <1>   0.1500 
 28 H       -2.3720    -1.8810    -2.7960 H     1 <1>   0.1500 
 29 H       -2.7390    -4.2640    -3.4340 H     1 <1>   0.1500 
 30 H        0.1290    -5.1220     1.7580 H     1 <1>   0.0800 
 31 H        0.0780    -6.8630     1.6220 H     1 <1>   0.0800 
 32 H       -1.1960    -6.0160     2.4860 H     1 <1>   0.0800 
 33 H       -2.5070    -6.9680    -2.4250 H     1 <1>   0.1500 
 34 H       -3.0450   -10.2940     2.2550 H     1 <1>   0.0800 
 35 H       -1.9140   -10.6910     1.0070 H     1 <1>   0.0800 
 36 H       -3.5090    -6.9390     1.6200 H     1 <1>   0.0800 
 37 H       -4.4030    -8.3540     2.0970 H     1 <1>   0.0800 
 38 H       -5.4890    -8.5550     0.0270 H     1 <1>   0.0800 
 39 H       -4.3070    -7.5890    -0.8070 H     1 <1>   0.0800 
 40 H       -6.1080    -6.4740     1.2410 H     1 <1>   0.4500 
 41 H       -6.9560   -11.6070    -0.0940 H     1 <1>   0.1500 
 42 H       -5.3680   -12.6510    -1.7760 H     1 <1>   0.2700 
 43 H       -1.7300   -11.5770    -1.1070 H     1 <1>   0.0800 
 44 H       -2.7270   -11.7720    -2.5200 H     1 <1>   0.0800 
 45 H       -2.4820   -13.1180    -1.4290 H     1 <1>   0.0800 
 46 H       -6.5440    -6.5440    -1.6830 H     1 <1>   0.0800 
 47 H       -7.5430    -5.6910    -0.5230 H     1 <1>   0.0800 
 48 H       -7.4580    -7.4390    -0.4880 H     1 <1>   0.0800 
 49 H       -4.5830    -5.1650    -0.9520 H     1 <1>   0.0800 
 50 H       -4.1250    -5.1380     0.7330 H     1 <1>   0.0800 
 51 H       -5.5930    -4.3400     0.2150 H     1 <1>   0.0800 
@<TRIPOS>BOND
  1   1   2  1   
  2   2   3  ar  
  3   2   4  ar  
  4   3   5  ar  
  5   3  27  1   
  6   4   6  ar  
  7   4  28  1   
  8   5   7  1   
  9   5   8  ar  
 10   6   8  ar  
 11   6  29  1   
 12   7   9  1   
 13   7  10  1   
 14   8  11  1   
 15   9  11  2   
 16   9  12  1   
 17  10  30  1   
 18  10  31  1   
 19  10  32  1   
 20  11  33  1   
 21  12  13  2   
 22  12  14  am  
 23  14  15  1   
 24  14  16  1   
 25  15  17  1   
 26  15  34  1   
 27  15  35  1   
 28  16  18  1   
 29  16  36  1   
 30  16  37  1   
 31  17  19  1   
 32  17  20  2   
 33  18  21  1   
 34  18  38  1   
 35  18  39  1   
 36  19  22  2   
 37  20  23  1   
 38  20  24  1   
 39  21  25  1   
 40  21  26  1   
 41  21  40  1   
 42  22  23  1   
 43  22  41  1   
 44  23  42  1   
 45  24  43  1   
 46  24  44  1   
 47  24  45  1   
 48  25  46  1   
 49  25  47  1   
 50  25  48  1   
 51  26  49  1   
 52  26  50  1   
 53  26  51  1   
@<TRIPOS>SUBSTRUCTURE
  1 ****   9 GROUP 4 **** **** 0

# MOE 2024.06 (io_trps.svl 2023.06)
