@<TRIPOS>MOLECULE
NONAME
53 55 1 0 0 
SMALL
USER_CHARGES


@<TRIPOS>ATOM
  1 CL      -1.3180     0.2220    -2.3520 Cl    1 <1>  -0.1770 
  2 C       -2.3330    -0.7420    -1.3020 C.ar  1 <1>   0.1770 
  3 C       -2.0200    -2.0660    -1.0270 C.ar  1 <1>   0.0820 
  4 C       -3.4570    -0.1590    -0.7580 C.ar  1 <1>  -0.1500 
  5 O       -0.9350    -2.6720    -1.5590 O.3   1 <1>  -0.3630 
  6 C       -2.8530    -2.8020    -0.2030 C.ar  1 <1>  -0.1500 
  7 C       -4.2890    -0.9090     0.0730 C.ar  1 <1>   0.0830 
  8 C        0.2960    -2.4230    -0.9170 C.3   1 <1>   0.0400 
  9 C       -3.9910    -2.2420     0.3690 C.ar  1 <1>  -0.0090 
 10 O       -5.4170    -0.3820     0.6100 O.3   1 <1>  -0.3630 
 11 S       -5.0510    -3.2640     1.4360 S.o2  1 <1>   1.4470 
 12 C       -5.8460     0.9380     0.3570 C.3   1 <1>   0.0400 
 13 O       -4.2620    -4.3900     1.8940 O.2   1 <1>  -0.6500 
 14 O       -5.7750    -2.5150     2.4360 O.2   1 <1>  -0.6500 
 15 N       -6.2000    -3.9500     0.3910 N.am  1 <1>  -0.8490 
 16 C       -7.0070    -4.9520     1.1100 C.3   1 <1>   0.1960 
 17 C       -7.0850    -2.9550    -0.2300 C.3   1 <1>   0.1960 
 18 C       -7.9170    -5.7260     0.1240 C.3   1 <1>   0.4230 
 19 C       -7.9950    -3.6500    -1.2540 C.3   1 <1>  -0.1600 
 20 N       -8.6980    -6.8600     0.7300 N.4   1 <1>  -0.9590 
 21 C       -8.8690    -4.7470    -0.5900 C.3   1 <1>  -0.1060 
 22 C       -9.4290    -7.6420    -0.3000 C.3   1 <1>   0.3430 
 23 C       -7.9510    -7.7200     1.6870 C.3   1 <1>   0.2630 
 24 C       -9.8220    -4.1210     0.4450 C.2   1 <1>   0.9060 
 25 C       -9.6620    -5.5060    -1.6800 C.3   1 <1>  -0.1600 
 26 C      -10.3740    -6.7360    -1.0940 C.3   1 <1>  -0.1600 
 27 O      -10.2400    -2.9790     0.2640 O.co2 1 <1>  -0.9000 
 28 O      -10.1450    -4.7850     1.4420 O.co2 1 <1>  -0.9000 
 29 H       -3.6620     0.8660    -0.9970 H     1 <1>   0.1500 
 30 H       -2.6050    -3.8320    -0.0080 H     1 <1>   0.1500 
 31 H        1.0600    -2.9810    -1.4280 H     1 <1>   0.0800 
 32 H        0.2270    -2.7460     0.1070 H     1 <1>   0.0800 
 33 H        0.5150    -1.3720    -0.9670 H     1 <1>   0.0800 
 34 H       -6.7680     1.0930     0.8890 H     1 <1>   0.0800 
 35 H       -6.0110     1.0580    -0.6990 H     1 <1>   0.0800 
 36 H       -5.1000     1.6240     0.7150 H     1 <1>   0.0800 
 37 H       -6.3410    -5.6490     1.5850 H     1 <1>   0.0800 
 38 H       -7.5960    -4.4690     1.8740 H     1 <1>   0.0800 
 39 H       -7.6720    -2.4450     0.5210 H     1 <1>   0.0800 
 40 H       -6.5030    -2.2170    -0.7530 H     1 <1>   0.0800 
 41 H       -7.2620    -6.1440    -0.6200 H     1 <1>   0.0800 
 42 H       -8.6300    -2.9080    -1.7090 H     1 <1>   0.0800 
 43 H       -7.3810    -4.0690    -2.0310 H     1 <1>   0.0800 
 44 H       -9.4350    -6.3220     1.2640 H     1 <1>   0.4500 
 45 H       -8.7230    -8.1010    -0.9710 H     1 <1>   0.0800 
 46 H      -10.0050    -8.4200     0.1750 H     1 <1>   0.0800 
 47 H       -7.1230    -8.2000     1.1920 H     1 <1>   0.0800 
 48 H       -8.6050    -8.4750     2.0920 H     1 <1>   0.0800 
 49 H       -7.5760    -7.1260     2.5050 H     1 <1>   0.0800 
 50 H      -10.3910    -4.8420    -2.1160 H     1 <1>   0.0800 
 51 H       -8.9950    -5.8240    -2.4630 H     1 <1>   0.0800 
 52 H      -10.8210    -7.3030    -1.8920 H     1 <1>   0.0800 
 53 H      -11.1750    -6.4160    -0.4480 H     1 <1>   0.0800 
@<TRIPOS>BOND
  1   1   2  1   
  2   2   3  ar  
  3   2   4  ar  
  4   3   5  1   
  5   3   6  ar  
  6   4   7  ar  
  7   4  29  1   
  8   5   8  1   
  9   6   9  ar  
 10   6  30  1   
 11   7   9  ar  
 12   7  10  1   
 13   8  31  1   
 14   8  32  1   
 15   8  33  1   
 16   9  11  1   
 17  10  12  1   
 18  11  13  2   
 19  11  14  2   
 20  11  15  am  
 21  12  34  1   
 22  12  35  1   
 23  12  36  1   
 24  15  16  1   
 25  15  17  1   
 26  16  18  1   
 27  16  37  1   
 28  16  38  1   
 29  17  19  1   
 30  17  39  1   
 31  17  40  1   
 32  18  20  1   
 33  18  21  1   
 34  18  41  1   
 35  19  21  1   
 36  19  42  1   
 37  19  43  1   
 38  20  22  1   
 39  20  23  1   
 40  20  44  1   
 41  21  24  1   
 42  21  25  1   
 43  22  26  1   
 44  22  45  1   
 45  22  46  1   
 46  23  47  1   
 47  23  48  1   
 48  23  49  1   
 49  24  27  ar  
 50  24  28  ar  
 51  25  26  1   
 52  25  50  1   
 53  25  51  1   
 54  26  52  1   
 55  26  53  1   
@<TRIPOS>SUBSTRUCTURE
  1 ****  15 GROUP 4 **** **** 0

# MOE 2024.06 (io_trps.svl 2023.06)
