@<TRIPOS>MOLECULE
NONAME
59 63 1 0 0 
SMALL
USER_CHARGES


@<TRIPOS>ATOM
  1 F        0.5640    -1.8750    -0.5110 F     1 <1>  -0.1900 
  2 C        1.2490    -2.9940    -0.5610 C.ar  1 <1>   0.1900 
  3 C        0.6070    -4.2080    -0.2900 C.ar  1 <1>   0.1000 
  4 C        2.5900    -2.9120    -0.8800 C.ar  1 <1>  -0.1500 
  5 N       -0.7490    -4.3330     0.0360 N.pl3 1 <1>  -0.8380 
  6 C        1.3840    -5.3580    -0.3490 C.ar  1 <1>  -0.1500 
  7 C        3.3370    -4.0770    -0.9340 C.ar  1 <1>  -0.1500 
  8 C       -1.7080    -3.9550    -1.0230 C.3   1 <1>   0.2090 
  9 C       -1.1280    -3.8630     1.3840 C.3   1 <1>   0.2090 
 10 C        2.7310    -5.2960    -0.6680 C.ar  1 <1>  -0.1500 
 11 C       -3.0340    -4.6410    -0.7170 C.3   1 <1>  -0.1600 
 12 C       -2.4310    -4.5590     1.7620 C.3   1 <1>  -0.1600 
 13 C       -3.5090    -4.2930     0.7030 C.3   1 <1>   0.4230 
 14 N       -4.7560    -5.0270     1.0740 N.4   1 <1>  -0.9590 
 15 C       -5.9590    -4.7320     0.2450 C.3   1 <1>   0.3430 
 16 C       -4.6450    -6.5220     1.1320 C.3   1 <1>   0.3430 
 17 C       -6.8970    -5.9100     0.5180 C.3   1 <1>   0.2000 
 18 C       -5.9460    -7.1040     0.5480 C.3   1 <1>  -0.0800 
 19 O       -7.4290    -5.7470     1.7920 O.3   1 <1>  -0.6800 
 20 C       -5.7530    -7.6950    -0.8670 C.3   1 <1>  -0.0170 
 21 C       -4.6120    -8.6960    -0.9200 C.ar  1 <1>   0.1670 
 22 N       -3.4340    -8.2150    -1.1680 N.ar  1 <1>  -0.6200 
 23 C       -4.8640   -10.0580    -0.6940 C.ar  1 <1>  -0.1500 
 24 C       -2.3870    -9.0790    -1.2040 C.ar  1 <1>   0.3100 
 25 C       -3.8340   -10.9480    -0.7250 C.ar  1 <1>  -0.1500 
 26 C       -2.5400   -10.4650    -0.9840 C.ar  1 <1>   0.0000 
 27 C       -1.1000    -8.5760    -1.4570 C.ar  1 <1>  -0.1500 
 28 C       -1.4010   -11.2930    -1.0300 C.ar  1 <1>  -0.1500 
 29 C       -0.0060    -9.3990    -1.4960 C.ar  1 <1>  -0.1500 
 30 C       -0.1600   -10.7720    -1.2800 C.ar  1 <1>  -0.1500 
 31 H        3.0380    -1.9560    -1.0810 H     1 <1>   0.1500 
 32 H        0.9190    -6.3040    -0.1410 H     1 <1>   0.1500 
 33 H        4.3840    -4.0370    -1.1810 H     1 <1>   0.1500 
 34 H       -1.8250    -2.8840    -1.0460 H     1 <1>   0.0800 
 35 H       -1.3340    -4.2790    -1.9810 H     1 <1>   0.0800 
 36 H       -0.3520    -4.1180     2.0880 H     1 <1>   0.0800 
 37 H       -1.2470    -2.7920     1.3790 H     1 <1>   0.0800 
 38 H        3.3120    -6.2020    -0.7080 H     1 <1>   0.1500 
 39 H       -2.8730    -5.6950    -0.8220 H     1 <1>   0.0800 
 40 H       -3.7510    -4.3250    -1.4500 H     1 <1>   0.0800 
 41 H       -2.7530    -4.1930     2.7200 H     1 <1>   0.0800 
 42 H       -2.2200    -5.6100     1.8430 H     1 <1>   0.0800 
 43 H       -3.7190    -3.2350     0.7200 H     1 <1>   0.0800 
 44 H       -5.0270    -4.7430     2.0270 H     1 <1>   0.4500 
 45 H       -6.4180    -3.7960     0.5140 H     1 <1>   0.0800 
 46 H       -5.6970    -4.7220    -0.7990 H     1 <1>   0.0800 
 47 H       -3.7800    -6.8620     0.5940 H     1 <1>   0.0800 
 48 H       -4.5390    -6.8330     2.1590 H     1 <1>   0.0800 
 49 H       -7.7000    -5.9880    -0.1960 H     1 <1>   0.0800 
 50 H       -6.3150    -7.8870     1.1880 H     1 <1>   0.0800 
 51 H       -8.1540    -6.3860     1.9620 H     1 <1>   0.4000 
 52 H       -5.5400    -6.9130    -1.5760 H     1 <1>   0.0800 
 53 H       -6.6600    -8.1760    -1.1870 H     1 <1>   0.0800 
 54 H       -5.8680   -10.3900    -0.5000 H     1 <1>   0.1500 
 55 H       -3.9840   -12.0010    -0.5590 H     1 <1>   0.1500 
 56 H       -0.9980    -7.5190    -1.6210 H     1 <1>   0.1500 
 57 H       -1.5230   -12.3490    -0.8650 H     1 <1>   0.1500 
 58 H        0.9770    -9.0040    -1.6930 H     1 <1>   0.1500 
 59 H        0.7090   -11.4070    -1.3140 H     1 <1>   0.1500 
@<TRIPOS>BOND
  1   1   2  1   
  2   2   3  ar  
  3   2   4  ar  
  4   3   5  1   
  5   3   6  ar  
  6   4   7  ar  
  7   4  31  1   
  8   5   8  1   
  9   5   9  1   
 10   6  10  ar  
 11   6  32  1   
 12   7  10  ar  
 13   7  33  1   
 14   8  11  1   
 15   8  34  1   
 16   8  35  1   
 17   9  12  1   
 18   9  36  1   
 19   9  37  1   
 20  10  38  1   
 21  11  13  1   
 22  11  39  1   
 23  11  40  1   
 24  12  13  1   
 25  12  41  1   
 26  12  42  1   
 27  13  14  1   
 28  13  43  1   
 29  14  15  1   
 30  14  16  1   
 31  14  44  1   
 32  15  17  1   
 33  15  45  1   
 34  15  46  1   
 35  16  18  1   
 36  16  47  1   
 37  16  48  1   
 38  17  18  1   
 39  17  19  1   
 40  17  49  1   
 41  18  20  1   
 42  18  50  1   
 43  19  51  1   
 44  20  21  1   
 45  20  52  1   
 46  20  53  1   
 47  21  22  ar  
 48  21  23  ar  
 49  22  24  ar  
 50  23  25  ar  
 51  23  54  1   
 52  24  26  ar  
 53  24  27  ar  
 54  25  26  ar  
 55  25  55  1   
 56  26  28  ar  
 57  27  29  ar  
 58  27  56  1   
 59  28  30  ar  
 60  28  57  1   
 61  29  30  ar  
 62  29  58  1   
 63  30  59  1   
@<TRIPOS>SUBSTRUCTURE
  1 ****  11 GROUP 4 **** **** 0

# MOE 2024.06 (io_trps.svl 2023.06)
