@<TRIPOS>MOLECULE
NONAME
51 53 1 0 0 
SMALL
USER_CHARGES


@<TRIPOS>ATOM
  1 O        0.9910     1.3380     0.3690 O.2   1 <1>  -0.5700 
  2 C       -0.0700     1.9120     0.3290 C.2   1 <1>   0.5690 
  3 N       -0.3650     2.9570    -0.4700 N.am  1 <1>  -0.6600 
  4 C       -1.2420     1.5600     1.2010 C.3   1 <1>  -0.0990 
  5 C       -1.7230     3.4820    -0.2630 C.3   1 <1>   0.1400 
  6 C        0.5660     3.6010    -1.4480 C.3   1 <1>   0.2010 
  7 C       -2.3800     2.4480     0.6630 C.3   1 <1>  -0.1600 
  8 C        0.8240     5.0840    -1.1650 C.2   1 <1>   0.5690 
  9 O        0.2040     5.8870    -1.8260 O.2   1 <1>  -0.5700 
 10 N        1.7310     5.4910    -0.2150 N.am  1 <1>  -0.6600 
 11 C        2.4990     4.5760     0.6940 C.3   1 <1>   0.1400 
 12 C        2.0130     6.9340     0.0060 C.3   1 <1>   0.1400 
 13 C        3.9730     4.4320     0.2810 C.3   1 <1>   0.1400 
 14 C        3.1180     7.4360    -0.9340 C.3   1 <1>  -0.1600 
 15 N        4.6470     5.7600     0.1220 N.am  1 <1>  -0.6600 
 16 C        4.2980     6.4760    -1.1380 C.3   1 <1>   0.1400 
 17 C        5.3130     6.3580     1.1740 C.2   1 <1>   0.5440 
 18 O        5.3120     5.7960     2.2540 O.2   1 <1>  -0.5700 
 19 C        5.9590     7.6400     1.0500 C.ar  1 <1>   0.0860 
 20 C        7.0710     7.8330     0.2080 C.ar  1 <1>   0.4100 
 21 C        5.4950     8.7260     1.7780 C.ar  1 <1>  -0.1500 
 22 N        7.6730     9.0100     0.0460 N.ar  1 <1>  -0.6200 
 23 N        7.6090     6.7850    -0.5090 N.pl3 1 <1>  -0.8690 
 24 C        6.1280     9.9370     1.6160 C.ar  1 <1>  -0.1500 
 25 C        7.1980    10.0220     0.7440 C.ar  1 <1>   0.1600 
 26 C        8.9210     6.8340    -1.2040 C.3   1 <1>   0.1290 
 27 H       -1.0060     1.8040     2.2190 H     1 <1>   0.0800 
 28 H       -1.4740     0.5140     1.1150 H     1 <1>   0.0800 
 29 H       -2.2470     3.5650    -1.2010 H     1 <1>   0.0800 
 30 H       -1.6690     4.4480     0.2110 H     1 <1>   0.0800 
 31 H        0.1410     3.5140    -2.4310 H     1 <1>   0.0800 
 32 H        1.5030     3.0760    -1.4550 H     1 <1>   0.0800 
 33 H       -2.9250     2.9270     1.4570 H     1 <1>   0.0800 
 34 H       -3.0660     1.8510     0.0870 H     1 <1>   0.0800 
 35 H        2.0510     3.6020     0.7180 H     1 <1>   0.0800 
 36 H        2.4600     4.9580     1.6990 H     1 <1>   0.0800 
 37 H        2.3190     7.0840     1.0280 H     1 <1>   0.0800 
 38 H        1.1170     7.5100    -0.1500 H     1 <1>   0.0800 
 39 H        4.0330     3.8840    -0.6420 H     1 <1>   0.0800 
 40 H        4.4860     3.8510     1.0280 H     1 <1>   0.0800 
 41 H        3.4870     8.3720    -0.5580 H     1 <1>   0.0800 
 42 H        2.6810     7.6420    -1.8950 H     1 <1>   0.0800 
 43 H        5.1480     7.0190    -1.5120 H     1 <1>   0.0800 
 44 H        4.0300     5.7520    -1.8880 H     1 <1>   0.0800 
 45 H        4.6630     8.6120     2.4510 H     1 <1>   0.1500 
 46 H        7.2600     5.8460    -0.2840 H     1 <1>   0.4000 
 47 H        5.8020    10.8060     2.1580 H     1 <1>   0.1500 
 48 H        7.6880    10.9730     0.6180 H     1 <1>   0.1500 
 49 H        8.9880     7.7270    -1.8020 H     1 <1>   0.0800 
 50 H        9.0290     5.9770    -1.8450 H     1 <1>   0.0800 
 51 H        9.7150     6.8400    -0.4780 H     1 <1>   0.0800 
@<TRIPOS>BOND
  1   1   2  2   
  2   2   3  am  
  3   2   4  1   
  4   3   5  1   
  5   3   6  1   
  6   4   7  1   
  7   4  27  1   
  8   4  28  1   
  9   5   7  1   
 10   5  29  1   
 11   5  30  1   
 12   6   8  1   
 13   6  31  1   
 14   6  32  1   
 15   7  33  1   
 16   7  34  1   
 17   8   9  2   
 18   8  10  am  
 19  10  11  1   
 20  10  12  1   
 21  11  13  1   
 22  11  35  1   
 23  11  36  1   
 24  12  14  1   
 25  12  37  1   
 26  12  38  1   
 27  13  15  1   
 28  13  39  1   
 29  13  40  1   
 30  14  16  1   
 31  14  41  1   
 32  14  42  1   
 33  15  16  1   
 34  15  17  am  
 35  16  43  1   
 36  16  44  1   
 37  17  18  2   
 38  17  19  1   
 39  19  20  ar  
 40  19  21  ar  
 41  20  22  ar  
 42  20  23  1   
 43  21  24  ar  
 44  21  45  1   
 45  22  25  ar  
 46  23  26  1   
 47  23  46  1   
 48  24  25  ar  
 49  24  47  1   
 50  25  48  1   
 51  26  49  1   
 52  26  50  1   
 53  26  51  1   
@<TRIPOS>SUBSTRUCTURE
  1 ****  15 GROUP 4 **** **** 0

# MOE 2024.06 (io_trps.svl 2023.06)
