@<TRIPOS>MOLECULE
NONAME
42 43 1 0 0 
SMALL
USER_CHARGES


@<TRIPOS>ATOM
  1 CL      -1.2650    -5.6180     2.1930 Cl    1 <1>  -0.1770 
  2 C       -2.5540    -4.8170     1.3310 C.ar  1 <1>   0.1770 
  3 C       -2.8090    -5.1640     0.0180 C.ar  1 <1>  -0.1500 
  4 C       -3.2990    -3.8470     1.9730 C.ar  1 <1>  -0.1500 
  5 C       -3.8340    -4.5290    -0.6610 C.ar  1 <1>  -0.1500 
  6 C       -4.3240    -3.2150     1.2880 C.ar  1 <1>  -0.1500 
  7 C       -4.6010    -3.5550    -0.0310 C.ar  1 <1>  -0.1430 
  8 C       -5.7410    -2.8640    -0.7830 C.3   1 <1>   0.1250 
  9 C       -6.6340    -3.8870    -1.5140 C.2   1 <1>   0.5690 
 10 C       -5.1470    -1.7820    -1.7050 C.3   1 <1>  -0.2400 
 11 O       -6.5410    -3.9600    -2.7200 O.2   1 <1>  -0.5700 
 12 N       -7.5060    -4.7000    -0.8280 N.am  1 <1>  -0.6600 
 13 C       -8.2950    -5.7420    -1.5690 C.3   1 <1>   0.3210 
 14 C       -7.6300    -4.7590     0.6660 C.3   1 <1>   0.1400 
 15 C       -8.0100    -7.1430    -1.0380 C.2   1 <1>   0.0460 
 16 C       -9.0550    -4.4280     1.1220 C.3   1 <1>   0.1200 
 17 N       -8.8360    -7.7350    -0.1470 N.2   1 <1>  -0.5650 
 18 C       -6.9640    -7.9490    -1.3350 C.2   1 <1>  -0.3320 
 19 O       -9.1000    -4.4280     2.5080 O.3   1 <1>  -0.6800 
 20 C       -8.2820    -8.8830     0.0700 C.2   1 <1>   0.0360 
 21 N       -7.1400    -9.0750    -0.6220 N.pl3 1 <1>   0.0330 
 22 C       -5.7770    -7.7190    -2.2560 C.3   1 <1>  -0.0600 
 23 H       -2.2130    -5.9180    -0.4620 H     1 <1>   0.1500 
 24 H       -3.0790    -3.5930     2.9940 H     1 <1>   0.1500 
 25 H       -4.0340    -4.7950    -1.6860 H     1 <1>   0.1500 
 26 H       -4.9020    -2.4580     1.7890 H     1 <1>   0.1500 
 27 H       -6.3680    -2.3490    -0.0790 H     1 <1>   0.0800 
 28 H       -4.5000    -2.2310    -2.4380 H     1 <1>   0.0800 
 29 H       -4.5780    -1.0740    -1.1300 H     1 <1>   0.0800 
 30 H       -5.9350    -1.2610    -2.2190 H     1 <1>   0.0800 
 31 H       -8.0630    -5.7280    -2.6180 H     1 <1>   0.0800 
 32 H       -9.3450    -5.5340    -1.4740 H     1 <1>   0.0800 
 33 H       -6.9610    -4.0660     1.1360 H     1 <1>   0.0800 
 34 H       -7.3620    -5.7430     1.0070 H     1 <1>   0.0800 
 35 H       -9.7600    -5.1590     0.7660 H     1 <1>   0.0800 
 36 H       -9.3390    -3.4470     0.7840 H     1 <1>   0.0800 
 37 H       -9.0410    -5.3450     2.8440 H     1 <1>   0.4000 
 38 H       -8.6780    -9.6290     0.7360 H     1 <1>   0.1500 
 39 H       -6.5380    -9.9030    -0.6030 H     1 <1>   0.2700 
 40 H       -5.8370    -6.7480    -2.7130 H     1 <1>   0.0800 
 41 H       -5.7600    -8.4620    -3.0340 H     1 <1>   0.0800 
 42 H       -4.8600    -7.7730    -1.6970 H     1 <1>   0.0800 
@<TRIPOS>BOND
  1   1   2  1   
  2   2   3  ar  
  3   2   4  ar  
  4   3   5  ar  
  5   3  23  1   
  6   4   6  ar  
  7   4  24  1   
  8   5   7  ar  
  9   5  25  1   
 10   6   7  ar  
 11   6  26  1   
 12   7   8  1   
 13   8   9  1   
 14   8  10  1   
 15   8  27  1   
 16   9  11  2   
 17   9  12  am  
 18  10  28  1   
 19  10  29  1   
 20  10  30  1   
 21  12  13  1   
 22  12  14  1   
 23  13  15  1   
 24  13  31  1   
 25  13  32  1   
 26  14  16  1   
 27  14  33  1   
 28  14  34  1   
 29  15  17  1   
 30  15  18  2   
 31  16  19  1   
 32  16  35  1   
 33  16  36  1   
 34  17  20  2   
 35  18  21  1   
 36  18  22  1   
 37  19  37  1   
 38  20  21  1   
 39  20  38  1   
 40  21  39  1   
 41  22  40  1   
 42  22  41  1   
 43  22  42  1   
@<TRIPOS>SUBSTRUCTURE
  1 ****  12 GROUP 4 **** **** 0

# MOE 2024.06 (io_trps.svl 2023.06)
