@<TRIPOS>MOLECULE
NONAME
50 52 1 0 0 
SMALL
USER_CHARGES


@<TRIPOS>ATOM
  1 O       -0.2070     2.9530    -2.1520 O.co2 1 <1>  -0.9000 
  2 C       -0.4730     2.0090    -1.3900 C.2   1 <1>   0.9060 
  3 O       -0.8560     0.9190    -1.8090 O.co2 1 <1>  -0.9000 
  4 C       -0.4620     2.2800     0.1050 C.3   1 <1>  -0.1060 
  5 C       -1.8710     2.8610     0.4010 C.3   1 <1>   0.2000 
  6 C        0.6270     3.3310     0.3660 C.3   1 <1>   0.3430 
  7 C       -0.1000     1.0130     0.9370 C.3   1 <1>  -0.0170 
  8 O       -2.6720     1.9500     1.0580 O.3   1 <1>  -0.6800 
  9 C       -1.8240     4.1320     1.2480 C.3   1 <1>  -0.1600 
 10 N        0.1890     4.6510    -0.1580 N.4   1 <1>  -0.9590 
 11 C        1.3940     0.7000     0.9260 C.ar  1 <1>  -0.1440 
 12 C       -0.9950     5.2190     0.5530 C.3   1 <1>   0.3430 
 13 C        1.3300     5.5760    -0.3600 C.3   1 <1>   0.3430 
 14 C        1.9890     0.1690    -0.2070 C.ar  1 <1>  -0.1500 
 15 C        2.1740     0.9540     2.0460 C.ar  1 <1>  -0.1500 
 16 C        0.9880     6.6450    -1.3960 C.3   1 <1>  -0.0170 
 17 C        3.3480    -0.0900    -0.2290 C.ar  1 <1>  -0.1500 
 18 C        3.5340     0.6950     2.0250 C.ar  1 <1>  -0.1500 
 19 C        2.2070     7.5180    -1.6170 C.ar  1 <1>  -0.1440 
 20 C        4.1220     0.1750     0.8860 C.ar  1 <1>  -0.1500 
 21 C        2.3850     8.6790    -0.8800 C.ar  1 <1>  -0.1500 
 22 C        3.1620     7.1520    -2.5540 C.ar  1 <1>  -0.1500 
 23 C        3.5090     9.4620    -1.0740 C.ar  1 <1>  -0.1500 
 24 C        4.2860     7.9350    -2.7480 C.ar  1 <1>  -0.1500 
 25 C        4.4600     9.0900    -2.0070 C.ar  1 <1>  -0.1500 
 26 H       -2.3760     3.0970    -0.5250 H     1 <1>   0.0800 
 27 H        1.5310     3.0170    -0.1330 H     1 <1>   0.0800 
 28 H        0.8250     3.4010     1.4210 H     1 <1>   0.0800 
 29 H       -0.4040     1.1580     1.9580 H     1 <1>   0.0800 
 30 H       -0.6410     0.1560     0.5710 H     1 <1>   0.0800 
 31 H       -2.7900     1.1620     0.4830 H     1 <1>   0.4000 
 32 H       -2.8220     4.5020     1.4060 H     1 <1>   0.0800 
 33 H       -1.3950     3.9130     2.2090 H     1 <1>   0.0800 
 34 H       -0.1120     4.3530    -1.1260 H     1 <1>   0.4500 
 35 H       -0.6730     5.9350     1.2900 H     1 <1>   0.0800 
 36 H       -1.6150     5.7320    -0.1650 H     1 <1>   0.0800 
 37 H        1.6040     6.0410     0.5730 H     1 <1>   0.0800 
 38 H        2.1800     5.0190    -0.7210 H     1 <1>   0.0800 
 39 H        1.3950    -0.0480    -1.0820 H     1 <1>   0.1500 
 40 H        1.7290     1.3500     2.9410 H     1 <1>   0.1500 
 41 H        0.7120     6.1730    -2.3240 H     1 <1>   0.0800 
 42 H        0.1670     7.2510    -1.0610 H     1 <1>   0.0800 
 43 H        3.7980    -0.5000    -1.1170 H     1 <1>   0.1500 
 44 H        4.1340     0.8920     2.8960 H     1 <1>   0.1500 
 45 H        5.1790    -0.0280     0.8680 H     1 <1>   0.1500 
 46 H        1.6540     8.9850    -0.1520 H     1 <1>   0.1500 
 47 H        3.0380     6.2560    -3.1400 H     1 <1>   0.1500 
 48 H        3.6450    10.3630    -0.5010 H     1 <1>   0.1500 
 49 H        5.0240     7.6480    -3.4770 H     1 <1>   0.1500 
 50 H        5.3340     9.7000    -2.1590 H     1 <1>   0.1500 
@<TRIPOS>BOND
  1   1   2  ar  
  2   2   3  ar  
  3   2   4  1   
  4   4   5  1   
  5   4   6  1   
  6   4   7  1   
  7   5   8  1   
  8   5   9  1   
  9   5  26  1   
 10   6  10  1   
 11   6  27  1   
 12   6  28  1   
 13   7  11  1   
 14   7  29  1   
 15   7  30  1   
 16   8  31  1   
 17   9  12  1   
 18   9  32  1   
 19   9  33  1   
 20  10  12  1   
 21  10  13  1   
 22  10  34  1   
 23  11  14  ar  
 24  11  15  ar  
 25  12  35  1   
 26  12  36  1   
 27  13  16  1   
 28  13  37  1   
 29  13  38  1   
 30  14  17  ar  
 31  14  39  1   
 32  15  18  ar  
 33  15  40  1   
 34  16  19  1   
 35  16  41  1   
 36  16  42  1   
 37  17  20  ar  
 38  17  43  1   
 39  18  20  ar  
 40  18  44  1   
 41  19  21  ar  
 42  19  22  ar  
 43  20  45  1   
 44  21  23  ar  
 45  21  46  1   
 46  22  24  ar  
 47  22  47  1   
 48  23  25  ar  
 49  23  48  1   
 50  24  25  ar  
 51  24  49  1   
 52  25  50  1   
@<TRIPOS>SUBSTRUCTURE
  1 ****   6 GROUP 4 **** **** 0

# MOE 2024.06 (io_trps.svl 2023.06)
