@<TRIPOS>MOLECULE
NONAME
48 52 1 0 0 
SMALL
USER_CHARGES


@<TRIPOS>ATOM
  1 S       -0.0490     0.6930    -1.4700 S.3   1 <1>  -0.0800 
  2 C       -1.2450     1.3220    -0.3470 C.2   1 <1>  -0.1400 
  3 C       -1.1620    -0.5610    -2.0000 C.2   1 <1>  -0.1100 
  4 C       -2.3790     0.6140    -0.4160 C.2   1 <1>  -0.1810 
  5 C       -0.9760     2.5150     0.5610 C.3   1 <1>   0.4600 
  6 C       -2.3390    -0.4670    -1.3520 C.2   1 <1>  -0.1500 
  7 C       -3.5500     0.9980     0.4590 C.3   1 <1>   0.0210 
  8 O       -2.0770     2.6880     1.4310 O.3   1 <1>  -0.5600 
  9 C       -0.7780     3.8060    -0.2420 C.3   1 <1>  -0.1600 
 10 C        0.2420     2.2580     1.4530 C.3   1 <1>  -0.1600 
 11 C       -3.3720     2.4580     0.9210 C.3   1 <1>   0.1200 
 12 C       -0.4800     4.9980     0.6710 C.3   1 <1>   0.1400 
 13 C        0.5380     3.4560     2.3560 C.3   1 <1>   0.1400 
 14 N        0.7030     4.6880     1.5250 N.am  1 <1>  -0.6600 
 15 C        1.9410     5.2790     1.3800 C.2   1 <1>   0.7030 
 16 O        2.9420     4.6110     1.5570 O.2   1 <1>  -0.5700 
 17 C        2.1120     6.6780     1.0220 C.2   1 <1>   0.2770 
 18 N        3.2590     7.2120     0.4590 N.pl3 1 <1>  -0.7000 
 19 C        1.2640     7.7230     1.1790 C.2   1 <1>   0.2000 
 20 C        3.1010     8.5280     0.2800 C.cat 1 <1>   0.7910 
 21 N        1.8630     8.8720     0.7120 N.pl3 1 <1>  -0.6290 
 22 C        3.9840     9.4970    -0.2460 C.2   1 <1>  -0.1290 
 23 C        1.4410    10.1820     0.6480 C.2   1 <1>   0.2290 
 24 C        3.5650    10.8000    -0.3130 C.2   1 <1>  -0.1500 
 25 C        5.3750     9.0960    -0.7270 C.3   1 <1>  -0.1020 
 26 C        2.2730    11.1370     0.1430 C.2   1 <1>  -0.1500 
 27 H       -0.8110    -1.2460    -2.7510 H     1 <1>   0.1500 
 28 H       -3.1860    -1.1150    -1.4940 H     1 <1>   0.1500 
 29 H       -3.5980     0.3460     1.3120 H     1 <1>   0.0800 
 30 H       -4.4690     0.9080    -0.0920 H     1 <1>   0.0800 
 31 H       -1.6500     4.0020    -0.8370 H     1 <1>   0.0800 
 32 H        0.0450     3.6740    -0.9210 H     1 <1>   0.0800 
 33 H        1.1070     2.0630     0.8460 H     1 <1>   0.0800 
 34 H        0.0630     1.3840     2.0520 H     1 <1>   0.0800 
 35 H       -4.0770     2.6880     1.7000 H     1 <1>   0.0800 
 36 H       -3.5380     3.1300     0.0980 H     1 <1>   0.0800 
 37 H       -1.3320     5.1920     1.3030 H     1 <1>   0.0800 
 38 H       -0.3030     5.8640     0.0600 H     1 <1>   0.0800 
 39 H        1.4280     3.2630     2.9320 H     1 <1>   0.0800 
 40 H       -0.2760     3.6010     3.0460 H     1 <1>   0.0800 
 41 H        4.1030     6.6630     0.2690 H     1 <1>   0.4500 
 42 H        0.2740     7.7150     1.6060 H     1 <1>   0.1500 
 43 H        0.4510    10.4190     1.0050 H     1 <1>   0.1500 
 44 H        4.1950    11.5830    -0.7060 H     1 <1>   0.1500 
 45 H        5.3040     8.3800    -1.5270 H     1 <1>   0.0800 
 46 H        5.9410     8.6660     0.0800 H     1 <1>   0.0800 
 47 H        5.9140     9.9530    -1.0940 H     1 <1>   0.0800 
 48 H        1.9590    12.1660     0.0840 H     1 <1>   0.1500 
@<TRIPOS>BOND
  1   1   2  1   
  2   1   3  1   
  3   2   4  2   
  4   2   5  1   
  5   3   6  2   
  6   3  27  1   
  7   4   6  1   
  8   4   7  1   
  9   5   8  1   
 10   5   9  1   
 11   5  10  1   
 12   6  28  1   
 13   7  11  1   
 14   7  29  1   
 15   7  30  1   
 16   8  11  1   
 17   9  12  1   
 18   9  31  1   
 19   9  32  1   
 20  10  13  1   
 21  10  33  1   
 22  10  34  1   
 23  11  35  1   
 24  11  36  1   
 25  12  14  1   
 26  12  37  1   
 27  12  38  1   
 28  13  14  1   
 29  13  39  1   
 30  13  40  1   
 31  14  15  am  
 32  15  16  2   
 33  15  17  1   
 34  17  18  1   
 35  17  19  2   
 36  18  20  ar  
 37  18  41  1   
 38  19  21  1   
 39  19  42  1   
 40  20  21  ar  
 41  20  22  1   
 42  21  23  1   
 43  22  24  2   
 44  22  25  1   
 45  23  26  2   
 46  23  43  1   
 47  24  26  1   
 48  24  44  1   
 49  25  45  1   
 50  25  46  1   
 51  25  47  1   
 52  26  48  1   
@<TRIPOS>SUBSTRUCTURE
  1 ****  12 GROUP 4 **** **** 0

# MOE 2024.06 (io_trps.svl 2023.06)
