@<TRIPOS>MOLECULE
NONAME
33 34 1 0 0 
SMALL
USER_CHARGES


@<TRIPOS>ATOM
  1 CL      -0.6660    -0.7870     1.2350 Cl    1 <1>  -0.1770 
  2 C        0.8170    -1.6240     0.8470 C.ar  1 <1>   0.1770 
  3 C        0.9600    -2.3310    -0.3420 C.ar  1 <1>  -0.0090 
  4 C        1.8350    -1.5430     1.7800 C.ar  1 <1>  -0.1500 
  5 S       -0.3860    -2.4500    -1.5420 S.o2  1 <1>   1.4470 
  6 C        2.1790    -2.9700    -0.5690 C.ar  1 <1>  -0.1500 
  7 C        3.0270    -2.1850     1.5210 C.ar  1 <1>   0.1770 
  8 O       -0.9110    -1.1310    -1.8260 O.2   1 <1>  -0.6500 
  9 O        0.0460    -3.2560    -2.6650 O.2   1 <1>  -0.6500 
 10 N       -1.5640    -3.3370    -0.7130 N.am  1 <1>  -0.8490 
 11 C        3.2110    -2.9010     0.3530 C.ar  1 <1>  -0.1500 
 12 CL       4.3240    -2.0920     2.6820 Cl    1 <1>  -0.1770 
 13 C       -1.1550    -4.7240    -0.3950 C.3   1 <1>   0.1960 
 14 C       -2.9040    -3.2250    -1.2780 C.3   1 <1>   0.1960 
 15 C       -2.3320    -5.6860    -0.2280 C.3   1 <1>  -0.1860 
 16 C       -3.9470    -3.7360    -0.2700 C.3   1 <1>  -0.1600 
 17 C       -1.8570    -6.9160     0.5010 C.2   1 <1>   0.9060 
 18 C       -3.5300    -5.0260     0.4550 C.3   1 <1>   0.2000 
 19 O       -1.6810    -7.9480    -0.1460 O.co2 1 <1>  -0.9000 
 20 O       -1.6350    -6.8400     1.7160 O.co2 1 <1>  -0.9000 
 21 O       -3.1860    -4.7150     1.7560 O.3   1 <1>  -0.6800 
 22 H        1.6970    -0.9920     2.6920 H     1 <1>   0.1500 
 23 H        2.3200    -3.5340    -1.4780 H     1 <1>   0.1500 
 24 H        4.1480    -3.3980     0.1720 H     1 <1>   0.1500 
 25 H       -0.5130    -5.1230    -1.1630 H     1 <1>   0.0800 
 26 H       -0.5910    -4.7010     0.5230 H     1 <1>   0.0800 
 27 H       -3.1250    -2.1970    -1.5100 H     1 <1>   0.0800 
 28 H       -2.9520    -3.7940    -2.1920 H     1 <1>   0.0800 
 29 H       -2.6400    -6.0120    -1.2030 H     1 <1>   0.0800 
 30 H       -4.8570    -3.9220    -0.8080 H     1 <1>   0.0800 
 31 H       -4.1530    -2.9620     0.4490 H     1 <1>   0.0800 
 32 H       -4.3530    -5.7190     0.5060 H     1 <1>   0.0800 
 33 H       -2.5930    -5.4590     2.0710 H     1 <1>   0.4000 
@<TRIPOS>BOND
  1   1   2  1   
  2   2   3  ar  
  3   2   4  ar  
  4   3   5  1   
  5   3   6  ar  
  6   4   7  ar  
  7   4  22  1   
  8   5   8  2   
  9   5   9  2   
 10   5  10  am  
 11   6  11  ar  
 12   6  23  1   
 13   7  11  ar  
 14   7  12  1   
 15  10  13  1   
 16  10  14  1   
 17  11  24  1   
 18  13  15  1   
 19  13  25  1   
 20  13  26  1   
 21  14  16  1   
 22  14  27  1   
 23  14  28  1   
 24  15  17  1   
 25  15  18  1   
 26  15  29  1   
 27  16  18  1   
 28  16  30  1   
 29  16  31  1   
 30  17  19  ar  
 31  17  20  ar  
 32  18  21  1   
 33  18  32  1   
 34  21  33  1   
@<TRIPOS>SUBSTRUCTURE
  1 ****  10 GROUP 4 **** **** 0

# MOE 2024.06 (io_trps.svl 2023.06)
