@<TRIPOS>MOLECULE
NONAME
46 48 1 0 0 
SMALL
USER_CHARGES


@<TRIPOS>ATOM
  1 S       -0.5030     1.1240    -1.4330 S.o2  1 <1>   1.5010 
  2 O       -0.2240     0.9220    -2.8390 O.2   1 <1>  -0.6500 
  3 O       -1.1620     2.3480    -1.0260 O.2   1 <1>  -0.6500 
  4 N       -1.4750    -0.1590    -0.9040 N.am  1 <1>  -0.8490 
  5 C        1.0160     0.9310    -0.4630 C.2   1 <1>  -0.0630 
  6 C       -0.9400    -1.4800    -1.3040 C.3   1 <1>   0.1960 
  7 C       -2.8470    -0.0450    -1.3960 C.3   1 <1>   0.1960 
  8 C        1.1300     0.9950     0.8820 C.2   1 <1>  -0.1400 
  9 C        2.2800     0.6730    -1.1000 C.2   1 <1>  -0.1500 
 10 C       -1.8040    -2.6750    -0.8070 C.3   1 <1>  -0.1060 
 11 C       -3.7630    -1.0240    -0.6520 C.3   1 <1>  -0.1600 
 12 S        2.7910     0.7630     1.3980 S.3   1 <1>  -0.0800 
 13 C        0.1050     1.2190     1.9770 C.3   1 <1>  -0.0600 
 14 C        3.3210     0.5570    -0.2570 C.2   1 <1>  -0.1400 
 15 C       -2.3130    -3.4260    -2.0460 C.2   1 <1>   0.9060 
 16 C       -2.9780    -2.1350     0.0530 C.3   1 <1>   0.2000 
 17 C       -0.9410    -3.6900    -0.0060 C.3   1 <1>  -0.0650 
 18 C        4.7940     0.2910    -0.4860 C.3   1 <1>  -0.0600 
 19 O       -1.5150    -3.6760    -2.9560 O.co2 1 <1>  -0.9000 
 20 O       -3.4900    -3.8130    -2.1110 O.co2 1 <1>  -0.9000 
 21 O       -3.8620    -3.1460     0.3700 O.3   1 <1>  -0.6800 
 22 C       -0.2840    -3.1680     1.2850 C.3   1 <1>  -0.1950 
 23 C        1.1000    -2.6000     1.3100 C.3   1 <1>  -0.2000 
 24 C        0.8320    -3.9550     1.8950 C.3   1 <1>  -0.2000 
 25 H       -0.8520    -1.5030    -2.3790 H     1 <1>   0.0800 
 26 H        0.0580    -1.5800    -0.9240 H     1 <1>   0.0800 
 27 H       -3.2180     0.9560    -1.2490 H     1 <1>   0.0800 
 28 H       -2.8680    -0.2560    -2.4540 H     1 <1>   0.0800 
 29 H        2.3360     0.5870    -2.1720 H     1 <1>   0.1500 
 30 H       -4.4510    -1.4460    -1.3630 H     1 <1>   0.0800 
 31 H       -4.3320    -0.4860     0.0820 H     1 <1>   0.0800 
 32 H       -0.8790     1.3370     1.5600 H     1 <1>   0.0800 
 33 H        0.3520     2.1040     2.5340 H     1 <1>   0.0800 
 34 H        0.0930     0.3760     2.6450 H     1 <1>   0.0800 
 35 H       -2.6000    -1.7360     0.9770 H     1 <1>   0.0800 
 36 H       -1.5670    -4.5260     0.2570 H     1 <1>   0.0800 
 37 H       -0.1750    -4.0770    -0.6570 H     1 <1>   0.0800 
 38 H        4.9920     0.1830    -1.5370 H     1 <1>   0.0800 
 39 H        5.0850    -0.6130     0.0180 H     1 <1>   0.0800 
 40 H        5.3770     1.1090    -0.1030 H     1 <1>   0.0800 
 41 H       -4.0210    -3.6210    -0.4990 H     1 <1>   0.4000 
 42 H       -1.0020    -2.7780     1.9860 H     1 <1>   0.1000 
 43 H        1.6710    -2.5430     0.3990 H     1 <1>   0.1000 
 44 H        1.3100    -1.7840     1.9780 H     1 <1>   0.1000 
 45 H        0.8510    -4.0730     2.9640 H     1 <1>   0.1000 
 46 H        1.2010    -4.8220     1.3760 H     1 <1>   0.1000 
@<TRIPOS>BOND
  1   1   2  2   
  2   1   3  2   
  3   1   4  am  
  4   1   5  1   
  5   4   6  1   
  6   4   7  1   
  7   5   8  2   
  8   5   9  1   
  9   6  10  1   
 10   6  25  1   
 11   6  26  1   
 12   7  11  1   
 13   7  27  1   
 14   7  28  1   
 15   8  12  1   
 16   8  13  1   
 17   9  14  2   
 18   9  29  1   
 19  10  15  1   
 20  10  16  1   
 21  10  17  1   
 22  11  16  1   
 23  11  30  1   
 24  11  31  1   
 25  12  14  1   
 26  13  32  1   
 27  13  33  1   
 28  13  34  1   
 29  14  18  1   
 30  15  19  ar  
 31  15  20  ar  
 32  16  21  1   
 33  16  35  1   
 34  17  22  1   
 35  17  36  1   
 36  17  37  1   
 37  18  38  1   
 38  18  39  1   
 39  18  40  1   
 40  21  41  1   
 41  22  23  1   
 42  22  24  1   
 43  22  42  1   
 44  23  24  1   
 45  23  43  1   
 46  23  44  1   
 47  24  45  1   
 48  24  46  1   
@<TRIPOS>SUBSTRUCTURE
  1 ****   6 GROUP 4 **** **** 0

# MOE 2024.06 (io_trps.svl 2023.06)
