@<TRIPOS>MOLECULE
NONAME
47 50 1 0 0 
SMALL
USER_CHARGES


@<TRIPOS>ATOM
  1 O        1.1270     1.1050     2.3390 O.2   1 <1>  -0.5700 
  2 C        1.5460     1.0220     1.1980 C.2   1 <1>   0.5440 
  3 N        1.0690     1.9070     0.2580 N.am  1 <1>  -0.6600 
  4 C        2.5540     0.0430     0.8880 C.ar  1 <1>   0.0860 
  5 C       -0.0310     2.8530     0.5370 C.3   1 <1>   0.1400 
  6 C        1.4750     1.9590    -1.1640 C.3   1 <1>   0.1400 
  7 C        2.2790    -1.0950     0.1040 C.ar  1 <1>   0.4100 
  8 C        3.8420     0.2060     1.3780 C.ar  1 <1>  -0.1500 
  9 C       -0.1420     3.7010    -0.7250 C.3   1 <1>  -0.1600 
 10 C        0.4050     2.8100    -1.8380 C.3   1 <1>  -0.1600 
 11 N        3.2060    -2.0050    -0.2100 N.ar  1 <1>  -0.6200 
 12 N        1.0060    -1.3250    -0.3920 N.3   1 <1>  -0.5900 
 13 C        4.7870    -0.7400     1.0570 C.ar  1 <1>  -0.1500 
 14 C        4.4190    -1.8120     0.2660 C.ar  1 <1>   0.1600 
 15 C       -0.1370    -1.6240     0.5460 C.3   1 <1>   0.2450 
 16 C        0.5970    -2.5240    -1.2110 C.3   1 <1>   0.2450 
 17 C       -0.0740    -3.0850     0.0540 C.3   1 <1>   0.0850 
 18 N       -1.3760    -3.7100    -0.2480 N.pl3 1 <1>   0.4850 
 19 N       -2.5640    -3.1360     0.0400 N.2   1 <1>  -0.7070 
 20 C       -1.5560    -4.9260    -0.8220 C.2   1 <1>  -0.3320 
 21 C       -3.4560    -3.9850    -0.3560 C.2   1 <1>   0.1080 
 22 C       -2.8890    -5.1270    -0.9050 C.2   1 <1>  -0.1500 
 23 C       -0.4390    -5.8580    -1.2650 C.3   1 <1>  -0.0600 
 24 C       -4.9380    -3.7250    -0.2170 C.3   1 <1>  -0.0590 
 25 H        0.1900     3.4500     1.4050 H     1 <1>   0.0800 
 26 H       -0.9360     2.2940     0.7030 H     1 <1>   0.0800 
 27 H        1.5200     0.9760    -1.6010 H     1 <1>   0.0800 
 28 H        2.4370     2.4350    -1.2370 H     1 <1>   0.0800 
 29 H        4.0810     1.0550     1.9950 H     1 <1>   0.1500 
 30 H        0.4800     4.5720    -0.6150 H     1 <1>   0.0800 
 31 H       -1.1550     4.0120    -0.9080 H     1 <1>   0.0800 
 32 H       -0.3740     2.1610    -2.2010 H     1 <1>   0.0800 
 33 H        0.8020     3.3750    -2.6620 H     1 <1>   0.0800 
 34 H        5.7980    -0.6520     1.4150 H     1 <1>   0.1500 
 35 H        5.1650    -2.5480     0.0150 H     1 <1>   0.1500 
 36 H       -1.0120    -1.0690     0.2560 H     1 <1>   0.0000 
 37 H        0.1430    -1.5060     1.5780 H     1 <1>   0.0000 
 38 H        1.4230    -3.1140    -1.5630 H     1 <1>   0.0000 
 39 H       -0.0940    -2.2370    -1.9850 H     1 <1>   0.0000 
 40 H        0.5690    -3.7160     0.6420 H     1 <1>   0.0000 
 41 H       -3.4220    -5.9730    -1.3010 H     1 <1>   0.1500 
 42 H        0.2010    -6.0960    -0.4340 H     1 <1>   0.0800 
 43 H        0.1480    -5.3980    -2.0400 H     1 <1>   0.0800 
 44 H       -0.8520    -6.7740    -1.6500 H     1 <1>   0.0800 
 45 H       -5.1990    -2.8430    -0.7720 H     1 <1>   0.0800 
 46 H       -5.1770    -3.5690     0.8190 H     1 <1>   0.0800 
 47 H       -5.5040    -4.5580    -0.5890 H     1 <1>   0.0800 
@<TRIPOS>BOND
  1   1   2  2   
  2   2   3  am  
  3   2   4  1   
  4   3   5  1   
  5   3   6  1   
  6   4   7  ar  
  7   4   8  ar  
  8   5   9  1   
  9   5  25  1   
 10   5  26  1   
 11   6  10  1   
 12   6  27  1   
 13   6  28  1   
 14   7  11  ar  
 15   7  12  1   
 16   8  13  ar  
 17   8  29  1   
 18   9  10  1   
 19   9  30  1   
 20   9  31  1   
 21  10  32  1   
 22  10  33  1   
 23  11  14  ar  
 24  12  15  1   
 25  12  16  1   
 26  13  14  ar  
 27  13  34  1   
 28  14  35  1   
 29  15  17  1   
 30  15  36  1   
 31  15  37  1   
 32  16  17  1   
 33  16  38  1   
 34  16  39  1   
 35  17  18  1   
 36  17  40  1   
 37  18  19  1   
 38  18  20  1   
 39  19  21  2   
 40  20  22  2   
 41  20  23  1   
 42  21  22  1   
 43  21  24  1   
 44  22  41  1   
 45  23  42  1   
 46  23  43  1   
 47  23  44  1   
 48  24  45  1   
 49  24  46  1   
 50  24  47  1   
@<TRIPOS>SUBSTRUCTURE
  1 ****  12 GROUP 4 **** **** 0

# MOE 2024.06 (io_trps.svl 2023.06)
