@<TRIPOS>MOLECULE
NONAME
53 55 1 0 0 
SMALL
USER_CHARGES


@<TRIPOS>ATOM
  1 CL      -0.7100     0.2910    -1.9090 Cl    1 <1>  -0.1770 
  2 C       -2.1170     1.0750    -1.2370 C.ar  1 <1>   0.1770 
  3 C       -2.6920     2.1320    -1.9160 C.ar  1 <1>  -0.1500 
  4 C       -2.6340     0.6260    -0.0370 C.ar  1 <1>  -0.1500 
  5 C       -3.8080     2.7520    -1.3800 C.ar  1 <1>  -0.1500 
  6 C       -3.7500     1.2510     0.4940 C.ar  1 <1>  -0.1500 
  7 C       -4.3400     2.3160    -0.1730 C.ar  1 <1>  -0.1430 
  8 C       -5.5650     2.9990     0.4120 C.3   1 <1>  -0.0160 
  9 C       -6.8480     2.3200    -0.0820 C.3   1 <1>  -0.1600 
 10 C       -8.1090     3.0030     0.4800 C.3   1 <1>  -0.0990 
 11 C       -9.4210     2.3920    -0.0050 C.2   1 <1>   0.5690 
 12 O       -9.4000     1.2790    -0.4770 O.2   1 <1>  -0.5700 
 13 N      -10.5920     3.0990     0.1090 N.am  1 <1>  -0.6600 
 14 C      -11.8460     2.5600    -0.4980 C.3   1 <1>   0.1400 
 15 C      -10.7030     4.4060     0.8240 C.3   1 <1>   0.1400 
 16 C      -12.7420     3.7030    -0.9830 C.3   1 <1>  -0.1600 
 17 C      -12.1350     4.6160     1.3150 C.3   1 <1>  -0.1600 
 18 C      -13.1250     4.7060     0.1350 C.3   1 <1>   0.2800 
 19 O      -12.9880     5.9760    -0.4560 O.3   1 <1>  -0.5600 
 20 C      -14.5830     4.4890     0.6150 C.3   1 <1>  -0.1600 
 21 C      -13.6660     7.0550     0.1240 C.3   1 <1>   0.1200 
 22 C      -15.5870     5.3830    -0.1180 C.3   1 <1>   0.2800 
 23 C      -15.1880     6.8520     0.0540 C.3   1 <1>  -0.1600 
 24 O      -15.5090     5.1010    -1.4560 O.3   1 <1>  -0.6800 
 25 C      -17.0300     5.1180     0.3030 C.3   1 <1>  -0.2400 
 26 H       -2.2730     2.4610    -2.8490 H     1 <1>   0.1500 
 27 H       -2.1690    -0.1990     0.4710 H     1 <1>   0.1500 
 28 H       -4.2630     3.5740    -1.9050 H     1 <1>   0.1500 
 29 H       -4.1600     0.9040     1.4270 H     1 <1>   0.1500 
 30 H       -5.5680     4.0360     0.1240 H     1 <1>   0.0800 
 31 H       -5.5210     2.9580     1.4860 H     1 <1>   0.0800 
 32 H       -6.8380     1.2840     0.2150 H     1 <1>   0.0800 
 33 H       -6.8770     2.3490    -1.1580 H     1 <1>   0.0800 
 34 H       -8.0890     4.0370     0.1920 H     1 <1>   0.0800 
 35 H       -8.0940     2.9460     1.5520 H     1 <1>   0.0800 
 36 H      -12.3640     1.9660     0.2350 H     1 <1>   0.0800 
 37 H      -11.6040     1.9220    -1.3320 H     1 <1>   0.0800 
 38 H      -10.4310     5.2020     0.1510 H     1 <1>   0.0800 
 39 H      -10.0360     4.4210     1.6670 H     1 <1>   0.0800 
 40 H      -13.6210     3.2730    -1.4260 H     1 <1>   0.0800 
 41 H      -12.2100     4.2130    -1.7670 H     1 <1>   0.0800 
 42 H      -12.1830     5.4990     1.9230 H     1 <1>   0.0800 
 43 H      -12.3940     3.7860     1.9480 H     1 <1>   0.0800 
 44 H      -14.6460     4.7200     1.6630 H     1 <1>   0.0800 
 45 H      -14.8640     3.4560     0.5220 H     1 <1>   0.0800 
 46 H      -13.3840     7.9460    -0.4100 H     1 <1>   0.0800 
 47 H      -13.3440     7.1570     1.1450 H     1 <1>   0.0800 
 48 H      -15.6050     7.4420    -0.7430 H     1 <1>   0.0800 
 49 H      -15.6050     7.2310     0.9690 H     1 <1>   0.0800 
 50 H      -14.6030     5.3460    -1.7410 H     1 <1>   0.4000 
 51 H      -17.1550     5.3140     1.3520 H     1 <1>   0.0800 
 52 H      -17.2890     4.0910     0.1140 H     1 <1>   0.0800 
 53 H      -17.6990     5.7550    -0.2470 H     1 <1>   0.0800 
@<TRIPOS>BOND
  1   1   2  1   
  2   2   3  ar  
  3   2   4  ar  
  4   3   5  ar  
  5   3  26  1   
  6   4   6  ar  
  7   4  27  1   
  8   5   7  ar  
  9   5  28  1   
 10   6   7  ar  
 11   6  29  1   
 12   7   8  1   
 13   8   9  1   
 14   8  30  1   
 15   8  31  1   
 16   9  10  1   
 17   9  32  1   
 18   9  33  1   
 19  10  11  1   
 20  10  34  1   
 21  10  35  1   
 22  11  12  2   
 23  11  13  am  
 24  13  14  1   
 25  13  15  1   
 26  14  16  1   
 27  14  36  1   
 28  14  37  1   
 29  15  17  1   
 30  15  38  1   
 31  15  39  1   
 32  16  18  1   
 33  16  40  1   
 34  16  41  1   
 35  17  18  1   
 36  17  42  1   
 37  17  43  1   
 38  18  19  1   
 39  18  20  1   
 40  19  21  1   
 41  20  22  1   
 42  20  44  1   
 43  20  45  1   
 44  21  23  1   
 45  21  46  1   
 46  21  47  1   
 47  22  23  1   
 48  22  24  1   
 49  22  25  1   
 50  23  48  1   
 51  23  49  1   
 52  24  50  1   
 53  25  51  1   
 54  25  52  1   
 55  25  53  1   
@<TRIPOS>SUBSTRUCTURE
  1 ****  11 GROUP 4 **** **** 0

# MOE 2024.06 (io_trps.svl 2023.06)
