@<TRIPOS>MOLECULE
NONAME
44 46 1 0 0 
SMALL
USER_CHARGES


@<TRIPOS>ATOM
  1 N        0.0060    -0.1240    -0.0940 N.ar  1 <1>  -0.6200 
  2 C        1.1460     0.5140    -0.3310 C.ar  1 <1>   0.7710 
  3 C        0.0480    -1.4200     0.1040 C.ar  1 <1>   0.4100 
  4 N        2.3210    -0.1430    -0.3650 N.ar  1 <1>  -0.1790 
  5 N        1.1390     1.8590    -0.5370 N.pl3 1 <1>  -0.8380 
  6 N       -1.1430    -1.9890     0.3450 N.pl3 1 <1>  -0.8690 
  7 C        1.2520    -2.1460     0.0610 C.ar  1 <1>  -0.1500 
  8 C        2.4070    -1.4810    -0.1770 C.ar  1 <1>   0.2170 
  9 C        2.2870     2.7180    -0.9660 C.3   1 <1>   0.2090 
 10 C       -0.0980     2.6830    -0.3200 C.3   1 <1>   0.2090 
 11 C       -1.4800    -3.3800     0.7430 C.3   1 <1>   0.2090 
 12 C        3.7700    -2.1490    -0.2410 C.3   1 <1>  -0.0970 
 13 C        2.6100     3.7170     0.1490 C.3   1 <1>  -0.1600 
 14 C        0.1670     3.6970     0.7970 C.3   1 <1>  -0.1600 
 15 C       -1.9600    -4.1750    -0.4710 C.3   1 <1>   0.0210 
 16 C        1.3880     4.5790     0.4960 C.3   1 <1>  -0.1600 
 17 C       -2.2560    -5.6250    -0.1230 C.2   1 <1>  -0.1810 
 18 C       -2.6230    -6.6070    -1.0400 C.2   1 <1>   0.1390 
 19 C       -2.2370    -6.2650     1.0680 C.2   1 <1>  -0.3020 
 20 N       -2.8160    -7.7600    -0.4780 N.2   1 <1>  -0.7070 
 21 N       -2.5780    -7.5470     0.8290 N.pl3 1 <1>   0.3000 
 22 H        3.1340     0.4360    -0.5190 H     1 <1>   0.4570 
 23 H       -1.9480    -1.3530     0.3100 H     1 <1>   0.4000 
 24 H        1.2290    -3.2070     0.2140 H     1 <1>   0.1500 
 25 H        2.0070     3.2600    -1.8560 H     1 <1>   0.0800 
 26 H        3.1610     2.1410    -1.2040 H     1 <1>   0.0800 
 27 H       -0.9490     2.0810    -0.0510 H     1 <1>   0.0800 
 28 H       -0.3450     3.2020    -1.2320 H     1 <1>   0.0800 
 29 H       -2.2580    -3.3550     1.4880 H     1 <1>   0.0800 
 30 H       -0.6230    -3.8620     1.1790 H     1 <1>   0.0800 
 31 H        4.4220    -1.7470     0.5140 H     1 <1>   0.0800 
 32 H        4.2170    -2.0010    -1.2080 H     1 <1>   0.0800 
 33 H        3.6770    -3.2080    -0.0740 H     1 <1>   0.0800 
 34 H        3.4160     4.3560    -0.1650 H     1 <1>   0.0800 
 35 H        2.9370     3.1840     1.0250 H     1 <1>   0.0800 
 36 H        0.3190     3.1650     1.7200 H     1 <1>   0.0800 
 37 H       -0.7020     4.3200     0.9220 H     1 <1>   0.0800 
 38 H       -1.2020    -4.1510    -1.2330 H     1 <1>   0.0800 
 39 H       -2.8540    -3.7220    -0.8620 H     1 <1>   0.0800 
 40 H        1.1600     5.2250    -0.3350 H     1 <1>   0.0800 
 41 H        1.6070     5.2010     1.3470 H     1 <1>   0.0800 
 42 H       -2.7390    -6.4440    -2.0990 H     1 <1>   0.1500 
 43 H       -2.0110    -5.9030     2.0540 H     1 <1>   0.1500 
 44 H       -2.6580    -8.2970     1.5270 H     1 <1>   0.2700 
@<TRIPOS>BOND
  1   1   2  ar  
  2   1   3  ar  
  3   2   4  ar  
  4   2   5  1   
  5   3   6  1   
  6   3   7  ar  
  7   4   8  ar  
  8   4  22  1   
  9   5   9  1   
 10   5  10  1   
 11   6  11  1   
 12   6  23  1   
 13   7   8  ar  
 14   7  24  1   
 15   8  12  1   
 16   9  13  1   
 17   9  25  1   
 18   9  26  1   
 19  10  14  1   
 20  10  27  1   
 21  10  28  1   
 22  11  15  1   
 23  11  29  1   
 24  11  30  1   
 25  12  31  1   
 26  12  32  1   
 27  12  33  1   
 28  13  16  1   
 29  13  34  1   
 30  13  35  1   
 31  14  16  1   
 32  14  36  1   
 33  14  37  1   
 34  15  17  1   
 35  15  38  1   
 36  15  39  1   
 37  16  40  1   
 38  16  41  1   
 39  17  18  1   
 40  17  19  2   
 41  18  20  2   
 42  18  42  1   
 43  19  21  1   
 44  19  43  1   
 45  20  21  1   
 46  21  44  1   
@<TRIPOS>SUBSTRUCTURE
  1 ****   3 GROUP 4 **** **** 0

# MOE 2024.06 (io_trps.svl 2023.06)
