@<TRIPOS>MOLECULE
NONAME
52 54 1 0 0 
SMALL
USER_CHARGES


@<TRIPOS>ATOM
  1 O       -2.8750     0.4250     0.9890 O.2   1 <1>  -0.5700 
  2 C       -2.6900     1.1610     0.0470 C.2   1 <1>   0.5690 
  3 N       -3.0280     0.7480    -1.2080 N.am  1 <1>  -0.6600 
  4 C       -2.1750     2.5650     0.2720 C.3   1 <1>  -0.0990 
  5 C       -4.3470     1.2100    -1.7360 C.3   1 <1>   0.1400 
  6 C       -2.7550    -0.6820    -1.5710 C.3   1 <1>   0.1400 
  7 C       -0.7080     2.5580     0.7160 C.3   1 <1>  -0.0160 
  8 C       -5.5080     0.3610    -1.1420 C.3   1 <1>   0.4230 
  9 C       -3.9710    -1.5980    -1.2870 C.3   1 <1>   0.3430 
 10 C       -0.2180     3.9830     0.9000 C.ar  1 <1>  -0.1440 
 11 N       -5.0010    -0.8890    -0.4480 N.4   1 <1>  -0.9590 
 12 C       -6.5550     0.0060    -2.2210 C.3   1 <1>   0.1200 
 13 C        0.3660     4.6650    -0.1570 C.ar  1 <1>  -0.1500 
 14 C       -0.3560     4.6170     2.1250 C.ar  1 <1>  -0.1500 
 15 C       -6.1460    -1.7210     0.0450 C.3   1 <1>   0.4230 
 16 O       -7.5760    -0.7820    -1.6790 O.3   1 <1>  -0.5600 
 17 C        0.8030     5.9680     0.0080 C.ar  1 <1>  -0.1500 
 18 C        0.0810     5.9200     2.2920 C.ar  1 <1>  -0.1500 
 19 C       -7.1610    -1.9870    -1.0930 C.3   1 <1>   0.1200 
 20 C       -5.6350    -3.0080     0.7120 C.3   1 <1>  -0.1600 
 21 C        0.6600     6.5960     1.2330 C.ar  1 <1>  -0.1500 
 22 C       -6.7220    -3.7110     1.5400 C.3   1 <1>  -0.1600 
 23 C       -6.1540    -4.9410     2.2530 C.3   1 <1>  -0.2400 
 24 H       -2.2660     3.1350    -0.6340 H     1 <1>   0.0800 
 25 H       -2.7730     3.0380     1.0290 H     1 <1>   0.0800 
 26 H       -4.5030     2.2470    -1.4910 H     1 <1>   0.0800 
 27 H       -4.3370     1.1360    -2.8110 H     1 <1>   0.0800 
 28 H       -2.4840    -0.7470    -2.6110 H     1 <1>   0.0800 
 29 H       -1.9120    -1.0370    -1.0010 H     1 <1>   0.0800 
 30 H       -0.1040     2.0590    -0.0220 H     1 <1>   0.0800 
 31 H       -0.6090     2.0160     1.6410 H     1 <1>   0.0800 
 32 H       -6.0090     0.9730    -0.4100 H     1 <1>   0.0800 
 33 H       -3.6200    -2.4820    -0.7810 H     1 <1>   0.0800 
 34 H       -4.4110    -1.9070    -2.2200 H     1 <1>   0.0800 
 35 H       -4.4590    -0.5430     0.3720 H     1 <1>   0.4500 
 36 H       -6.1090    -0.5290    -3.0420 H     1 <1>   0.0800 
 37 H       -7.0110     0.9020    -2.6050 H     1 <1>   0.0800 
 38 H        0.4840     4.1880    -1.1130 H     1 <1>   0.1500 
 39 H       -0.8050     4.1010     2.9560 H     1 <1>   0.1500 
 40 H       -6.6670    -1.1560     0.8010 H     1 <1>   0.0800 
 41 H        1.2550     6.4920    -0.8150 H     1 <1>   0.1500 
 42 H       -0.0290     6.4060     3.2450 H     1 <1>   0.1500 
 43 H       -8.0410    -2.4680    -0.7020 H     1 <1>   0.0800 
 44 H       -6.7400    -2.6180    -1.8550 H     1 <1>   0.0800 
 45 H       -5.2730    -3.6960    -0.0310 H     1 <1>   0.0800 
 46 H       -4.8240    -2.7570     1.3740 H     1 <1>   0.0800 
 47 H        1.0000     7.6090     1.3620 H     1 <1>   0.1500 
 48 H       -7.1180    -3.0340     2.2800 H     1 <1>   0.0800 
 49 H       -7.5360    -4.0280     0.9100 H     1 <1>   0.0800 
 50 H       -5.3600    -4.6610     2.9230 H     1 <1>   0.0800 
 51 H       -5.7720    -5.6530     1.5410 H     1 <1>   0.0800 
 52 H       -6.9260    -5.4210     2.8290 H     1 <1>   0.0800 
@<TRIPOS>BOND
  1   1   2  2   
  2   2   3  am  
  3   2   4  1   
  4   3   5  1   
  5   3   6  1   
  6   4   7  1   
  7   4  24  1   
  8   4  25  1   
  9   5   8  1   
 10   5  26  1   
 11   5  27  1   
 12   6   9  1   
 13   6  28  1   
 14   6  29  1   
 15   7  10  1   
 16   7  30  1   
 17   7  31  1   
 18   8  11  1   
 19   8  12  1   
 20   8  32  1   
 21   9  11  1   
 22   9  33  1   
 23   9  34  1   
 24  10  13  ar  
 25  10  14  ar  
 26  11  15  1   
 27  11  35  1   
 28  12  16  1   
 29  12  36  1   
 30  12  37  1   
 31  13  17  ar  
 32  13  38  1   
 33  14  18  ar  
 34  14  39  1   
 35  15  19  1   
 36  15  20  1   
 37  15  40  1   
 38  16  19  1   
 39  17  21  ar  
 40  17  41  1   
 41  18  21  ar  
 42  18  42  1   
 43  19  43  1   
 44  19  44  1   
 45  20  22  1   
 46  20  45  1   
 47  20  46  1   
 48  21  47  1   
 49  22  23  1   
 50  22  48  1   
 51  22  49  1   
 52  23  50  1   
 53  23  51  1   
 54  23  52  1   
@<TRIPOS>SUBSTRUCTURE
  1 ****   2 GROUP 4 **** **** 0

# MOE 2024.06 (io_trps.svl 2023.06)
