@<TRIPOS>MOLECULE
NONAME
60 63 1 0 0 
SMALL
USER_CHARGES


@<TRIPOS>ATOM
  1 O       -1.1580    -0.7390     0.8940 O.2   1 <1>  -0.5700 
  2 C       -1.9210     0.1870     0.6930 C.2   1 <1>   0.5440 
  3 N       -1.3990     1.4550     0.5480 N.am  1 <1>  -0.6600 
  4 C       -3.3380    -0.0820     0.6010 C.ar  1 <1>   0.0860 
  5 C        0.0060     1.7800     0.9460 C.3   1 <1>   0.1400 
  6 C       -2.0300     2.5230    -0.2850 C.3   1 <1>   0.1400 
  7 C       -3.7950    -1.2210    -0.0570 C.ar  1 <1>   0.1600 
  8 C       -4.3070     0.7470     1.1600 C.ar  1 <1>  -0.1500 
  9 C        0.8220     2.2350    -0.2740 C.3   1 <1>   0.1200 
 10 C       -1.0900     2.9470    -1.4280 C.3   1 <1>   0.1200 
 11 N       -5.0600    -1.5730    -0.2210 N.ar  1 <1>  -0.6200 
 12 C       -5.6260     0.3960     1.0060 C.ar  1 <1>  -0.1500 
 13 O        0.1740     3.2860    -0.9340 O.3   1 <1>  -0.5600 
 14 C       -5.9660    -0.7620     0.3110 C.ar  1 <1>   0.4100 
 15 N       -7.2870    -1.1030     0.1640 N.pl3 1 <1>  -0.8690 
 16 C       -7.7510    -2.1900    -0.7250 C.3   1 <1>   0.2090 
 17 C       -7.6410    -3.5300     0.0170 C.3   1 <1>  -0.0800 
 18 C       -8.0170    -4.7200    -0.8610 C.3   1 <1>   0.3430 
 19 C       -8.5350    -3.6320     1.2530 C.3   1 <1>  -0.1600 
 20 N       -9.0530    -5.4940    -0.1080 N.4   1 <1>  -0.9590 
 21 C       -8.9010    -5.1010     1.3180 C.3   1 <1>   0.3430 
 22 C       -9.0050    -6.9660    -0.3480 C.3   1 <1>   0.4230 
 23 C       -9.1920    -7.2560    -1.8480 C.3   1 <1>  -0.1600 
 24 C      -10.1000    -7.6700     0.4730 C.3   1 <1>  -0.1600 
 25 C       -9.2360    -8.7640    -2.1350 C.3   1 <1>  -0.1600 
 26 C      -10.1460    -9.1780     0.1860 C.3   1 <1>  -0.1600 
 27 C      -10.3270    -9.4550    -1.3100 C.3   1 <1>  -0.1600 
 28 H        0.4830     0.9270     1.3960 H     1 <1>   0.0800 
 29 H       -0.0080     2.5700     1.6750 H     1 <1>   0.0800 
 30 H       -2.2410     3.3780     0.3330 H     1 <1>   0.0800 
 31 H       -2.9550     2.1780    -0.7100 H     1 <1>   0.0800 
 32 H       -3.0510    -1.8790    -0.4750 H     1 <1>   0.1500 
 33 H       -4.0200     1.6310     1.7020 H     1 <1>   0.1500 
 34 H        0.9540     1.4190    -0.9640 H     1 <1>   0.0800 
 35 H        1.7890     2.5870     0.0360 H     1 <1>   0.0800 
 36 H       -1.4860     3.8090    -1.9350 H     1 <1>   0.0800 
 37 H       -0.9770     2.1480    -2.1410 H     1 <1>   0.0800 
 38 H       -6.4040     1.0050     1.4230 H     1 <1>   0.1500 
 39 H       -7.9750    -0.3730     0.3670 H     1 <1>   0.4000 
 40 H       -7.1420    -2.2070    -1.6140 H     1 <1>   0.0800 
 41 H       -8.7690    -2.0000    -1.0190 H     1 <1>   0.0800 
 42 H       -6.6150    -3.6720     0.3090 H     1 <1>   0.0800 
 43 H       -7.1410    -5.3260    -1.0270 H     1 <1>   0.0800 
 44 H       -8.4040    -4.3960    -1.8140 H     1 <1>   0.0800 
 45 H       -9.4290    -3.0460     1.1350 H     1 <1>   0.0800 
 46 H       -8.0230    -3.3070     2.1420 H     1 <1>   0.0800 
 47 H       -9.9750    -5.1640    -0.4160 H     1 <1>   0.4500 
 48 H       -9.8070    -5.2630     1.8800 H     1 <1>   0.0800 
 49 H       -8.0920    -5.6550     1.7680 H     1 <1>   0.0800 
 50 H       -8.0450    -7.3500    -0.0400 H     1 <1>   0.0800 
 51 H       -8.3810    -6.8410    -2.4180 H     1 <1>   0.0800 
 52 H      -10.1130    -6.8170    -2.1910 H     1 <1>   0.0800 
 53 H      -11.0610    -7.2480     0.2340 H     1 <1>   0.0800 
 54 H       -9.9220    -7.5460     1.5260 H     1 <1>   0.0800 
 55 H       -8.2810    -9.2060    -1.9030 H     1 <1>   0.0800 
 56 H       -9.4240    -8.9280    -3.1830 H     1 <1>   0.0800 
 57 H      -10.9590    -9.6270     0.7320 H     1 <1>   0.0800 
 58 H       -9.2330    -9.6400     0.5260 H     1 <1>   0.0800 
 59 H      -10.2920   -10.5170    -1.4860 H     1 <1>   0.0800 
 60 H      -11.2950    -9.1050    -1.6270 H     1 <1>   0.0800 
@<TRIPOS>BOND
  1   1   2  2   
  2   2   3  am  
  3   2   4  1   
  4   3   5  1   
  5   3   6  1   
  6   4   7  ar  
  7   4   8  ar  
  8   5   9  1   
  9   5  28  1   
 10   5  29  1   
 11   6  10  1   
 12   6  30  1   
 13   6  31  1   
 14   7  11  ar  
 15   7  32  1   
 16   8  12  ar  
 17   8  33  1   
 18   9  13  1   
 19   9  34  1   
 20   9  35  1   
 21  10  13  1   
 22  10  36  1   
 23  10  37  1   
 24  11  14  ar  
 25  12  14  ar  
 26  12  38  1   
 27  14  15  1   
 28  15  16  1   
 29  15  39  1   
 30  16  17  1   
 31  16  40  1   
 32  16  41  1   
 33  17  18  1   
 34  17  19  1   
 35  17  42  1   
 36  18  20  1   
 37  18  43  1   
 38  18  44  1   
 39  19  21  1   
 40  19  45  1   
 41  19  46  1   
 42  20  21  1   
 43  20  22  1   
 44  20  47  1   
 45  21  48  1   
 46  21  49  1   
 47  22  23  1   
 48  22  24  1   
 49  22  50  1   
 50  23  25  1   
 51  23  51  1   
 52  23  52  1   
 53  24  26  1   
 54  24  53  1   
 55  24  54  1   
 56  25  27  1   
 57  25  55  1   
 58  25  56  1   
 59  26  27  1   
 60  26  57  1   
 61  26  58  1   
 62  27  59  1   
 63  27  60  1   
@<TRIPOS>SUBSTRUCTURE
  1 ****  11 GROUP 4 **** **** 0

# MOE 2024.06 (io_trps.svl 2023.06)
