@<TRIPOS>MOLECULE
NONAME
40 42 1 0 0 
SMALL
USER_CHARGES


@<TRIPOS>ATOM
  1 S       -0.1450     0.0690    -1.0310 S.3   1 <1>  -0.0800 
  2 C       -1.1820     1.4350    -0.7170 C.2   1 <1>   0.2280 
  3 C       -1.4520    -0.9800    -0.5890 C.2   1 <1>  -0.1100 
  4 N       -2.3560     1.1290    -0.3360 N.2   1 <1>  -0.5650 
  5 C       -2.5500    -0.2660    -0.2510 C.2   1 <1>   0.1410 
  6 C       -3.8080    -0.8770     0.1870 C.2   1 <1>   0.7160 
  7 O       -3.7740    -2.0230     0.6050 O.2   1 <1>  -0.5700 
  8 N       -5.0430    -0.2500     0.1470 N.am  1 <1>  -0.6600 
  9 C       -6.2060    -0.8340     0.8790 C.3   1 <1>   0.1400 
 10 C       -5.3090     0.9760    -0.6660 C.3   1 <1>   0.1400 
 11 C       -7.1910     0.2700     1.2700 C.3   1 <1>  -0.1600 
 12 C       -6.7630     0.9790    -1.1390 C.3   1 <1>  -0.1600 
 13 C       -7.7530     1.0290     0.0400 C.3   1 <1>   0.2800 
 14 O       -7.8590     2.3860     0.3800 O.3   1 <1>  -0.5600 
 15 C       -9.1390     0.4970    -0.4200 C.3   1 <1>  -0.1600 
 16 C       -8.7360     2.7520     1.4150 C.3   1 <1>   0.1200 
 17 C      -10.3050     1.4340    -0.0910 C.3   1 <1>   0.2800 
 18 C      -10.0990     2.0500     1.2900 C.3   1 <1>  -0.1600 
 19 O      -10.2760     2.4580    -1.0020 O.3   1 <1>  -0.6800 
 20 C      -11.6630     0.7530    -0.2350 C.3   1 <1>  -0.2400 
 21 H       -0.7600     2.4140    -0.8650 H     1 <1>   0.1500 
 22 H       -1.2860    -2.0420    -0.6130 H     1 <1>   0.1500 
 23 H       -5.8590    -1.3350     1.7680 H     1 <1>   0.0800 
 24 H       -6.6900    -1.5620     0.2510 H     1 <1>   0.0800 
 25 H       -4.6600     0.9950    -1.5240 H     1 <1>   0.0800 
 26 H       -5.1140     1.8510    -0.0690 H     1 <1>   0.0800 
 27 H       -6.6530     0.9500     1.9060 H     1 <1>   0.0800 
 28 H       -7.9860    -0.1570     1.8520 H     1 <1>   0.0800 
 29 H       -6.9110     0.0850    -1.7180 H     1 <1>   0.0800 
 30 H       -6.9360     1.8150    -1.7930 H     1 <1>   0.0800 
 31 H       -9.3150    -0.4550     0.0440 H     1 <1>   0.0800 
 32 H       -9.1500     0.3060    -1.4780 H     1 <1>   0.0800 
 33 H       -8.8690     3.8180     1.3450 H     1 <1>   0.0800 
 34 H       -8.2730     2.5330     2.3610 H     1 <1>   0.0800 
 35 H      -10.8890     2.7440     1.5120 H     1 <1>   0.0800 
 36 H      -10.1510     1.2720     2.0300 H     1 <1>   0.0800 
 37 H       -9.3920     2.8770    -0.9170 H     1 <1>   0.4000 
 38 H      -11.7510    -0.0560     0.4670 H     1 <1>   0.0800 
 39 H      -11.7760     0.3580    -1.2290 H     1 <1>   0.0800 
 40 H      -12.4530     1.4560    -0.0460 H     1 <1>   0.0800 
@<TRIPOS>BOND
  1   1   2  1   
  2   1   3  1   
  3   2   4  2   
  4   2  21  1   
  5   3   5  2   
  6   3  22  1   
  7   4   5  1   
  8   5   6  1   
  9   6   7  2   
 10   6   8  am  
 11   8   9  1   
 12   8  10  1   
 13   9  11  1   
 14   9  23  1   
 15   9  24  1   
 16  10  12  1   
 17  10  25  1   
 18  10  26  1   
 19  11  13  1   
 20  11  27  1   
 21  11  28  1   
 22  12  13  1   
 23  12  29  1   
 24  12  30  1   
 25  13  14  1   
 26  13  15  1   
 27  14  16  1   
 28  15  17  1   
 29  15  31  1   
 30  15  32  1   
 31  16  18  1   
 32  16  33  1   
 33  16  34  1   
 34  17  18  1   
 35  17  19  1   
 36  17  20  1   
 37  18  35  1   
 38  18  36  1   
 39  19  37  1   
 40  20  38  1   
 41  20  39  1   
 42  20  40  1   
@<TRIPOS>SUBSTRUCTURE
  1 ****  10 GROUP 4 **** **** 0

# MOE 2024.06 (io_trps.svl 2023.06)
