@<TRIPOS>MOLECULE
NONAME
43 44 1 0 0 
SMALL
USER_CHARGES


@<TRIPOS>ATOM
  1 CL      -1.0580    -1.8470    -0.3650 Cl    1 <1>  -0.1770 
  2 C       -2.1580    -0.5610    -0.7940 C.ar  1 <1>   0.1770 
  3 C       -3.1980    -0.2340     0.0690 C.ar  1 <1>  -0.1440 
  4 C       -1.9670     0.1040    -1.9890 C.ar  1 <1>  -0.1500 
  5 C       -4.0640     0.7990    -0.2760 C.ar  1 <1>  -0.1500 
  6 C       -3.3690    -0.9990     1.3670 C.3   1 <1>   0.4870 
  7 C       -2.8470     1.1190    -2.3040 C.ar  1 <1>   0.1900 
  8 C       -3.8900     1.4800    -1.4710 C.ar  1 <1>  -0.1500 
  9 N       -4.0330    -2.2990     1.0860 N.4   1 <1>  -0.9590 
 10 F       -2.6880     1.7620    -3.4280 F     1 <1>  -0.1900 
 11 C       -5.4000    -2.1880     0.4760 C.3   1 <1>   0.3430 
 12 C       -4.1160    -3.2210     2.2500 C.3   1 <1>   0.3430 
 13 C       -6.2920    -3.1930     1.2210 C.3   1 <1>   0.2000 
 14 C       -5.3400    -4.1090     1.9980 C.3   1 <1>  -0.0800 
 15 O       -7.0850    -2.5100     2.1350 O.3   1 <1>  -0.6800 
 16 C       -5.0090    -5.4330     1.2560 C.3   1 <1>  -0.0550 
 17 S       -4.2810    -5.2680    -0.3790 S.o2  1 <1>   1.3330 
 18 O       -3.0440    -4.5390    -0.1990 O.2   1 <1>  -0.6500 
 19 O       -5.2790    -4.6960    -1.2520 O.2   1 <1>  -0.6500 
 20 N       -3.9460    -6.8590    -0.8450 N.am  1 <1>  -0.8490 
 21 C       -2.7870    -6.9550    -1.7410 C.3   1 <1>   0.1160 
 22 C       -5.0950    -7.5490    -1.4470 C.3   1 <1>   0.1160 
 23 H       -1.1620    -0.1560    -2.6520 H     1 <1>   0.1500 
 24 H       -4.8750     1.0880     0.3730 H     1 <1>   0.1500 
 25 H       -3.9610    -0.4210     2.0560 H     1 <1>   0.0800 
 26 H       -2.4010    -1.1700     1.8090 H     1 <1>   0.0800 
 27 H       -4.5480     2.2830    -1.7590 H     1 <1>   0.1500 
 28 H       -3.4280    -2.7860     0.3860 H     1 <1>   0.4500 
 29 H       -5.8040    -1.1940     0.5720 H     1 <1>   0.0800 
 30 H       -5.3500    -2.4440    -0.5700 H     1 <1>   0.0800 
 31 H       -3.2130    -3.8050     2.3510 H     1 <1>   0.0800 
 32 H       -4.2710    -2.6520     3.1520 H     1 <1>   0.0800 
 33 H       -6.9520    -3.7200     0.5510 H     1 <1>   0.0800 
 34 H       -5.7780    -4.3890     2.9420 H     1 <1>   0.0800 
 35 H       -6.5810    -2.0950     2.8590 H     1 <1>   0.4000 
 36 H       -5.9130    -6.0050     1.1690 H     1 <1>   0.0800 
 37 H       -4.3370    -6.0060     1.8660 H     1 <1>   0.0800 
 38 H       -2.5890    -7.9850    -1.9850 H     1 <1>   0.0800 
 39 H       -1.9110    -6.5520    -1.2590 H     1 <1>   0.0800 
 40 H       -2.9660    -6.4050    -2.6500 H     1 <1>   0.0800 
 41 H       -4.8460    -8.5780    -1.6440 H     1 <1>   0.0800 
 42 H       -5.3770    -7.0750    -2.3740 H     1 <1>   0.0800 
 43 H       -5.9370    -7.5280    -0.7770 H     1 <1>   0.0800 
@<TRIPOS>BOND
  1   1   2  1   
  2   2   3  ar  
  3   2   4  ar  
  4   3   5  ar  
  5   3   6  1   
  6   4   7  ar  
  7   4  23  1   
  8   5   8  ar  
  9   5  24  1   
 10   6   9  1   
 11   6  25  1   
 12   6  26  1   
 13   7   8  ar  
 14   7  10  1   
 15   8  27  1   
 16   9  11  1   
 17   9  12  1   
 18   9  28  1   
 19  11  13  1   
 20  11  29  1   
 21  11  30  1   
 22  12  14  1   
 23  12  31  1   
 24  12  32  1   
 25  13  14  1   
 26  13  15  1   
 27  13  33  1   
 28  14  16  1   
 29  14  34  1   
 30  15  35  1   
 31  16  17  1   
 32  16  36  1   
 33  16  37  1   
 34  17  18  2   
 35  17  19  2   
 36  17  20  am  
 37  20  21  1   
 38  20  22  1   
 39  21  38  1   
 40  21  39  1   
 41  21  40  1   
 42  22  41  1   
 43  22  42  1   
 44  22  43  1   
@<TRIPOS>SUBSTRUCTURE
  1 ****   9 GROUP 4 **** **** 0

# MOE 2024.06 (io_trps.svl 2023.06)
