@<TRIPOS>MOLECULE
NONAME
43 45 1 0 0 
SMALL
USER_CHARGES


@<TRIPOS>ATOM
  1 O        0.1870     0.4600     0.6840 O.3   1 <1>  -0.6800 
  2 C        0.8930    -0.1710    -0.3330 C.3   1 <1>   0.2000 
  3 C        1.3800    -1.5170     0.2020 C.3   1 <1>  -0.0800 
  4 C        2.1940     0.6170    -0.5720 C.3   1 <1>   0.3430 
  5 C        2.5490    -1.0680     1.0820 C.3   1 <1>   0.3430 
  6 C        1.7930    -2.4530    -0.9670 C.3   1 <1>  -0.0160 
  7 N        3.2480    -0.0610     0.2540 N.4   1 <1>  -0.9590 
  8 C        3.0090    -3.3200    -0.6740 C.ar  1 <1>   0.1670 
  9 C        4.1010     0.8800     1.0110 C.3   1 <1>   0.5240 
 10 N        4.1930    -2.7310    -0.7970 N.ar  1 <1>  -0.6200 
 11 C        2.8430    -4.6540    -0.3070 C.ar  1 <1>   0.1600 
 12 C        4.7750     1.7810     0.0020 C.2   1 <1>  -0.1810 
 13 C        5.1880    -3.5740    -0.5520 C.ar  1 <1>   0.1600 
 14 N        3.8370    -5.4800    -0.0390 N.ar  1 <1>  -0.6200 
 15 C        4.5000     3.1320    -0.1960 C.2   1 <1>   0.1080 
 16 C        5.7340     1.4830    -0.9060 C.2   1 <1>  -0.3320 
 17 C        5.0150    -4.9030    -0.1830 C.ar  1 <1>   0.1600 
 18 N        5.2110     3.6330    -1.1510 N.2   1 <1>  -0.7070 
 19 C        3.5130     3.9900     0.5690 C.3   1 <1>  -0.0590 
 20 N        5.9810     2.6220    -1.5880 N.pl3 1 <1>   0.3000 
 21 C        6.4640     0.1800    -1.1920 C.3   1 <1>  -0.0600 
 22 H       -0.7400     0.1420     0.7290 H     1 <1>   0.4000 
 23 H        0.2680    -0.2260    -1.2090 H     1 <1>   0.0800 
 24 H        0.6330    -2.0090     0.8010 H     1 <1>   0.0800 
 25 H        2.0590     1.6460    -0.2850 H     1 <1>   0.0800 
 26 H        2.4740     0.5760    -1.6120 H     1 <1>   0.0800 
 27 H        3.1980    -1.8840     1.3560 H     1 <1>   0.0800 
 28 H        2.1600    -0.6020     1.9740 H     1 <1>   0.0800 
 29 H        2.0220    -1.8810    -1.8500 H     1 <1>   0.0800 
 30 H        0.9560    -3.0790    -1.2240 H     1 <1>   0.0800 
 31 H        3.8670    -0.5870    -0.3880 H     1 <1>   0.4500 
 32 H        3.5070     1.4610     1.6960 H     1 <1>   0.0800 
 33 H        4.8500     0.3390     1.5670 H     1 <1>   0.0800 
 34 H        1.8490    -5.0600    -0.2300 H     1 <1>   0.1500 
 35 H        6.1940    -3.2030    -0.6470 H     1 <1>   0.1500 
 36 H        5.8850    -5.5110    -0.0010 H     1 <1>   0.1500 
 37 H        2.7190     3.4040     0.9880 H     1 <1>   0.0800 
 38 H        3.0870     4.7210    -0.0950 H     1 <1>   0.0800 
 39 H        4.0270     4.5090     1.3570 H     1 <1>   0.0800 
 40 H        6.6640     2.7490    -2.3460 H     1 <1>   0.2700 
 41 H        6.1980    -0.5740    -0.4740 H     1 <1>   0.0800 
 42 H        7.5280     0.3340    -1.1400 H     1 <1>   0.0800 
 43 H        6.2160    -0.1780    -2.1760 H     1 <1>   0.0800 
@<TRIPOS>BOND
  1   1   2  1   
  2   1  22  1   
  3   2   3  1   
  4   2   4  1   
  5   2  23  1   
  6   3   5  1   
  7   3   6  1   
  8   3  24  1   
  9   4   7  1   
 10   4  25  1   
 11   4  26  1   
 12   5   7  1   
 13   5  27  1   
 14   5  28  1   
 15   6   8  1   
 16   6  29  1   
 17   6  30  1   
 18   7   9  1   
 19   7  31  1   
 20   8  10  ar  
 21   8  11  ar  
 22   9  12  1   
 23   9  32  1   
 24   9  33  1   
 25  10  13  ar  
 26  11  14  ar  
 27  11  34  1   
 28  12  15  1   
 29  12  16  2   
 30  13  17  ar  
 31  13  35  1   
 32  14  17  ar  
 33  15  18  2   
 34  15  19  1   
 35  16  20  1   
 36  16  21  1   
 37  17  36  1   
 38  18  20  1   
 39  19  37  1   
 40  19  38  1   
 41  19  39  1   
 42  20  40  1   
 43  21  41  1   
 44  21  42  1   
 45  21  43  1   
@<TRIPOS>SUBSTRUCTURE
  1 ****   7 GROUP 4 **** **** 0

# MOE 2024.06 (io_trps.svl 2023.06)
