@<TRIPOS>MOLECULE
NONAME
48 51 1 0 0 
SMALL
USER_CHARGES


@<TRIPOS>ATOM
  1 O       -1.7150     0.2510    -2.0600 O.2   1 <1>  -0.5700 
  2 C       -1.7780     0.5700    -0.8890 C.2   1 <1>   0.5440 
  3 N       -1.8770    -0.4210     0.0440 N.am  1 <1>  -0.7300 
  4 C       -1.7790     1.9590    -0.4690 C.ar  1 <1>   0.0860 
  5 C       -1.8910    -1.8750    -0.2420 C.3   1 <1>   0.2200 
  6 C       -0.8360     2.9010    -0.9130 C.ar  1 <1>  -0.1440 
  7 C       -2.7590     2.3910     0.4280 C.ar  1 <1>  -0.1500 
  8 C       -3.2990    -2.4450    -0.1350 C.3   1 <1>  -0.0800 
  9 C       -1.2080    -2.6070     0.9050 C.3   1 <1>   0.1200 
 10 C       -0.8830     4.2120    -0.4630 C.ar  1 <1>  -0.1500 
 11 C        0.2640     2.5110    -1.8940 C.3   1 <1>  -0.0970 
 12 C       -2.8060     3.6950     0.8730 C.ar  1 <1>   0.0820 
 13 C       -3.4510    -2.7040     1.3680 C.3   1 <1>   0.1200 
 14 C       -4.4220    -1.5890    -0.7500 C.3   1 <1>  -0.0160 
 15 O       -2.1650    -2.6730     1.9180 O.3   1 <1>  -0.5600 
 16 C       -1.8560     4.6150     0.4330 C.ar  1 <1>   0.0820 
 17 O       -3.7900     4.0600     1.7340 O.3   1 <1>  -0.3630 
 18 C       -5.7620    -2.2990    -0.6490 C.ar  1 <1>  -0.1440 
 19 O       -1.8630     5.8960     0.8710 O.3   1 <1>  -0.3630 
 20 C       -4.0110     5.4490     1.8980 C.3   1 <1>   0.1200 
 21 C       -6.1310    -3.2830    -1.5440 C.ar  1 <1>  -0.1500 
 22 C       -6.6780    -2.0010     0.3400 C.ar  1 <1>  -0.1500 
 23 C       -2.6720     6.1940     1.9930 C.3   1 <1>   0.1200 
 24 C       -7.3600    -3.9070    -1.4080 C.ar  1 <1>   0.1600 
 25 C       -7.8810    -2.6860     0.3870 C.ar  1 <1>   0.1600 
 26 N       -8.2430    -3.6340    -0.4610 N.ar  1 <1>  -0.6200 
 27 H       -1.9220    -0.1890     1.0390 H     1 <1>   0.3700 
 28 H       -1.4280    -2.0810    -1.1920 H     1 <1>   0.0800 
 29 H       -3.5040     1.7010     0.7790 H     1 <1>   0.1500 
 30 H       -3.3010    -3.4020    -0.6260 H     1 <1>   0.0800 
 31 H       -0.3310    -2.0970     1.2640 H     1 <1>   0.0800 
 32 H       -0.9570    -3.6140     0.6200 H     1 <1>   0.0800 
 33 H       -0.1650     4.9390    -0.7980 H     1 <1>   0.1500 
 34 H        0.9890     3.2970    -1.9990 H     1 <1>   0.0800 
 35 H       -0.1640     2.3110    -2.8600 H     1 <1>   0.0800 
 36 H        0.7720     1.6270    -1.5530 H     1 <1>   0.0800 
 37 H       -3.8950    -3.6650     1.5650 H     1 <1>   0.0800 
 38 H       -4.0270    -1.9320     1.8480 H     1 <1>   0.0800 
 39 H       -4.1960    -1.3950    -1.7850 H     1 <1>   0.0800 
 40 H       -4.4860    -0.6380    -0.2530 H     1 <1>   0.0800 
 41 H       -4.5750     5.8010     1.0520 H     1 <1>   0.0800 
 42 H       -4.5910     5.5890     2.7920 H     1 <1>   0.0800 
 43 H       -5.4750    -3.5680    -2.3460 H     1 <1>   0.1500 
 44 H       -6.4700    -1.2430     1.0720 H     1 <1>   0.1500 
 45 H       -2.1390     5.8950     2.8780 H     1 <1>   0.0800 
 46 H       -2.8260     7.2580     2.0160 H     1 <1>   0.0800 
 47 H       -7.6300    -4.6730    -2.1150 H     1 <1>   0.1500 
 48 H       -8.5830    -2.4400     1.1660 H     1 <1>   0.1500 
@<TRIPOS>BOND
  1   1   2  2   
  2   2   3  am  
  3   2   4  1   
  4   3   5  1   
  5   3  27  1   
  6   4   6  ar  
  7   4   7  ar  
  8   5   8  1   
  9   5   9  1   
 10   5  28  1   
 11   6  10  ar  
 12   6  11  1   
 13   7  12  ar  
 14   7  29  1   
 15   8  13  1   
 16   8  14  1   
 17   8  30  1   
 18   9  15  1   
 19   9  31  1   
 20   9  32  1   
 21  10  16  ar  
 22  10  33  1   
 23  11  34  1   
 24  11  35  1   
 25  11  36  1   
 26  12  16  ar  
 27  12  17  1   
 28  13  15  1   
 29  13  37  1   
 30  13  38  1   
 31  14  18  1   
 32  14  39  1   
 33  14  40  1   
 34  16  19  1   
 35  17  20  1   
 36  18  21  ar  
 37  18  22  ar  
 38  19  23  1   
 39  20  23  1   
 40  20  41  1   
 41  20  42  1   
 42  21  24  ar  
 43  21  43  1   
 44  22  25  ar  
 45  22  44  1   
 46  23  45  1   
 47  23  46  1   
 48  24  26  ar  
 49  24  47  1   
 50  25  26  ar  
 51  25  48  1   
@<TRIPOS>SUBSTRUCTURE
  1 ****   3 GROUP 4 **** **** 0

# MOE 2024.06 (io_trps.svl 2023.06)
