@<TRIPOS>MOLECULE
NONAME
40 41 1 0 0 
SMALL
USER_CHARGES


@<TRIPOS>ATOM
  1 O       -1.4720    -0.8200    -1.6870 O.co2 1 <1>  -0.9000 
  2 C       -1.8890    -1.4360    -0.6850 C.2   1 <1>   0.9790 
  3 O       -2.5780    -0.7880     0.1340 O.co2 1 <1>  -0.9000 
  4 C       -1.6540    -2.8790    -0.4820 C.ar  1 <1>   0.1310 
  5 N       -0.4820    -3.4800    -0.8010 N.ar  1 <1>  -0.6200 
  6 C       -2.7050    -3.6190     0.0570 C.ar  1 <1>  -0.1500 
  7 C       -0.4030    -4.7800    -0.5850 C.ar  1 <1>   0.1600 
  8 C       -2.6230    -4.9840     0.2690 C.ar  1 <1>   0.1000 
  9 C       -1.4140    -5.5590    -0.0670 C.ar  1 <1>  -0.1500 
 10 N       -3.6670    -5.7530     0.7760 N.pl3 1 <1>  -0.8380 
 11 C       -4.1740    -6.9090    -0.0280 C.3   1 <1>   0.2090 
 12 C       -4.7090    -5.1590     1.6630 C.3   1 <1>   0.2090 
 13 C       -5.4010    -6.4900    -0.8560 C.3   1 <1>   0.2000 
 14 C       -5.9510    -4.7590     0.8490 C.3   1 <1>  -0.1600 
 15 O       -5.8400    -7.5850    -1.5880 O.3   1 <1>  -0.6800 
 16 C       -6.5490    -5.9410     0.0340 C.3   1 <1>  -0.1060 
 17 C       -7.0530    -7.0610     0.9730 C.2   1 <1>   0.9060 
 18 C       -7.7010    -5.4270    -0.8790 C.3   1 <1>  -0.1600 
 19 O       -7.1580    -8.2170     0.5310 O.co2 1 <1>  -0.9000 
 20 O       -7.3460    -6.8020     2.1470 O.co2 1 <1>  -0.9000 
 21 C       -8.8960    -4.8080    -0.1330 C.3   1 <1>  -0.1600 
 22 C      -10.0050    -4.4100    -1.1100 C.3   1 <1>  -0.2400 
 23 H       -3.6060    -3.0940     0.3020 H     1 <1>   0.1500 
 24 H        0.5300    -5.2490    -0.8390 H     1 <1>   0.1500 
 25 H       -1.2710    -6.6100     0.0850 H     1 <1>   0.1500 
 26 H       -3.4080    -7.2550    -0.6960 H     1 <1>   0.0800 
 27 H       -4.4390    -7.7110     0.6400 H     1 <1>   0.0800 
 28 H       -4.9820    -5.8810     2.4140 H     1 <1>   0.0800 
 29 H       -4.3090    -4.2980     2.1700 H     1 <1>   0.0800 
 30 H       -5.0880    -5.7420    -1.5630 H     1 <1>   0.0800 
 31 H       -6.6810    -4.3870     1.5440 H     1 <1>   0.0800 
 32 H       -5.6940    -3.9530     0.1880 H     1 <1>   0.0800 
 33 H       -6.4090    -8.1080    -0.9440 H     1 <1>   0.4000 
 34 H       -7.3060    -4.7030    -1.5700 H     1 <1>   0.0800 
 35 H       -8.0670    -6.2570    -1.4590 H     1 <1>   0.0800 
 36 H       -9.2870    -5.5180     0.5770 H     1 <1>   0.0800 
 37 H       -8.5840    -3.9350     0.4110 H     1 <1>   0.0800 
 38 H      -10.3580    -5.2760    -1.6430 H     1 <1>   0.0800 
 39 H       -9.6390    -3.6880    -1.8190 H     1 <1>   0.0800 
 40 H      -10.8300    -3.9800    -0.5710 H     1 <1>   0.0800 
@<TRIPOS>BOND
  1   1   2  ar  
  2   2   3  ar  
  3   2   4  1   
  4   4   5  ar  
  5   4   6  ar  
  6   5   7  ar  
  7   6   8  ar  
  8   6  23  1   
  9   7   9  ar  
 10   7  24  1   
 11   8   9  ar  
 12   8  10  1   
 13   9  25  1   
 14  10  11  1   
 15  10  12  1   
 16  11  13  1   
 17  11  26  1   
 18  11  27  1   
 19  12  14  1   
 20  12  28  1   
 21  12  29  1   
 22  13  15  1   
 23  13  16  1   
 24  13  30  1   
 25  14  16  1   
 26  14  31  1   
 27  14  32  1   
 28  15  33  1   
 29  16  17  1   
 30  16  18  1   
 31  17  19  ar  
 32  17  20  ar  
 33  18  21  1   
 34  18  34  1   
 35  18  35  1   
 36  21  22  1   
 37  21  36  1   
 38  21  37  1   
 39  22  38  1   
 40  22  39  1   
 41  22  40  1   
@<TRIPOS>SUBSTRUCTURE
  1 ****  10 GROUP 4 **** **** 0

# MOE 2024.06 (io_trps.svl 2023.06)
