@<TRIPOS>MOLECULE
NONAME
44 46 1 0 0 
SMALL
USER_CHARGES


@<TRIPOS>ATOM
  1 CL      -4.6830    -0.7850     2.5260 Cl    1 <1>  -0.1770 
  2 C       -4.0320     0.2230     1.2520 C.ar  1 <1>   0.1770 
  3 C       -3.5190    -0.3570     0.0940 C.ar  1 <1>   0.0830 
  4 C       -4.0510     1.5930     1.4280 C.ar  1 <1>  -0.1500 
  5 O       -3.5350    -1.7120    -0.0050 O.3   1 <1>  -0.3630 
  6 C       -3.0140     0.4700    -0.9090 C.ar  1 <1>  -0.1500 
  7 C       -3.5470     2.3920     0.4200 C.ar  1 <1>   0.1770 
  8 C       -3.3730    -2.3660    -1.2560 C.3   1 <1>   0.1810 
  9 C       -3.0300     1.8470    -0.7430 C.ar  1 <1>  -0.1500 
 10 CL      -3.5620     4.1260     0.6160 Cl    1 <1>  -0.1770 
 11 C       -3.5880    -3.8750    -1.1480 C.2   1 <1>   0.5690 
 12 O       -2.7540    -4.5900    -1.6530 O.2   1 <1>  -0.5700 
 13 N       -4.7010    -4.4040    -0.5460 N.am  1 <1>  -0.6600 
 14 C       -5.7850    -3.6480     0.1310 C.3   1 <1>   0.1400 
 15 C       -4.9180    -5.8650    -0.4100 C.3   1 <1>   0.1400 
 16 C       -6.8350    -4.7020     0.4750 C.3   1 <1>   0.2000 
 17 C       -6.0610    -6.0120     0.5960 C.3   1 <1>  -0.0800 
 18 O       -7.4840    -4.4110     1.6640 O.3   1 <1>  -0.6800 
 19 C       -6.9340    -7.2540     0.3620 C.3   1 <1>   0.0210 
 20 C       -6.0960    -8.5180     0.3600 C.2   1 <1>   0.1080 
 21 N       -5.4280    -8.9210     1.3950 N.2   1 <1>  -0.7070 
 22 C       -5.9380    -9.3660    -0.7310 C.2   1 <1>  -0.1500 
 23 N       -4.8190   -10.0500     0.9890 N.pl3 1 <1>   0.3000 
 24 C       -5.1110   -10.3400    -0.2970 C.2   1 <1>  -0.3320 
 25 C       -4.5740   -11.5480    -1.0420 C.3   1 <1>  -0.0600 
 26 H       -4.4500     2.0270     2.3260 H     1 <1>   0.1500 
 27 H       -2.6000     0.0670    -1.8150 H     1 <1>   0.1500 
 28 H       -4.0840    -1.9570    -1.9490 H     1 <1>   0.0800 
 29 H       -2.3740    -2.1820    -1.6040 H     1 <1>   0.0800 
 30 H       -2.6430     2.4990    -1.5060 H     1 <1>   0.1500 
 31 H       -5.3940    -3.1990     1.0280 H     1 <1>   0.0800 
 32 H       -6.1910    -2.8940    -0.5190 H     1 <1>   0.0800 
 33 H       -5.1920    -6.2680    -1.3710 H     1 <1>   0.0800 
 34 H       -4.0250    -6.3580    -0.0620 H     1 <1>   0.0800 
 35 H       -7.5710    -4.7510    -0.3100 H     1 <1>   0.0800 
 36 H       -5.6120    -6.0780     1.5720 H     1 <1>   0.0800 
 37 H       -6.8510    -4.4390     2.4090 H     1 <1>   0.4000 
 38 H       -7.4530    -7.1710    -0.5760 H     1 <1>   0.0800 
 39 H       -7.6680    -7.3280     1.1450 H     1 <1>   0.0800 
 40 H       -6.3880    -9.2470    -1.7000 H     1 <1>   0.1500 
 41 H       -4.2110   -10.5960     1.6100 H     1 <1>   0.2700 
 42 H       -4.9500   -11.5580    -2.0490 H     1 <1>   0.0800 
 43 H       -4.8810   -12.4550    -0.5520 H     1 <1>   0.0800 
 44 H       -3.4990   -11.5140    -1.0790 H     1 <1>   0.0800 
@<TRIPOS>BOND
  1   1   2  1   
  2   2   3  ar  
  3   2   4  ar  
  4   3   5  1   
  5   3   6  ar  
  6   4   7  ar  
  7   4  26  1   
  8   5   8  1   
  9   6   9  ar  
 10   6  27  1   
 11   7   9  ar  
 12   7  10  1   
 13   8  11  1   
 14   8  28  1   
 15   8  29  1   
 16   9  30  1   
 17  11  12  2   
 18  11  13  am  
 19  13  14  1   
 20  13  15  1   
 21  14  16  1   
 22  14  31  1   
 23  14  32  1   
 24  15  17  1   
 25  15  33  1   
 26  15  34  1   
 27  16  17  1   
 28  16  18  1   
 29  16  35  1   
 30  17  19  1   
 31  17  36  1   
 32  18  37  1   
 33  19  20  1   
 34  19  38  1   
 35  19  39  1   
 36  20  21  2   
 37  20  22  1   
 38  21  23  1   
 39  22  24  2   
 40  22  40  1   
 41  23  24  1   
 42  23  41  1   
 43  24  25  1   
 44  25  42  1   
 45  25  43  1   
 46  25  44  1   
@<TRIPOS>SUBSTRUCTURE
  1 ****  13 GROUP 4 **** **** 0

# MOE 2024.06 (io_trps.svl 2023.06)
