@<TRIPOS>MOLECULE
NONAME
23 24 1 0 0 
SMALL
USER_CHARGES


@<TRIPOS>ATOM
  1 O        5.3960    -0.8070    -0.8330 O.3   1 <1>  -0.5600 
  2 C        5.7150    -1.0980     0.4820 C.3   1 <1>   0.3900 
  3 C        5.7850     0.5020    -1.0700 C.3   1 <1>   0.1200 
  4 N        6.9970    -0.4510     0.7120 N.3   1 <1>  -0.8100 
  5 C        6.9790     0.7290    -0.1330 C.3   1 <1>   0.2700 
  6 C        8.0730    -1.2770     0.1820 C.3   1 <1>   0.3900 
  7 C        8.3200     0.6650    -0.8780 C.3   1 <1>   0.1200 
  8 C        6.8780     2.0060     0.7320 C.3   1 <1>  -0.1600 
  9 O        9.0090    -0.3810    -0.2930 O.3   1 <1>  -0.5600 
 10 C        5.6820     2.0790     1.6990 C.3   1 <1>  -0.2400 
 11 H        5.7600    -2.1660     0.6170 H     1 <1>   0.0800 
 12 H        4.9560    -0.6750     1.1200 H     1 <1>   0.0800 
 13 H        4.9600     1.1480    -0.8340 H     1 <1>   0.0800 
 14 H        6.0350     0.6120    -2.1100 H     1 <1>   0.0800 
 15 H        7.7430    -1.8880    -0.6440 H     1 <1>   0.0800 
 16 H        8.5200    -1.8860     0.9490 H     1 <1>   0.0800 
 17 H        8.8990     1.5640    -0.7690 H     1 <1>   0.0800 
 18 H        8.1920     0.4410    -1.9220 H     1 <1>   0.0800 
 19 H        6.8450     2.8600     0.0790 H     1 <1>   0.0800 
 20 H        7.7810     2.0860     1.3130 H     1 <1>   0.0800 
 21 H        4.7450     2.0340     1.1750 H     1 <1>   0.0800 
 22 H        5.7160     3.0030     2.2500 H     1 <1>   0.0800 
 23 H        5.7250     1.2690     2.4060 H     1 <1>   0.0800 
@<TRIPOS>BOND
  1   1   2  1   
  2   1   3  1   
  3   2   4  1   
  4   2  11  1   
  5   2  12  1   
  6   3   5  1   
  7   3  13  1   
  8   3  14  1   
  9   4   5  1   
 10   4   6  1   
 11   5   7  1   
 12   5   8  1   
 13   6   9  1   
 14   6  15  1   
 15   6  16  1   
 16   7   9  1   
 17   7  17  1   
 18   7  18  1   
 19   8  10  1   
 20   8  19  1   
 21   8  20  1   
 22  10  21  1   
 23  10  22  1   
 24  10  23  1   
@<TRIPOS>SUBSTRUCTURE
  1 ****   5 GROUP 4 **** **** 0

# MOE 2024.06 (io_trps.svl 2023.06)
