@<TRIPOS>MOLECULE
NONAME
48 51 1 0 0 
SMALL
USER_CHARGES


@<TRIPOS>ATOM
  1 O       -0.0820    -0.5330     0.5410 O.2   1 <1>  -0.5700 
  2 C       -0.2240    -1.7290     0.4570 C.2   1 <1>   0.5690 
  3 N        0.6150    -2.6160     1.0850 N.am  1 <1>  -0.6600 
  4 C       -1.3750    -2.2290    -0.4010 C.3   1 <1>  -0.0990 
  5 C        0.4030    -4.0890     1.0870 C.3   1 <1>   0.1400 
  6 C        1.7510    -2.1470     1.9270 C.3   1 <1>   0.0600 
  7 C       -1.6860    -3.7260    -0.2330 C.3   1 <1>  -0.1600 
  8 C       -0.4010    -4.5830    -0.1350 C.3   1 <1>   0.0000 
  9 C       -0.7790    -6.0620     0.1020 C.3   1 <1>   0.2090 
 10 C        0.4760    -4.4940    -1.4130 C.3   1 <1>  -0.1600 
 11 N       -1.4460    -6.6450    -1.1090 N.pl3 1 <1>  -0.8380 
 12 C       -0.1810    -5.1710    -2.6290 C.3   1 <1>  -0.1600 
 13 C       -2.5620    -7.4220    -0.9830 C.ar  1 <1>   0.7710 
 14 C       -0.5740    -6.6190    -2.3200 C.3   1 <1>   0.2090 
 15 N       -3.4480    -7.3980    -2.0200 N.ar  1 <1>  -0.1790 
 16 N       -2.7620    -8.1250     0.1000 N.ar  1 <1>  -0.5670 
 17 C       -4.5850    -8.1040    -2.0330 C.ar  1 <1>   0.4610 
 18 C       -3.8990    -8.8640     0.1220 C.ar  1 <1>   0.1050 
 19 N       -5.4240    -8.0340    -3.0810 N.pl3 1 <1>  -0.9000 
 20 C       -4.8200    -8.8870    -0.8970 C.ar  1 <1>   0.0000 
 21 N       -4.3640    -9.6970     1.0860 N.pl3 1 <1>   0.3140 
 22 C       -5.8110    -9.7690    -0.4410 C.2   1 <1>   0.1390 
 23 N       -5.5490   -10.2490     0.7270 N.2   1 <1>  -0.7070 
 24 C       -3.7370   -10.0160     2.3780 C.3   1 <1>   0.0160 
 25 H       -1.1240    -2.0220    -1.4250 H     1 <1>   0.0800 
 26 H       -2.2500    -1.6520    -0.1640 H     1 <1>   0.0800 
 27 H       -0.1200    -4.3440     1.9930 H     1 <1>   0.0800 
 28 H        1.3600    -4.5830     1.1100 H     1 <1>   0.0800 
 29 H        1.8340    -1.0730     1.8970 H     1 <1>   0.0800 
 30 H        2.6720    -2.5680     1.5640 H     1 <1>   0.0800 
 31 H        1.5980    -2.4480     2.9480 H     1 <1>   0.0800 
 32 H       -2.3120    -4.0490    -1.0440 H     1 <1>   0.0800 
 33 H       -2.2510    -3.8470     0.6760 H     1 <1>   0.0800 
 34 H       -1.4280    -6.1300     0.9600 H     1 <1>   0.0800 
 35 H        0.1080    -6.6340     0.3180 H     1 <1>   0.0800 
 36 H        1.4150    -4.9860    -1.2240 H     1 <1>   0.0800 
 37 H        0.7110    -3.4720    -1.6520 H     1 <1>   0.0800 
 38 H        0.5140    -5.1640    -3.4510 H     1 <1>   0.0800 
 39 H       -1.0470    -4.6160    -2.9400 H     1 <1>   0.0800 
 40 H       -1.0650    -7.0580    -3.1720 H     1 <1>   0.0800 
 41 H        0.3170    -7.1940    -2.1230 H     1 <1>   0.0800 
 42 H       -3.2120    -6.7590    -2.7630 H     1 <1>   0.4570 
 43 H       -6.3050    -8.5660    -3.1060 H     1 <1>   0.4000 
 44 H       -5.3030    -7.4830    -3.9380 H     1 <1>   0.4000 
 45 H       -6.6980   -10.0250    -0.9970 H     1 <1>   0.1500 
 46 H       -2.6990    -9.7420     2.3560 H     1 <1>   0.0800 
 47 H       -3.8290   -11.0710     2.5590 H     1 <1>   0.0800 
 48 H       -4.2420    -9.4750     3.1560 H     1 <1>   0.0800 
@<TRIPOS>BOND
  1   1   2  2   
  2   2   3  am  
  3   2   4  1   
  4   3   5  1   
  5   3   6  1   
  6   4   7  1   
  7   4  25  1   
  8   4  26  1   
  9   5   8  1   
 10   5  27  1   
 11   5  28  1   
 12   6  29  1   
 13   6  30  1   
 14   6  31  1   
 15   7   8  1   
 16   7  32  1   
 17   7  33  1   
 18   8   9  1   
 19   8  10  1   
 20   9  11  1   
 21   9  34  1   
 22   9  35  1   
 23  10  12  1   
 24  10  36  1   
 25  10  37  1   
 26  11  13  1   
 27  11  14  1   
 28  12  14  1   
 29  12  38  1   
 30  12  39  1   
 31  13  15  ar  
 32  13  16  ar  
 33  14  40  1   
 34  14  41  1   
 35  15  17  ar  
 36  15  42  1   
 37  16  18  ar  
 38  17  19  1   
 39  17  20  ar  
 40  18  20  ar  
 41  18  21  1   
 42  19  43  1   
 43  19  44  1   
 44  20  22  1   
 45  21  23  1   
 46  21  24  1   
 47  22  23  2   
 48  22  45  1   
 49  24  46  1   
 50  24  47  1   
 51  24  48  1   
@<TRIPOS>SUBSTRUCTURE
  1 ****  11 GROUP 4 **** **** 0

# MOE 2024.06 (io_trps.svl 2023.06)
