@<TRIPOS>MOLECULE
NONAME
55 56 1 0 0 
SMALL
USER_CHARGES


@<TRIPOS>ATOM
  1 O       -0.5350     0.3580     1.9590 O.2   1 <1>  -0.5700 
  2 C       -1.2390     0.6820     1.0310 C.2   1 <1>   0.5690 
  3 N       -2.0600    -0.2430     0.4200 N.am  1 <1>  -0.6600 
  4 C       -1.1330     2.1570     0.6100 C.3   1 <1>  -0.0190 
  5 C       -3.0500     0.0500    -0.6520 C.3   1 <1>   0.3210 
  6 C       -2.0770    -1.6660     0.8830 C.3   1 <1>   0.1400 
  7 C       -2.4420     2.9650     0.7370 C.3   1 <1>  -0.1600 
  8 C       -0.4390     2.3570    -0.7590 C.3   1 <1>  -0.1600 
  9 C       -4.4170     0.3700    -0.0680 C.2   1 <1>  -0.1810 
 10 C       -1.2880    -2.5940    -0.0630 C.3   1 <1>  -0.0800 
 11 C       -2.2150     4.4790     0.5570 C.3   1 <1>   0.2000 
 12 C       -0.7940     3.6990    -1.4300 C.3   1 <1>  -0.1600 
 13 C       -4.7710     0.4610     1.2750 C.2   1 <1>   0.1390 
 14 C       -5.5560     0.6580    -0.7340 C.2   1 <1>  -0.3020 
 15 C       -1.3650    -4.0390     0.4460 C.3   1 <1>  -0.2400 
 16 C        0.1850    -2.1780    -0.1930 C.3   1 <1>  -0.2400 
 17 O       -3.3920     5.0420     0.0250 O.3   1 <1>  -0.5600 
 18 C       -1.0230     4.7990    -0.3870 C.3   1 <1>   0.2000 
 19 N       -6.0170     0.7860     1.4350 N.2   1 <1>  -0.7070 
 20 N       -6.5070     0.9030     0.1880 N.pl3 1 <1>   0.3140 
 21 C       -4.4640     5.1400     0.9140 C.3   1 <1>   0.0400 
 22 O       -1.2800     5.9740    -1.0600 O.3   1 <1>  -0.6800 
 23 C       -7.9140     1.2700    -0.0680 C.3   1 <1>   0.0960 
 24 C       -8.7510     0.0400    -0.4390 C.3   1 <1>  -0.2400 
 25 H       -0.4700     2.6010     1.3340 H     1 <1>   0.0800 
 26 H       -2.7240     0.8750    -1.2550 H     1 <1>   0.0800 
 27 H       -3.1400    -0.8000    -1.3040 H     1 <1>   0.0800 
 28 H       -1.6580    -1.7360     1.8730 H     1 <1>   0.0800 
 29 H       -3.0970    -2.0020     0.9500 H     1 <1>   0.0800 
 30 H       -2.8820     2.7820     1.7010 H     1 <1>   0.0800 
 31 H       -3.1340     2.6510    -0.0190 H     1 <1>   0.0800 
 32 H        0.6250     2.3150    -0.5990 H     1 <1>   0.0800 
 33 H       -0.6780     1.5570    -1.4360 H     1 <1>   0.0800 
 34 H       -1.7410    -2.5670    -1.0380 H     1 <1>   0.0800 
 35 H       -2.0150     4.9390     1.5100 H     1 <1>   0.0800 
 36 H       -1.6960     3.5800    -2.0050 H     1 <1>   0.0800 
 37 H       -0.0020     3.9880    -2.0980 H     1 <1>   0.0800 
 38 H       -4.0960     0.2910     2.0980 H     1 <1>   0.1500 
 39 H       -5.7430     0.7080    -1.7910 H     1 <1>   0.1500 
 40 H       -0.9120    -4.1220     1.4180 H     1 <1>   0.0800 
 41 H       -0.8510    -4.7010    -0.2290 H     1 <1>   0.0800 
 42 H       -2.3900    -4.3580     0.5150 H     1 <1>   0.0800 
 43 H        0.6520    -2.1430     0.7760 H     1 <1>   0.0800 
 44 H        0.2650    -1.2030    -0.6400 H     1 <1>   0.0800 
 45 H        0.7220    -2.8740    -0.8120 H     1 <1>   0.0800 
 46 H       -0.1220     4.9370     0.1860 H     1 <1>   0.0800 
 47 H       -5.2640     5.6580     0.4160 H     1 <1>   0.0800 
 48 H       -4.1590     5.6970     1.7830 H     1 <1>   0.0800 
 49 H       -4.7960     4.1540     1.1920 H     1 <1>   0.0800 
 50 H       -2.2630     6.0530    -1.0810 H     1 <1>   0.4000 
 51 H       -8.3080     1.7260     0.8220 H     1 <1>   0.0800 
 52 H       -7.9380     1.9930    -0.8630 H     1 <1>   0.0800 
 53 H       -8.7240    -0.6770     0.3630 H     1 <1>   0.0800 
 54 H       -8.3730    -0.4160    -1.3370 H     1 <1>   0.0800 
 55 H       -9.7730     0.3290    -0.6050 H     1 <1>   0.0800 
@<TRIPOS>BOND
  1   1   2  2   
  2   2   3  am  
  3   2   4  1   
  4   3   5  1   
  5   3   6  1   
  6   4   7  1   
  7   4   8  1   
  8   4  25  1   
  9   5   9  1   
 10   5  26  1   
 11   5  27  1   
 12   6  10  1   
 13   6  28  1   
 14   6  29  1   
 15   7  11  1   
 16   7  30  1   
 17   7  31  1   
 18   8  12  1   
 19   8  32  1   
 20   8  33  1   
 21   9  13  1   
 22   9  14  2   
 23  10  15  1   
 24  10  16  1   
 25  10  34  1   
 26  11  17  1   
 27  11  18  1   
 28  11  35  1   
 29  12  18  1   
 30  12  36  1   
 31  12  37  1   
 32  13  19  2   
 33  13  38  1   
 34  14  20  1   
 35  14  39  1   
 36  15  40  1   
 37  15  41  1   
 38  15  42  1   
 39  16  43  1   
 40  16  44  1   
 41  16  45  1   
 42  17  21  1   
 43  18  22  1   
 44  18  46  1   
 45  19  20  1   
 46  20  23  1   
 47  21  47  1   
 48  21  48  1   
 49  21  49  1   
 50  22  50  1   
 51  23  24  1   
 52  23  51  1   
 53  23  52  1   
 54  24  53  1   
 55  24  54  1   
 56  24  55  1   
@<TRIPOS>SUBSTRUCTURE
  1 ****   5 GROUP 4 **** **** 0

# MOE 2024.06 (io_trps.svl 2023.06)
