@<TRIPOS>MOLECULE
NONAME
53 55 1 0 0 
SMALL
USER_CHARGES


@<TRIPOS>ATOM
  1 O       -2.4830     1.7370    -1.0120 O.2   1 <1>  -0.5700 
  2 C       -1.9740     1.2930    -0.0100 C.2   1 <1>   0.5690 
  3 N       -1.9380    -0.0430     0.2330 N.am  1 <1>  -0.7300 
  4 C       -1.3450     2.2640     1.0050 C.3   1 <1>   0.1710 
  5 C       -2.4890    -1.0860    -0.6640 C.3   1 <1>   0.2200 
  6 N       -0.0260     2.8600     0.6110 N.3   1 <1>  -0.8100 
  7 C       -3.6980    -1.7280    -0.0010 C.3   1 <1>  -0.0800 
  8 C       -1.5170    -2.2570    -0.7230 C.3   1 <1>   0.1200 
  9 C       -0.1980     3.6720    -0.6320 C.3   1 <1>   0.1100 
 10 C        0.9810     1.7950     0.4260 C.3   1 <1>   0.1100 
 11 C       -3.0640    -2.8200     0.8740 C.3   1 <1>   0.1200 
 12 C       -4.6690    -2.3090    -1.0470 C.3   1 <1>  -0.0160 
 13 O       -1.7390    -2.9730     0.4520 O.3   1 <1>  -0.5600 
 14 C        0.8380     4.8050    -0.7780 C.3   1 <1>   0.3430 
 15 C        2.4000     2.3040     0.7050 C.3   1 <1>  -0.1600 
 16 C       -5.8810    -2.9520    -0.3900 C.ar  1 <1>  -0.1440 
 17 N        1.9250     4.6500     0.2280 N.4   1 <1>  -0.9590 
 18 C        2.8260     3.5240    -0.1100 C.3   1 <1>   0.3430 
 19 C       -6.8940    -2.1950     0.1640 C.ar  1 <1>  -0.1500 
 20 C       -6.0360    -4.3220    -0.3160 C.ar  1 <1>  -0.1500 
 21 C        2.6430     5.9220     0.5210 C.3   1 <1>   0.2630 
 22 C       -7.9770    -2.8260     0.7540 C.ar  1 <1>   0.1600 
 23 C       -7.1590    -4.8530     0.2960 C.ar  1 <1>   0.1600 
 24 N       -8.1330    -4.1370     0.8350 N.ar  1 <1>  -0.6200 
 25 H       -1.5220    -0.4230     1.0870 H     1 <1>   0.3700 
 26 H       -1.2290     1.7520     1.9430 H     1 <1>   0.0800 
 27 H       -2.0490     3.0590     1.1730 H     1 <1>   0.0800 
 28 H       -2.7000    -0.6780    -1.6390 H     1 <1>   0.0800 
 29 H       -4.2320    -1.0160     0.6030 H     1 <1>   0.0800 
 30 H       -0.4890    -1.9460    -0.7710 H     1 <1>   0.0800 
 31 H       -1.7430    -2.9030    -1.5520 H     1 <1>   0.0800 
 32 H       -0.1660     3.0380    -1.5020 H     1 <1>   0.0800 
 33 H       -1.1720     4.1340    -0.6320 H     1 <1>   0.0800 
 34 H        0.7870     0.9910     1.1180 H     1 <1>   0.0800 
 35 H        0.9150     1.3820    -0.5680 H     1 <1>   0.0800 
 36 H       -3.5620    -3.7700     0.7860 H     1 <1>   0.0800 
 37 H       -3.0460    -2.5250     1.9090 H     1 <1>   0.0800 
 38 H       -4.1660    -3.0340    -1.6620 H     1 <1>   0.0800 
 39 H       -5.0100    -1.5180    -1.6940 H     1 <1>   0.0800 
 40 H        0.3300     5.7410    -0.6140 H     1 <1>   0.0800 
 41 H        1.2370     4.8170    -1.7780 H     1 <1>   0.0800 
 42 H        3.0860     1.5040     0.4900 H     1 <1>   0.0800 
 43 H        2.4990     2.5210     1.7540 H     1 <1>   0.0800 
 44 H        1.3970     4.3110     1.0580 H     1 <1>   0.4500 
 45 H        2.7790     3.3050    -1.1640 H     1 <1>   0.0800 
 46 H        3.8430     3.7770     0.1420 H     1 <1>   0.0800 
 47 H       -6.8520    -1.1210     0.1430 H     1 <1>   0.1500 
 48 H       -5.2970    -4.9850    -0.7280 H     1 <1>   0.1500 
 49 H        3.1660     6.2680    -0.3560 H     1 <1>   0.0800 
 50 H        3.3570     5.7730     1.3150 H     1 <1>   0.0800 
 51 H        1.9430     6.6820     0.8290 H     1 <1>   0.0800 
 52 H       -8.7570    -2.2190     1.1810 H     1 <1>   0.1500 
 53 H       -7.2630    -5.9230     0.3460 H     1 <1>   0.1500 
@<TRIPOS>BOND
  1   1   2  2   
  2   2   3  am  
  3   2   4  1   
  4   3   5  1   
  5   3  25  1   
  6   4   6  1   
  7   4  26  1   
  8   4  27  1   
  9   5   7  1   
 10   5   8  1   
 11   5  28  1   
 12   6   9  1   
 13   6  10  1   
 14   7  11  1   
 15   7  12  1   
 16   7  29  1   
 17   8  13  1   
 18   8  30  1   
 19   8  31  1   
 20   9  14  1   
 21   9  32  1   
 22   9  33  1   
 23  10  15  1   
 24  10  34  1   
 25  10  35  1   
 26  11  13  1   
 27  11  36  1   
 28  11  37  1   
 29  12  16  1   
 30  12  38  1   
 31  12  39  1   
 32  14  17  1   
 33  14  40  1   
 34  14  41  1   
 35  15  18  1   
 36  15  42  1   
 37  15  43  1   
 38  16  19  ar  
 39  16  20  ar  
 40  17  18  1   
 41  17  21  1   
 42  17  44  1   
 43  18  45  1   
 44  18  46  1   
 45  19  22  ar  
 46  19  47  1   
 47  20  23  ar  
 48  20  48  1   
 49  21  49  1   
 50  21  50  1   
 51  21  51  1   
 52  22  24  ar  
 53  22  52  1   
 54  23  24  ar  
 55  23  53  1   
@<TRIPOS>SUBSTRUCTURE
  1 ****   3 GROUP 4 **** **** 0

# MOE 2024.06 (io_trps.svl 2023.06)
