@<TRIPOS>MOLECULE
NONAME
48 50 1 0 0 
SMALL
USER_CHARGES


@<TRIPOS>ATOM
  1 O       -0.1590    -0.2440     0.4150 O.2   1 <1>  -0.5700 
  2 C       -1.3140    -0.1550     0.0430 C.2   1 <1>   0.7800 
  3 O       -1.9090    -1.0850    -0.7060 O.3   1 <1>  -0.2330 
  4 N       -2.1670     0.8820     0.2980 N.am  1 <1>  -0.4770 
  5 C       -3.1600    -0.6460    -0.9490 C.ar  1 <1>   0.0830 
  6 C       -3.3500     0.5730    -0.3390 C.ar  1 <1>   0.1170 
  7 C       -1.8660     2.0840     1.0980 C.3   1 <1>   0.1400 
  8 C       -4.1580    -1.2570    -1.6850 C.ar  1 <1>  -0.1500 
  9 C       -4.5660     1.2310    -0.4510 C.ar  1 <1>  -0.1500 
 10 C       -1.3320     3.1880     0.1880 C.3   1 <1>  -0.0990 
 11 C       -5.3740    -0.6010    -1.7970 C.ar  1 <1>  -0.1500 
 12 C       -5.5810     0.6360    -1.1860 C.ar  1 <1>  -0.1440 
 13 C       -1.0190     4.4180     1.0030 C.2   1 <1>   0.5690 
 14 C       -6.9270     1.3220    -1.3350 C.3   1 <1>  -0.0960 
 15 O       -1.9230     4.9920     1.5580 O.2   1 <1>  -0.5700 
 16 N        0.2620     4.8470     1.0850 N.am  1 <1>  -0.7300 
 17 C        0.6950     6.0410     1.8240 C.3   1 <1>   0.3200 
 18 C        1.5070     6.9170     0.8930 C.2   1 <1>  -0.3320 
 19 N        1.0820     7.4550    -0.2740 N.pl3 1 <1>   0.0480 
 20 C        2.7810     7.3340     1.0640 C.2   1 <1>   0.0770 
 21 C        2.1440     8.1620    -0.7240 C.2   1 <1>   0.0360 
 22 C       -0.2070     7.3060    -0.9880 C.3   1 <1>   0.0960 
 23 N        3.1790     8.1160     0.0470 N.2   1 <1>  -0.5650 
 24 C       -1.3490     7.9620    -0.2190 C.3   1 <1>   0.1200 
 25 O       -2.4860     7.8930    -1.0170 O.3   1 <1>  -0.5600 
 26 C       -3.6580     8.2430    -0.3520 C.3   1 <1>   0.0400 
 27 H       -1.1310     1.8370     1.8460 H     1 <1>   0.0800 
 28 H       -2.7610     2.4140     1.5990 H     1 <1>   0.0800 
 29 H       -3.9850    -2.2110    -2.1510 H     1 <1>   0.1500 
 30 H       -4.7050     2.1840     0.0260 H     1 <1>   0.1500 
 31 H       -2.0750     3.4460    -0.5450 H     1 <1>   0.0800 
 32 H       -0.4460     2.8470    -0.3160 H     1 <1>   0.0800 
 33 H       -6.1680    -1.0550    -2.3660 H     1 <1>   0.1500 
 34 H       -6.9810     2.2020    -0.7200 H     1 <1>   0.0800 
 35 H       -7.7160     0.6530    -1.0410 H     1 <1>   0.0800 
 36 H       -7.0790     1.6100    -2.3600 H     1 <1>   0.0800 
 37 H        1.0130     4.3620     0.5900 H     1 <1>   0.3700 
 38 H        1.3000     5.7360     2.6610 H     1 <1>   0.0800 
 39 H       -0.1520     6.5840     2.2050 H     1 <1>   0.0800 
 40 H        3.4480     7.1130     1.8820 H     1 <1>   0.1500 
 41 H        2.1120     8.7090    -1.6510 H     1 <1>   0.1500 
 42 H       -0.4120     6.2620    -1.1230 H     1 <1>   0.0800 
 43 H       -0.1200     7.7710    -1.9530 H     1 <1>   0.0800 
 44 H       -1.1350     8.9980    -0.0210 H     1 <1>   0.0800 
 45 H       -1.5400     7.4350     0.6990 H     1 <1>   0.0800 
 46 H       -4.4710     8.1860    -1.0540 H     1 <1>   0.0800 
 47 H       -3.5700     9.2480     0.0220 H     1 <1>   0.0800 
 48 H       -3.8270     7.5500     0.4550 H     1 <1>   0.0800 
@<TRIPOS>BOND
  1   1   2  2   
  2   2   3  1   
  3   2   4  am  
  4   3   5  1   
  5   4   6  1   
  6   4   7  1   
  7   5   6  ar  
  8   5   8  ar  
  9   6   9  ar  
 10   7  10  1   
 11   7  27  1   
 12   7  28  1   
 13   8  11  ar  
 14   8  29  1   
 15   9  12  ar  
 16   9  30  1   
 17  10  13  1   
 18  10  31  1   
 19  10  32  1   
 20  11  12  ar  
 21  11  33  1   
 22  12  14  1   
 23  13  15  2   
 24  13  16  am  
 25  14  34  1   
 26  14  35  1   
 27  14  36  1   
 28  16  17  1   
 29  16  37  1   
 30  17  18  1   
 31  17  38  1   
 32  17  39  1   
 33  18  19  1   
 34  18  20  2   
 35  19  21  1   
 36  19  22  1   
 37  20  23  1   
 38  20  40  1   
 39  21  23  2   
 40  21  41  1   
 41  22  24  1   
 42  22  42  1   
 43  22  43  1   
 44  24  25  1   
 45  24  44  1   
 46  24  45  1   
 47  25  26  1   
 48  26  46  1   
 49  26  47  1   
 50  26  48  1   
@<TRIPOS>SUBSTRUCTURE
  1 ****  10 GROUP 4 **** **** 0

# MOE 2024.06 (io_trps.svl 2023.06)
