@<TRIPOS>MOLECULE
NONAME
58 61 1 0 0 
SMALL
USER_CHARGES


@<TRIPOS>ATOM
  1 O        1.3660     0.6580    -3.0720 O.2   1 <1>  -0.5700 
  2 C        1.6550    -0.1280    -2.2030 C.2   1 <1>   0.5690 
  3 N        2.4190     0.2790    -1.1300 N.am  1 <1>  -0.6600 
  4 C        1.1650    -1.5640    -2.3790 C.3   1 <1>   0.0440 
  5 C        3.0570    -0.6200    -0.1160 C.3   1 <1>   0.1400 
  6 C        2.5510     1.7330    -0.8400 C.3   1 <1>   0.1400 
  7 C        0.4570    -2.1410    -1.1550 C.ar  1 <1>  -0.1440 
  8 C        4.5970    -0.6630    -0.2310 C.3   1 <1>   0.3430 
  9 C        3.7900     2.3060    -1.5330 C.3   1 <1>  -0.1600 
 10 C       -0.4450    -1.3750    -0.4330 C.ar  1 <1>  -0.1500 
 11 C        0.7170    -3.4410    -0.7480 C.ar  1 <1>  -0.1500 
 12 N        5.2550     0.6860    -0.3470 N.4   1 <1>  -0.9590 
 13 C        4.9560     1.3290    -1.6630 C.3   1 <1>   0.3430 
 14 C       -1.0600    -1.8930     0.6930 C.ar  1 <1>  -0.1500 
 15 C        0.1010    -3.9580     0.3780 C.ar  1 <1>  -0.1500 
 16 C        6.7210     0.6030    -0.1070 C.3   1 <1>   0.4860 
 17 C       -0.7860    -3.1850     1.1080 C.ar  1 <1>  -0.1440 
 18 C        7.2580     2.0090     0.0840 C.ar  1 <1>  -0.1440 
 19 C       -1.4640    -3.7520     2.3420 C.3   1 <1>  -0.0970 
 20 C        6.9890     2.7120     1.2510 C.ar  1 <1>  -0.1500 
 21 C        8.0260     2.6090    -0.9040 C.ar  1 <1>  -0.1500 
 22 C        7.4700     3.9980     1.4180 C.ar  1 <1>  -0.1500 
 23 C        8.5060     3.8950    -0.7330 C.ar  1 <1>  -0.1500 
 24 C        8.2330     4.6080     0.4290 C.ar  1 <1>  -0.0230 
 25 N        8.7270     5.9280     0.6040 N.pl3 1 <1>   0.3260 
 26 C        8.7380     6.9540    -0.2880 C.2   1 <1>   0.0360 
 27 C        9.2960     6.4650     1.7060 C.2   1 <1>  -0.3020 
 28 N        9.2540     8.0540     0.1560 N.2   1 <1>  -0.5650 
 29 C        9.6080     7.7460     1.4170 C.2   1 <1>   0.0770 
 30 H        2.0050    -2.1750    -2.6470 H     1 <1>   0.0800 
 31 H        0.4760    -1.5890    -3.2040 H     1 <1>   0.0800 
 32 H        2.6990    -1.6260    -0.2160 H     1 <1>   0.0800 
 33 H        2.7760    -0.2940     0.8710 H     1 <1>   0.0800 
 34 H        2.6140     1.8840     0.2240 H     1 <1>   0.0800 
 35 H        1.6720     2.2570    -1.1820 H     1 <1>   0.0800 
 36 H        4.8550    -1.2580    -1.0910 H     1 <1>   0.0800 
 37 H        4.9780    -1.1750     0.6380 H     1 <1>   0.0800 
 38 H        4.1090     3.1970    -1.0230 H     1 <1>   0.0800 
 39 H        3.5030     2.6060    -2.5260 H     1 <1>   0.0800 
 40 H       -0.6780    -0.3690    -0.7410 H     1 <1>   0.1500 
 41 H        1.3950    -4.0640    -1.3030 H     1 <1>   0.1500 
 42 H        4.8770     1.3110     0.3750 H     1 <1>   0.4500 
 43 H        5.8150     1.8690    -2.0260 H     1 <1>   0.0800 
 44 H        4.7060     0.5730    -2.3900 H     1 <1>   0.0800 
 45 H       -1.7580    -1.2860     1.2430 H     1 <1>   0.1500 
 46 H        0.3090    -4.9690     0.6820 H     1 <1>   0.1500 
 47 H        7.2120     0.1260    -0.9390 H     1 <1>   0.0800 
 48 H        6.9200     0.0280     0.7830 H     1 <1>   0.0800 
 49 H       -1.6510    -2.9730     3.0600 H     1 <1>   0.0800 
 50 H       -0.8440    -4.4980     2.8050 H     1 <1>   0.0800 
 51 H       -2.4010    -4.2020     2.0670 H     1 <1>   0.0800 
 52 H        6.4100     2.2700     2.0450 H     1 <1>   0.1500 
 53 H        8.2650     2.0850    -1.8150 H     1 <1>   0.1500 
 54 H        7.2520     4.5350     2.3270 H     1 <1>   0.1500 
 55 H        9.1070     4.3440    -1.5070 H     1 <1>   0.1500 
 56 H        8.3390     6.8340    -1.2780 H     1 <1>   0.1500 
 57 H        9.4480     5.9110     2.6130 H     1 <1>   0.1500 
 58 H       10.0770     8.4770     2.0570 H     1 <1>   0.1500 
@<TRIPOS>BOND
  1   1   2  2   
  2   2   3  am  
  3   2   4  1   
  4   3   5  1   
  5   3   6  1   
  6   4   7  1   
  7   4  30  1   
  8   4  31  1   
  9   5   8  1   
 10   5  32  1   
 11   5  33  1   
 12   6   9  1   
 13   6  34  1   
 14   6  35  1   
 15   7  10  ar  
 16   7  11  ar  
 17   8  12  1   
 18   8  36  1   
 19   8  37  1   
 20   9  13  1   
 21   9  38  1   
 22   9  39  1   
 23  10  14  ar  
 24  10  40  1   
 25  11  15  ar  
 26  11  41  1   
 27  12  13  1   
 28  12  16  1   
 29  12  42  1   
 30  13  43  1   
 31  13  44  1   
 32  14  17  ar  
 33  14  45  1   
 34  15  17  ar  
 35  15  46  1   
 36  16  18  1   
 37  16  47  1   
 38  16  48  1   
 39  17  19  1   
 40  18  20  ar  
 41  18  21  ar  
 42  19  49  1   
 43  19  50  1   
 44  19  51  1   
 45  20  22  ar  
 46  20  52  1   
 47  21  23  ar  
 48  21  53  1   
 49  22  24  ar  
 50  22  54  1   
 51  23  24  ar  
 52  23  55  1   
 53  24  25  1   
 54  25  26  1   
 55  25  27  1   
 56  26  28  2   
 57  26  56  1   
 58  27  29  2   
 59  27  57  1   
 60  28  29  1   
 61  29  58  1   
@<TRIPOS>SUBSTRUCTURE
  1 ****  12 GROUP 4 **** **** 0

# MOE 2024.06 (io_trps.svl 2023.06)
