@<TRIPOS>MOLECULE
NONAME
45 47 1 0 0 
SMALL
USER_CHARGES


@<TRIPOS>ATOM
  1 O        0.9490    -0.1610     1.8040 O.3   1 <1>  -0.6800 
  2 C        1.4480    -0.1470     0.5060 C.3   1 <1>   0.2000 
  3 C        2.3110    -1.3970     0.3170 C.3   1 <1>  -0.0800 
  4 C        2.4520     0.9990     0.4060 C.3   1 <1>   0.3430 
  5 C        3.7210    -0.9660     0.7640 C.3   1 <1>   0.3430 
  6 C        2.2950    -1.8810    -1.1490 C.3   1 <1>  -0.0170 
  7 N        3.6460     0.4790     1.1250 N.4   1 <1>  -0.9590 
  8 C        3.0840    -3.1700    -1.3400 C.ar  1 <1>   0.1670 
  9 C        4.9150     1.2130     0.8400 C.3   1 <1>   0.3430 
 10 N        4.4000    -3.0740    -1.2360 N.ar  1 <1>  -0.6200 
 11 C        2.4190    -4.3660    -1.6130 C.ar  1 <1>   0.1600 
 12 C        4.8970     2.6360     1.4020 C.3   1 <1>  -0.0170 
 13 C        5.0020    -4.2380    -1.4320 C.ar  1 <1>   0.1600 
 14 N        3.0190    -5.5290    -1.7960 N.ar  1 <1>  -0.6200 
 15 C        6.1390     3.3600     0.9280 C.ar  1 <1>   0.1670 
 16 C        4.3330    -5.4260    -1.7010 C.ar  1 <1>   0.1600 
 17 N        6.3590     3.3070    -0.3750 N.ar  1 <1>  -0.6200 
 18 C        6.9580     4.0200     1.8310 C.ar  1 <1>  -0.1500 
 19 C        7.4380     3.9400    -0.8070 C.ar  1 <1>   0.1670 
 20 C        8.0810     4.6730     1.3730 C.ar  1 <1>  -0.1500 
 21 C        8.3170     4.6260     0.0160 C.ar  1 <1>  -0.1500 
 22 C        7.6860     3.8840    -2.3000 C.3   1 <1>  -0.0970 
 23 H        0.1960    -0.7820     1.8940 H     1 <1>   0.4000 
 24 H        0.6270    -0.0510    -0.1860 H     1 <1>   0.0800 
 25 H        1.9600    -2.2030     0.9390 H     1 <1>   0.0800 
 26 H        2.0650     1.8980     0.8560 H     1 <1>   0.0800 
 27 H        2.6960     1.1830    -0.6270 H     1 <1>   0.0800 
 28 H        4.4200    -1.0990    -0.0450 H     1 <1>   0.0800 
 29 H        4.0520    -1.5540     1.6060 H     1 <1>   0.0800 
 30 H        2.7100    -1.1290    -1.7980 H     1 <1>   0.0800 
 31 H        1.2780    -2.0450    -1.4580 H     1 <1>   0.0800 
 32 H        3.4090     0.5210     2.1280 H     1 <1>   0.4500 
 33 H        5.7500     0.6840     1.2700 H     1 <1>   0.0800 
 34 H        5.0720     1.2580    -0.2260 H     1 <1>   0.0800 
 35 H        1.3460    -4.3670    -1.6840 H     1 <1>   0.1500 
 36 H        4.8670     2.6100     2.4760 H     1 <1>   0.0800 
 37 H        4.0460     3.1790     1.0360 H     1 <1>   0.0800 
 38 H        6.0760    -4.2570    -1.3770 H     1 <1>   0.1500 
 39 H        4.9080    -6.3240    -1.8440 H     1 <1>   0.1500 
 40 H        6.7290     4.0320     2.8810 H     1 <1>   0.1500 
 41 H        8.7430     5.1980     2.0410 H     1 <1>   0.1500 
 42 H        9.1780     5.1210    -0.3950 H     1 <1>   0.1500 
 43 H        8.5780     4.4190    -2.5660 H     1 <1>   0.0800 
 44 H        6.8520     4.3210    -2.8190 H     1 <1>   0.0800 
 45 H        7.7900     2.8600    -2.6100 H     1 <1>   0.0800 
@<TRIPOS>BOND
  1   1   2  1   
  2   1  23  1   
  3   2   3  1   
  4   2   4  1   
  5   2  24  1   
  6   3   5  1   
  7   3   6  1   
  8   3  25  1   
  9   4   7  1   
 10   4  26  1   
 11   4  27  1   
 12   5   7  1   
 13   5  28  1   
 14   5  29  1   
 15   6   8  1   
 16   6  30  1   
 17   6  31  1   
 18   7   9  1   
 19   7  32  1   
 20   8  10  ar  
 21   8  11  ar  
 22   9  12  1   
 23   9  33  1   
 24   9  34  1   
 25  10  13  ar  
 26  11  14  ar  
 27  11  35  1   
 28  12  15  1   
 29  12  36  1   
 30  12  37  1   
 31  13  16  ar  
 32  13  38  1   
 33  14  16  ar  
 34  15  17  ar  
 35  15  18  ar  
 36  16  39  1   
 37  17  19  ar  
 38  18  20  ar  
 39  18  40  1   
 40  19  21  ar  
 41  19  22  1   
 42  20  21  ar  
 43  20  41  1   
 44  21  42  1   
 45  22  43  1   
 46  22  44  1   
 47  22  45  1   
@<TRIPOS>SUBSTRUCTURE
  1 ****   9 GROUP 4 **** **** 0

# MOE 2024.06 (io_trps.svl 2023.06)
