@<TRIPOS>MOLECULE
NONAME
58 59 1 0 0 
SMALL
USER_CHARGES


@<TRIPOS>ATOM
  1 O       -0.8220     0.0040     0.8400 O.2   1 <1>  -0.5700 
  2 C       -1.7520     0.7480     1.0560 C.2   1 <1>   0.5690 
  3 N       -2.9900     0.2670     1.3920 N.am  1 <1>  -0.6600 
  4 C       -1.5010     2.2450     0.9340 C.3   1 <1>  -0.0990 
  5 C       -3.2320    -1.2100     1.4330 C.3   1 <1>   0.3210 
  6 C       -4.2080     1.1070     1.6460 C.3   1 <1>   0.1400 
  7 C       -0.0340     2.6480     1.1690 C.3   1 <1>  -0.0990 
  8 C       -4.0490    -1.6620     0.2250 C.2   1 <1>   0.0460 
  9 C       -4.7210     1.8860     0.4170 C.3   1 <1>   0.1200 
 10 C        0.1410     4.1430     1.0280 C.2   1 <1>   0.5690 
 11 N       -5.3960    -1.5540     0.2130 N.2   1 <1>  -0.5650 
 12 C       -3.6020    -2.1810    -0.9430 C.2   1 <1>  -0.3320 
 13 O       -4.6010     1.1440    -0.7470 O.3   1 <1>  -0.6800 
 14 O       -0.1700     4.8480     1.9560 O.2   1 <1>  -0.5700 
 15 N        0.6190     4.6210    -0.1510 N.am  1 <1>  -0.7300 
 16 C       -5.7350    -2.0120    -0.9470 C.2   1 <1>   0.0360 
 17 N       -4.6900    -2.4100    -1.7000 N.pl3 1 <1>   0.0330 
 18 C       -2.1880    -2.4650    -1.4230 C.3   1 <1>  -0.0600 
 19 C        0.8190     6.0370    -0.5360 C.3   1 <1>   0.2200 
 20 C        1.7890     6.7090     0.4490 C.3   1 <1>  -0.1600 
 21 C       -0.5600     6.7030    -0.6550 C.3   1 <1>  -0.1600 
 22 C        2.6380     7.8370    -0.1690 C.3   1 <1>  -0.1600 
 23 C       -0.5550     8.0990    -1.2980 C.3   1 <1>  -0.1600 
 24 C        2.2500     9.2460     0.2990 C.3   1 <1>  -0.1600 
 25 C       -0.2670     9.2460    -0.3120 C.3   1 <1>  -0.1600 
 26 C        1.1090     9.9030    -0.4910 C.3   1 <1>  -0.1600 
 27 H       -2.1030     2.7730     1.6490 H     1 <1>   0.0800 
 28 H       -1.8000     2.5490    -0.0520 H     1 <1>   0.0800 
 29 H       -3.7620    -1.4640     2.3330 H     1 <1>   0.0800 
 30 H       -2.3010    -1.7450     1.4490 H     1 <1>   0.0800 
 31 H       -4.0030     1.8000     2.4430 H     1 <1>   0.0800 
 32 H       -5.0070     0.4750     1.9920 H     1 <1>   0.0800 
 33 H        0.6060     2.1420     0.4680 H     1 <1>   0.0800 
 34 H        0.2650     2.3580     2.1590 H     1 <1>   0.0800 
 35 H       -4.1730     2.8010     0.2810 H     1 <1>   0.0800 
 36 H       -5.7600     2.1300     0.5490 H     1 <1>   0.0800 
 37 H       -4.7350     0.1840    -0.5330 H     1 <1>   0.4000 
 38 H        0.8350     3.9520    -0.8890 H     1 <1>   0.3700 
 39 H       -6.7500    -2.0760    -1.3010 H     1 <1>   0.1500 
 40 H       -4.7210    -2.7930    -2.6480 H     1 <1>   0.2700 
 41 H       -1.4680    -2.1840    -0.6750 H     1 <1>   0.0800 
 42 H       -1.9810    -1.9000    -2.3140 H     1 <1>   0.0800 
 43 H       -2.0690    -3.5130    -1.6350 H     1 <1>   0.0800 
 44 H        1.2750     6.0310    -1.5110 H     1 <1>   0.0800 
 45 H        2.4770     5.9570     0.7960 H     1 <1>   0.0800 
 46 H        1.2500     7.0570     1.3120 H     1 <1>   0.0800 
 47 H       -1.0300     6.7490     0.3120 H     1 <1>   0.0800 
 48 H       -1.1690     6.0700    -1.2750 H     1 <1>   0.0800 
 49 H        2.6390     7.7900    -1.2440 H     1 <1>   0.0800 
 50 H        3.6560     7.6740     0.1440 H     1 <1>   0.0800 
 51 H       -1.5420     8.2630    -1.6930 H     1 <1>   0.0800 
 52 H        0.1180     8.1230    -2.1370 H     1 <1>   0.0800 
 53 H        3.1150     9.8760     0.1850 H     1 <1>   0.0800 
 54 H        2.0120     9.2370     1.3500 H     1 <1>   0.0800 
 55 H       -0.4020     8.9310     0.7090 H     1 <1>   0.0800 
 56 H       -1.0040    10.0100    -0.4920 H     1 <1>   0.0800 
 57 H        1.3660     9.9610    -1.5340 H     1 <1>   0.0800 
 58 H        1.0290    10.9170    -0.1380 H     1 <1>   0.0800 
@<TRIPOS>BOND
  1   1   2  2   
  2   2   3  am  
  3   2   4  1   
  4   3   5  1   
  5   3   6  1   
  6   4   7  1   
  7   4  27  1   
  8   4  28  1   
  9   5   8  1   
 10   5  29  1   
 11   5  30  1   
 12   6   9  1   
 13   6  31  1   
 14   6  32  1   
 15   7  10  1   
 16   7  33  1   
 17   7  34  1   
 18   8  11  1   
 19   8  12  2   
 20   9  13  1   
 21   9  35  1   
 22   9  36  1   
 23  10  14  2   
 24  10  15  am  
 25  11  16  2   
 26  12  17  1   
 27  12  18  1   
 28  13  37  1   
 29  15  19  1   
 30  15  38  1   
 31  16  17  1   
 32  16  39  1   
 33  17  40  1   
 34  18  41  1   
 35  18  42  1   
 36  18  43  1   
 37  19  20  1   
 38  19  21  1   
 39  19  44  1   
 40  20  22  1   
 41  20  45  1   
 42  20  46  1   
 43  21  23  1   
 44  21  47  1   
 45  21  48  1   
 46  22  24  1   
 47  22  49  1   
 48  22  50  1   
 49  23  25  1   
 50  23  51  1   
 51  23  52  1   
 52  24  26  1   
 53  24  53  1   
 54  24  54  1   
 55  25  26  1   
 56  25  55  1   
 57  25  56  1   
 58  26  57  1   
 59  26  58  1   
@<TRIPOS>SUBSTRUCTURE
  1 ****   4 GROUP 4 **** **** 0

# MOE 2024.06 (io_trps.svl 2023.06)
