@<TRIPOS>MOLECULE
NONAME
47 48 1 0 0 
SMALL
USER_CHARGES


@<TRIPOS>ATOM
  1 S        1.2990     1.6610    -0.1230 S.o2  1 <1>   1.3330 
  2 O        2.4910     2.3060     0.3800 O.2   1 <1>  -0.6500 
  3 O        0.6130     2.2720    -1.2380 O.2   1 <1>  -0.6500 
  4 N        1.6350     0.0410    -0.4780 N.am  1 <1>  -0.8490 
  5 C        0.1510     1.5730     1.2560 C.3   1 <1>  -0.0550 
  6 C        0.6360    -0.5890    -1.3510 C.3   1 <1>   0.1160 
  7 C        2.9760    -0.1490    -1.0430 C.3   1 <1>   0.1160 
  8 C       -0.2990     2.9290     1.8600 C.3   1 <1>  -0.0800 
  9 C       -1.0180     3.8360     0.8550 C.3   1 <1>   0.2000 
 10 C        0.8620     3.7920     2.3670 C.3   1 <1>   0.3430 
 11 O       -1.9930     4.5530     1.5370 O.3   1 <1>  -0.6800 
 12 C        0.0460     4.8060     0.3190 C.3   1 <1>   0.3430 
 13 N        1.2180     4.7000     1.2470 N.4   1 <1>  -0.9590 
 14 C        1.8020     6.0040     1.6530 C.3   1 <1>   0.4860 
 15 C        2.1930     6.7810     0.4090 C.ar  1 <1>  -0.1440 
 16 C        3.2180     6.3050    -0.4050 C.ar  1 <1>   0.0820 
 17 C        1.5290     7.9580     0.0860 C.ar  1 <1>  -0.1500 
 18 O        3.8000     5.1370    -0.0030 O.3   1 <1>  -0.3630 
 19 C        3.5470     7.0500    -1.5450 C.ar  1 <1>   0.1900 
 20 C        1.8720     8.6750    -1.0480 C.ar  1 <1>  -0.1500 
 21 C        4.7180     4.4140    -0.7970 C.3   1 <1>   0.0400 
 22 F        4.5010     6.6770    -2.3600 F     1 <1>  -0.1900 
 23 C        2.8870     8.2200    -1.8710 C.ar  1 <1>  -0.1500 
 24 H       -0.7240     1.0380     0.9390 H     1 <1>   0.0800 
 25 H        0.6070     0.9890     2.0330 H     1 <1>   0.0800 
 26 H        0.8580    -1.6360    -1.4720 H     1 <1>   0.0800 
 27 H        0.6330    -0.1190    -2.3220 H     1 <1>   0.0800 
 28 H       -0.3460    -0.5000    -0.9220 H     1 <1>   0.0800 
 29 H        3.1600    -1.1950    -1.2230 H     1 <1>   0.0800 
 30 H        3.7230     0.2080    -0.3540 H     1 <1>   0.0800 
 31 H        3.0730     0.3900    -1.9710 H     1 <1>   0.0800 
 32 H       -0.9530     2.6940     2.6830 H     1 <1>   0.0800 
 33 H       -1.5080     3.2980     0.0600 H     1 <1>   0.0800 
 34 H        1.7080     3.1900     2.6650 H     1 <1>   0.0800 
 35 H        0.5290     4.3730     3.2110 H     1 <1>   0.0800 
 36 H       -1.6470     5.0410     2.3080 H     1 <1>   0.4000 
 37 H       -0.3480     5.8080     0.2820 H     1 <1>   0.0800 
 38 H        0.3470     4.5140    -0.6740 H     1 <1>   0.0800 
 39 H        1.9870     4.2360     0.7110 H     1 <1>   0.4500 
 40 H        1.0900     6.5690     2.2300 H     1 <1>   0.0800 
 41 H        2.6830     5.8390     2.2530 H     1 <1>   0.0800 
 42 H        0.7390     8.3360     0.7140 H     1 <1>   0.1500 
 43 H        1.3540     9.5880    -1.2930 H     1 <1>   0.1500 
 44 H        4.9410     3.4900    -0.2940 H     1 <1>   0.0800 
 45 H        5.6180     4.9920    -0.9090 H     1 <1>   0.0800 
 46 H        4.2710     4.2070    -1.7530 H     1 <1>   0.0800 
 47 H        3.1680     8.7650    -2.7550 H     1 <1>   0.1500 
@<TRIPOS>BOND
  1   1   2  2   
  2   1   3  2   
  3   1   4  am  
  4   1   5  1   
  5   4   6  1   
  6   4   7  1   
  7   5   8  1   
  8   5  24  1   
  9   5  25  1   
 10   6  26  1   
 11   6  27  1   
 12   6  28  1   
 13   7  29  1   
 14   7  30  1   
 15   7  31  1   
 16   8   9  1   
 17   8  10  1   
 18   8  32  1   
 19   9  11  1   
 20   9  12  1   
 21   9  33  1   
 22  10  13  1   
 23  10  34  1   
 24  10  35  1   
 25  11  36  1   
 26  12  13  1   
 27  12  37  1   
 28  12  38  1   
 29  13  14  1   
 30  13  39  1   
 31  14  15  1   
 32  14  40  1   
 33  14  41  1   
 34  15  16  ar  
 35  15  17  ar  
 36  16  18  1   
 37  16  19  ar  
 38  17  20  ar  
 39  17  42  1   
 40  18  21  1   
 41  19  22  1   
 42  19  23  ar  
 43  20  23  ar  
 44  20  43  1   
 45  21  44  1   
 46  21  45  1   
 47  21  46  1   
 48  23  47  1   
@<TRIPOS>SUBSTRUCTURE
  1 ****  13 GROUP 4 **** **** 0

# MOE 2024.06 (io_trps.svl 2023.06)
