@<TRIPOS>MOLECULE
NONAME
46 48 1 0 0 
SMALL
USER_CHARGES


@<TRIPOS>ATOM
  1 F       -3.3980    -2.2650     3.3070 F     1 <1>  -0.3400 
  2 C       -3.2040    -1.6300     2.1580 C.3   1 <1>   1.1640 
  3 F       -1.9180    -1.7790     1.8630 F     1 <1>  -0.3400 
  4 F       -3.3770    -0.3380     2.4140 F     1 <1>  -0.3400 
  5 C       -4.1350    -2.1530     1.0520 C.ar  1 <1>  -0.1440 
  6 C       -3.7660    -3.2430     0.2720 C.ar  1 <1>  -0.1500 
  7 C       -5.3690    -1.5560     0.8120 C.ar  1 <1>  -0.1500 
  8 C       -4.6030    -3.7210    -0.7200 C.ar  1 <1>  -0.1500 
  9 C       -6.2060    -2.0340    -0.1800 C.ar  1 <1>  -0.1500 
 10 C       -5.8310    -3.1220    -0.9510 C.ar  1 <1>  -0.1430 
 11 C       -6.7550    -3.6600    -2.0410 C.3   1 <1>   0.0440 
 12 C       -6.9680    -5.1670    -1.9720 C.2   1 <1>   0.5690 
 13 O       -6.6090    -5.8310    -2.9160 O.2   1 <1>  -0.5700 
 14 N       -7.5640    -5.7460    -0.8840 N.am  1 <1>  -0.6600 
 15 C       -7.9830    -5.0590     0.3640 C.3   1 <1>   0.1400 
 16 C       -7.7750    -7.2100    -0.7730 C.3   1 <1>   0.1400 
 17 C       -8.6890    -6.1380     1.1830 C.3   1 <1>   0.2000 
 18 C       -8.1000    -7.4610     0.7000 C.3   1 <1>  -0.0800 
 19 O       -8.4660    -5.9760     2.5410 O.3   1 <1>  -0.6800 
 20 C       -9.0350    -8.6580     0.9300 C.3   1 <1>   0.0210 
 21 C       -8.4610    -9.9230     0.3230 C.2   1 <1>   0.1080 
 22 N       -7.3520   -10.4580     0.7290 N.2   1 <1>  -0.7070 
 23 C       -9.0350   -10.6350    -0.7250 C.2   1 <1>  -0.1500 
 24 N       -7.1870   -11.5380    -0.0570 N.pl3 1 <1>   0.3000 
 25 C       -8.1940   -11.6660    -0.9470 C.2   1 <1>  -0.3320 
 26 C       -8.2900   -12.7820    -1.9710 C.3   1 <1>  -0.0600 
 27 H       -2.8180    -3.7320     0.4300 H     1 <1>   0.1500 
 28 H       -5.6890    -0.7100     1.3990 H     1 <1>   0.1500 
 29 H       -4.2940    -4.5660    -1.3140 H     1 <1>   0.1500 
 30 H       -7.1530    -1.5500    -0.3470 H     1 <1>   0.1500 
 31 H       -6.3300    -3.4190    -2.9990 H     1 <1>   0.0800 
 32 H       -7.7150    -3.1840    -1.9880 H     1 <1>   0.0800 
 33 H       -7.1100    -4.7030     0.8830 H     1 <1>   0.0800 
 34 H       -8.6500    -4.2440     0.1470 H     1 <1>   0.0800 
 35 H       -8.5990    -7.4920    -1.4070 H     1 <1>   0.0800 
 36 H       -6.8940    -7.7510    -1.0770 H     1 <1>   0.0800 
 37 H       -9.7500    -6.0900     1.0050 H     1 <1>   0.0800 
 38 H       -7.1650    -7.6450     1.2000 H     1 <1>   0.0800 
 39 H       -7.5290    -6.1540     2.7520 H     1 <1>   0.4000 
 40 H      -10.0000    -8.4630     0.4980 H     1 <1>   0.0800 
 41 H       -9.1660    -8.8110     1.9860 H     1 <1>   0.0800 
 42 H       -9.9520   -10.3930    -1.2320 H     1 <1>   0.1500 
 43 H       -6.3800   -12.1650     0.0380 H     1 <1>   0.2700 
 44 H       -9.1800   -12.6640    -2.5630 H     1 <1>   0.0800 
 45 H       -8.3300   -13.7370    -1.4780 H     1 <1>   0.0800 
 46 H       -7.4380   -12.7590    -2.6270 H     1 <1>   0.0800 
@<TRIPOS>BOND
  1   1   2  1   
  2   2   3  1   
  3   2   4  1   
  4   2   5  1   
  5   5   6  ar  
  6   5   7  ar  
  7   6   8  ar  
  8   6  27  1   
  9   7   9  ar  
 10   7  28  1   
 11   8  10  ar  
 12   8  29  1   
 13   9  10  ar  
 14   9  30  1   
 15  10  11  1   
 16  11  12  1   
 17  11  31  1   
 18  11  32  1   
 19  12  13  2   
 20  12  14  am  
 21  14  15  1   
 22  14  16  1   
 23  15  17  1   
 24  15  33  1   
 25  15  34  1   
 26  16  18  1   
 27  16  35  1   
 28  16  36  1   
 29  17  18  1   
 30  17  19  1   
 31  17  37  1   
 32  18  20  1   
 33  18  38  1   
 34  19  39  1   
 35  20  21  1   
 36  20  40  1   
 37  20  41  1   
 38  21  22  2   
 39  21  23  1   
 40  22  24  1   
 41  23  25  2   
 42  23  42  1   
 43  24  25  1   
 44  24  43  1   
 45  25  26  1   
 46  26  44  1   
 47  26  45  1   
 48  26  46  1   
@<TRIPOS>SUBSTRUCTURE
  1 ****  14 GROUP 4 **** **** 0

# MOE 2024.06 (io_trps.svl 2023.06)
