@<TRIPOS>MOLECULE
NONAME
61 64 1 0 0 
SMALL
USER_CHARGES


@<TRIPOS>ATOM
  1 O       -0.6350     0.6150     1.6530 O.2   1 <1>  -0.5700 
  2 C       -0.6240     1.6560     1.0150 C.2   1 <1>   0.5440 
  3 N       -1.7970     2.0930     0.4360 N.am  1 <1>  -0.6600 
  4 C        0.6030     2.4060     0.8680 C.ar  1 <1>   0.0860 
  5 C       -1.7820     2.9820    -0.7590 C.3   1 <1>   0.1400 
  6 C       -3.1090     1.5350     0.8540 C.3   1 <1>   0.1400 
  7 C        1.7670     1.8090     0.3540 C.ar  1 <1>   0.1000 
  8 C        0.6540     3.7520     1.2360 C.ar  1 <1>  -0.1500 
  9 C       -3.1480     3.0200    -1.4470 C.3   1 <1>  -0.1600 
 10 C       -4.1900     2.6210     0.8340 C.3   1 <1>  -0.1600 
 11 N        1.7910     0.4690     0.0030 N.pl3 1 <1>  -0.9000 
 12 C        2.9220     2.5660     0.1940 C.ar  1 <1>  -0.1500 
 13 C        1.8120     4.4860     1.0760 C.ar  1 <1>   0.0820 
 14 C       -4.2610     3.4670    -0.4700 C.3   1 <1>   0.2800 
 15 C        2.9490     3.8990     0.5500 C.ar  1 <1>  -0.1500 
 16 O        1.8500     5.7830     1.4290 O.3   1 <1>  -0.5320 
 17 O       -3.9420     4.7860    -0.0700 O.3   1 <1>  -0.5600 
 18 C       -5.7070     3.4110    -1.0920 C.3   1 <1>   0.2000 
 19 C       -4.3780     5.8450    -0.8650 C.3   1 <1>   0.1200 
 20 O       -5.6690     3.4530    -2.4960 O.3   1 <1>  -0.6800 
 21 C       -6.6040     4.5690    -0.5590 C.3   1 <1>   0.3000 
 22 C       -5.9150     5.9090    -0.8900 C.3   1 <1>  -0.1600 
 23 N       -6.6810     4.5130     0.9200 N.am  1 <1>  -0.7300 
 24 C       -8.0100     4.5770    -1.1750 C.3   1 <1>  -0.2400 
 25 C       -7.3150     3.7310     1.8280 C.2   1 <1>   0.6300 
 26 O       -6.7870     3.5890     2.9020 O.2   1 <1>  -0.5700 
 27 C       -8.6400     2.9920     1.5820 C.3   1 <1>  -0.0950 
 28 C       -9.9070     3.7550     1.3150 C.3   1 <1>  -0.2000 
 29 C       -9.6880     3.1200     2.6520 C.3   1 <1>  -0.2000 
 30 C       -8.4480     1.5830     1.0030 C.3   1 <1>  -0.1450 
 31 H       -1.5160     3.9780    -0.4510 H     1 <1>   0.0800 
 32 H       -1.0370     2.6310    -1.4530 H     1 <1>   0.0800 
 33 H       -3.3740     0.7340     0.1850 H     1 <1>   0.0800 
 34 H       -3.0360     1.1240     1.8480 H     1 <1>   0.0800 
 35 H       -0.2280     4.2070     1.6470 H     1 <1>   0.1500 
 36 H       -3.3730     2.0420    -1.8360 H     1 <1>   0.0800 
 37 H       -3.0890     3.6830    -2.2890 H     1 <1>   0.0800 
 38 H       -4.0250     3.2650     1.6810 H     1 <1>   0.0800 
 39 H       -5.1230     2.1230     1.0130 H     1 <1>   0.0800 
 40 H        1.0300    -0.0880     0.4280 H     1 <1>   0.4000 
 41 H        2.6880    -0.0170     0.0680 H     1 <1>   0.4000 
 42 H        3.8020     2.1040    -0.2150 H     1 <1>   0.1500 
 43 H        3.8410     4.4880     0.4280 H     1 <1>   0.1500 
 44 H        1.0160     6.0890     1.8280 H     1 <1>   0.4500 
 45 H       -6.1620     2.4680    -0.8570 H     1 <1>   0.0800 
 46 H       -3.9730     6.7530    -0.4520 H     1 <1>   0.0800 
 47 H       -3.9770     5.7160    -1.8540 H     1 <1>   0.0800 
 48 H       -5.2010     4.2550    -2.7940 H     1 <1>   0.4000 
 49 H       -6.2570     6.6740    -0.2150 H     1 <1>   0.0800 
 50 H       -6.1960     6.2350    -1.8750 H     1 <1>   0.0800 
 51 H       -5.8190     4.9020     1.3140 H     1 <1>   0.3700 
 52 H       -7.9580     4.7730    -2.2310 H     1 <1>   0.0800 
 53 H       -8.6130     5.3450    -0.7260 H     1 <1>   0.0800 
 54 H       -8.4880     3.6250    -1.0630 H     1 <1>   0.0800 
 55 H       -9.8730     4.8300     1.2620 H     1 <1>   0.1000 
 56 H      -10.6430     3.3330     0.6550 H     1 <1>   0.1000 
 57 H      -10.2770     2.2600     2.9200 H     1 <1>   0.1000 
 58 H       -9.4790     3.7510     3.5000 H     1 <1>   0.1000 
 59 H       -9.3880     1.0640     0.9460 H     1 <1>   0.0800 
 60 H       -7.7860     1.0190     1.6360 H     1 <1>   0.0800 
 61 H       -8.0290     1.6260     0.0170 H     1 <1>   0.0800 
@<TRIPOS>BOND
  1   1   2  2   
  2   2   3  am  
  3   2   4  1   
  4   3   5  1   
  5   3   6  1   
  6   4   7  ar  
  7   4   8  ar  
  8   5   9  1   
  9   5  31  1   
 10   5  32  1   
 11   6  10  1   
 12   6  33  1   
 13   6  34  1   
 14   7  11  1   
 15   7  12  ar  
 16   8  13  ar  
 17   8  35  1   
 18   9  14  1   
 19   9  36  1   
 20   9  37  1   
 21  10  14  1   
 22  10  38  1   
 23  10  39  1   
 24  11  40  1   
 25  11  41  1   
 26  12  15  ar  
 27  12  42  1   
 28  13  15  ar  
 29  13  16  1   
 30  14  17  1   
 31  14  18  1   
 32  15  43  1   
 33  16  44  1   
 34  17  19  1   
 35  18  20  1   
 36  18  21  1   
 37  18  45  1   
 38  19  22  1   
 39  19  46  1   
 40  19  47  1   
 41  20  48  1   
 42  21  22  1   
 43  21  23  1   
 44  21  24  1   
 45  22  49  1   
 46  22  50  1   
 47  23  25  am  
 48  23  51  1   
 49  24  52  1   
 50  24  53  1   
 51  24  54  1   
 52  25  26  2   
 53  25  27  1   
 54  27  28  1   
 55  27  29  1   
 56  27  30  1   
 57  28  29  1   
 58  28  55  1   
 59  28  56  1   
 60  29  57  1   
 61  29  58  1   
 62  30  59  1   
 63  30  60  1   
 64  30  61  1   
@<TRIPOS>SUBSTRUCTURE
  1 ****  10 GROUP 4 **** **** 0

# MOE 2024.06 (io_trps.svl 2023.06)
