@<TRIPOS>MOLECULE
NONAME
50 52 1 0 0 
SMALL
USER_CHARGES


@<TRIPOS>ATOM
  1 CL       1.5970     0.2230     2.5750 Cl    1 <1>  -0.1770 
  2 C        2.2300     1.1520     1.2280 C.ar  1 <1>   0.1770 
  3 C        2.5830     0.5190     0.0290 C.ar  1 <1>   0.1000 
  4 C        2.3510     2.5140     1.4020 C.ar  1 <1>  -0.1500 
  5 N        2.4610    -0.8610    -0.1540 N.pl3 1 <1>  -0.8380 
  6 C        3.0760     1.3390    -0.9830 C.ar  1 <1>  -0.1500 
  7 C        2.8310     3.3350     0.3820 C.ar  1 <1>   0.0860 
  8 C        3.2790    -1.7890     0.6610 C.3   1 <1>   0.2090 
  9 C        2.0720    -1.4990    -1.4370 C.3   1 <1>   0.2090 
 10 C        3.1970     2.7050    -0.8120 C.ar  1 <1>  -0.1500 
 11 C        2.9400     4.7690     0.5690 C.2   1 <1>   0.5440 
 12 C        3.6180    -2.9400    -0.2770 C.3   1 <1>  -0.1600 
 13 C        2.4670    -2.9620    -1.2780 C.3   1 <1>  -0.1600 
 14 O        3.0580     5.2470     1.6810 O.2   1 <1>  -0.5700 
 15 N        2.9040     5.6310    -0.4960 N.am  1 <1>  -0.7300 
 16 C        2.9040     7.1030    -0.3660 C.3   1 <1>   0.1400 
 17 C        4.3490     7.5910    -0.2430 C.3   1 <1>  -0.1600 
 18 C        4.4000     9.0850     0.0760 C.3   1 <1>   0.3540 
 19 N        5.8100     9.5160     0.2500 N.pl3 1 <1>  -0.4570 
 20 N        6.4260     9.3740     1.4520 N.2   1 <1>  -0.2600 
 21 C        6.6430    10.0500    -0.6230 C.cat 1 <1>   0.6560 
 22 C        7.6120     9.8270     1.2590 C.2   1 <1>   0.4850 
 23 N        7.7840    10.2570    -0.0150 N.pl3 1 <1>  -0.7000 
 24 C        6.3560    10.3720    -2.0720 C.3   1 <1>  -0.0960 
 25 C        8.7090     9.8910     2.2960 C.3   1 <1>  -0.0720 
 26 H        2.0670     2.9500     2.3430 H     1 <1>   0.1500 
 27 H        3.3820     0.9000    -1.9130 H     1 <1>   0.1500 
 28 H        2.6860    -2.1440     1.4870 H     1 <1>   0.0800 
 29 H        4.1650    -1.3030     1.0350 H     1 <1>   0.0800 
 30 H        2.6160    -1.0630    -2.2540 H     1 <1>   0.0800 
 31 H        1.0140    -1.3930    -1.6060 H     1 <1>   0.0800 
 32 H        3.5960     3.2920    -1.6190 H     1 <1>   0.1500 
 33 H        3.7210    -3.8690     0.2530 H     1 <1>   0.0800 
 34 H        4.5410    -2.7150    -0.7820 H     1 <1>   0.0800 
 35 H        2.7450    -3.4060    -2.2170 H     1 <1>   0.0800 
 36 H        1.6340    -3.5030    -0.8650 H     1 <1>   0.0800 
 37 H        2.6750     5.2560    -1.4180 H     1 <1>   0.3700 
 38 H        2.3450     7.3740     0.5150 H     1 <1>   0.0800 
 39 H        2.4210     7.5390    -1.2240 H     1 <1>   0.0800 
 40 H        4.8720     7.3890    -1.1590 H     1 <1>   0.0800 
 41 H        4.8240     7.0550     0.5620 H     1 <1>   0.0800 
 42 H        3.8630     9.2810     0.9900 H     1 <1>   0.0800 
 43 H        3.9380     9.6520    -0.7140 H     1 <1>   0.0800 
 44 H        8.6400    10.6560    -0.3990 H     1 <1>   0.4500 
 45 H        6.0050     9.4930    -2.5800 H     1 <1>   0.0800 
 46 H        7.2470    10.7200    -2.5610 H     1 <1>   0.0800 
 47 H        5.6060    11.1400    -2.1330 H     1 <1>   0.0800 
 48 H        8.3540     9.4940     3.2300 H     1 <1>   0.0800 
 49 H        9.0140    10.9100     2.4480 H     1 <1>   0.0800 
 50 H        9.5540     9.3110     1.9740 H     1 <1>   0.0800 
@<TRIPOS>BOND
  1   1   2  1   
  2   2   3  ar  
  3   2   4  ar  
  4   3   5  1   
  5   3   6  ar  
  6   4   7  ar  
  7   4  26  1   
  8   5   8  1   
  9   5   9  1   
 10   6  10  ar  
 11   6  27  1   
 12   7  10  ar  
 13   7  11  1   
 14   8  12  1   
 15   8  28  1   
 16   8  29  1   
 17   9  13  1   
 18   9  30  1   
 19   9  31  1   
 20  10  32  1   
 21  11  14  2   
 22  11  15  am  
 23  12  13  1   
 24  12  33  1   
 25  12  34  1   
 26  13  35  1   
 27  13  36  1   
 28  15  16  1   
 29  15  37  1   
 30  16  17  1   
 31  16  38  1   
 32  16  39  1   
 33  17  18  1   
 34  17  40  1   
 35  17  41  1   
 36  18  19  1   
 37  18  42  1   
 38  18  43  1   
 39  19  20  1   
 40  19  21  ar  
 41  20  22  2   
 42  21  23  ar  
 43  21  24  1   
 44  22  23  1   
 45  22  25  1   
 46  23  44  1   
 47  24  45  1   
 48  24  46  1   
 49  24  47  1   
 50  25  48  1   
 51  25  49  1   
 52  25  50  1   
@<TRIPOS>SUBSTRUCTURE
  1 ****  11 GROUP 4 **** **** 0

# MOE 2024.06 (io_trps.svl 2023.06)
