@<TRIPOS>MOLECULE
NONAME
60 62 1 0 0 
SMALL
USER_CHARGES


@<TRIPOS>ATOM
  1 O       -1.0650     1.2510     1.9310 O.2   1 <1>  -0.5700 
  2 C       -1.8080     1.8960     1.2270 C.2   1 <1>   0.5690 
  3 N       -3.1130     1.5100     1.0170 N.am  1 <1>  -0.6600 
  4 C       -1.2550     3.1570     0.5740 C.3   1 <1>  -0.0990 
  5 C       -4.0230     2.1980     0.0490 C.3   1 <1>   0.2200 
  6 C       -3.6450     0.3260     1.7630 C.3   1 <1>   0.0600 
  7 C        0.1210     3.5870     1.1030 C.3   1 <1>  -0.0160 
  8 C       -5.0650     3.0650     0.7450 C.3   1 <1>  -0.1600 
  9 C       -4.8550     1.2670    -0.8300 C.3   1 <1>  -0.1600 
 10 C        0.5610     4.8720     0.4200 C.ar  1 <1>  -0.1440 
 11 C       -6.1490     3.2940    -0.3190 C.3   1 <1>  -0.0800 
 12 C       -6.0000     2.1540    -1.3420 C.3   1 <1>  -0.0800 
 13 C        1.2640     4.8230    -0.7730 C.ar  1 <1>  -0.1500 
 14 C        0.2550     6.1010     0.9800 C.ar  1 <1>  -0.1500 
 15 C       -7.5820     3.2150     0.2230 C.3   1 <1>  -0.1600 
 16 C       -7.3570     1.4420    -1.4040 C.3   1 <1>  -0.1600 
 17 C        1.6600     5.9890    -1.4050 C.ar  1 <1>  -0.1440 
 18 C        0.6420     7.2750     0.3550 C.ar  1 <1>  -0.1440 
 19 C       -8.0320     1.7850    -0.0790 C.3   1 <1>   0.4230 
 20 C        1.3450     7.2130    -0.8370 C.ar  1 <1>  -0.1500 
 21 C        2.4300     5.9270    -2.7110 C.3   1 <1>  -0.0970 
 22 C        0.3040     8.6190     0.9730 C.3   1 <1>  -0.0970 
 23 N       -9.5150     1.5880    -0.1080 N.4   1 <1>  -0.9590 
 24 C      -10.2640     2.4620    -1.0720 C.3   1 <1>   0.2630 
 25 C      -10.0930     1.7300     1.2640 C.3   1 <1>   0.2630 
 26 H       -1.1770     2.9870    -0.4840 H     1 <1>   0.0800 
 27 H       -1.9440     3.9630     0.7420 H     1 <1>   0.0800 
 28 H       -3.4550     2.8270    -0.6140 H     1 <1>   0.0800 
 29 H       -4.6680     0.4840     2.0500 H     1 <1>   0.0800 
 30 H       -3.0720     0.1540     2.6590 H     1 <1>   0.0800 
 31 H       -3.5760    -0.5510     1.1440 H     1 <1>   0.0800 
 32 H        0.8430     2.8100     0.9170 H     1 <1>   0.0800 
 33 H        0.0720     3.7370     2.1670 H     1 <1>   0.0800 
 34 H       -5.4670     2.5410     1.5930 H     1 <1>   0.0800 
 35 H       -4.6350     3.9950     1.0750 H     1 <1>   0.0800 
 36 H       -4.2670     0.8750    -1.6420 H     1 <1>   0.0800 
 37 H       -5.2560     0.4530    -0.2570 H     1 <1>   0.0800 
 38 H       -5.9790     4.2440    -0.8010 H     1 <1>   0.0800 
 39 H       -5.7350     2.5560    -2.3070 H     1 <1>   0.0800 
 40 H        1.5040     3.8700    -1.2110 H     1 <1>   0.1500 
 41 H       -0.2880     6.1450     1.9070 H     1 <1>   0.1500 
 42 H       -8.1760     3.9300    -0.3150 H     1 <1>   0.0800 
 43 H       -7.6250     3.4390     1.2750 H     1 <1>   0.0800 
 44 H       -7.2480     0.3800    -1.5380 H     1 <1>   0.0800 
 45 H       -7.9040     1.8490    -2.2340 H     1 <1>   0.0800 
 46 H       -7.6040     1.1430     0.6750 H     1 <1>   0.0800 
 47 H        1.6490     8.1210    -1.3240 H     1 <1>   0.1500 
 48 H        3.0700     6.7850    -2.8120 H     1 <1>   0.0800 
 49 H        1.7430     5.9060    -3.5370 H     1 <1>   0.0800 
 50 H        3.0410     5.0430    -2.7440 H     1 <1>   0.0800 
 51 H        0.1570     9.3580     0.2060 H     1 <1>   0.0800 
 52 H        1.1080     8.9360     1.6130 H     1 <1>   0.0800 
 53 H       -0.5980     8.5500     1.5550 H     1 <1>   0.0800 
 54 H       -9.6640     0.6120    -0.4060 H     1 <1>   0.4500 
 55 H      -10.1640     3.4990    -0.7980 H     1 <1>   0.0800 
 56 H      -11.3120     2.2090    -1.0660 H     1 <1>   0.0800 
 57 H       -9.8910     2.3320    -2.0740 H     1 <1>   0.0800 
 58 H       -9.9680     2.7400     1.6200 H     1 <1>   0.0800 
 59 H       -9.6010     1.0600     1.9500 H     1 <1>   0.0800 
 60 H      -11.1460     1.4980     1.2540 H     1 <1>   0.0800 
@<TRIPOS>BOND
  1   1   2  2   
  2   2   3  am  
  3   2   4  1   
  4   3   5  1   
  5   3   6  1   
  6   4   7  1   
  7   4  26  1   
  8   4  27  1   
  9   5   8  1   
 10   5   9  1   
 11   5  28  1   
 12   6  29  1   
 13   6  30  1   
 14   6  31  1   
 15   7  10  1   
 16   7  32  1   
 17   7  33  1   
 18   8  11  1   
 19   8  34  1   
 20   8  35  1   
 21   9  12  1   
 22   9  36  1   
 23   9  37  1   
 24  10  13  ar  
 25  10  14  ar  
 26  11  12  1   
 27  11  15  1   
 28  11  38  1   
 29  12  16  1   
 30  12  39  1   
 31  13  17  ar  
 32  13  40  1   
 33  14  18  ar  
 34  14  41  1   
 35  15  19  1   
 36  15  42  1   
 37  15  43  1   
 38  16  19  1   
 39  16  44  1   
 40  16  45  1   
 41  17  20  ar  
 42  17  21  1   
 43  18  20  ar  
 44  18  22  1   
 45  19  23  1   
 46  19  46  1   
 47  20  47  1   
 48  21  48  1   
 49  21  49  1   
 50  21  50  1   
 51  22  51  1   
 52  22  52  1   
 53  22  53  1   
 54  23  24  1   
 55  23  25  1   
 56  23  54  1   
 57  24  55  1   
 58  24  56  1   
 59  24  57  1   
 60  25  58  1   
 61  25  59  1   
 62  25  60  1   
@<TRIPOS>SUBSTRUCTURE
  1 ****   5 GROUP 4 **** **** 0

# MOE 2024.06 (io_trps.svl 2023.06)
