@<TRIPOS>MOLECULE
NONAME
53 56 1 0 0 
SMALL
USER_CHARGES


@<TRIPOS>ATOM
  1 O       -0.9740     1.2440    -1.6370 O.3   1 <1>  -0.3630 
  2 C       -2.1460     1.4080    -0.9790 C.ar  1 <1>   0.0830 
  3 C        0.1990     0.8310    -0.9700 C.3   1 <1>   0.0400 
  4 C       -2.3140     1.1600     0.3810 C.ar  1 <1>  -0.1500 
  5 C       -3.2220     1.8500    -1.7320 C.ar  1 <1>  -0.1500 
  6 C       -3.5530     1.3530     0.9680 C.ar  1 <1>  -0.1500 
  7 C       -4.4580     2.0410    -1.1400 C.ar  1 <1>  -0.1500 
  8 C       -4.6300     1.7900     0.2120 C.ar  1 <1>   0.3870 
  9 N       -5.8940     1.9660     0.8120 N.pl3 1 <1>  -0.6370 
 10 C       -6.8610     1.0570     0.9560 C.cat 1 <1>   0.6560 
 11 C       -6.3650     3.1370     1.3690 C.2   1 <1>   0.2000 
 12 N       -7.9000     1.5980     1.5710 N.pl3 1 <1>  -0.7000 
 13 C       -6.8130    -0.4100     0.4950 C.3   1 <1>   0.2540 
 14 C       -7.6080     2.9080     1.8390 C.2   1 <1>   0.2000 
 15 N       -8.1590    -1.0420     0.4360 N.3   1 <1>  -0.8100 
 16 C       -8.9620    -0.6110    -0.7270 C.3   1 <1>   0.1100 
 17 C       -8.0840    -2.5170     0.3450 C.3   1 <1>   0.1100 
 18 C      -10.0070    -1.7070    -0.8890 C.3   1 <1>   0.2000 
 19 C       -9.1750    -2.9620    -0.6410 C.3   1 <1>  -0.0800 
 20 O      -10.9320    -1.5500     0.1300 O.3   1 <1>  -0.6800 
 21 C       -9.9510    -4.2160    -0.1930 C.3   1 <1>   0.0210 
 22 C       -9.0200    -5.3850     0.0790 C.2   1 <1>   0.1080 
 23 N       -8.0050    -5.6840    -0.6740 N.2   1 <1>  -0.7070 
 24 C       -9.1480    -6.2560     1.1550 C.2   1 <1>  -0.1500 
 25 N       -7.4600    -6.7720    -0.0950 N.pl3 1 <1>   0.3000 
 26 C       -8.1320    -7.1330     1.0180 C.2   1 <1>  -0.3320 
 27 C       -7.7600    -8.3170     1.8910 C.3   1 <1>  -0.0600 
 28 H        0.9950     0.7860    -1.6920 H     1 <1>   0.0800 
 29 H        0.0360    -0.1450    -0.5470 H     1 <1>   0.0800 
 30 H        0.4400     1.5490    -0.2070 H     1 <1>   0.0800 
 31 H       -1.4940     0.8210     0.9880 H     1 <1>   0.1500 
 32 H       -3.0780     2.0430    -2.7810 H     1 <1>   0.1500 
 33 H       -3.6810     1.1640     2.0180 H     1 <1>   0.1500 
 34 H       -5.2870     2.3870    -1.7320 H     1 <1>   0.1500 
 35 H       -5.7860     4.0480     1.3940 H     1 <1>   0.1500 
 36 H       -8.7540     1.0620     1.7730 H     1 <1>   0.4500 
 37 H       -6.2070    -0.9500     1.2010 H     1 <1>   0.0800 
 38 H       -6.3360    -0.4740    -0.4670 H     1 <1>   0.0800 
 39 H       -8.2890     3.5810     2.3380 H     1 <1>   0.1500 
 40 H       -9.4210     0.3500    -0.5740 H     1 <1>   0.0800 
 41 H       -8.3510    -0.5800    -1.6140 H     1 <1>   0.0800 
 42 H       -7.1230    -2.8510    -0.0150 H     1 <1>   0.0800 
 43 H       -8.2500    -2.9430     1.3210 H     1 <1>   0.0800 
 44 H      -10.5170    -1.6960    -1.8370 H     1 <1>   0.0800 
 45 H       -8.6810    -3.2060    -1.5660 H     1 <1>   0.0800 
 46 H      -10.4300    -1.5160     0.9690 H     1 <1>   0.4000 
 47 H      -10.6440    -4.5010    -0.9630 H     1 <1>   0.0800 
 48 H      -10.5140    -4.0110     0.7000 H     1 <1>   0.0800 
 49 H       -9.9060    -6.2160     1.9170 H     1 <1>   0.1500 
 50 H       -6.6370    -7.2460    -0.4850 H     1 <1>   0.2700 
 51 H       -8.4470    -8.3990     2.7150 H     1 <1>   0.0800 
 52 H       -6.7670    -8.1930     2.2850 H     1 <1>   0.0800 
 53 H       -7.8010    -9.2280     1.3200 H     1 <1>   0.0800 
@<TRIPOS>BOND
  1   1   2  1   
  2   1   3  1   
  3   2   4  ar  
  4   2   5  ar  
  5   3  28  1   
  6   3  29  1   
  7   3  30  1   
  8   4   6  ar  
  9   4  31  1   
 10   5   7  ar  
 11   5  32  1   
 12   6   8  ar  
 13   6  33  1   
 14   7   8  ar  
 15   7  34  1   
 16   8   9  1   
 17   9  10  ar  
 18   9  11  1   
 19  10  12  ar  
 20  10  13  1   
 21  11  14  2   
 22  11  35  1   
 23  12  14  1   
 24  12  36  1   
 25  13  15  1   
 26  13  37  1   
 27  13  38  1   
 28  14  39  1   
 29  15  16  1   
 30  15  17  1   
 31  16  18  1   
 32  16  40  1   
 33  16  41  1   
 34  17  19  1   
 35  17  42  1   
 36  17  43  1   
 37  18  19  1   
 38  18  20  1   
 39  18  44  1   
 40  19  21  1   
 41  19  45  1   
 42  20  46  1   
 43  21  22  1   
 44  21  47  1   
 45  21  48  1   
 46  22  23  2   
 47  22  24  1   
 48  23  25  1   
 49  24  26  2   
 50  24  49  1   
 51  25  26  1   
 52  25  50  1   
 53  26  27  1   
 54  27  51  1   
 55  27  52  1   
 56  27  53  1   
@<TRIPOS>SUBSTRUCTURE
  1 ****  13 GROUP 4 **** **** 0

# MOE 2024.06 (io_trps.svl 2023.06)
