@<TRIPOS>MOLECULE
NONAME
61 63 1 0 0 
SMALL
USER_CHARGES


@<TRIPOS>ATOM
  1 O        0.3090    -1.1730    -0.7360 O.3   1 <1>  -0.3630 
  2 C       -0.1670    -2.3360    -0.2170 C.ar  1 <1>   0.0830 
  3 C        1.6520    -1.0080    -1.1240 C.3   1 <1>   0.1200 
  4 C       -1.4850    -2.3660     0.2370 C.ar  1 <1>  -0.1440 
  5 C        0.6180    -3.4820    -0.1280 C.ar  1 <1>  -0.1500 
  6 C        1.8320     0.4330    -1.5920 C.3   1 <1>  -0.2400 
  7 C       -1.9800    -3.5480     0.7640 C.ar  1 <1>  -0.1500 
  8 C       -2.3910    -1.1290     0.1690 C.3   1 <1>   0.0640 
  9 C        0.1160    -4.6590     0.4000 C.ar  1 <1>  -0.1430 
 10 C       -1.2020    -4.6940     0.8430 C.ar  1 <1>  -0.1430 
 11 C       -2.8270    -0.6900     1.5720 C.3   1 <1>  -0.2400 
 12 C       -3.6120    -1.3880    -0.7220 C.3   1 <1>  -0.2400 
 13 C        1.0440    -5.8660     0.4610 C.3   1 <1>  -0.0970 
 14 C       -1.8460    -5.9500     1.4040 C.3   1 <1>   0.4860 
 15 N       -2.1330    -6.8960     0.2960 N.4   1 <1>  -0.9590 
 16 C       -2.7840    -6.2970    -0.9150 C.3   1 <1>   0.3430 
 17 C       -2.9120    -8.1000     0.6630 C.3   1 <1>   0.3430 
 18 C       -3.8130    -7.3330    -1.3970 C.3   1 <1>   0.2000 
 19 C       -3.4170    -8.6270    -0.6820 C.3   1 <1>  -0.0800 
 20 O       -5.0870    -6.9640    -0.9790 O.3   1 <1>  -0.6800 
 21 C       -2.3350    -9.3850    -1.4980 C.3   1 <1>   0.0210 
 22 C       -1.1170    -9.8130    -0.6960 C.2   1 <1>   0.1080 
 23 N       -0.1980    -8.9810    -0.3010 N.2   1 <1>  -0.7070 
 24 C       -0.8480   -11.1200    -0.3110 C.2   1 <1>  -0.1500 
 25 N        0.7120    -9.7620     0.3290 N.pl3 1 <1>   0.3000 
 26 C        0.3280   -11.0540     0.3460 C.2   1 <1>  -0.3320 
 27 C        1.1310   -12.1730     0.9850 C.3   1 <1>  -0.0600 
 28 H        2.2810    -1.2120    -0.2750 H     1 <1>   0.0800 
 29 H        1.8640    -1.6960    -1.9250 H     1 <1>   0.0800 
 30 H        1.6330    -3.4690    -0.4740 H     1 <1>   0.1500 
 31 H        1.6020     1.1120    -0.7910 H     1 <1>   0.0800 
 32 H        1.1870     0.6330    -2.4290 H     1 <1>   0.0800 
 33 H        2.8500     0.5940    -1.8970 H     1 <1>   0.0800 
 34 H       -2.9950    -3.5680     1.1170 H     1 <1>   0.1500 
 35 H       -1.8560    -0.3020    -0.2650 H     1 <1>   0.0800 
 36 H       -3.4370    -1.4380     2.0430 H     1 <1>   0.0800 
 37 H       -3.3890     0.2250     1.5150 H     1 <1>   0.0800 
 38 H       -1.9580    -0.5170     2.1820 H     1 <1>   0.0800 
 39 H       -4.2430    -2.1510    -0.3070 H     1 <1>   0.0800 
 40 H       -3.2870    -1.6970    -1.6990 H     1 <1>   0.0800 
 41 H       -4.1890    -0.4860    -0.8260 H     1 <1>   0.0800 
 42 H        2.0670    -5.5450     0.5450 H     1 <1>   0.0800 
 43 H        0.9490    -6.4460    -0.4400 H     1 <1>   0.0800 
 44 H        0.8310    -6.4890     1.3100 H     1 <1>   0.0800 
 45 H       -2.7620    -5.6840     1.9050 H     1 <1>   0.0800 
 46 H       -1.1880    -6.4090     2.1230 H     1 <1>   0.0800 
 47 H       -1.2170    -7.2810    -0.0200 H     1 <1>   0.4500 
 48 H       -3.2740    -5.3640    -0.6900 H     1 <1>   0.0800 
 49 H       -2.0380    -6.1270    -1.6750 H     1 <1>   0.0800 
 50 H       -2.3050    -8.8250     1.1820 H     1 <1>   0.0800 
 51 H       -3.7490    -7.8250     1.2830 H     1 <1>   0.0800 
 52 H       -3.8370    -7.4200    -2.4700 H     1 <1>   0.0800 
 53 H       -4.2620    -9.2780    -0.5390 H     1 <1>   0.0800 
 54 H       -5.1620    -6.8480    -0.0130 H     1 <1>   0.4000 
 55 H       -1.9720    -8.7800    -2.3100 H     1 <1>   0.0800 
 56 H       -2.7800   -10.2570    -1.9450 H     1 <1>   0.0800 
 57 H       -1.4550   -11.9860    -0.5120 H     1 <1>   0.1500 
 58 H        1.5890    -9.4000     0.7250 H     1 <1>   0.2700 
 59 H        0.6210   -13.1130     0.8620 H     1 <1>   0.0800 
 60 H        1.2590   -11.9910     2.0380 H     1 <1>   0.0800 
 61 H        2.0990   -12.2500     0.5230 H     1 <1>   0.0800 
@<TRIPOS>BOND
  1   1   2  1   
  2   1   3  1   
  3   2   4  ar  
  4   2   5  ar  
  5   3   6  1   
  6   3  28  1   
  7   3  29  1   
  8   4   7  ar  
  9   4   8  1   
 10   5   9  ar  
 11   5  30  1   
 12   6  31  1   
 13   6  32  1   
 14   6  33  1   
 15   7  10  ar  
 16   7  34  1   
 17   8  11  1   
 18   8  12  1   
 19   8  35  1   
 20   9  10  ar  
 21   9  13  1   
 22  10  14  1   
 23  11  36  1   
 24  11  37  1   
 25  11  38  1   
 26  12  39  1   
 27  12  40  1   
 28  12  41  1   
 29  13  42  1   
 30  13  43  1   
 31  13  44  1   
 32  14  15  1   
 33  14  45  1   
 34  14  46  1   
 35  15  16  1   
 36  15  17  1   
 37  15  47  1   
 38  16  18  1   
 39  16  48  1   
 40  16  49  1   
 41  17  19  1   
 42  17  50  1   
 43  17  51  1   
 44  18  19  1   
 45  18  20  1   
 46  18  52  1   
 47  19  21  1   
 48  19  53  1   
 49  20  54  1   
 50  21  22  1   
 51  21  55  1   
 52  21  56  1   
 53  22  23  2   
 54  22  24  1   
 55  23  25  1   
 56  24  26  2   
 57  24  57  1   
 58  25  26  1   
 59  25  58  1   
 60  26  27  1   
 61  27  59  1   
 62  27  60  1   
 63  27  61  1   
@<TRIPOS>SUBSTRUCTURE
  1 ****  10 GROUP 4 **** **** 0

# MOE 2024.06 (io_trps.svl 2023.06)
