@<TRIPOS>MOLECULE
NONAME
52 54 1 0 0 
SMALL
USER_CHARGES


@<TRIPOS>ATOM
  1 O       -1.4970     0.4520    -1.7190 O.2   1 <1>  -0.5700 
  2 C       -2.1680     0.8850    -0.8010 C.2   1 <1>   0.5440 
  3 N       -1.7830     2.0680    -0.2040 N.am  1 <1>  -0.6600 
  4 C       -3.3240     0.1380    -0.3670 C.ar  1 <1>   0.0860 
  5 C       -0.7230     2.9360    -0.7990 C.3   1 <1>   0.1400 
  6 C       -2.1860     2.5020     1.1670 C.3   1 <1>   0.1400 
  7 C       -3.2230    -1.2240    -0.1000 C.ar  1 <1>   0.1600 
  8 C       -4.5810     0.7130    -0.2100 C.ar  1 <1>  -0.1500 
  9 C       -1.0990     4.4210    -0.6610 C.3   1 <1>   0.1200 
 10 C       -2.4900     4.0100     1.1870 C.3   1 <1>   0.1200 
 11 N       -4.1970    -2.0080     0.3270 N.ar  1 <1>  -0.6200 
 12 C       -5.6070    -0.0890     0.2270 C.ar  1 <1>  -0.1500 
 13 O       -1.4130     4.7370     0.6670 O.3   1 <1>  -0.5600 
 14 C       -5.3860    -1.4380     0.5030 C.ar  1 <1>   0.4100 
 15 N       -6.4190    -2.2320     0.9670 N.pl3 1 <1>  -0.8380 
 16 C       -6.4310    -3.7150     0.7270 C.3   1 <1>   0.2090 
 17 C       -7.2140    -1.7800     2.1440 C.3   1 <1>   0.1290 
 18 C       -7.2400    -4.1340    -0.5320 C.3   1 <1>   0.0000 
 19 C       -7.1680    -5.6750    -0.6720 C.3   1 <1>  -0.1600 
 20 C       -8.7320    -3.7520    -0.4000 C.3   1 <1>  -0.1600 
 21 C       -6.6080    -3.4390    -1.7650 C.3   1 <1>   0.1200 
 22 C       -7.9670    -6.3950     0.4240 C.3   1 <1>   0.1200 
 23 C       -9.4440    -4.5730     0.6830 C.3   1 <1>   0.1200 
 24 O       -7.2230    -3.8250    -2.9520 O.3   1 <1>  -0.6800 
 25 O       -9.2820    -5.9330     0.4190 O.3   1 <1>  -0.5600 
 26 H       -0.5880     2.7020    -1.8410 H     1 <1>   0.0800 
 27 H        0.2090     2.7550    -0.2940 H     1 <1>   0.0800 
 28 H       -1.3760     2.3040     1.8480 H     1 <1>   0.0800 
 29 H       -3.0440     1.9570     1.5130 H     1 <1>   0.0800 
 30 H       -2.2610    -1.6850    -0.2510 H     1 <1>   0.1500 
 31 H       -4.7350     1.7540    -0.4330 H     1 <1>   0.1500 
 32 H       -1.9470     4.6540    -1.2810 H     1 <1>   0.0800 
 33 H       -0.2730     5.0420    -0.9610 H     1 <1>   0.0800 
 34 H       -2.6520     4.3430     2.1970 H     1 <1>   0.0800 
 35 H       -3.3670     4.2300     0.6040 H     1 <1>   0.0800 
 36 H       -6.5960     0.3070     0.3520 H     1 <1>   0.1500 
 37 H       -6.8280    -4.2010     1.5980 H     1 <1>   0.0800 
 38 H       -5.4230    -4.0750     0.6210 H     1 <1>   0.0800 
 39 H       -6.9390    -0.7800     2.4290 H     1 <1>   0.0800 
 40 H       -7.0290    -2.4290     2.9830 H     1 <1>   0.0800 
 41 H       -8.2620    -1.7980     1.9070 H     1 <1>   0.0800 
 42 H       -6.1440    -6.0040    -0.6450 H     1 <1>   0.0800 
 43 H       -7.5820    -5.9870    -1.6130 H     1 <1>   0.0800 
 44 H       -9.2420    -3.9320    -1.3300 H     1 <1>   0.0800 
 45 H       -8.8310    -2.7040    -0.1890 H     1 <1>   0.0800 
 46 H       -5.5600    -3.6750    -1.8380 H     1 <1>   0.0800 
 47 H       -6.7090    -2.3700    -1.6870 H     1 <1>   0.0800 
 48 H       -7.5500    -6.2390     1.4030 H     1 <1>   0.0800 
 49 H       -7.9960    -7.4530     0.2290 H     1 <1>   0.0800 
 50 H      -10.4990    -4.3640     0.6740 H     1 <1>   0.0800 
 51 H       -9.0570    -4.3630     1.6650 H     1 <1>   0.0800 
 52 H       -7.2100    -4.7960    -3.0380 H     1 <1>   0.4000 
@<TRIPOS>BOND
  1   1   2  2   
  2   2   3  am  
  3   2   4  1   
  4   3   5  1   
  5   3   6  1   
  6   4   7  ar  
  7   4   8  ar  
  8   5   9  1   
  9   5  26  1   
 10   5  27  1   
 11   6  10  1   
 12   6  28  1   
 13   6  29  1   
 14   7  11  ar  
 15   7  30  1   
 16   8  12  ar  
 17   8  31  1   
 18   9  13  1   
 19   9  32  1   
 20   9  33  1   
 21  10  13  1   
 22  10  34  1   
 23  10  35  1   
 24  11  14  ar  
 25  12  14  ar  
 26  12  36  1   
 27  14  15  1   
 28  15  16  1   
 29  15  17  1   
 30  16  18  1   
 31  16  37  1   
 32  16  38  1   
 33  17  39  1   
 34  17  40  1   
 35  17  41  1   
 36  18  19  1   
 37  18  20  1   
 38  18  21  1   
 39  19  22  1   
 40  19  42  1   
 41  19  43  1   
 42  20  23  1   
 43  20  44  1   
 44  20  45  1   
 45  21  24  1   
 46  21  46  1   
 47  21  47  1   
 48  22  25  1   
 49  22  48  1   
 50  22  49  1   
 51  23  25  1   
 52  23  50  1   
 53  23  51  1   
 54  24  52  1   
@<TRIPOS>SUBSTRUCTURE
  1 ****  14 GROUP 4 **** **** 0

# MOE 2024.06 (io_trps.svl 2023.06)
