@<TRIPOS>MOLECULE
NONAME
55 57 1 0 0 
SMALL
USER_CHARGES


@<TRIPOS>ATOM
  1 F       -1.1950     1.2820    -1.3070 F     1 <1>  -0.1900 
  2 C       -0.7320     2.2790    -0.5980 C.ar  1 <1>   0.1900 
  3 C       -1.4830     2.7370     0.4690 C.ar  1 <1>  -0.1440 
  4 C        0.4760     2.8390    -0.9590 C.ar  1 <1>  -0.1500 
  5 C       -0.9810     3.8000     1.2010 C.ar  1 <1>  -0.1500 
  6 C       -2.8090     2.0950     0.8210 C.3   1 <1>   0.4870 
  7 C        0.9730     3.9150    -0.2270 C.ar  1 <1>   0.0820 
  8 C        0.2300     4.3920     0.8720 C.ar  1 <1>   0.0820 
  9 N       -3.8020     2.3980    -0.2450 N.4   1 <1>  -0.9590 
 10 O        2.1480     4.5130    -0.5730 O.3   1 <1>  -0.3620 
 11 O        0.5730     5.4270     1.6910 O.3   1 <1>  -0.3620 
 12 C       -4.0690     3.8720    -0.3780 C.3   1 <1>   0.3430 
 13 C       -5.0320     1.5630    -0.0590 C.3   1 <1>   0.3430 
 14 C        2.9390     4.0740    -1.6570 C.3   1 <1>   0.0400 
 15 C        1.9080     5.8560     1.8550 C.3   1 <1>   0.0400 
 16 C       -5.3180     4.2500     0.4080 C.3   1 <1>  -0.1600 
 17 C       -6.2050     2.1890    -0.7990 C.3   1 <1>  -0.1600 
 18 C       -6.5650     3.5730    -0.2020 C.3   1 <1>   0.2800 
 19 O       -6.9550     4.3470    -1.3080 O.3   1 <1>  -0.5600 
 20 C       -7.7020     3.5070     0.8610 C.3   1 <1>   0.2000 
 21 C       -7.8390     5.4110    -1.0800 C.3   1 <1>   0.1200 
 22 O       -7.5760     2.3800     1.6810 O.3   1 <1>  -0.6800 
 23 C       -9.1200     3.6190     0.2410 C.3   1 <1>   0.2800 
 24 C       -9.2130     4.8860    -0.6320 C.3   1 <1>  -0.1600 
 25 O      -10.0090     3.7490     1.2910 O.3   1 <1>  -0.6800 
 26 C       -9.5940     2.3860    -0.5420 C.3   1 <1>  -0.2400 
 27 H        0.9970     2.4270    -1.8020 H     1 <1>   0.1500 
 28 H       -1.5190     4.1930     2.0470 H     1 <1>   0.1500 
 29 H       -3.1600     2.4680     1.7700 H     1 <1>   0.0800 
 30 H       -2.6720     1.0290     0.9040 H     1 <1>   0.0800 
 31 H       -3.3540     2.1030    -1.1260 H     1 <1>   0.4500 
 32 H       -3.2240     4.4460    -0.0360 H     1 <1>   0.0800 
 33 H       -4.2390     4.1150    -1.4150 H     1 <1>   0.0800 
 34 H       -4.8590     0.5620    -0.4200 H     1 <1>   0.0800 
 35 H       -5.2860     1.5060     0.9880 H     1 <1>   0.0800 
 36 H        3.8090     4.7030    -1.7110 H     1 <1>   0.0800 
 37 H        2.3710     4.1630    -2.5660 H     1 <1>   0.0800 
 38 H        3.2380     3.0550    -1.4840 H     1 <1>   0.0800 
 39 H        1.9550     6.4790     2.7290 H     1 <1>   0.0800 
 40 H        2.2000     6.4240     0.9900 H     1 <1>   0.0800 
 41 H        2.5420     4.9960     1.9810 H     1 <1>   0.0800 
 42 H       -5.4320     5.3180     0.4090 H     1 <1>   0.0800 
 43 H       -5.1870     3.9460     1.4310 H     1 <1>   0.0800 
 44 H       -7.0340     1.5140    -0.7240 H     1 <1>   0.0800 
 45 H       -5.9540     2.2740    -1.8420 H     1 <1>   0.0800 
 46 H       -7.5870     4.3560     1.5120 H     1 <1>   0.0800 
 47 H       -7.4160     6.0610    -0.3320 H     1 <1>   0.0800 
 48 H       -7.9330     5.9670    -1.9980 H     1 <1>   0.0800 
 49 H       -8.3980     2.3290     2.2210 H     1 <1>   0.4000 
 50 H       -9.7980     4.6890    -1.5130 H     1 <1>   0.0800 
 51 H       -9.7050     5.6790    -0.0970 H     1 <1>   0.0800 
 52 H      -10.9220     3.7870     0.9460 H     1 <1>   0.4000 
 53 H       -9.0270     2.2810    -1.4480 H     1 <1>   0.0800 
 54 H      -10.6280     2.4860    -0.8200 H     1 <1>   0.0800 
 55 H       -9.4770     1.4910     0.0430 H     1 <1>   0.0800 
@<TRIPOS>BOND
  1   1   2  1   
  2   2   3  ar  
  3   2   4  ar  
  4   3   5  ar  
  5   3   6  1   
  6   4   7  ar  
  7   4  27  1   
  8   5   8  ar  
  9   5  28  1   
 10   6   9  1   
 11   6  29  1   
 12   6  30  1   
 13   7   8  ar  
 14   7  10  1   
 15   8  11  1   
 16   9  12  1   
 17   9  13  1   
 18   9  31  1   
 19  10  14  1   
 20  11  15  1   
 21  12  16  1   
 22  12  32  1   
 23  12  33  1   
 24  13  17  1   
 25  13  34  1   
 26  13  35  1   
 27  14  36  1   
 28  14  37  1   
 29  14  38  1   
 30  15  39  1   
 31  15  40  1   
 32  15  41  1   
 33  16  18  1   
 34  16  42  1   
 35  16  43  1   
 36  17  18  1   
 37  17  44  1   
 38  17  45  1   
 39  18  19  1   
 40  18  20  1   
 41  19  21  1   
 42  20  22  1   
 43  20  23  1   
 44  20  46  1   
 45  21  24  1   
 46  21  47  1   
 47  21  48  1   
 48  22  49  1   
 49  23  24  1   
 50  23  25  1   
 51  23  26  1   
 52  24  50  1   
 53  24  51  1   
 54  25  52  1   
 55  26  53  1   
 56  26  54  1   
 57  26  55  1   
@<TRIPOS>SUBSTRUCTURE
  1 ****  12 GROUP 4 **** **** 0

# MOE 2024.06 (io_trps.svl 2023.06)
