@<TRIPOS>MOLECULE
NONAME
37 39 1 0 0 
SMALL
USER_CHARGES


@<TRIPOS>ATOM
  1 S       -1.1200     0.2580    -0.1720 S.3   1 <1>  -0.0800 
  2 C       -0.5440     1.7630    -0.8500 C.2   1 <1>  -0.1100 
  3 C       -1.4830     1.0410     1.3520 C.2   1 <1>  -0.1100 
  4 C       -0.6110     2.7820     0.0420 C.2   1 <1>  -0.0860 
  5 C       -1.1640     2.3460     1.2990 C.2   1 <1>  -0.1500 
  6 C       -0.2190     4.1610    -0.1730 C.2   1 <1>   0.7160 
  7 O       -0.9620     5.0500     0.1960 O.2   1 <1>  -0.5700 
  8 N        0.9810     4.5000    -0.7620 N.am  1 <1>  -0.6600 
  9 C        2.1700     3.5880    -0.8460 C.3   1 <1>   0.1400 
 10 C        1.2450     5.8930    -1.2220 C.3   1 <1>   0.1400 
 11 C        3.1870     3.8400     0.2800 C.3   1 <1>   0.1400 
 12 C        1.6800     6.8110    -0.0690 C.3   1 <1>  -0.1600 
 13 N        3.5980     5.2760     0.3650 N.am  1 <1>  -0.6600 
 14 C        2.5750     6.1560     0.9910 C.3   1 <1>   0.1400 
 15 C        4.6390     5.7540    -0.4030 C.2   1 <1>   0.7160 
 16 O        5.0950     5.0320    -1.2720 O.2   1 <1>  -0.5700 
 17 C        5.1780     7.0830    -0.2390 C.2   1 <1>  -0.0860 
 18 C        5.7020     7.8480    -1.2850 C.2   1 <1>   0.1390 
 19 C        5.3420     7.8960     0.8450 C.2   1 <1>  -0.3020 
 20 N        6.1260     9.0130    -0.9050 N.2   1 <1>  -0.7070 
 21 N        5.9050     9.0370     0.4200 N.pl3 1 <1>   0.3000 
 22 H       -0.2080     1.7460    -1.8720 H     1 <1>   0.1500 
 23 H       -1.9060     0.4340     2.1330 H     1 <1>   0.1500 
 24 H       -1.2990     3.0530     2.1010 H     1 <1>   0.1500 
 25 H        2.6600     3.7280    -1.7950 H     1 <1>   0.0800 
 26 H        1.8670     2.5600    -0.7970 H     1 <1>   0.0800 
 27 H        0.3560     6.2930    -1.6820 H     1 <1>   0.0800 
 28 H        2.0170     5.8750    -1.9720 H     1 <1>   0.0800 
 29 H        4.0570     3.2300     0.1050 H     1 <1>   0.0800 
 30 H        2.7650     3.5300     1.2190 H     1 <1>   0.0800 
 31 H        0.7980     7.1840     0.4210 H     1 <1>   0.0800 
 32 H        2.1850     7.6650    -0.4830 H     1 <1>   0.0800 
 33 H        1.9570     5.5680     1.6480 H     1 <1>   0.0800 
 34 H        3.0430     6.9120     1.5930 H     1 <1>   0.0800 
 35 H        5.7490     7.5010    -2.3050 H     1 <1>   0.1500 
 36 H        5.0990     7.7100     1.8740 H     1 <1>   0.1500 
 37 H        6.1630     9.8470     0.9980 H     1 <1>   0.2700 
@<TRIPOS>BOND
  1   1   2  1   
  2   1   3  1   
  3   2   4  2   
  4   2  22  1   
  5   3   5  2   
  6   3  23  1   
  7   4   5  1   
  8   4   6  1   
  9   5  24  1   
 10   6   7  2   
 11   6   8  am  
 12   8   9  1   
 13   8  10  1   
 14   9  11  1   
 15   9  25  1   
 16   9  26  1   
 17  10  12  1   
 18  10  27  1   
 19  10  28  1   
 20  11  13  1   
 21  11  29  1   
 22  11  30  1   
 23  12  14  1   
 24  12  31  1   
 25  12  32  1   
 26  13  14  1   
 27  13  15  am  
 28  14  33  1   
 29  14  34  1   
 30  15  16  2   
 31  15  17  1   
 32  17  18  1   
 33  17  19  2   
 34  18  20  2   
 35  18  35  1   
 36  19  21  1   
 37  19  36  1   
 38  20  21  1   
 39  21  37  1   
@<TRIPOS>SUBSTRUCTURE
  1 ****  13 GROUP 4 **** **** 0

# MOE 2024.06 (io_trps.svl 2023.06)
