@<TRIPOS>MOLECULE
NONAME
37 38 1 0 0 
SMALL
USER_CHARGES


@<TRIPOS>ATOM
  1 S       -0.7760     0.6450     1.3820 S.o2  1 <1>   1.4470 
  2 O       -0.7060    -0.5340     2.2180 O.2   1 <1>  -0.6500 
  3 O       -1.4830     1.8180     1.8500 O.2   1 <1>  -0.6500 
  4 N       -1.4110     0.2150    -0.1310 N.am  1 <1>  -0.8490 
  5 C        0.9100     1.1560     0.9450 C.ar  1 <1>  -0.0090 
  6 C       -0.9470    -1.1020    -0.6480 C.3   1 <1>   0.1960 
  7 C       -2.8640     0.3880    -0.2490 C.3   1 <1>   0.1960 
  8 C        1.1310     2.1000    -0.0510 C.ar  1 <1>  -0.1500 
  9 C        2.0230     0.6250     1.5920 C.ar  1 <1>  -0.1500 
 10 C       -2.0220    -2.2130    -0.7280 C.3   1 <1>   0.2000 
 11 C       -3.6450    -0.6860     0.5270 C.3   1 <1>  -0.1600 
 12 C        2.4170     2.4860    -0.3780 C.ar  1 <1>   0.1900 
 13 C        3.3110     1.0150     1.2610 C.ar  1 <1>  -0.1500 
 14 O       -2.7020    -2.1090    -1.9330 O.3   1 <1>  -0.6800 
 15 C       -3.0360    -2.1080     0.4170 C.3   1 <1>  -0.1860 
 16 F        2.5280     3.3760    -1.3320 F     1 <1>  -0.1900 
 17 C        3.5380     1.9550     0.2680 C.ar  1 <1>   0.0820 
 18 C       -4.0870    -3.1960     0.2940 C.2   1 <1>   0.9060 
 19 O        4.8460     2.2560     0.0350 O.3   1 <1>  -0.3630 
 20 O       -4.2570    -3.9760     1.2330 O.co2 1 <1>  -0.9000 
 21 O       -4.7230    -3.2810    -0.7670 O.co2 1 <1>  -0.9000 
 22 C        5.2580     3.2280    -0.9000 C.3   1 <1>   0.0400 
 23 H       -0.5390    -0.9620    -1.6340 H     1 <1>   0.0800 
 24 H       -0.1450    -1.4670    -0.0300 H     1 <1>   0.0800 
 25 H       -3.1560     1.3680     0.0870 H     1 <1>   0.0800 
 26 H       -3.1280     0.3220    -1.2910 H     1 <1>   0.0800 
 27 H        0.2950     2.5310    -0.5730 H     1 <1>   0.1500 
 28 H        1.8780    -0.1070     2.3700 H     1 <1>   0.1500 
 29 H       -1.5550    -3.1830    -0.7170 H     1 <1>   0.0800 
 30 H       -3.7120    -0.4110     1.5640 H     1 <1>   0.0800 
 31 H       -4.6500    -0.7000     0.1410 H     1 <1>   0.0800 
 32 H        4.1540     0.5890     1.7760 H     1 <1>   0.1500 
 33 H       -3.5820    -2.5730    -1.7860 H     1 <1>   0.4000 
 34 H       -2.5020    -2.3040     1.3270 H     1 <1>   0.0800 
 35 H        6.3310     3.2900    -0.8670 H     1 <1>   0.0800 
 36 H        4.8300     4.1780    -0.6310 H     1 <1>   0.0800 
 37 H        4.9410     2.9270    -1.8830 H     1 <1>   0.0800 
@<TRIPOS>BOND
  1   1   2  2   
  2   1   3  2   
  3   1   4  am  
  4   1   5  1   
  5   4   6  1   
  6   4   7  1   
  7   5   8  ar  
  8   5   9  ar  
  9   6  10  1   
 10   6  23  1   
 11   6  24  1   
 12   7  11  1   
 13   7  25  1   
 14   7  26  1   
 15   8  12  ar  
 16   8  27  1   
 17   9  13  ar  
 18   9  28  1   
 19  10  14  1   
 20  10  15  1   
 21  10  29  1   
 22  11  15  1   
 23  11  30  1   
 24  11  31  1   
 25  12  16  1   
 26  12  17  ar  
 27  13  17  ar  
 28  13  32  1   
 29  14  33  1   
 30  15  18  1   
 31  15  34  1   
 32  17  19  1   
 33  18  20  ar  
 34  18  21  ar  
 35  19  22  1   
 36  22  35  1   
 37  22  36  1   
 38  22  37  1   
@<TRIPOS>SUBSTRUCTURE
  1 ****   4 GROUP 4 **** **** 0

# MOE 2024.06 (io_trps.svl 2023.06)
