@<TRIPOS>MOLECULE
NONAME
55 58 1 0 0 
SMALL
USER_CHARGES


@<TRIPOS>ATOM
  1 S        0.2580     0.2280    -0.1390 S.3   1 <1>  -0.0800 
  2 C       -1.2660     0.2160     0.7490 C.2   1 <1>   0.3250 
  3 C        0.5000    -1.4510     0.2260 C.2   1 <1>  -0.1400 
  4 N       -1.5170    -0.9450     1.2470 N.2   1 <1>  -0.5650 
  5 C       -2.0590     1.4260     0.8370 C.ar  1 <1>   0.0530 
  6 C       -0.5390    -1.8690     0.9650 C.2   1 <1>   0.0770 
  7 C        1.7540    -2.0990    -0.3150 C.3   1 <1>   0.5230 
  8 C       -1.6790     2.6400     0.2540 C.ar  1 <1>  -0.1500 
  9 C       -3.2700     1.4140     1.5330 C.ar  1 <1>  -0.1500 
 10 N        1.5790    -3.5750    -0.3550 N.4   1 <1>  -0.9590 
 11 C       -2.4650     3.7730     0.3600 C.ar  1 <1>  -0.1500 
 12 C       -4.0600     2.5430     1.6430 C.ar  1 <1>  -0.1500 
 13 C        2.8240    -4.4040    -0.5010 C.3   1 <1>   0.4230 
 14 C        0.5510    -3.9710    -1.3620 C.3   1 <1>   0.3430 
 15 C       -3.6590     3.7280     1.0550 C.ar  1 <1>  -0.1500 
 16 C        2.4980    -5.8920    -0.1850 C.3   1 <1>   0.0000 
 17 C        4.0300    -3.9310     0.3440 C.3   1 <1>   0.1400 
 18 C        0.1550    -5.4330    -1.1510 C.3   1 <1>  -0.1600 
 19 C        3.7640    -6.7290    -0.4970 C.3   1 <1>  -0.1600 
 20 C        1.3720    -6.3710    -1.1370 C.3   1 <1>  -0.1600 
 21 C        2.1060    -6.1480     1.3060 C.3   1 <1>   0.1200 
 22 N        5.2220    -4.7830     0.0460 N.am  1 <1>  -0.6600 
 23 C        5.0230    -6.2510     0.2430 C.3   1 <1>   0.1400 
 24 O        1.1990    -5.2130     1.8030 O.3   1 <1>  -0.6800 
 25 C        6.4490    -4.3080    -0.3560 C.2   1 <1>   0.5690 
 26 O        7.3500    -5.0470    -0.6590 O.2   1 <1>  -0.5700 
 27 C        6.7240    -2.8240    -0.4390 C.3   1 <1>  -0.1790 
 28 H       -0.6810    -2.8620     1.3610 H     1 <1>   0.1500 
 29 H        2.5750    -1.8270     0.3260 H     1 <1>   0.0800 
 30 H        1.9550    -1.7290    -1.3070 H     1 <1>   0.0800 
 31 H       -0.7580     2.7170    -0.2940 H     1 <1>   0.1500 
 32 H       -3.5980     0.5000     1.9980 H     1 <1>   0.1500 
 33 H        1.2040    -3.8780     0.5660 H     1 <1>   0.4500 
 34 H       -2.1490     4.6940    -0.0990 H     1 <1>   0.1500 
 35 H       -4.9890     2.5010     2.1870 H     1 <1>   0.1500 
 36 H        3.1350    -4.3490    -1.5310 H     1 <1>   0.0800 
 37 H       -0.3280    -3.3520    -1.2650 H     1 <1>   0.0800 
 38 H        0.9450    -3.8420    -2.3570 H     1 <1>   0.0800 
 39 H       -4.2710     4.6090     1.1380 H     1 <1>   0.1500 
 40 H        3.8060    -4.0000     1.3940 H     1 <1>   0.0800 
 41 H        4.2540    -2.9090     0.1100 H     1 <1>   0.0800 
 42 H       -0.3980    -5.5230    -0.2330 H     1 <1>   0.0800 
 43 H       -0.5110    -5.7290    -1.9430 H     1 <1>   0.0800 
 44 H        3.9820    -6.6920    -1.5510 H     1 <1>   0.0800 
 45 H        3.5930    -7.7630    -0.2520 H     1 <1>   0.0800 
 46 H        1.7550    -6.4250    -2.1430 H     1 <1>   0.0800 
 47 H        1.0550    -7.3660    -0.8690 H     1 <1>   0.0800 
 48 H        2.9670    -6.1110     1.9510 H     1 <1>   0.0800 
 49 H        1.6640    -7.1260     1.4070 H     1 <1>   0.0800 
 50 H        5.8710    -6.8040    -0.1290 H     1 <1>   0.0800 
 51 H        4.9550    -6.4570     1.2960 H     1 <1>   0.0800 
 52 H        0.8840    -5.4960     2.6930 H     1 <1>   0.4000 
 53 H        6.5160    -2.3550     0.5040 H     1 <1>   0.0800 
 54 H        6.1320    -2.3810    -1.2160 H     1 <1>   0.0800 
 55 H        7.7620    -2.6660    -0.6720 H     1 <1>   0.0800 
@<TRIPOS>BOND
  1   1   2  1   
  2   1   3  1   
  3   2   4  2   
  4   2   5  1   
  5   3   6  2   
  6   3   7  1   
  7   4   6  1   
  8   5   8  ar  
  9   5   9  ar  
 10   6  28  1   
 11   7  10  1   
 12   7  29  1   
 13   7  30  1   
 14   8  11  ar  
 15   8  31  1   
 16   9  12  ar  
 17   9  32  1   
 18  10  13  1   
 19  10  14  1   
 20  10  33  1   
 21  11  15  ar  
 22  11  34  1   
 23  12  15  ar  
 24  12  35  1   
 25  13  16  1   
 26  13  17  1   
 27  13  36  1   
 28  14  18  1   
 29  14  37  1   
 30  14  38  1   
 31  15  39  1   
 32  16  19  1   
 33  16  20  1   
 34  16  21  1   
 35  17  22  1   
 36  17  40  1   
 37  17  41  1   
 38  18  20  1   
 39  18  42  1   
 40  18  43  1   
 41  19  23  1   
 42  19  44  1   
 43  19  45  1   
 44  20  46  1   
 45  20  47  1   
 46  21  24  1   
 47  21  48  1   
 48  21  49  1   
 49  22  23  1   
 50  22  25  am  
 51  23  50  1   
 52  23  51  1   
 53  24  52  1   
 54  25  26  2   
 55  25  27  1   
 56  27  53  1   
 57  27  54  1   
 58  27  55  1   
@<TRIPOS>SUBSTRUCTURE
  1 ****   7 GROUP 4 **** **** 0

# MOE 2024.06 (io_trps.svl 2023.06)
