@<TRIPOS>MOLECULE
NONAME
47 49 1 0 0 
SMALL
USER_CHARGES


@<TRIPOS>ATOM
  1 S       -0.3570    -0.4680     0.3770 S.3   1 <1>  -0.3320 
  2 C       -0.1410     1.3020     0.1110 C.ar  1 <1>   0.1020 
  3 C       -0.6850    -1.2200    -1.2910 C.3   1 <1>   0.1310 
  4 C       -0.0200     2.0950     1.2360 C.ar  1 <1>  -0.1500 
  5 C       -0.0970     1.8570    -1.1590 C.ar  1 <1>  -0.1500 
  6 C       -0.9730    -2.7120    -1.1830 C.2   1 <1>   0.5690 
  7 C        0.1420     3.4640     1.1030 C.ar  1 <1>   0.0830 
  8 C        0.0660     3.2260    -1.2930 C.ar  1 <1>  -0.1500 
  9 O       -0.1930    -3.4720    -1.7070 O.2   1 <1>  -0.5700 
 10 N       -2.0990    -3.1750    -0.5550 N.am  1 <1>  -0.6600 
 11 O        0.2520     4.1810     2.2500 O.3   1 <1>  -0.3630 
 12 C        0.1840     4.0290    -0.1700 C.ar  1 <1>  -0.1500 
 13 C       -3.1430    -2.3570     0.1140 C.3   1 <1>   0.1400 
 14 C       -2.3860    -4.6220    -0.4050 C.3   1 <1>   0.1400 
 15 C        0.4380     5.5790     2.2280 C.3   1 <1>   0.0400 
 16 C       -4.2310    -3.3600     0.4970 C.3   1 <1>   0.2000 
 17 C       -3.5180    -4.7040     0.6210 C.3   1 <1>  -0.0800 
 18 O       -4.8370    -3.0260     1.6970 O.3   1 <1>  -0.6800 
 19 C       -4.4560    -5.9010     0.4090 C.3   1 <1>   0.0200 
 20 C       -3.6930    -7.2100     0.4620 C.2   1 <1>  -0.0400 
 21 O       -3.0910    -7.5720     1.5630 O.3   1 <1>  -0.0190 
 22 C       -3.4770    -8.1620    -0.4580 C.2   1 <1>  -0.1500 
 23 N       -2.4800    -8.7130     1.4280 N.2   1 <1>  -0.4100 
 24 C       -2.6960    -9.0930     0.2200 C.2   1 <1>   0.1080 
 25 C       -2.1660   -10.3780    -0.3750 C.3   1 <1>  -0.0590 
 26 H       -1.5240    -0.7060    -1.7190 H     1 <1>   0.0800 
 27 H        0.1940    -1.0590    -1.8870 H     1 <1>   0.0800 
 28 H       -0.0520     1.6550     2.2150 H     1 <1>   0.1500 
 29 H       -0.1800     1.2530    -2.0400 H     1 <1>   0.1500 
 30 H        0.1020     3.6680    -2.2740 H     1 <1>   0.1500 
 31 H        0.3090     5.0860    -0.3060 H     1 <1>   0.1500 
 32 H       -2.7260    -1.8990     0.9930 H     1 <1>   0.0800 
 33 H       -3.5290    -1.6080    -0.5540 H     1 <1>   0.0800 
 34 H       -2.6950    -5.0140    -1.3590 H     1 <1>   0.0800 
 35 H       -1.5110    -5.1540    -0.0700 H     1 <1>   0.0800 
 36 H        0.5050     5.9220     3.2450 H     1 <1>   0.0800 
 37 H       -0.4050     6.0360     1.7420 H     1 <1>   0.0800 
 38 H        1.3530     5.8010     1.7070 H     1 <1>   0.0800 
 39 H       -4.9880    -3.3850    -0.2690 H     1 <1>   0.0800 
 40 H       -3.0590    -4.7780     1.5920 H     1 <1>   0.0800 
 41 H       -4.1780    -3.0100     2.4190 H     1 <1>   0.4000 
 42 H       -4.9490    -5.8190    -0.5430 H     1 <1>   0.0800 
 43 H       -5.2120    -5.9060     1.1760 H     1 <1>   0.0800 
 44 H       -3.8060    -8.2250    -1.4790 H     1 <1>   0.1500 
 45 H       -2.9830   -10.9860    -0.7170 H     1 <1>   0.0800 
 46 H       -1.6120   -10.9250     0.3670 H     1 <1>   0.0800 
 47 H       -1.5160   -10.1570    -1.2010 H     1 <1>   0.0800 
@<TRIPOS>BOND
  1   1   2  1   
  2   1   3  1   
  3   2   4  ar  
  4   2   5  ar  
  5   3   6  1   
  6   3  26  1   
  7   3  27  1   
  8   4   7  ar  
  9   4  28  1   
 10   5   8  ar  
 11   5  29  1   
 12   6   9  2   
 13   6  10  am  
 14   7  11  1   
 15   7  12  ar  
 16   8  12  ar  
 17   8  30  1   
 18  10  13  1   
 19  10  14  1   
 20  11  15  1   
 21  12  31  1   
 22  13  16  1   
 23  13  32  1   
 24  13  33  1   
 25  14  17  1   
 26  14  34  1   
 27  14  35  1   
 28  15  36  1   
 29  15  37  1   
 30  15  38  1   
 31  16  17  1   
 32  16  18  1   
 33  16  39  1   
 34  17  19  1   
 35  17  40  1   
 36  18  41  1   
 37  19  20  1   
 38  19  42  1   
 39  19  43  1   
 40  20  21  1   
 41  20  22  2   
 42  21  23  1   
 43  22  24  1   
 44  22  44  1   
 45  23  24  2   
 46  24  25  1   
 47  25  45  1   
 48  25  46  1   
 49  25  47  1   
@<TRIPOS>SUBSTRUCTURE
  1 ****  10 GROUP 4 **** **** 0

# MOE 2024.06 (io_trps.svl 2023.06)
