@<TRIPOS>MOLECULE
NONAME
51 53 1 0 0 
SMALL
USER_CHARGES


@<TRIPOS>ATOM
  1 F       -1.7200    -0.4230    -0.7660 F     1 <1>  -0.1900 
  2 C       -2.0310     0.6370    -0.0670 C.ar  1 <1>   0.1900 
  3 C       -2.9440     0.5000     0.9760 C.ar  1 <1>   0.0860 
  4 C       -1.4270     1.8420    -0.4090 C.ar  1 <1>  -0.1440 
  5 C       -3.2310     1.6730     1.6690 C.ar  1 <1>   0.1900 
  6 C       -3.5440    -0.7660     1.3150 C.2   1 <1>   0.5440 
  7 C       -1.7450     2.9760     0.3240 C.ar  1 <1>  -0.1500 
  8 C       -0.4320     1.9270    -1.5580 C.3   1 <1>  -0.0970 
  9 F       -4.1070     1.6490     2.6350 F     1 <1>  -0.1900 
 10 C       -2.6520     2.8930     1.3680 C.ar  1 <1>  -0.1500 
 11 O       -3.3040    -1.2540     2.4030 O.2   1 <1>  -0.5700 
 12 N       -4.3570    -1.4740     0.4480 N.am  1 <1>  -0.6600 
 13 C       -5.1800    -0.8800    -0.6540 C.3   1 <1>   0.2200 
 14 C       -4.2570    -2.9670     0.4630 C.3   1 <1>   0.0600 
 15 C       -5.6870     0.5310    -0.3490 C.3   1 <1>  -0.1600 
 16 C       -6.4790    -1.6620    -0.8630 C.3   1 <1>  -0.1600 
 17 C       -6.9680     0.7200    -1.1710 C.3   1 <1>  -0.0800 
 18 C       -7.4750    -0.6880    -1.5060 C.3   1 <1>  -0.0800 
 19 C       -8.0880     1.4120    -0.3820 C.3   1 <1>  -0.1600 
 20 C       -8.8870    -0.7930    -0.9120 C.3   1 <1>  -0.1600 
 21 C       -8.8970     0.2530     0.1980 C.3   1 <1>   0.4230 
 22 N      -10.2730     0.6130     0.6580 N.4   1 <1>  -0.9590 
 23 C      -11.1440     1.2650    -0.3740 C.3   1 <1>   0.2630 
 24 C      -10.2020     1.4620     1.8870 C.3   1 <1>   0.2630 
 25 H       -1.2920     3.9250     0.0890 H     1 <1>   0.1500 
 26 H       -0.0670     2.9310    -1.6820 H     1 <1>   0.0800 
 27 H       -0.9010     1.6190    -2.4750 H     1 <1>   0.0800 
 28 H        0.4060     1.2810    -1.3650 H     1 <1>   0.0800 
 29 H       -2.9090     3.7650     1.9440 H     1 <1>   0.1500 
 30 H       -4.6120    -0.8740    -1.5700 H     1 <1>   0.0800 
 31 H       -4.1760    -3.3440    -0.5410 H     1 <1>   0.0800 
 32 H       -5.1240    -3.3880     0.9400 H     1 <1>   0.0800 
 33 H       -3.3840    -3.2800     1.0100 H     1 <1>   0.0800 
 34 H       -5.9060     0.6030     0.7020 H     1 <1>   0.0800 
 35 H       -4.9630     1.2770    -0.6230 H     1 <1>   0.0800 
 36 H       -6.3220    -2.5210    -1.4920 H     1 <1>   0.0800 
 37 H       -6.8480    -1.9840     0.0950 H     1 <1>   0.0800 
 38 H       -6.7420     1.2620    -2.0760 H     1 <1>   0.0800 
 39 H       -7.4920    -0.8380    -2.5740 H     1 <1>   0.0800 
 40 H       -8.6740     1.9860    -1.0760 H     1 <1>   0.0800 
 41 H       -7.7000     2.0620     0.3820 H     1 <1>   0.0800 
 42 H       -9.0970    -1.7800    -0.5400 H     1 <1>   0.0800 
 43 H       -9.5910    -0.5450    -1.6840 H     1 <1>   0.0800 
 44 H       -8.3400    -0.1520     1.0280 H     1 <1>   0.0800 
 45 H      -10.7220    -0.2760     0.9220 H     1 <1>   0.4500 
 46 H      -10.7310     2.2140    -0.6720 H     1 <1>   0.0800 
 47 H      -12.1310     1.4340     0.0260 H     1 <1>   0.0800 
 48 H      -11.2360     0.6380    -1.2460 H     1 <1>   0.0800 
 49 H       -9.7410     2.4100     1.6620 H     1 <1>   0.0800 
 50 H       -9.6210     0.9690     2.6500 H     1 <1>   0.0800 
 51 H      -11.1920     1.6440     2.2750 H     1 <1>   0.0800 
@<TRIPOS>BOND
  1   1   2  1   
  2   2   3  ar  
  3   2   4  ar  
  4   3   5  ar  
  5   3   6  1   
  6   4   7  ar  
  7   4   8  1   
  8   5   9  1   
  9   5  10  ar  
 10   6  11  2   
 11   6  12  am  
 12   7  10  ar  
 13   7  25  1   
 14   8  26  1   
 15   8  27  1   
 16   8  28  1   
 17  10  29  1   
 18  12  13  1   
 19  12  14  1   
 20  13  15  1   
 21  13  16  1   
 22  13  30  1   
 23  14  31  1   
 24  14  32  1   
 25  14  33  1   
 26  15  17  1   
 27  15  34  1   
 28  15  35  1   
 29  16  18  1   
 30  16  36  1   
 31  16  37  1   
 32  17  18  1   
 33  17  19  1   
 34  17  38  1   
 35  18  20  1   
 36  18  39  1   
 37  19  21  1   
 38  19  40  1   
 39  19  41  1   
 40  20  21  1   
 41  20  42  1   
 42  20  43  1   
 43  21  22  1   
 44  21  44  1   
 45  22  23  1   
 46  22  24  1   
 47  22  45  1   
 48  23  46  1   
 49  23  47  1   
 50  23  48  1   
 51  24  49  1   
 52  24  50  1   
 53  24  51  1   
@<TRIPOS>SUBSTRUCTURE
  1 ****  15 GROUP 4 **** **** 0

# MOE 2024.06 (io_trps.svl 2023.06)
