@<TRIPOS>MOLECULE
NONAME
53 56 1 0 0 
SMALL
USER_CHARGES


@<TRIPOS>ATOM
  1 O        0.0150     0.6080     1.2880 O.2   1 <1>  -0.5700 
  2 C        0.2400     1.7920     1.1150 C.2   1 <1>   0.6900 
  3 N       -0.7880     2.7000     1.0900 N.am  1 <1>  -0.6600 
  4 N        1.5170     2.2530     0.9680 N.am  1 <1>  -0.5470 
  5 C       -2.1700     2.2910     1.4760 C.3   1 <1>   0.1400 
  6 C       -0.6900     4.0270     0.4080 C.3   1 <1>   0.1400 
  7 C        2.7370     1.5740     0.8280 C.ar  1 <1>   0.1170 
  8 C       -3.0690     2.1470     0.2270 C.3   1 <1>   0.0000 
  9 C       -2.0290     4.4490    -0.2230 C.3   1 <1>  -0.1600 
 10 C        2.8250     0.2860     0.3070 C.ar  1 <1>  -0.1500 
 11 C        3.9100     2.2180     1.2070 C.ar  1 <1>  -0.1500 
 12 C       -4.5490     2.1310     0.6560 C.3   1 <1>   0.2000 
 13 C       -2.7480     3.2400    -0.8420 C.3   1 <1>  -0.1600 
 14 C       -2.9430     0.7560    -0.4170 C.3   1 <1>  -0.1600 
 15 C        4.0500    -0.3410     0.1700 C.ar  1 <1>  -0.1500 
 16 C        5.1390     1.5970     1.0710 C.ar  1 <1>  -0.1500 
 17 O       -5.0650     3.4010     0.8350 O.3   1 <1>  -0.6800 
 18 C       -5.3090     1.3860    -0.4420 C.3   1 <1>  -0.1600 
 19 C       -4.2560     0.5440    -1.1780 C.3   1 <1>  -0.1600 
 20 C        5.2110     0.3140     0.5440 C.ar  1 <1>   0.0820 
 21 O        6.3970    -0.3350     0.3990 O.3   1 <1>  -0.1650 
 22 C        7.5110     0.3080    -0.0320 C.ar  1 <1>   0.0820 
 23 C        8.7320    -0.0670     0.5070 C.ar  1 <1>  -0.1500 
 24 C        7.4590     1.3060    -0.9990 C.ar  1 <1>  -0.1500 
 25 C        9.8950     0.5600     0.0950 C.ar  1 <1>  -0.1500 
 26 C        8.6230     1.9330    -1.4080 C.ar  1 <1>  -0.1500 
 27 C        9.8400     1.5620    -0.8600 C.ar  1 <1>  -0.1500 
 28 H        1.5830     3.2530     1.1040 H     1 <1>   0.3700 
 29 H       -2.1540     1.3730     2.0390 H     1 <1>   0.0800 
 30 H       -2.5760     3.0500     2.1230 H     1 <1>   0.0800 
 31 H       -0.3720     4.7730     1.1160 H     1 <1>   0.0800 
 32 H        0.0470     3.9620    -0.3750 H     1 <1>   0.0800 
 33 H       -2.6520     4.9000     0.5290 H     1 <1>   0.0800 
 34 H       -1.8440     5.1940    -0.9770 H     1 <1>   0.0800 
 35 H        1.9320    -0.2310     0.0070 H     1 <1>   0.1500 
 36 H        3.8640     3.2100     1.6170 H     1 <1>   0.1500 
 37 H       -4.6570     1.5960     1.5860 H     1 <1>   0.0800 
 38 H       -2.0880     2.8320    -1.5880 H     1 <1>   0.0800 
 39 H       -3.6350     3.5560    -1.3610 H     1 <1>   0.0800 
 40 H       -2.0780     0.6600    -1.0490 H     1 <1>   0.0800 
 41 H       -2.8670     0.0070     0.3540 H     1 <1>   0.0800 
 42 H        4.1080    -1.3380    -0.2290 H     1 <1>   0.1500 
 43 H        6.0370     2.1030     1.3790 H     1 <1>   0.1500 
 44 H       -4.9470     3.9150     0.0150 H     1 <1>   0.4000 
 45 H       -6.0610     0.7550    -0.0030 H     1 <1>   0.0800 
 46 H       -5.7740     2.0700    -1.1310 H     1 <1>   0.0800 
 47 H       -4.5250    -0.4980    -1.2030 H     1 <1>   0.0800 
 48 H       -4.1500     0.9000    -2.1890 H     1 <1>   0.0800 
 49 H        8.7660    -0.8470     1.2460 H     1 <1>   0.1500 
 50 H        6.5170     1.5890    -1.4330 H     1 <1>   0.1500 
 51 H       10.8410     0.2700     0.5170 H     1 <1>   0.1500 
 52 H        8.5840     2.7080    -2.1540 H     1 <1>   0.1500 
 53 H       10.7450     2.0500    -1.1790 H     1 <1>   0.1500 
@<TRIPOS>BOND
  1   1   2  2   
  2   2   3  am  
  3   2   4  am  
  4   3   5  1   
  5   3   6  1   
  6   4   7  1   
  7   4  28  1   
  8   5   8  1   
  9   5  29  1   
 10   5  30  1   
 11   6   9  1   
 12   6  31  1   
 13   6  32  1   
 14   7  10  ar  
 15   7  11  ar  
 16   8  12  1   
 17   8  13  1   
 18   8  14  1   
 19   9  13  1   
 20   9  33  1   
 21   9  34  1   
 22  10  15  ar  
 23  10  35  1   
 24  11  16  ar  
 25  11  36  1   
 26  12  17  1   
 27  12  18  1   
 28  12  37  1   
 29  13  38  1   
 30  13  39  1   
 31  14  19  1   
 32  14  40  1   
 33  14  41  1   
 34  15  20  ar  
 35  15  42  1   
 36  16  20  ar  
 37  16  43  1   
 38  17  44  1   
 39  18  19  1   
 40  18  45  1   
 41  18  46  1   
 42  19  47  1   
 43  19  48  1   
 44  20  21  1   
 45  21  22  1   
 46  22  23  ar  
 47  22  24  ar  
 48  23  25  ar  
 49  23  49  1   
 50  24  26  ar  
 51  24  50  1   
 52  25  27  ar  
 53  25  51  1   
 54  26  27  ar  
 55  26  52  1   
 56  27  53  1   
@<TRIPOS>SUBSTRUCTURE
  1 ****   7 GROUP 4 **** **** 0

# MOE 2024.06 (io_trps.svl 2023.06)
