@<TRIPOS>MOLECULE
NONAME
46 47 1 0 0 
SMALL
USER_CHARGES


@<TRIPOS>ATOM
  1 S        0.7590     1.8130     1.2310 S.3   1 <1>  -0.0800 
  2 C        1.5900     0.7210     0.1380 C.2   1 <1>   0.1980 
  3 C       -0.2070     0.4790     1.7890 C.2   1 <1>  -0.1100 
  4 N        1.1700    -0.4820     0.1910 N.2   1 <1>  -0.5650 
  5 C        2.6710     1.3200    -0.7610 C.3   1 <1>   0.2900 
  6 C        0.1600    -0.6270     1.1250 C.2   1 <1>   0.0460 
  7 N        4.0450     1.2760    -0.1860 N.3   1 <1>  -0.8100 
  8 C       -0.4170    -2.0140     1.2950 C.3   1 <1>  -0.0590 
  9 C        5.0540     1.6900    -1.1990 C.3   1 <1>   0.1710 
 10 C        4.1670     2.0270     1.0700 C.3   1 <1>   0.0300 
 11 C        4.9410     3.1340    -1.7080 C.2   1 <1>   0.5690 
 12 O        4.2410     3.3730    -2.6640 O.2   1 <1>  -0.5700 
 13 N        5.6240     4.1220    -1.0750 N.am  1 <1>  -0.7300 
 14 C        5.5730     5.5380    -1.4670 C.3   1 <1>   0.2840 
 15 C        6.4650     6.3250    -0.5220 C.ar  1 <1>  -0.1430 
 16 C        7.8160     6.4760    -0.7960 C.ar  1 <1>  -0.1500 
 17 C        5.9400     6.9000     0.6260 C.ar  1 <1>  -0.1500 
 18 C        8.6270     7.1980     0.0610 C.ar  1 <1>  -0.1500 
 19 C        6.7540     7.6210     1.4810 C.ar  1 <1>  -0.1500 
 20 C        8.1050     7.7870     1.2040 C.ar  1 <1>   0.1170 
 21 N        8.9450     8.5150     2.0540 N.am  1 <1>  -0.5470 
 22 C        8.8260     9.7710     2.5570 C.2   1 <1>   0.5690 
 23 O        9.6700    10.2030     3.2970 O.2   1 <1>  -0.5700 
 24 C        7.6580    10.6550     2.1860 C.3   1 <1>  -0.1790 
 25 H       -0.9420     0.6680     2.5490 H     1 <1>   0.1500 
 26 H        2.4020     2.3350    -0.9960 H     1 <1>   0.0800 
 27 H        2.6650     0.7600    -1.6800 H     1 <1>   0.0800 
 28 H       -1.1880    -2.0140     2.0430 H     1 <1>   0.0800 
 29 H        0.3620    -2.6920     1.5930 H     1 <1>   0.0800 
 30 H       -0.8310    -2.3490     0.3620 H     1 <1>   0.0800 
 31 H        4.9760     1.0350    -2.0490 H     1 <1>   0.0800 
 32 H        6.0360     1.5480    -0.7860 H     1 <1>   0.0800 
 33 H        3.5590     1.5680     1.8300 H     1 <1>   0.0800 
 34 H        3.8510     3.0480     0.9360 H     1 <1>   0.0800 
 35 H        5.1870     2.0110     1.4110 H     1 <1>   0.0800 
 36 H        6.1930     3.9280    -0.2510 H     1 <1>   0.3700 
 37 H        4.5570     5.8900    -1.4130 H     1 <1>   0.0800 
 38 H        5.9140     5.6420    -2.4840 H     1 <1>   0.0800 
 39 H        8.2400     6.0310    -1.6810 H     1 <1>   0.1500 
 40 H        4.8940     6.7860     0.8580 H     1 <1>   0.1500 
 41 H        9.6720     7.3120    -0.1640 H     1 <1>   0.1500 
 42 H        6.3380     8.0530     2.3740 H     1 <1>   0.1500 
 43 H        9.8330     8.0800     2.3040 H     1 <1>   0.3700 
 44 H        7.3950    10.5140     1.1540 H     1 <1>   0.0800 
 45 H        7.9260    11.6840     2.3360 H     1 <1>   0.0800 
 46 H        6.8170    10.4210     2.8090 H     1 <1>   0.0800 
@<TRIPOS>BOND
  1   1   2  1   
  2   1   3  1   
  3   2   4  2   
  4   2   5  1   
  5   3   6  2   
  6   3  25  1   
  7   4   6  1   
  8   5   7  1   
  9   5  26  1   
 10   5  27  1   
 11   6   8  1   
 12   7   9  1   
 13   7  10  1   
 14   8  28  1   
 15   8  29  1   
 16   8  30  1   
 17   9  11  1   
 18   9  31  1   
 19   9  32  1   
 20  10  33  1   
 21  10  34  1   
 22  10  35  1   
 23  11  12  2   
 24  11  13  am  
 25  13  14  1   
 26  13  36  1   
 27  14  15  1   
 28  14  37  1   
 29  14  38  1   
 30  15  16  ar  
 31  15  17  ar  
 32  16  18  ar  
 33  16  39  1   
 34  17  19  ar  
 35  17  40  1   
 36  18  20  ar  
 37  18  41  1   
 38  19  20  ar  
 39  19  42  1   
 40  20  21  1   
 41  21  22  am  
 42  21  43  1   
 43  22  23  2   
 44  22  24  1   
 45  24  44  1   
 46  24  45  1   
 47  24  46  1   
@<TRIPOS>SUBSTRUCTURE
  1 ****  13 GROUP 4 **** **** 0

# MOE 2024.06 (io_trps.svl 2023.06)
