@<TRIPOS>MOLECULE
NONAME
47 49 1 0 0 
SMALL
USER_CHARGES


@<TRIPOS>ATOM
  1 O        0.5610     0.0930     1.8990 O.3   1 <1>  -0.6800 
  2 C        1.5690    -0.5790     1.2210 C.3   1 <1>   0.1200 
  3 C        2.0670     0.3050     0.0720 C.3   1 <1>   0.1100 
  4 N        3.2380    -0.2740    -0.6300 N.3   1 <1>  -0.8100 
  5 C        3.8320     0.6840    -1.5800 C.3   1 <1>   0.2530 
  6 C        2.9140    -1.5490    -1.3140 C.3   1 <1>   0.2900 
  7 C        4.4130     1.9010    -0.8550 C.ar  1 <1>  -0.1430 
  8 C        3.2000    -2.7200    -0.3920 C.2   1 <1>   0.0060 
  9 C        5.4970     1.7260     0.0140 C.ar  1 <1>  -0.0230 
 10 C        3.8840     3.1780    -1.0450 C.ar  1 <1>  -0.1440 
 11 N        2.4580    -3.7730    -0.2510 N.2   1 <1>  -0.5650 
 12 N        4.3030    -2.7280     0.3810 N.pl3 1 <1>   0.0330 
 13 N        6.0730     0.4490     0.2790 N.pl3 1 <1>   0.5930 
 14 C        6.0350     2.8330     0.6620 C.ar  1 <1>  -0.1500 
 15 C        4.4390     4.2600    -0.3810 C.ar  1 <1>  -0.1500 
 16 C        2.6980     3.4420    -1.9650 C.3   1 <1>  -0.0970 
 17 C        3.1190    -4.5080     0.6650 C.2   1 <1>   0.0770 
 18 C        4.2490    -3.8850     1.0650 C.2   1 <1>  -0.3020 
 19 N        6.7500    -0.3010    -0.6340 N.2   1 <1>  -0.7070 
 20 C        6.1870    -0.1280     1.5020 C.2   1 <1>  -0.3020 
 21 C        5.5150     4.0980     0.4710 C.ar  1 <1>  -0.1430 
 22 C        7.2740    -1.2820     0.0290 C.2   1 <1>   0.1390 
 23 C        6.9530    -1.2310     1.3790 C.2   1 <1>  -0.1500 
 24 C        6.1080     5.2980     1.1850 C.3   1 <1>  -0.0970 
 25 H        0.2140    -0.4640     2.6230 H     1 <1>   0.4000 
 26 H        1.1590    -1.5020     0.8500 H     1 <1>   0.0800 
 27 H        2.3680    -0.7800     1.9130 H     1 <1>   0.0800 
 28 H        2.3440     1.2550     0.4990 H     1 <1>   0.0800 
 29 H        1.2650     0.4680    -0.6260 H     1 <1>   0.0800 
 30 H        3.0950     0.9660    -2.3090 H     1 <1>   0.0800 
 31 H        4.6360     0.2080    -2.1160 H     1 <1>   0.0800 
 32 H        3.5290    -1.6750    -2.1880 H     1 <1>   0.0800 
 33 H        1.8840    -1.5670    -1.6260 H     1 <1>   0.0800 
 34 H        4.9930    -1.9660     0.4180 H     1 <1>   0.2700 
 35 H        6.8730     2.6990     1.3230 H     1 <1>   0.1500 
 36 H        4.0330     5.2450    -0.5250 H     1 <1>   0.1500 
 37 H        1.8530     2.8530    -1.6600 H     1 <1>   0.0800 
 38 H        2.9570     3.1960    -2.9800 H     1 <1>   0.0800 
 39 H        2.4080     4.4770    -1.9360 H     1 <1>   0.0800 
 40 H        2.7400    -5.4620     0.9920 H     1 <1>   0.1500 
 41 H        4.9940    -4.1900     1.7760 H     1 <1>   0.1500 
 42 H        5.7200     0.2980     2.3710 H     1 <1>   0.1500 
 43 H        7.8860    -2.0460    -0.4250 H     1 <1>   0.1500 
 44 H        7.2670    -1.9310     2.1350 H     1 <1>   0.1500 
 45 H        7.1000     5.0820     1.5370 H     1 <1>   0.0800 
 46 H        5.4920     5.5630     2.0250 H     1 <1>   0.0800 
 47 H        6.1620     6.1380     0.5160 H     1 <1>   0.0800 
@<TRIPOS>BOND
  1   1   2  1   
  2   1  25  1   
  3   2   3  1   
  4   2  26  1   
  5   2  27  1   
  6   3   4  1   
  7   3  28  1   
  8   3  29  1   
  9   4   5  1   
 10   4   6  1   
 11   5   7  1   
 12   5  30  1   
 13   5  31  1   
 14   6   8  1   
 15   6  32  1   
 16   6  33  1   
 17   7   9  ar  
 18   7  10  ar  
 19   8  11  2   
 20   8  12  1   
 21   9  13  1   
 22   9  14  ar  
 23  10  15  ar  
 24  10  16  1   
 25  11  17  1   
 26  12  18  1   
 27  12  34  1   
 28  13  19  1   
 29  13  20  1   
 30  14  21  ar  
 31  14  35  1   
 32  15  21  ar  
 33  15  36  1   
 34  16  37  1   
 35  16  38  1   
 36  16  39  1   
 37  17  18  2   
 38  17  40  1   
 39  18  41  1   
 40  19  22  2   
 41  20  23  2   
 42  20  42  1   
 43  21  24  1   
 44  22  23  1   
 45  22  43  1   
 46  23  44  1   
 47  24  45  1   
 48  24  46  1   
 49  24  47  1   
@<TRIPOS>SUBSTRUCTURE
  1 ****   4 GROUP 4 **** **** 0

# MOE 2024.06 (io_trps.svl 2023.06)
