@<TRIPOS>MOLECULE
NONAME
54 57 1 0 0 
SMALL
USER_CHARGES


@<TRIPOS>ATOM
  1 O       -0.1070     0.1150     0.4470 O.2   1 <1>  -0.5700 
  2 C       -0.7070     0.8590    -0.3070 C.2   1 <1>   0.6900 
  3 N       -2.0780     0.8460    -0.3510 N.am  1 <1>  -0.6600 
  4 N       -0.0400     1.7180    -1.1320 N.am  1 <1>  -0.5470 
  5 C       -2.9030     2.0320    -0.7460 C.3   1 <1>   0.1400 
  6 C       -2.8620    -0.2350     0.3110 C.3   1 <1>   0.1400 
  7 C        1.2920     2.1520    -1.1560 C.ar  1 <1>   0.1170 
  8 C       -3.6160     2.6380     0.4780 C.3   1 <1>   0.1430 
  9 C       -3.5930     0.3220     1.5400 C.3   1 <1>  -0.1600 
 10 C        1.7820     2.7410    -2.3150 C.ar  1 <1>  -0.1500 
 11 C        2.1450     2.0430    -0.0630 C.ar  1 <1>  -0.1500 
 12 C       -4.4580     3.8030    -0.0030 C.ar  1 <1>   0.1670 
 13 C       -4.4520     1.5490     1.1850 C.3   1 <1>  -0.1600 
 14 C       -2.6170     3.3260     1.4500 C.3   1 <1>  -0.1600 
 15 C        3.0820     3.2080    -2.3830 C.ar  1 <1>  -0.1500 
 16 C        3.4460     2.5080    -0.1280 C.ar  1 <1>  -0.1500 
 17 N       -5.5660     3.7020    -0.6940 N.ar  1 <1>  -0.6200 
 18 C       -3.9080     4.9990     0.3470 C.ar  1 <1>  -0.1430 
 19 C       -2.6210     4.8270     1.1140 C.3   1 <1>  -0.0170 
 20 C        3.9230     3.0960    -1.2880 C.ar  1 <1>  -0.1430 
 21 C       -6.1380     4.8620    -1.0270 C.ar  1 <1>   0.7200 
 22 C       -4.5640     6.1400    -0.0390 C.ar  1 <1>   0.1600 
 23 C        5.3510     3.6040    -1.3580 C.3   1 <1>  -0.0970 
 24 N       -5.6800     6.0820    -0.7270 N.ar  1 <1>  -0.6200 
 25 N       -7.3100     4.7930    -1.7540 N.pl3 1 <1>  -0.8380 
 26 C       -7.8950     5.9870    -2.4230 C.3   1 <1>   0.1290 
 27 C       -8.1120     3.5420    -1.8480 C.3   1 <1>   0.1290 
 28 H       -0.6110     2.0190    -1.9120 H     1 <1>   0.3700 
 29 H       -3.6420     1.7170    -1.4630 H     1 <1>   0.0800 
 30 H       -2.3000     2.7910    -1.2090 H     1 <1>   0.0800 
 31 H       -2.2160    -1.0450     0.6070 H     1 <1>   0.0800 
 32 H       -3.5770    -0.6260    -0.3920 H     1 <1>   0.0800 
 33 H       -2.8630     0.5820     2.2860 H     1 <1>   0.0800 
 34 H       -4.2190    -0.4480     1.9550 H     1 <1>   0.0800 
 35 H        1.1450     2.8350    -3.1750 H     1 <1>   0.1500 
 36 H        1.7950     1.5930     0.8480 H     1 <1>   0.1500 
 37 H       -5.2450     1.2380     0.5270 H     1 <1>   0.0800 
 38 H       -4.9110     1.9510     2.0720 H     1 <1>   0.0800 
 39 H       -1.6270     2.9110     1.3950 H     1 <1>   0.0800 
 40 H       -2.9670     3.2130     2.4610 H     1 <1>   0.0800 
 41 H        3.4410     3.6580    -3.2920 H     1 <1>   0.1500 
 42 H        4.0850     2.4080     0.7310 H     1 <1>   0.1500 
 43 H       -1.7850     5.0770     0.4840 H     1 <1>   0.0800 
 44 H       -2.6020     5.4320     2.0040 H     1 <1>   0.0800 
 45 H       -4.1700     7.1080     0.2150 H     1 <1>   0.1500 
 46 H        5.4240     4.4290    -2.0430 H     1 <1>   0.0800 
 47 H        6.0000     2.8150    -1.6920 H     1 <1>   0.0800 
 48 H        5.6790     3.9370    -0.3900 H     1 <1>   0.0800 
 49 H       -7.1190     6.6700    -2.7230 H     1 <1>   0.0800 
 50 H       -8.5590     6.4910    -1.7430 H     1 <1>   0.0800 
 51 H       -8.4410     5.6900    -3.3010 H     1 <1>   0.0800 
 52 H       -7.9340     2.9120    -0.9940 H     1 <1>   0.0800 
 53 H       -7.8380     3.0070    -2.7410 H     1 <1>   0.0800 
 54 H       -9.1610     3.7760    -1.8810 H     1 <1>   0.0800 
@<TRIPOS>BOND
  1   1   2  2   
  2   2   3  am  
  3   2   4  am  
  4   3   5  1   
  5   3   6  1   
  6   4   7  1   
  7   4  28  1   
  8   5   8  1   
  9   5  29  1   
 10   5  30  1   
 11   6   9  1   
 12   6  31  1   
 13   6  32  1   
 14   7  10  ar  
 15   7  11  ar  
 16   8  12  1   
 17   8  13  1   
 18   8  14  1   
 19   9  13  1   
 20   9  33  1   
 21   9  34  1   
 22  10  15  ar  
 23  10  35  1   
 24  11  16  ar  
 25  11  36  1   
 26  12  17  ar  
 27  12  18  ar  
 28  13  37  1   
 29  13  38  1   
 30  14  19  1   
 31  14  39  1   
 32  14  40  1   
 33  15  20  ar  
 34  15  41  1   
 35  16  20  ar  
 36  16  42  1   
 37  17  21  ar  
 38  18  19  1   
 39  18  22  ar  
 40  19  43  1   
 41  19  44  1   
 42  20  23  1   
 43  21  24  ar  
 44  21  25  1   
 45  22  24  ar  
 46  22  45  1   
 47  23  46  1   
 48  23  47  1   
 49  23  48  1   
 50  25  26  1   
 51  25  27  1   
 52  26  49  1   
 53  26  50  1   
 54  26  51  1   
 55  27  52  1   
 56  27  53  1   
 57  27  54  1   
@<TRIPOS>SUBSTRUCTURE
  1 ****   5 GROUP 4 **** **** 0

# MOE 2024.06 (io_trps.svl 2023.06)
