@<TRIPOS>MOLECULE
NONAME
53 56 1 0 0 
SMALL
USER_CHARGES


@<TRIPOS>ATOM
  1 S       -0.6270    -0.1810     1.6080 S.o2  1 <1>   1.5760 
  2 O       -1.7240     0.3250     2.4020 O.2   1 <1>  -0.6500 
  3 O        0.5780    -0.6800     2.2310 O.2   1 <1>  -0.6500 
  4 N       -1.2600    -1.3840     0.6040 N.am  1 <1>  -0.8490 
  5 N       -0.1960     0.9650     0.4480 N.am  1 <1>  -0.8490 
  6 C       -2.5200    -0.9160    -0.0190 C.3   1 <1>   0.1960 
  7 C       -1.4810    -2.6220     1.3590 C.3   1 <1>   0.1960 
  8 C        0.9810     0.5390    -0.3150 C.3   1 <1>   0.1960 
  9 C        0.0290     2.2720     1.0670 C.3   1 <1>   0.1960 
 10 C       -2.9500    -1.7260    -1.2580 C.3   1 <1>   0.2090 
 11 C       -1.1690    -3.8580     0.5060 C.3   1 <1>  -0.1600 
 12 C        1.2570     1.5270    -1.4530 C.3   1 <1>  -0.1600 
 13 C        0.2770     3.3320    -0.0120 C.3   1 <1>  -0.1600 
 14 N       -3.0340    -3.2140    -1.0100 N.pl3 1 <1>  -0.8380 
 15 C       -1.6530    -3.7910    -0.9440 C.3   1 <1>   0.2090 
 16 C        1.4550     2.9490    -0.9160 C.3   1 <1>  -0.1600 
 17 C       -4.1890    -3.8940    -0.8320 C.ar  1 <1>   0.4610 
 18 N       -4.1590    -5.2270    -0.7310 N.ar  1 <1>  -0.1790 
 19 C       -5.4700    -3.2820    -0.7300 C.ar  1 <1>  -0.1500 
 20 C       -5.2690    -6.0370    -0.5580 C.ar  1 <1>   0.3610 
 21 C       -6.6020    -4.0160    -0.5570 C.ar  1 <1>  -0.1500 
 22 C       -6.5330    -5.4310    -0.4680 C.ar  1 <1>   0.0000 
 23 C       -5.1600    -7.4290    -0.4730 C.ar  1 <1>  -0.1500 
 24 C       -7.6600    -6.2440    -0.2930 C.ar  1 <1>  -0.1500 
 25 C       -6.2810    -8.2070    -0.3010 C.ar  1 <1>  -0.1500 
 26 C       -7.5360    -7.6100    -0.2110 C.ar  1 <1>  -0.1500 
 27 H       -2.4020     0.1030    -0.3450 H     1 <1>   0.0800 
 28 H       -3.3150    -0.9150     0.7080 H     1 <1>   0.0800 
 29 H       -2.4960    -2.6630     1.7190 H     1 <1>   0.0800 
 30 H       -0.8430    -2.6610     2.2270 H     1 <1>   0.0800 
 31 H        0.8100    -0.4390    -0.7330 H     1 <1>   0.0800 
 32 H        1.8410     0.4800     0.3340 H     1 <1>   0.0800 
 33 H        0.8720     2.2200     1.7380 H     1 <1>   0.0800 
 34 H       -0.8390     2.5580     1.6390 H     1 <1>   0.0800 
 35 H       -2.2370    -1.5340    -2.0420 H     1 <1>   0.0800 
 36 H       -3.8840    -1.3390    -1.6180 H     1 <1>   0.0800 
 37 H       -1.5860    -4.7200     0.9920 H     1 <1>   0.0800 
 38 H       -0.1020    -3.9950     0.4960 H     1 <1>   0.0800 
 39 H        0.4270     1.5080    -2.1380 H     1 <1>   0.0800 
 40 H        2.1360     1.2170    -1.9890 H     1 <1>   0.0800 
 41 H        0.4740     4.2790     0.4580 H     1 <1>   0.0800 
 42 H       -0.6160     3.4370    -0.6030 H     1 <1>   0.0800 
 43 H       -1.6160    -4.7660    -1.3970 H     1 <1>   0.0800 
 44 H       -0.9710    -3.1690    -1.5020 H     1 <1>   0.0800 
 45 H        1.5350     3.6450    -1.7330 H     1 <1>   0.0800 
 46 H        2.3690     2.9920    -0.3480 H     1 <1>   0.0800 
 47 H       -3.2510    -5.6670    -0.8070 H     1 <1>   0.4570 
 48 H       -5.5460    -2.2140    -0.7810 H     1 <1>   0.1500 
 49 H       -7.5700    -3.5460    -0.4800 H     1 <1>   0.1500 
 50 H       -4.1990    -7.9060    -0.5410 H     1 <1>   0.1500 
 51 H       -8.6340    -5.7880    -0.2230 H     1 <1>   0.1500 
 52 H       -6.2060    -9.2820    -0.2350 H     1 <1>   0.1500 
 53 H       -8.4080    -8.2300    -0.0770 H     1 <1>   0.1500 
@<TRIPOS>BOND
  1   1   2  2   
  2   1   3  2   
  3   1   4  am  
  4   1   5  am  
  5   4   6  1   
  6   4   7  1   
  7   5   8  1   
  8   5   9  1   
  9   6  10  1   
 10   6  27  1   
 11   6  28  1   
 12   7  11  1   
 13   7  29  1   
 14   7  30  1   
 15   8  12  1   
 16   8  31  1   
 17   8  32  1   
 18   9  13  1   
 19   9  33  1   
 20   9  34  1   
 21  10  14  1   
 22  10  35  1   
 23  10  36  1   
 24  11  15  1   
 25  11  37  1   
 26  11  38  1   
 27  12  16  1   
 28  12  39  1   
 29  12  40  1   
 30  13  16  1   
 31  13  41  1   
 32  13  42  1   
 33  14  15  1   
 34  14  17  1   
 35  15  43  1   
 36  15  44  1   
 37  16  45  1   
 38  16  46  1   
 39  17  18  ar  
 40  17  19  ar  
 41  18  20  ar  
 42  18  47  1   
 43  19  21  ar  
 44  19  48  1   
 45  20  22  ar  
 46  20  23  ar  
 47  21  22  ar  
 48  21  49  1   
 49  22  24  ar  
 50  23  25  ar  
 51  23  50  1   
 52  24  26  ar  
 53  24  51  1   
 54  25  26  ar  
 55  25  52  1   
 56  26  53  1   
@<TRIPOS>SUBSTRUCTURE
  1 ****  14 GROUP 4 **** **** 0

# MOE 2024.06 (io_trps.svl 2023.06)
