@<TRIPOS>MOLECULE
NONAME
53 55 1 0 0 
SMALL
USER_CHARGES


@<TRIPOS>ATOM
  1 O       -0.2560    -1.7710    -1.5510 O.2   1 <1>  -0.5700 
  2 C       -0.4990    -2.7230    -0.8420 C.2   1 <1>   0.5440 
  3 N        0.5650    -3.4780    -0.4820 N.am  1 <1>  -0.8000 
  4 C       -1.8480    -3.0200    -0.3980 C.ar  1 <1>   0.0860 
  5 C       -2.2440    -4.3040    -0.0160 C.ar  1 <1>  -0.1500 
  6 C       -2.8200    -2.0210    -0.3370 C.ar  1 <1>  -0.1500 
  7 C       -3.5310    -4.5690     0.4120 C.ar  1 <1>  -0.1500 
  8 C       -4.1080    -2.2810     0.0890 C.ar  1 <1>  -0.1500 
  9 C       -4.4890    -3.5620     0.4770 C.ar  1 <1>   0.1170 
 10 N       -5.7830    -3.8900     0.9040 N.am  1 <1>  -0.5470 
 11 C       -6.7650    -3.0890     1.4370 C.2   1 <1>   0.5690 
 12 O       -6.6140    -1.9160     1.6710 O.2   1 <1>  -0.5700 
 13 C       -8.1490    -3.6880     1.7470 C.3   1 <1>   0.4040 
 14 N       -9.2520    -3.2890     0.7850 N.4   1 <1>  -0.9590 
 15 C      -10.5290    -4.0180     1.0770 C.3   1 <1>   0.3430 
 16 C       -9.4630    -1.8060     0.7880 C.3   1 <1>   0.3430 
 17 C      -11.6130    -3.7150     0.0230 C.3   1 <1>   0.0000 
 18 C      -10.5050    -1.4310    -0.2660 C.3   1 <1>  -0.1600 
 19 C      -12.8910    -4.4920     0.4050 C.3   1 <1>   0.2000 
 20 C      -11.8270    -2.1860    -0.0630 C.3   1 <1>  -0.1600 
 21 C      -11.2370    -4.3370    -1.3350 C.3   1 <1>  -0.1600 
 22 O      -13.9670    -3.9560    -0.3010 O.3   1 <1>  -0.5600 
 23 C      -12.6390    -5.9220    -0.0920 C.3   1 <1>  -0.1600 
 24 C      -11.6210    -5.8170    -1.2370 C.3   1 <1>  -0.1600 
 25 C      -15.2290    -4.2130     0.2340 C.3   1 <1>   0.0400 
 26 H        1.4900    -3.1850    -0.7980 H     1 <1>   0.3700 
 27 H        0.5350    -4.2000     0.2350 H     1 <1>   0.3700 
 28 H       -1.5320    -5.1090    -0.0620 H     1 <1>   0.1500 
 29 H       -2.5500    -1.0210    -0.6330 H     1 <1>   0.1500 
 30 H       -3.7880    -5.5720     0.6990 H     1 <1>   0.1500 
 31 H       -4.8130    -1.4710     0.1120 H     1 <1>   0.1500 
 32 H       -5.9740    -4.8900     0.8520 H     1 <1>   0.3700 
 33 H       -8.4180    -3.3740     2.7410 H     1 <1>   0.0800 
 34 H       -8.0560    -4.7600     1.7580 H     1 <1>   0.0800 
 35 H       -8.9700    -3.5330    -0.1730 H     1 <1>   0.4500 
 36 H      -10.3480    -5.0800     1.0940 H     1 <1>   0.0800 
 37 H      -10.8960    -3.7250     2.0470 H     1 <1>   0.0800 
 38 H       -9.8010    -1.4840     1.7600 H     1 <1>   0.0800 
 39 H       -8.5400    -1.2930     0.5670 H     1 <1>   0.0800 
 40 H      -10.6910    -0.3730    -0.2100 H     1 <1>   0.0800 
 41 H      -10.1120    -1.6310    -1.2480 H     1 <1>   0.0800 
 42 H      -13.1040    -4.4410     1.4600 H     1 <1>   0.0800 
 43 H      -12.4990    -1.9480    -0.8710 H     1 <1>   0.0800 
 44 H      -12.2940    -1.8430     0.8450 H     1 <1>   0.0800 
 45 H      -11.8480    -3.8890    -2.1030 H     1 <1>   0.0800 
 46 H      -10.2080    -4.2060    -1.6140 H     1 <1>   0.0800 
 47 H      -12.2210    -6.5120     0.7040 H     1 <1>   0.0800 
 48 H      -13.5460    -6.3980    -0.4210 H     1 <1>   0.0800 
 49 H      -10.7590    -6.4260    -1.0250 H     1 <1>   0.0800 
 50 H      -12.0570    -6.1500    -2.1650 H     1 <1>   0.0800 
 51 H      -15.9630    -3.7690    -0.4150 H     1 <1>   0.0800 
 52 H      -15.2990    -3.7690     1.2120 H     1 <1>   0.0800 
 53 H      -15.3940    -5.2750     0.2870 H     1 <1>   0.0800 
@<TRIPOS>BOND
  1   1   2  2   
  2   2   3  am  
  3   2   4  1   
  4   3  26  1   
  5   3  27  1   
  6   4   5  ar  
  7   4   6  ar  
  8   5   7  ar  
  9   5  28  1   
 10   6   8  ar  
 11   6  29  1   
 12   7   9  ar  
 13   7  30  1   
 14   8   9  ar  
 15   8  31  1   
 16   9  10  1   
 17  10  11  am  
 18  10  32  1   
 19  11  12  2   
 20  11  13  1   
 21  13  14  1   
 22  13  33  1   
 23  13  34  1   
 24  14  15  1   
 25  14  16  1   
 26  14  35  1   
 27  15  17  1   
 28  15  36  1   
 29  15  37  1   
 30  16  18  1   
 31  16  38  1   
 32  16  39  1   
 33  17  19  1   
 34  17  20  1   
 35  17  21  1   
 36  18  20  1   
 37  18  40  1   
 38  18  41  1   
 39  19  22  1   
 40  19  23  1   
 41  19  42  1   
 42  20  43  1   
 43  20  44  1   
 44  21  24  1   
 45  21  45  1   
 46  21  46  1   
 47  22  25  1   
 48  23  24  1   
 49  23  47  1   
 50  23  48  1   
 51  24  49  1   
 52  24  50  1   
 53  25  51  1   
 54  25  52  1   
 55  25  53  1   
@<TRIPOS>SUBSTRUCTURE
  1 ****  11 GROUP 4 **** **** 0

# MOE 2024.06 (io_trps.svl 2023.06)
