@<TRIPOS>MOLECULE
NONAME
57 60 1 0 0 
SMALL
USER_CHARGES


@<TRIPOS>ATOM
  1 O        0.7300    -1.1070    -3.0420 O.2   1 <1>  -0.5700 
  2 C        1.1010    -1.6790    -2.0590 C.2   1 <1>   0.8520 
  3 N        0.5930    -2.8550    -1.6320 N.pl3 1 <1>  -0.8600 
  4 C        2.1970    -1.2600    -1.0650 C.3   1 <1>   0.3890 
  5 C        1.1810    -3.2650    -0.5250 C.cat 1 <1>   1.2000 
  6 N        2.1050    -2.4110    -0.1400 N.pl3 1 <1>  -0.8440 
  7 C        1.8800     0.0370    -0.3160 C.3   1 <1>  -0.1600 
  8 C        3.5950    -1.2020    -1.6860 C.3   1 <1>  -0.1600 
  9 N        0.8740    -4.3960     0.1110 N.pl3 1 <1>  -0.7220 
 10 C        2.9230     0.3220     0.7600 C.3   1 <1>   0.2090 
 11 C        4.6580    -0.9360    -0.6240 C.3   1 <1>   0.2090 
 12 C        1.5470    -4.8590     1.3670 C.3   1 <1>   0.0880 
 13 C       -0.1810    -5.3600    -0.3370 C.3   1 <1>   0.0880 
 14 N        4.2980     0.2480     0.2000 N.pl3 1 <1>  -0.8380 
 15 C        5.2600     0.5870     1.1250 C.ar  1 <1>   0.4100 
 16 N        5.5270    -0.3240     2.0520 N.ar  1 <1>  -0.6200 
 17 C        5.8740     1.8270     1.0580 C.ar  1 <1>  -0.1500 
 18 C        6.4380     0.0290     2.9440 C.ar  1 <1>   0.1600 
 19 C        6.8380     2.1910     1.9790 C.ar  1 <1>   0.0860 
 20 C        7.1030     1.2380     2.9540 C.ar  1 <1>  -0.1500 
 21 C        7.5150     3.4720     1.9570 C.2   1 <1>   0.5440 
 22 O        7.6120     4.0990     2.9950 O.2   1 <1>  -0.5700 
 23 N        8.0600     3.9970     0.8030 N.am  1 <1>  -0.6600 
 24 C        8.4550     5.4290     0.7110 C.3   1 <1>   0.1400 
 25 C        8.4560     3.1810    -0.3780 C.3   1 <1>   0.1400 
 26 C        7.8460     6.0500    -0.5520 C.3   1 <1>  -0.1600 
 27 C        7.8340     3.7740    -1.6460 C.3   1 <1>  -0.1600 
 28 C        8.2090     5.2540    -1.8140 C.3   1 <1>  -0.1600 
 29 H       -0.1460    -3.3240    -2.1350 H     1 <1>   0.4500 
 30 H        2.7060    -2.4860     0.6790 H     1 <1>   0.4500 
 31 H        0.9030    -0.0100     0.1300 H     1 <1>   0.0800 
 32 H        1.8770     0.8580    -1.0120 H     1 <1>   0.0800 
 33 H        3.6320    -0.4060    -2.4100 H     1 <1>   0.0800 
 34 H        3.8210    -2.1180    -2.2030 H     1 <1>   0.0800 
 35 H        2.8320    -0.3810     1.5710 H     1 <1>   0.0800 
 36 H        2.7610     1.3080     1.1650 H     1 <1>   0.0800 
 37 H        5.6080    -0.7560    -1.1010 H     1 <1>   0.0800 
 38 H        4.7730    -1.7960     0.0140 H     1 <1>   0.0800 
 39 H        2.0060    -5.8200     1.2030 H     1 <1>   0.0800 
 40 H        0.8190    -4.9580     2.1560 H     1 <1>   0.0800 
 41 H        2.3080    -4.1740     1.6960 H     1 <1>   0.0800 
 42 H       -0.9280    -5.4690     0.4330 H     1 <1>   0.0800 
 43 H        0.2610    -6.3250    -0.5240 H     1 <1>   0.0800 
 44 H       -0.6720    -5.0350    -1.2380 H     1 <1>   0.0800 
 45 H        5.5850     2.5070     0.2800 H     1 <1>   0.1500 
 46 H        6.6680    -0.6890     3.7140 H     1 <1>   0.1500 
 47 H        7.8280     1.4560     3.7170 H     1 <1>   0.1500 
 48 H        9.5290     5.4950     0.6750 H     1 <1>   0.0800 
 49 H        8.1150     5.9730     1.5760 H     1 <1>   0.0800 
 50 H        8.1530     2.1560    -0.2630 H     1 <1>   0.0800 
 51 H        9.5290     3.1980    -0.4630 H     1 <1>   0.0800 
 52 H        8.1920     7.0630    -0.6500 H     1 <1>   0.0800 
 53 H        6.7760     6.0800    -0.4370 H     1 <1>   0.0800 
 54 H        6.7640     3.6760    -1.5930 H     1 <1>   0.0800 
 55 H        8.1720     3.2180    -2.5020 H     1 <1>   0.0800 
 56 H        9.2680     5.3350    -1.9920 H     1 <1>   0.0800 
 57 H        7.6960     5.6670    -2.6650 H     1 <1>   0.0800 
@<TRIPOS>BOND
  1   1   2  2   
  2   2   3  1   
  3   2   4  1   
  4   3   5  ar  
  5   3  29  1   
  6   4   6  1   
  7   4   7  1   
  8   4   8  1   
  9   5   6  ar  
 10   5   9  ar  
 11   6  30  1   
 12   7  10  1   
 13   7  31  1   
 14   7  32  1   
 15   8  11  1   
 16   8  33  1   
 17   8  34  1   
 18   9  12  1   
 19   9  13  1   
 20  10  14  1   
 21  10  35  1   
 22  10  36  1   
 23  11  14  1   
 24  11  37  1   
 25  11  38  1   
 26  12  39  1   
 27  12  40  1   
 28  12  41  1   
 29  13  42  1   
 30  13  43  1   
 31  13  44  1   
 32  14  15  1   
 33  15  16  ar  
 34  15  17  ar  
 35  16  18  ar  
 36  17  19  ar  
 37  17  45  1   
 38  18  20  ar  
 39  18  46  1   
 40  19  20  ar  
 41  19  21  1   
 42  20  47  1   
 43  21  22  2   
 44  21  23  am  
 45  23  24  1   
 46  23  25  1   
 47  24  26  1   
 48  24  48  1   
 49  24  49  1   
 50  25  27  1   
 51  25  50  1   
 52  25  51  1   
 53  26  28  1   
 54  26  52  1   
 55  26  53  1   
 56  27  28  1   
 57  27  54  1   
 58  27  55  1   
 59  28  56  1   
 60  28  57  1   
@<TRIPOS>SUBSTRUCTURE
  1 ****  14 GROUP 4 **** **** 0

# MOE 2024.06 (io_trps.svl 2023.06)
