@<TRIPOS>MOLECULE
NONAME
45 47 1 0 0 
SMALL
USER_CHARGES


@<TRIPOS>ATOM
  1 O        0.7120     0.3920     0.3860 O.3   1 <1>  -0.6800 
  2 C        1.5470    -0.2600    -0.5140 C.3   1 <1>   0.2000 
  3 C        2.2540    -1.4250     0.1930 C.3   1 <1>  -0.0800 
  4 C        2.6820     0.6880    -0.8960 C.3   1 <1>   0.1100 
  5 C        3.7140    -0.9750     0.3600 C.3   1 <1>   0.1100 
  6 C        2.1370    -2.7370    -0.6030 C.3   1 <1>   0.0210 
  7 N        3.7020     0.4720     0.1380 N.3   1 <1>  -0.8100 
  8 C        2.9180    -3.8600     0.0520 C.2   1 <1>   0.1080 
  9 C        5.0210     1.0890    -0.1370 C.3   1 <1>   0.2540 
 10 N        2.6800    -4.2700     1.2580 N.2   1 <1>  -0.7070 
 11 C        3.9550    -4.5670    -0.5480 C.2   1 <1>  -0.1500 
 12 C        5.0100     2.5950     0.1820 C.cat 1 <1>   0.6560 
 13 N        3.5660    -5.2630     1.4620 N.pl3 1 <1>   0.3000 
 14 C        4.3520    -5.4590     0.3830 C.2   1 <1>  -0.3320 
 15 N        4.0130     3.1690     0.8330 N.pl3 1 <1>  -0.7000 
 16 N        5.9360     3.5100    -0.1120 N.pl3 1 <1>  -0.7640 
 17 C        5.4460    -6.5080     0.3060 C.3   1 <1>  -0.0600 
 18 C        4.2890     4.4990     0.9750 C.2   1 <1>   0.2000 
 19 C        5.4850     4.7140     0.3880 C.2   1 <1>   0.2000 
 20 C        7.2230     3.3240    -0.8210 C.3   1 <1>   0.3540 
 21 C        8.3170     3.0590     0.2070 C.3   1 <1>  -0.2400 
 22 H        0.1080    -0.2490     0.8090 H     1 <1>   0.4000 
 23 H        0.9600    -0.5580    -1.3660 H     1 <1>   0.0800 
 24 H        1.8330    -1.5850     1.1710 H     1 <1>   0.0800 
 25 H        2.3440     1.7090    -0.9320 H     1 <1>   0.0800 
 26 H        3.0710     0.4020    -1.8590 H     1 <1>   0.0800 
 27 H        4.3410    -1.4530    -0.3750 H     1 <1>   0.0800 
 28 H        4.0800    -1.2120     1.3460 H     1 <1>   0.0800 
 29 H        2.4950    -2.5950    -1.6060 H     1 <1>   0.0800 
 30 H        1.1050    -3.0330    -0.6550 H     1 <1>   0.0800 
 31 H        5.7610     0.6280     0.4930 H     1 <1>   0.0800 
 32 H        5.2970     0.9290    -1.1630 H     1 <1>   0.0800 
 33 H        4.3380    -4.4170    -1.5420 H     1 <1>   0.1500 
 34 H        3.6050    -5.7890     2.3440 H     1 <1>   0.2700 
 35 H        3.1990     2.6140     1.1420 H     1 <1>   0.4500 
 36 H        5.9290    -6.4700    -0.6550 H     1 <1>   0.0800 
 37 H        5.0300    -7.4910     0.4400 H     1 <1>   0.0800 
 38 H        6.1850    -6.3340     1.0680 H     1 <1>   0.0800 
 39 H        3.6320     5.1940     1.4740 H     1 <1>   0.1500 
 40 H        6.0350     5.6390     0.2990 H     1 <1>   0.1500 
 41 H        7.1530     2.4950    -1.5060 H     1 <1>   0.0800 
 42 H        7.4560     4.2100    -1.3880 H     1 <1>   0.0800 
 43 H        8.1040     2.1670     0.7680 H     1 <1>   0.0800 
 44 H        8.4090     3.8920     0.8810 H     1 <1>   0.0800 
 45 H        9.2590     2.9270    -0.2950 H     1 <1>   0.0800 
@<TRIPOS>BOND
  1   1   2  1   
  2   1  22  1   
  3   2   3  1   
  4   2   4  1   
  5   2  23  1   
  6   3   5  1   
  7   3   6  1   
  8   3  24  1   
  9   4   7  1   
 10   4  25  1   
 11   4  26  1   
 12   5   7  1   
 13   5  27  1   
 14   5  28  1   
 15   6   8  1   
 16   6  29  1   
 17   6  30  1   
 18   7   9  1   
 19   8  10  2   
 20   8  11  1   
 21   9  12  1   
 22   9  31  1   
 23   9  32  1   
 24  10  13  1   
 25  11  14  2   
 26  11  33  1   
 27  12  15  ar  
 28  12  16  ar  
 29  13  14  1   
 30  13  34  1   
 31  14  17  1   
 32  15  18  1   
 33  15  35  1   
 34  16  19  1   
 35  16  20  1   
 36  17  36  1   
 37  17  37  1   
 38  17  38  1   
 39  18  19  2   
 40  18  39  1   
 41  19  40  1   
 42  20  21  1   
 43  20  41  1   
 44  20  42  1   
 45  21  43  1   
 46  21  44  1   
 47  21  45  1   
@<TRIPOS>SUBSTRUCTURE
  1 ****   5 GROUP 4 **** **** 0

# MOE 2024.06 (io_trps.svl 2023.06)
