@<TRIPOS>MOLECULE
NONAME
40 42 1 0 0 
SMALL
USER_CHARGES


@<TRIPOS>ATOM
  1 CL       0.4550     0.1810     0.8870 Cl    1 <1>  -0.1230 
  2 C        1.1870    -1.3730     0.5320 C.2   1 <1>   0.1230 
  3 C        2.3370    -1.5900    -0.1500 C.2   1 <1>  -0.3020 
  4 C        0.6650    -2.5970     0.9200 C.2   1 <1>  -0.1500 
  5 N        2.5550    -2.9280    -0.2030 N.pl3 1 <1>   0.0480 
  6 C        1.5190    -3.5670     0.4480 C.2   1 <1>  -0.2370 
  7 C        3.7210    -3.5650    -0.8460 C.3   1 <1>   0.0160 
  8 C        1.4300    -4.9980     0.5810 C.2   1 <1>   0.7150 
  9 O        2.4240    -5.6500     0.8440 O.2   1 <1>  -0.5700 
 10 N        0.2410    -5.6650     0.3980 N.am  1 <1>  -0.6600 
 11 C       -0.9530    -5.1070    -0.2880 C.3   1 <1>   0.1400 
 12 C        0.1430    -7.1470     0.4660 C.3   1 <1>   0.1400 
 13 C       -1.9840    -6.2340    -0.2380 C.3   1 <1>   0.2000 
 14 C       -1.1330    -7.5050    -0.3040 C.3   1 <1>  -0.0800 
 15 O       -2.6280    -6.1700     0.9880 O.3   1 <1>  -0.6800 
 16 C       -1.8230    -8.7890     0.1940 C.3   1 <1>  -0.0170 
 17 C       -0.9200    -9.9980     0.0080 C.ar  1 <1>  -0.1430 
 18 C       -0.8260   -10.6550    -1.2020 C.ar  1 <1>  -0.1500 
 19 C       -0.1460   -10.5000     1.0350 C.ar  1 <1>  -0.1500 
 20 C        0.0150   -11.7490    -1.3240 C.ar  1 <1>   0.1600 
 21 C        0.6650   -11.6000     0.8070 C.ar  1 <1>   0.1600 
 22 N        0.7650   -12.2360    -0.3490 N.ar  1 <1>  -0.6200 
 23 H        2.9960    -0.8620    -0.5860 H     1 <1>   0.1500 
 24 H       -0.2360    -2.7220     1.4930 H     1 <1>   0.1500 
 25 H        4.2850    -2.8300    -1.3900 H     1 <1>   0.0800 
 26 H        3.3830    -4.3310    -1.5200 H     1 <1>   0.0800 
 27 H        4.3430    -4.0080    -0.0890 H     1 <1>   0.0800 
 28 H       -1.3260    -4.2210     0.1920 H     1 <1>   0.0800 
 29 H       -0.6980    -4.8840    -1.3090 H     1 <1>   0.0800 
 30 H        1.0080    -7.6170     0.0270 H     1 <1>   0.0800 
 31 H        0.0670    -7.4430     1.4980 H     1 <1>   0.0800 
 32 H       -2.7230    -6.1690    -1.0180 H     1 <1>   0.0800 
 33 H       -0.8520    -7.6530    -1.3320 H     1 <1>   0.0800 
 34 H       -1.9550    -6.0640     1.6910 H     1 <1>   0.4000 
 35 H       -2.7360    -8.9390    -0.3550 H     1 <1>   0.0800 
 36 H       -2.0860    -8.6960     1.2330 H     1 <1>   0.0800 
 37 H       -1.3990   -10.3290    -2.0500 H     1 <1>   0.1500 
 38 H       -0.1630   -10.0490     2.0100 H     1 <1>   0.1500 
 39 H        0.0750   -12.2490    -2.2760 H     1 <1>   0.1500 
 40 H        1.2630   -11.9770     1.6190 H     1 <1>   0.1500 
@<TRIPOS>BOND
  1   1   2  1   
  2   2   3  2   
  3   2   4  1   
  4   3   5  1   
  5   3  23  1   
  6   4   6  2   
  7   4  24  1   
  8   5   6  1   
  9   5   7  1   
 10   6   8  1   
 11   7  25  1   
 12   7  26  1   
 13   7  27  1   
 14   8   9  2   
 15   8  10  am  
 16  10  11  1   
 17  10  12  1   
 18  11  13  1   
 19  11  28  1   
 20  11  29  1   
 21  12  14  1   
 22  12  30  1   
 23  12  31  1   
 24  13  14  1   
 25  13  15  1   
 26  13  32  1   
 27  14  16  1   
 28  14  33  1   
 29  15  34  1   
 30  16  17  1   
 31  16  35  1   
 32  16  36  1   
 33  17  18  ar  
 34  17  19  ar  
 35  18  20  ar  
 36  18  37  1   
 37  19  21  ar  
 38  19  38  1   
 39  20  22  ar  
 40  20  39  1   
 41  21  22  ar  
 42  21  40  1   
@<TRIPOS>SUBSTRUCTURE
  1 ****  10 GROUP 4 **** **** 0

# MOE 2024.06 (io_trps.svl 2023.06)
