@<TRIPOS>MOLECULE
NONAME
19 19 1 0 0 
SMALL
USER_CHARGES


@<TRIPOS>ATOM
  1 O        1.0070     5.3540    -0.1670 O.3   1 <1>  -0.5600 
  2 C       -0.0940     6.0190     0.3740 C.3   1 <1>   0.2000 
  3 C        1.1230     4.0040     0.1780 C.3   1 <1>   0.1200 
  4 C       -1.3980     5.3340    -0.0970 C.3   1 <1>   0.3430 
  5 C       -0.0080     7.4690    -0.0940 C.3   1 <1>  -0.2400 
  6 C       -0.1110     3.2230    -0.3140 C.3   1 <1>   0.3430 
  7 N       -1.3840     3.8540     0.1710 N.4   1 <1>  -0.9060 
  8 H       -0.0160     5.9870     1.4480 H     1 <1>   0.0800 
  9 H        2.0140     3.6230    -0.2920 H     1 <1>   0.0800 
 10 H        1.2410     3.9250     1.2450 H     1 <1>   0.0800 
 11 H       -1.5020     5.5090    -1.1550 H     1 <1>   0.0800 
 12 H       -2.2400     5.7930     0.3960 H     1 <1>   0.0800 
 13 H       -0.0410     7.5260    -1.1680 H     1 <1>   0.0800 
 14 H        0.9130     7.9080     0.2490 H     1 <1>   0.0800 
 15 H       -0.8220     8.0450     0.3080 H     1 <1>   0.0800 
 16 H       -0.0490     2.2010     0.0240 H     1 <1>   0.0800 
 17 H       -0.0960     3.2160    -1.3920 H     1 <1>   0.0800 
 18 H       -1.4710     3.6970     1.1830 H     1 <1>   0.4500 
 19 H       -2.1930     3.4080    -0.2790 H     1 <1>   0.4500 
@<TRIPOS>BOND
  1   1   2  1   
  2   1   3  1   
  3   2   4  1   
  4   2   5  1   
  5   2   8  1   
  6   3   6  1   
  7   3   9  1   
  8   3  10  1   
  9   4   7  1   
 10   4  11  1   
 11   4  12  1   
 12   5  13  1   
 13   5  14  1   
 14   5  15  1   
 15   6   7  1   
 16   6  16  1   
 17   6  17  1   
 18   7  18  1   
 19   7  19  1   
@<TRIPOS>SUBSTRUCTURE
  1 ****   2 GROUP 4 **** **** 0

# MOE 2024.06 (io_trps.svl 2023.06)
