@<TRIPOS>MOLECULE
NONAME
46 48 1 0 0 
SMALL
USER_CHARGES


@<TRIPOS>ATOM
  1 CL       2.0720     1.0500     3.1410 Cl    1 <1>  -0.1770 
  2 C        2.5140    -0.1000     1.9050 C.ar  1 <1>   0.1770 
  3 C        2.4470    -1.4520     2.1870 C.ar  1 <1>  -0.1500 
  4 C        2.9210     0.3580     0.6680 C.ar  1 <1>  -0.1500 
  5 C        2.7910    -2.3890     1.2200 C.ar  1 <1>  -0.1440 
  6 C        3.2650    -0.5640    -0.3030 C.ar  1 <1>  -0.1500 
  7 C        3.2060    -1.9240    -0.0340 C.ar  1 <1>   0.0830 
  8 C        2.7020    -3.8600     1.6250 C.3   1 <1>   0.4870 
  9 O        3.5150    -2.7470    -1.0590 O.3   1 <1>  -0.3630 
 10 N        1.9600    -4.7040     0.6520 N.4   1 <1>  -0.9590 
 11 C        4.7940    -3.3870    -1.0740 C.3   1 <1>   0.0140 
 12 C        0.7810    -4.1210    -0.0360 C.3   1 <1>   0.3430 
 13 C        1.6480    -6.0690     1.1200 C.3   1 <1>   0.3430 
 14 C        4.6710    -4.8150    -0.5870 C.2   1 <1>   0.9060 
 15 C       -0.2610    -5.2440    -0.1070 C.3   1 <1>   0.2000 
 16 C        0.4900    -6.5330     0.2370 C.3   1 <1>  -0.0800 
 17 O        3.8410    -5.5590    -1.1280 O.co2 1 <1>  -0.9000 
 18 O        5.1750    -5.1350     0.4890 O.co2 1 <1>  -0.9000 
 19 O       -1.2330    -5.0230     0.8630 O.3   1 <1>  -0.6800 
 20 C        1.0080    -7.2600    -1.0220 C.3   1 <1>  -0.0170 
 21 C        1.7570    -8.5380    -0.6650 C.ar  1 <1>   0.1670 
 22 N        1.0610    -9.4400     0.0110 N.ar  1 <1>  -0.6200 
 23 C        3.0880    -8.7200    -1.0470 C.ar  1 <1>   0.1600 
 24 C        1.7680   -10.5290     0.2620 C.ar  1 <1>   0.1600 
 25 N        3.7910    -9.8150    -0.7960 N.ar  1 <1>  -0.6200 
 26 C        3.0870   -10.7110    -0.1300 C.ar  1 <1>   0.1600 
 27 H        2.1280    -1.7510     3.1690 H     1 <1>   0.1500 
 28 H        2.9650     1.4140     0.4720 H     1 <1>   0.1500 
 29 H        3.5800    -0.2330    -1.2780 H     1 <1>   0.1500 
 30 H        2.2030    -3.9150     2.5760 H     1 <1>   0.0800 
 31 H        3.6940    -4.2520     1.7690 H     1 <1>   0.0800 
 32 H        2.6600    -4.8870    -0.1100 H     1 <1>   0.4500 
 33 H        5.1490    -3.3940    -2.0860 H     1 <1>   0.0800 
 34 H        5.4770    -2.8410    -0.4500 H     1 <1>   0.0800 
 35 H        0.3870    -3.2730     0.4980 H     1 <1>   0.0800 
 36 H        1.0710    -3.8160    -1.0280 H     1 <1>   0.0800 
 37 H        2.5090    -6.7140     1.0270 H     1 <1>   0.0800 
 38 H        1.3320    -6.0430     2.1490 H     1 <1>   0.0800 
 39 H       -0.7550    -5.2760    -1.0630 H     1 <1>   0.0800 
 40 H       -0.1470    -7.2130     0.7780 H     1 <1>   0.0800 
 41 H       -0.8840    -5.1520     1.7660 H     1 <1>   0.4000 
 42 H        1.6380    -6.6140    -1.6050 H     1 <1>   0.0800 
 43 H        0.1710    -7.5330    -1.6400 H     1 <1>   0.0800 
 44 H        3.5930    -7.9330    -1.5810 H     1 <1>   0.1500 
 45 H        1.2790   -11.3190     0.8040 H     1 <1>   0.1500 
 46 H        3.5800   -11.6340     0.1190 H     1 <1>   0.1500 
@<TRIPOS>BOND
  1   1   2  1   
  2   2   3  ar  
  3   2   4  ar  
  4   3   5  ar  
  5   3  27  1   
  6   4   6  ar  
  7   4  28  1   
  8   5   7  ar  
  9   5   8  1   
 10   6   7  ar  
 11   6  29  1   
 12   7   9  1   
 13   8  10  1   
 14   8  30  1   
 15   8  31  1   
 16   9  11  1   
 17  10  12  1   
 18  10  13  1   
 19  10  32  1   
 20  11  14  1   
 21  11  33  1   
 22  11  34  1   
 23  12  15  1   
 24  12  35  1   
 25  12  36  1   
 26  13  16  1   
 27  13  37  1   
 28  13  38  1   
 29  14  17  ar  
 30  14  18  ar  
 31  15  16  1   
 32  15  19  1   
 33  15  39  1   
 34  16  20  1   
 35  16  40  1   
 36  19  41  1   
 37  20  21  1   
 38  20  42  1   
 39  20  43  1   
 40  21  22  ar  
 41  21  23  ar  
 42  22  24  ar  
 43  23  25  ar  
 44  23  44  1   
 45  24  26  ar  
 46  24  45  1   
 47  25  26  ar  
 48  26  46  1   
@<TRIPOS>SUBSTRUCTURE
  1 ****  10 GROUP 4 **** **** 0

# MOE 2024.06 (io_trps.svl 2023.06)
