@<TRIPOS>MOLECULE
NONAME
52 55 1 0 0 
SMALL
USER_CHARGES


@<TRIPOS>ATOM
  1 S       -0.7370    -0.2380    -1.4950 S.3   1 <1>  -0.0800 
  2 C       -1.6760    -0.7570    -0.0860 C.2   1 <1>  -0.0130 
  3 C        0.1450     0.9550    -0.5660 C.2   1 <1>  -0.1100 
  4 C       -2.6620    -1.8040    -0.2210 C.ar  1 <1>   0.6730 
  5 C       -1.2810    -0.0160     0.9830 C.2   1 <1>  -0.1500 
  6 C       -0.2600     0.9430     0.7160 C.2   1 <1>  -0.1500 
  7 N       -2.8200    -2.3920    -1.4110 N.ar  1 <1>  -0.6200 
  8 N       -3.3650    -2.1210     0.8730 N.ar  1 <1>  -0.6200 
  9 C       -3.7170    -3.3390    -1.5020 C.ar  1 <1>   0.1600 
 10 C       -4.2610    -3.0670     0.7580 C.ar  1 <1>   0.1600 
 11 C       -4.4900    -3.7180    -0.4310 C.ar  1 <1>  -0.1430 
 12 C       -5.5380    -4.8020    -0.5630 C.3   1 <1>   0.4870 
 13 N       -6.9000    -4.2020    -0.5540 N.4   1 <1>  -0.9590 
 14 C       -7.9880    -5.2100    -0.5660 C.3   1 <1>   0.3430 
 15 C       -7.1190    -3.1510    -1.5940 C.3   1 <1>   0.3430 
 16 C       -9.3070    -4.5520    -0.1450 C.3   1 <1>  -0.1600 
 17 C       -8.5570    -2.6180    -1.5480 C.3   1 <1>  -0.1600 
 18 C       -9.3250    -3.0130    -0.2700 C.3   1 <1>   0.2800 
 19 O       -8.5540    -2.5290     0.8150 O.3   1 <1>  -0.5600 
 20 C      -10.7950    -2.4890    -0.2390 C.3   1 <1>   0.2000 
 21 C       -9.1220    -1.5960     1.6970 C.3   1 <1>   0.1200 
 22 O      -11.4850    -2.8630    -1.3970 O.3   1 <1>  -0.6800 
 23 C      -10.9250    -0.9620     0.0480 C.3   1 <1>   0.2800 
 24 C       -9.7470    -0.4540     0.8950 C.3   1 <1>  -0.1600 
 25 O      -12.0690    -0.8070     0.8040 O.3   1 <1>  -0.6800 
 26 C      -11.1330    -0.0630    -1.1800 C.3   1 <1>  -0.2400 
 27 H        0.8800     1.5450    -1.0830 H     1 <1>   0.1500 
 28 H       -1.6890    -0.1240     1.9730 H     1 <1>   0.1500 
 29 H        0.1220     1.5790     1.4960 H     1 <1>   0.1500 
 30 H       -3.8290    -3.8150    -2.4630 H     1 <1>   0.1500 
 31 H       -4.8230    -3.3210     1.6430 H     1 <1>   0.1500 
 32 H       -5.4370    -5.4940     0.2580 H     1 <1>   0.0800 
 33 H       -5.3840    -5.3450    -1.4810 H     1 <1>   0.0800 
 34 H       -7.0410    -3.6810     0.3340 H     1 <1>   0.4500 
 35 H       -8.0910    -5.6160    -1.5600 H     1 <1>   0.0800 
 36 H       -7.7650    -6.0190     0.1110 H     1 <1>   0.0800 
 37 H       -6.4420    -2.3300    -1.4130 H     1 <1>   0.0800 
 38 H       -6.9120    -3.5440    -2.5760 H     1 <1>   0.0800 
 39 H       -9.5440    -4.8280     0.8670 H     1 <1>   0.0800 
 40 H      -10.0790    -4.9740    -0.7640 H     1 <1>   0.0800 
 41 H       -9.0820    -2.9970    -2.4070 H     1 <1>   0.0800 
 42 H       -8.5300    -1.5510    -1.6540 H     1 <1>   0.0800 
 43 H      -11.2820    -3.0090     0.5690 H     1 <1>   0.0800 
 44 H       -9.8570    -2.0930     2.3100 H     1 <1>   0.0800 
 45 H       -8.3360    -1.2230     2.3330 H     1 <1>   0.0800 
 46 H      -12.4130    -2.5530    -1.3210 H     1 <1>   0.4000 
 47 H       -8.9810    -0.0410     0.2630 H     1 <1>   0.0800 
 48 H      -10.0670     0.3290     1.5590 H     1 <1>   0.0800 
 49 H      -12.2670     0.1420     0.9170 H     1 <1>   0.4000 
 50 H      -10.3250    -0.1810    -1.8770 H     1 <1>   0.0800 
 51 H      -11.1710     0.9720    -0.8920 H     1 <1>   0.0800 
 52 H      -12.0460    -0.3140    -1.6900 H     1 <1>   0.0800 
@<TRIPOS>BOND
  1   1   2  1   
  2   1   3  1   
  3   2   4  1   
  4   2   5  2   
  5   3   6  2   
  6   3  27  1   
  7   4   7  ar  
  8   4   8  ar  
  9   5   6  1   
 10   5  28  1   
 11   6  29  1   
 12   7   9  ar  
 13   8  10  ar  
 14   9  11  ar  
 15   9  30  1   
 16  10  11  ar  
 17  10  31  1   
 18  11  12  1   
 19  12  13  1   
 20  12  32  1   
 21  12  33  1   
 22  13  14  1   
 23  13  15  1   
 24  13  34  1   
 25  14  16  1   
 26  14  35  1   
 27  14  36  1   
 28  15  17  1   
 29  15  37  1   
 30  15  38  1   
 31  16  18  1   
 32  16  39  1   
 33  16  40  1   
 34  17  18  1   
 35  17  41  1   
 36  17  42  1   
 37  18  19  1   
 38  18  20  1   
 39  19  21  1   
 40  20  22  1   
 41  20  23  1   
 42  20  43  1   
 43  21  24  1   
 44  21  44  1   
 45  21  45  1   
 46  22  46  1   
 47  23  24  1   
 48  23  25  1   
 49  23  26  1   
 50  24  47  1   
 51  24  48  1   
 52  25  49  1   
 53  26  50  1   
 54  26  51  1   
 55  26  52  1   
@<TRIPOS>SUBSTRUCTURE
  1 ****  15 GROUP 4 **** **** 0

# MOE 2024.06 (io_trps.svl 2023.06)
