@<TRIPOS>MOLECULE
NONAME
37 39 1 0 0 
SMALL
USER_CHARGES


@<TRIPOS>ATOM
  1 O        0.1870     1.3090    -0.9510 O.co2 1 <1>  -0.9000 
  2 C        0.8910     1.5080     0.0480 C.2   1 <1>   0.9470 
  3 O        0.4730     2.1880     0.9960 O.co2 1 <1>  -0.9000 
  4 C        2.3710     1.1120     0.0220 C.3   1 <1>  -0.2420 
  5 C        3.1090    -0.1180     0.4940 C.3   1 <1>  -0.2420 
  6 C        3.2400     2.3150     0.3320 C.3   1 <1>   0.2350 
  7 C        2.8210     0.0720    -0.9730 C.3   1 <1>  -0.2000 
  8 C        2.6040    -1.3790     1.1990 C.2   1 <1>   0.9470 
  9 C        4.4410     0.3280     1.0750 C.3   1 <1>   0.2350 
 10 N        4.5760     1.7600     0.6930 N.am  1 <1>  -0.6600 
 11 O        2.5270    -1.3830     2.4360 O.co2 1 <1>  -0.9000 
 12 O        2.4320    -2.4160     0.5440 O.co2 1 <1>  -0.9000 
 13 C        5.7700     2.4050     0.6030 C.2   1 <1>   0.5690 
 14 O        6.8210     1.8490     0.8320 O.2   1 <1>  -0.5700 
 15 C        5.7920     3.8720     0.2000 C.3   1 <1>  -0.0990 
 16 C        7.0960     4.5900     0.5740 C.3   1 <1>  -0.0160 
 17 C        7.0270     6.0570     0.1800 C.ar  1 <1>  -0.1430 
 18 C        7.5620     6.4870    -1.0240 C.ar  1 <1>  -0.1500 
 19 C        6.4210     6.9770     1.0220 C.ar  1 <1>  -0.1500 
 20 C        7.4930     7.8220    -1.3830 C.ar  1 <1>  -0.1500 
 21 C        6.3510     8.3120     0.6650 C.ar  1 <1>  -0.1500 
 22 C        6.8880     8.7360    -0.5390 C.ar  1 <1>  -0.1500 
 23 H        2.8410     2.8520     1.1770 H     1 <1>   0.0800 
 24 H        3.2940     2.9640    -0.5230 H     1 <1>   0.0800 
 25 H        3.6270     0.2930    -1.6460 H     1 <1>   0.1000 
 26 H        2.0700    -0.5590    -1.4190 H     1 <1>   0.1000 
 27 H        5.2500    -0.2610     0.6790 H     1 <1>   0.0800 
 28 H        4.4250     0.2470     2.1490 H     1 <1>   0.0800 
 29 H        5.6440     3.9310    -0.8620 H     1 <1>   0.0800 
 30 H        4.9760     4.3760     0.6830 H     1 <1>   0.0800 
 31 H        7.9260     4.1170     0.0780 H     1 <1>   0.0800 
 32 H        7.2610     4.5060     1.6340 H     1 <1>   0.0800 
 33 H        8.0340     5.7830    -1.6870 H     1 <1>   0.1500 
 34 H        6.0010     6.6550     1.9590 H     1 <1>   0.1500 
 35 H        7.9110     8.1490    -2.3190 H     1 <1>   0.1500 
 36 H        5.8800     9.0210     1.3230 H     1 <1>   0.1500 
 37 H        6.8340     9.7730    -0.8170 H     1 <1>   0.1500 
@<TRIPOS>BOND
  1   1   2  ar  
  2   2   3  ar  
  3   2   4  1   
  4   4   5  1   
  5   4   6  1   
  6   4   7  1   
  7   5   7  1   
  8   5   8  1   
  9   5   9  1   
 10   6  10  1   
 11   6  23  1   
 12   6  24  1   
 13   7  25  1   
 14   7  26  1   
 15   8  11  ar  
 16   8  12  ar  
 17   9  10  1   
 18   9  27  1   
 19   9  28  1   
 20  10  13  am  
 21  13  14  2   
 22  13  15  1   
 23  15  16  1   
 24  15  29  1   
 25  15  30  1   
 26  16  17  1   
 27  16  31  1   
 28  16  32  1   
 29  17  18  ar  
 30  17  19  ar  
 31  18  20  ar  
 32  18  33  1   
 33  19  21  ar  
 34  19  34  1   
 35  20  22  ar  
 36  20  35  1   
 37  21  22  ar  
 38  21  36  1   
 39  22  37  1   
@<TRIPOS>SUBSTRUCTURE
  1 ****  10 GROUP 4 **** **** 0

# MOE 2024.06 (io_trps.svl 2023.06)
