@<TRIPOS>MOLECULE
NONAME
55 58 1 0 0 
SMALL
USER_CHARGES


@<TRIPOS>ATOM
  1 O       -0.6710    -0.9310    -0.8640 O.3   1 <1>  -0.3630 
  2 C       -1.1100    -2.0040    -0.1590 C.ar  1 <1>   0.0830 
  3 C       -1.3440     0.3100    -0.8320 C.3   1 <1>   0.0400 
  4 C       -0.3720    -3.1790    -0.2460 C.ar  1 <1>  -0.1440 
  5 C       -2.2560    -1.9700     0.6330 C.ar  1 <1>  -0.1500 
  6 C       -0.7840    -4.2960     0.4640 C.ar  1 <1>  -0.1500 
  7 C        0.8770    -3.2630    -1.1240 C.3   1 <1>   0.2390 
  8 C       -2.6620    -3.0960     1.3270 C.ar  1 <1>  -0.1500 
  9 C       -1.9300    -4.2700     1.2450 C.ar  1 <1>  -0.1430 
 10 N        2.0180    -3.8290    -0.3750 N.pl3 1 <1>   0.3140 
 11 C       -2.3820    -5.5170     1.9880 C.3   1 <1>   0.4870 
 12 N        2.4060    -5.1050    -0.4540 N.2   1 <1>  -0.7070 
 13 C        2.8230    -3.1910     0.4770 C.2   1 <1>   0.0360 
 14 N       -2.5000    -6.6420     1.0260 N.4   1 <1>  -0.9590 
 15 C        3.4290    -5.1250     0.3410 C.2   1 <1>   0.3660 
 16 N        3.7240    -3.9730     0.9500 N.2   1 <1>  -0.5650 
 17 C       -3.3090    -6.3680    -0.1940 C.3   1 <1>   0.3430 
 18 C       -2.9370    -7.9480     1.5580 C.3   1 <1>   0.3430 
 19 C       -3.7400    -7.7410    -0.7220 C.3   1 <1>   0.2000 
 20 C       -3.2780    -8.7750     0.3160 C.3   1 <1>  -0.0800 
 21 O       -5.1250    -7.7880    -0.8270 O.3   1 <1>  -0.6800 
 22 C       -2.0910    -9.6300    -0.1890 C.3   1 <1>   0.0210 
 23 C       -0.7140    -8.9740    -0.1980 C.2   1 <1>   0.1080 
 24 N       -0.4610    -7.7510    -0.5640 N.2   1 <1>  -0.7070 
 25 C        0.4400    -9.6520     0.1790 C.2   1 <1>  -0.1500 
 26 N        0.8870    -7.6310    -0.4540 N.pl3 1 <1>   0.3000 
 27 C        1.4430    -8.7680     0.0080 C.2   1 <1>  -0.3320 
 28 C        2.9300    -8.9470     0.2510 C.3   1 <1>  -0.0600 
 29 H       -0.8080     0.9990    -1.4610 H     1 <1>   0.0800 
 30 H       -1.3590     0.6760     0.1790 H     1 <1>   0.0800 
 31 H       -2.3430     0.1770    -1.2090 H     1 <1>   0.0800 
 32 H       -2.8440    -1.0760     0.7210 H     1 <1>   0.1500 
 33 H       -0.2030    -5.1980     0.4040 H     1 <1>   0.1500 
 34 H        1.1700    -2.2980    -1.4930 H     1 <1>   0.0800 
 35 H        0.6790    -3.8960    -1.9690 H     1 <1>   0.0800 
 36 H       -3.5540    -3.0420     1.9290 H     1 <1>   0.1500 
 37 H       -3.3330    -5.3330     2.4580 H     1 <1>   0.0800 
 38 H       -1.6610    -5.7600     2.7520 H     1 <1>   0.0800 
 39 H        2.7110    -2.1490     0.7220 H     1 <1>   0.1500 
 40 H       -1.5510    -6.8280     0.6350 H     1 <1>   0.4500 
 41 H        4.0280    -6.0030     0.5250 H     1 <1>   0.1500 
 42 H       -4.1760    -5.7760     0.0450 H     1 <1>   0.0800 
 43 H       -2.7100    -5.8520    -0.9280 H     1 <1>   0.0800 
 44 H       -2.1610    -8.4160     2.1440 H     1 <1>   0.0800 
 45 H       -3.8200    -7.8200     2.1630 H     1 <1>   0.0800 
 46 H       -3.3290    -7.9220    -1.7010 H     1 <1>   0.0800 
 47 H       -4.0790    -9.4560     0.5470 H     1 <1>   0.0800 
 48 H       -5.5770    -7.7520     0.0380 H     1 <1>   0.4000 
 49 H       -2.3030    -9.9790    -1.1850 H     1 <1>   0.0800 
 50 H       -2.0260   -10.5060     0.4320 H     1 <1>   0.0800 
 51 H        0.5030   -10.6710     0.5210 H     1 <1>   0.1500 
 52 H        1.4100    -6.7680    -0.6900 H     1 <1>   0.2700 
 53 H        3.1400    -9.9610     0.5440 H     1 <1>   0.0800 
 54 H        3.2610    -8.2900     1.0350 H     1 <1>   0.0800 
 55 H        3.4830    -8.7300    -0.6460 H     1 <1>   0.0800 
@<TRIPOS>BOND
  1   1   2  1   
  2   1   3  1   
  3   2   4  ar  
  4   2   5  ar  
  5   3  29  1   
  6   3  30  1   
  7   3  31  1   
  8   4   6  ar  
  9   4   7  1   
 10   5   8  ar  
 11   5  32  1   
 12   6   9  ar  
 13   6  33  1   
 14   7  10  1   
 15   7  34  1   
 16   7  35  1   
 17   8   9  ar  
 18   8  36  1   
 19   9  11  1   
 20  10  12  1   
 21  10  13  1   
 22  11  14  1   
 23  11  37  1   
 24  11  38  1   
 25  12  15  2   
 26  13  16  2   
 27  13  39  1   
 28  14  17  1   
 29  14  18  1   
 30  14  40  1   
 31  15  16  1   
 32  15  41  1   
 33  17  19  1   
 34  17  42  1   
 35  17  43  1   
 36  18  20  1   
 37  18  44  1   
 38  18  45  1   
 39  19  20  1   
 40  19  21  1   
 41  19  46  1   
 42  20  22  1   
 43  20  47  1   
 44  21  48  1   
 45  22  23  1   
 46  22  49  1   
 47  22  50  1   
 48  23  24  2   
 49  23  25  1   
 50  24  26  1   
 51  25  27  2   
 52  25  51  1   
 53  26  27  1   
 54  26  52  1   
 55  27  28  1   
 56  28  53  1   
 57  28  54  1   
 58  28  55  1   
@<TRIPOS>SUBSTRUCTURE
  1 ****   6 GROUP 4 **** **** 0

# MOE 2024.06 (io_trps.svl 2023.06)
