@<TRIPOS>MOLECULE
NONAME
51 54 1 0 0 
SMALL
USER_CHARGES


@<TRIPOS>ATOM
  1 F       -2.3110     0.2060     1.2550 F     1 <1>  -0.1900 
  2 C       -1.5860     1.2820     1.0780 C.ar  1 <1>   0.1900 
  3 C       -0.2310     1.1710     0.8160 C.ar  1 <1>   0.1900 
  4 C       -2.2050     2.5200     1.1430 C.ar  1 <1>  -0.1440 
  5 F        0.3320    -0.0080     0.7480 F     1 <1>  -0.1900 
  6 C        0.5450     2.2960     0.6160 C.ar  1 <1>  -0.1500 
  7 C       -1.4230     3.6550     0.9450 C.ar  1 <1>  -0.1500 
  8 C       -3.6900     2.6190     1.4310 C.3   1 <1>   0.4870 
  9 C       -0.0630     3.5420     0.6830 C.ar  1 <1>  -0.1500 
 10 N       -4.4260     2.8100     0.1520 N.4   1 <1>  -0.9590 
 11 C       -5.8400     3.2450     0.4190 C.3   1 <1>   0.3430 
 12 C       -4.3950     1.5700    -0.6840 C.3   1 <1>   0.3430 
 13 C       -6.6200     3.5270    -0.8770 C.3   1 <1>   0.1440 
 14 C       -5.1050     1.8180    -2.0180 C.3   1 <1>  -0.1600 
 15 C       -8.0520     3.8180    -0.5040 C.ar  1 <1>   0.1670 
 16 C       -6.5500     2.3080    -1.8210 C.3   1 <1>  -0.1600 
 17 C       -6.1860     4.8390    -1.5850 C.3   1 <1>  -0.1600 
 18 N       -8.7520     3.1020     0.3360 N.ar  1 <1>  -0.6200 
 19 C       -8.5240     4.9310    -1.1260 C.ar  1 <1>  -0.1430 
 20 C       -7.4820     5.5530    -2.0210 C.3   1 <1>  -0.0170 
 21 C       -9.9980     3.5400     0.5420 C.ar  1 <1>   0.7200 
 22 C       -9.8150     5.3070    -0.8530 C.ar  1 <1>   0.1600 
 23 N      -10.5570     4.6180    -0.0180 N.ar  1 <1>  -0.6200 
 24 N      -10.7740     2.8160     1.4220 N.pl3 1 <1>  -0.8380 
 25 C      -10.5540     1.3650     1.6710 C.3   1 <1>   0.1290 
 26 C      -12.0320     3.3740     1.9920 C.3   1 <1>   0.1290 
 27 H        1.5980     2.1980     0.4140 H     1 <1>   0.1500 
 28 H       -1.8570     4.6410     0.9980 H     1 <1>   0.1500 
 29 H       -3.8630     3.4590     2.0850 H     1 <1>   0.0800 
 30 H       -4.0340     1.7270     1.9310 H     1 <1>   0.0800 
 31 H        0.5330     4.4290     0.5330 H     1 <1>   0.1500 
 32 H       -3.9450     3.5500    -0.3730 H     1 <1>   0.4500 
 33 H       -5.8520     4.1310     1.0310 H     1 <1>   0.0800 
 34 H       -6.3590     2.4680     0.9580 H     1 <1>   0.0800 
 35 H       -4.8870     0.7650    -0.1610 H     1 <1>   0.0800 
 36 H       -3.3760     1.2730    -0.8740 H     1 <1>   0.0800 
 37 H       -5.1210     0.8970    -2.5760 H     1 <1>   0.0800 
 38 H       -4.5410     2.5270    -2.5970 H     1 <1>   0.0800 
 39 H       -6.9950     2.5500    -2.7730 H     1 <1>   0.0800 
 40 H       -7.1320     1.5070    -1.3960 H     1 <1>   0.0800 
 41 H       -5.5370     4.6720    -2.4270 H     1 <1>   0.0800 
 42 H       -5.6780     5.4790    -0.8840 H     1 <1>   0.0800 
 43 H       -7.7140     5.3340    -3.0500 H     1 <1>   0.0800 
 44 H       -7.4190     6.6190    -1.8810 H     1 <1>   0.0800 
 45 H      -10.2440     6.1780    -1.3190 H     1 <1>   0.1500 
 46 H       -9.9030     0.9410     0.9270 H     1 <1>   0.0800 
 47 H      -11.4930     0.8400     1.6340 H     1 <1>   0.0800 
 48 H      -10.1120     1.2300     2.6430 H     1 <1>   0.0800 
 49 H      -11.9490     4.4400     2.1140 H     1 <1>   0.0800 
 50 H      -12.2280     2.9370     2.9560 H     1 <1>   0.0800 
 51 H      -12.8530     3.1610     1.3300 H     1 <1>   0.0800 
@<TRIPOS>BOND
  1   1   2  1   
  2   2   3  ar  
  3   2   4  ar  
  4   3   5  1   
  5   3   6  ar  
  6   4   7  ar  
  7   4   8  1   
  8   6   9  ar  
  9   6  27  1   
 10   7   9  ar  
 11   7  28  1   
 12   8  10  1   
 13   8  29  1   
 14   8  30  1   
 15   9  31  1   
 16  10  11  1   
 17  10  12  1   
 18  10  32  1   
 19  11  13  1   
 20  11  33  1   
 21  11  34  1   
 22  12  14  1   
 23  12  35  1   
 24  12  36  1   
 25  13  15  1   
 26  13  16  1   
 27  13  17  1   
 28  14  16  1   
 29  14  37  1   
 30  14  38  1   
 31  15  18  ar  
 32  15  19  ar  
 33  16  39  1   
 34  16  40  1   
 35  17  20  1   
 36  17  41  1   
 37  17  42  1   
 38  18  21  ar  
 39  19  20  1   
 40  19  22  ar  
 41  20  43  1   
 42  20  44  1   
 43  21  23  ar  
 44  21  24  1   
 45  22  23  ar  
 46  22  45  1   
 47  24  25  1   
 48  24  26  1   
 49  25  46  1   
 50  25  47  1   
 51  25  48  1   
 52  26  49  1   
 53  26  50  1   
 54  26  51  1   
@<TRIPOS>SUBSTRUCTURE
  1 ****  11 GROUP 4 **** **** 0

# MOE 2024.06 (io_trps.svl 2023.06)
