@<TRIPOS>MOLECULE
NONAME
53 56 1 0 0 
SMALL
USER_CHARGES


@<TRIPOS>ATOM
  1 O       -0.0010     1.2080     1.8960 O.2   1 <1>  -0.5700 
  2 C       -0.1490     1.6970     0.7930 C.2   1 <1>   0.5440 
  3 N       -1.3990     1.6620     0.2470 N.am  1 <1>  -0.7300 
  4 C        0.9720     2.2640     0.0630 C.ar  1 <1>   0.0860 
  5 C       -2.6330     1.1990     0.9330 C.3   1 <1>   0.2200 
  6 C        2.2750     1.8180     0.2930 C.ar  1 <1>  -0.1500 
  7 C        0.8000     3.2690    -0.8920 C.ar  1 <1>  -0.1500 
  8 C       -2.7400    -0.3430     0.9400 C.3   1 <1>   0.2000 
  9 C       -3.8370     1.8420     0.2390 C.3   1 <1>  -0.1600 
 10 C        3.3510     2.3370    -0.4030 C.ar  1 <1>  -0.1500 
 11 C        1.8730     3.7920    -1.5920 C.ar  1 <1>  -0.1500 
 12 O       -1.7370    -0.8820     1.7340 O.3   1 <1>  -0.6800 
 13 C       -4.0910    -0.8180     1.4890 C.3   1 <1>   0.1400 
 14 C       -5.1500     1.3600     0.8570 C.3   1 <1>   0.1400 
 15 C        3.1510     3.3250    -1.3500 C.ar  1 <1>  -0.1500 
 16 N       -5.2150    -0.1260     0.7800 N.am  1 <1>  -0.6600 
 17 C       -6.2260    -0.7590     0.0970 C.2   1 <1>   0.5690 
 18 O       -7.0650    -0.1320    -0.5080 O.2   1 <1>  -0.5700 
 19 C       -6.3140    -2.2780     0.0840 C.3   1 <1>  -0.0990 
 20 C       -7.5600    -2.8160    -0.6400 C.3   1 <1>   0.0200 
 21 C       -7.6380    -4.3350    -0.6280 C.2   1 <1>   0.0060 
 22 N       -6.7830    -5.1220    -0.0700 N.2   1 <1>  -0.5650 
 23 N       -8.6630    -4.9890    -1.2330 N.pl3 1 <1>   0.0330 
 24 C       -7.2600    -6.3750    -0.3140 C.ar  1 <1>   0.2270 
 25 C       -8.4350    -6.3110    -1.0400 C.ar  1 <1>  -0.1520 
 26 C       -6.7400    -7.6130     0.0570 C.ar  1 <1>  -0.1500 
 27 C       -9.1200    -7.4690    -1.4150 C.ar  1 <1>  -0.1500 
 28 C       -7.4080    -8.7620    -0.3090 C.ar  1 <1>  -0.1500 
 29 C       -8.5980    -8.6880    -1.0450 C.ar  1 <1>  -0.1500 
 30 H       -1.5080     1.8820    -0.7440 H     1 <1>   0.3700 
 31 H       -2.6130     1.5380     1.9570 H     1 <1>   0.0800 
 32 H        2.4410     1.0510     1.0310 H     1 <1>   0.1500 
 33 H       -0.1840     3.6570    -1.0860 H     1 <1>   0.1500 
 34 H       -2.6080    -0.7230    -0.0580 H     1 <1>   0.0800 
 35 H       -3.7800     2.9110     0.3380 H     1 <1>   0.0800 
 36 H       -3.8430     1.5940    -0.8080 H     1 <1>   0.0800 
 37 H        4.3460     1.9730    -0.2070 H     1 <1>   0.1500 
 38 H        1.7160     4.5660    -2.3240 H     1 <1>   0.1500 
 39 H       -0.9970    -0.2220     1.8130 H     1 <1>   0.4000 
 40 H       -4.1500    -0.5840     2.5370 H     1 <1>   0.0800 
 41 H       -4.1510    -1.8850     1.3770 H     1 <1>   0.0800 
 42 H       -5.9800     1.8080     0.3360 H     1 <1>   0.0800 
 43 H       -5.2090     1.6610     1.8890 H     1 <1>   0.0800 
 44 H        3.9880     3.7300    -1.8930 H     1 <1>   0.1500 
 45 H       -5.4380    -2.6690    -0.3990 H     1 <1>   0.0800 
 46 H       -6.3300    -2.6300     1.0990 H     1 <1>   0.0800 
 47 H       -7.5470    -2.4770    -1.6610 H     1 <1>   0.0800 
 48 H       -8.4400    -2.4190    -0.1660 H     1 <1>   0.0800 
 49 H       -9.4510    -4.5740    -1.7350 H     1 <1>   0.2700 
 50 H       -5.8260    -7.6380     0.6210 H     1 <1>   0.1500 
 51 H      -10.0330    -7.4020    -1.9800 H     1 <1>   0.1500 
 52 H       -7.0200    -9.7270    -0.0310 H     1 <1>   0.1500 
 53 H       -9.1010    -9.6000    -1.3180 H     1 <1>   0.1500 
@<TRIPOS>BOND
  1   1   2  2   
  2   2   3  am  
  3   2   4  1   
  4   3   5  1   
  5   3  30  1   
  6   4   6  ar  
  7   4   7  ar  
  8   5   8  1   
  9   5   9  1   
 10   5  31  1   
 11   6  10  ar  
 12   6  32  1   
 13   7  11  ar  
 14   7  33  1   
 15   8  12  1   
 16   8  13  1   
 17   8  34  1   
 18   9  14  1   
 19   9  35  1   
 20   9  36  1   
 21  10  15  ar  
 22  10  37  1   
 23  11  15  ar  
 24  11  38  1   
 25  12  39  1   
 26  13  16  1   
 27  13  40  1   
 28  13  41  1   
 29  14  16  1   
 30  14  42  1   
 31  14  43  1   
 32  15  44  1   
 33  16  17  am  
 34  17  18  2   
 35  17  19  1   
 36  19  20  1   
 37  19  45  1   
 38  19  46  1   
 39  20  21  1   
 40  20  47  1   
 41  20  48  1   
 42  21  22  2   
 43  21  23  1   
 44  22  24  1   
 45  23  25  1   
 46  23  49  1   
 47  24  25  ar  
 48  24  26  ar  
 49  25  27  ar  
 50  26  28  ar  
 51  26  50  1   
 52  27  29  ar  
 53  27  51  1   
 54  28  29  ar  
 55  28  52  1   
 56  29  53  1   
@<TRIPOS>SUBSTRUCTURE
  1 ****  13 GROUP 4 **** **** 0

# MOE 2024.06 (io_trps.svl 2023.06)
