@<TRIPOS>MOLECULE
NONAME
48 50 1 0 0 
SMALL
USER_CHARGES


@<TRIPOS>ATOM
  1 F       -1.7570    -1.1160    -2.2990 F     1 <1>  -0.1900 
  2 C       -2.2640    -1.2520    -1.0990 C.ar  1 <1>   0.1900 
  3 C       -2.6470    -2.5110    -0.6500 C.ar  1 <1>   0.0830 
  4 C       -2.3990    -0.1170    -0.3240 C.ar  1 <1>  -0.1500 
  5 O       -2.5250    -3.6020    -1.4400 O.3   1 <1>  -0.3630 
  6 C       -3.1920    -2.6400     0.6300 C.ar  1 <1>   0.0860 
  7 C       -2.9400    -0.2420     0.9450 C.ar  1 <1>  -0.1500 
  8 C       -1.2450    -4.1900    -1.5050 C.3   1 <1>   0.0400 
  9 C       -3.6070    -3.9260     1.1380 C.2   1 <1>   0.5440 
 10 C       -3.3300    -1.4870     1.4080 C.ar  1 <1>  -0.1500 
 11 O       -2.7750    -4.7000     1.5780 O.2   1 <1>  -0.5700 
 12 N       -4.9300    -4.3110     1.1300 N.am  1 <1>  -0.6600 
 13 C       -5.3400    -5.6450     1.6550 C.3   1 <1>   0.1400 
 14 C       -5.9280    -3.7320     0.1860 C.3   1 <1>   0.1400 
 15 C       -5.4160    -6.6260     0.4620 C.3   1 <1>   0.4230 
 16 C       -6.0800    -4.6910    -1.0050 C.3   1 <1>  -0.1600 
 17 N       -5.6870    -8.0540     0.8450 N.4   1 <1>  -0.9590 
 18 C       -6.4690    -6.1310    -0.5560 C.3   1 <1>  -0.1060 
 19 C       -5.6210    -8.9630    -0.3280 C.3   1 <1>   0.3430 
 20 C       -4.8980    -8.5570     2.0010 C.3   1 <1>   0.2630 
 21 C       -7.8520    -6.1360     0.1250 C.2   1 <1>   0.9060 
 22 C       -6.4640    -7.0570    -1.7960 C.3   1 <1>  -0.1600 
 23 C       -6.6280    -8.5320    -1.3980 C.3   1 <1>  -0.1600 
 24 O       -8.0950    -6.9970     0.9870 O.co2 1 <1>  -0.9000 
 25 O       -8.6850    -5.2850    -0.1830 O.co2 1 <1>  -0.9000 
 26 H       -2.0890     0.8400    -0.7060 H     1 <1>   0.1500 
 27 H       -3.0560     0.6290     1.5680 H     1 <1>   0.1500 
 28 H       -1.3000    -5.0460    -2.1510 H     1 <1>   0.0800 
 29 H       -0.9510    -4.4920    -0.5140 H     1 <1>   0.0800 
 30 H       -0.5480    -3.4730    -1.9020 H     1 <1>   0.0800 
 31 H       -3.7500    -1.5810     2.3950 H     1 <1>   0.1500 
 32 H       -4.6190    -5.9790     2.3780 H     1 <1>   0.0800 
 33 H       -6.2930    -5.5560     2.1460 H     1 <1>   0.0800 
 34 H       -6.8740    -3.6130     0.6910 H     1 <1>   0.0800 
 35 H       -5.6190    -2.7630    -0.1630 H     1 <1>   0.0800 
 36 H       -4.4530    -6.5930    -0.0170 H     1 <1>   0.0800 
 37 H       -6.8370    -4.3020    -1.6640 H     1 <1>   0.0800 
 38 H       -5.1540    -4.7030    -1.5530 H     1 <1>   0.0800 
 39 H       -6.7070    -7.9930     1.1140 H     1 <1>   0.4500 
 40 H       -4.6260    -8.9430    -0.7420 H     1 <1>   0.0800 
 41 H       -5.8450    -9.9710    -0.0200 H     1 <1>   0.0800 
 42 H       -3.8440    -8.5030     1.7850 H     1 <1>   0.0800 
 43 H       -5.1630    -9.5790     2.2120 H     1 <1>   0.0800 
 44 H       -5.1070    -7.9650     2.8770 H     1 <1>   0.0800 
 45 H       -7.2670    -6.7720    -2.4560 H     1 <1>   0.0800 
 46 H       -5.5390    -6.9390    -2.3340 H     1 <1>   0.0800 
 47 H       -6.5050    -9.1520    -2.2680 H     1 <1>   0.0800 
 48 H       -7.6250    -8.7000    -1.0270 H     1 <1>   0.0800 
@<TRIPOS>BOND
  1   1   2  1   
  2   2   3  ar  
  3   2   4  ar  
  4   3   5  1   
  5   3   6  ar  
  6   4   7  ar  
  7   4  26  1   
  8   5   8  1   
  9   6   9  1   
 10   6  10  ar  
 11   7  10  ar  
 12   7  27  1   
 13   8  28  1   
 14   8  29  1   
 15   8  30  1   
 16   9  11  2   
 17   9  12  am  
 18  10  31  1   
 19  12  13  1   
 20  12  14  1   
 21  13  15  1   
 22  13  32  1   
 23  13  33  1   
 24  14  16  1   
 25  14  34  1   
 26  14  35  1   
 27  15  17  1   
 28  15  18  1   
 29  15  36  1   
 30  16  18  1   
 31  16  37  1   
 32  16  38  1   
 33  17  19  1   
 34  17  20  1   
 35  17  39  1   
 36  18  21  1   
 37  18  22  1   
 38  19  23  1   
 39  19  40  1   
 40  19  41  1   
 41  20  42  1   
 42  20  43  1   
 43  20  44  1   
 44  21  24  ar  
 45  21  25  ar  
 46  22  23  1   
 47  22  45  1   
 48  22  46  1   
 49  23  47  1   
 50  23  48  1   
@<TRIPOS>SUBSTRUCTURE
  1 ****  12 GROUP 4 **** **** 0

# MOE 2024.06 (io_trps.svl 2023.06)
