@<TRIPOS>MOLECULE
NONAME
41 42 1 0 0 
SMALL
USER_CHARGES


@<TRIPOS>ATOM
  1 S        0.8980    -0.9640     2.2630 S.3   1 <1>  -0.0800 
  2 C        0.2340    -2.3950     1.5100 C.2   1 <1>  -0.1100 
  3 C        0.6020    -0.0210     0.8190 C.2   1 <1>  -0.1100 
  4 C       -0.1970    -2.1530     0.2460 C.2   1 <1>  -0.0860 
  5 C        0.0340    -0.7810    -0.1330 C.2   1 <1>  -0.1500 
  6 C       -0.8140    -3.1050    -0.6540 C.2   1 <1>   0.7160 
  7 O       -1.0730    -2.8170    -1.8050 O.2   1 <1>  -0.5700 
  8 N       -1.2370    -4.3270    -0.2150 N.am  1 <1>  -0.6600 
  9 C       -0.7600    -5.5540    -0.9330 C.3   1 <1>   0.3210 
 10 C       -2.3640    -4.4300     0.7690 C.3   1 <1>   0.1400 
 11 C       -1.8050    -6.6630    -1.0500 C.2   1 <1>   0.0460 
 12 C       -3.7530    -4.4400     0.0870 C.3   1 <1>   0.3430 
 13 N       -2.8160    -6.5820    -1.9420 N.2   1 <1>  -0.5650 
 14 C       -1.8680    -7.8290    -0.3610 C.2   1 <1>  -0.3320 
 15 N       -3.8190    -3.5150    -1.0920 N.4   1 <1>  -0.9590 
 16 C       -3.4480    -7.7020    -1.8010 C.2   1 <1>   0.0360 
 17 N       -2.9250    -8.5030    -0.8520 N.pl3 1 <1>   0.0330 
 18 C       -0.9830    -8.4010     0.7340 C.3   1 <1>  -0.0600 
 19 C       -4.0230    -2.0850    -0.7230 C.3   1 <1>   0.2630 
 20 C       -4.8160    -3.9820    -2.0970 C.3   1 <1>   0.2630 
 21 H        0.2330    -3.2960     2.0970 H     1 <1>   0.1500 
 22 H        0.8940     1.0150     0.8370 H     1 <1>   0.1500 
 23 H       -0.2360    -0.4330    -1.1170 H     1 <1>   0.1500 
 24 H        0.0980    -5.9380    -0.4120 H     1 <1>   0.0800 
 25 H       -0.4360    -5.2920    -1.9270 H     1 <1>   0.0800 
 26 H       -2.3240    -3.5930     1.4440 H     1 <1>   0.0800 
 27 H       -2.2490    -5.3230     1.3600 H     1 <1>   0.0800 
 28 H       -4.5160    -4.1890     0.8030 H     1 <1>   0.0800 
 29 H       -3.9480    -5.4460    -0.2440 H     1 <1>   0.0800 
 30 H       -2.8830    -3.5960    -1.5510 H     1 <1>   0.4500 
 31 H       -4.3090    -7.9940    -2.3780 H     1 <1>   0.1500 
 32 H       -3.2510    -9.4380    -0.5850 H     1 <1>   0.2700 
 33 H       -0.2140    -7.7050     1.0140 H     1 <1>   0.0800 
 34 H       -0.5110    -9.3060     0.3920 H     1 <1>   0.0800 
 35 H       -1.5690    -8.6280     1.6080 H     1 <1>   0.0800 
 36 H       -4.9820    -1.9500    -0.2500 H     1 <1>   0.0800 
 37 H       -3.9800    -1.4670    -1.6050 H     1 <1>   0.0800 
 38 H       -3.2500    -1.7600    -0.0460 H     1 <1>   0.0800 
 39 H       -5.8100    -3.9550    -1.6830 H     1 <1>   0.0800 
 40 H       -4.5920    -4.9930    -2.3980 H     1 <1>   0.0800 
 41 H       -4.7830    -3.3540    -2.9720 H     1 <1>   0.0800 
@<TRIPOS>BOND
  1   1   2  1   
  2   1   3  1   
  3   2   4  2   
  4   2  21  1   
  5   3   5  2   
  6   3  22  1   
  7   4   5  1   
  8   4   6  1   
  9   5  23  1   
 10   6   7  2   
 11   6   8  am  
 12   8   9  1   
 13   8  10  1   
 14   9  11  1   
 15   9  24  1   
 16   9  25  1   
 17  10  12  1   
 18  10  26  1   
 19  10  27  1   
 20  11  13  1   
 21  11  14  2   
 22  12  15  1   
 23  12  28  1   
 24  12  29  1   
 25  13  16  2   
 26  14  17  1   
 27  14  18  1   
 28  15  19  1   
 29  15  20  1   
 30  15  30  1   
 31  16  17  1   
 32  16  31  1   
 33  17  32  1   
 34  18  33  1   
 35  18  34  1   
 36  18  35  1   
 37  19  36  1   
 38  19  37  1   
 39  19  38  1   
 40  20  39  1   
 41  20  40  1   
 42  20  41  1   
@<TRIPOS>SUBSTRUCTURE
  1 ****   8 GROUP 4 **** **** 0

# MOE 2024.06 (io_trps.svl 2023.06)
