@<TRIPOS>MOLECULE
NONAME
44 46 1 0 0 
SMALL
USER_CHARGES


@<TRIPOS>ATOM
  1 S        1.2720     0.3290    -1.0400 S.3   1 <1>  -0.0800 
  2 C        2.4530     1.5550    -0.5710 C.2   1 <1>  -0.0450 
  3 C        2.4130    -0.9800    -0.8090 C.2   1 <1>  -0.1400 
  4 C        2.0310     2.9360    -0.5790 C.2   1 <1>   0.7150 
  5 C        3.6240     0.9300    -0.2810 C.2   1 <1>  -0.1500 
  6 C        3.6010    -0.4890    -0.4100 C.2   1 <1>  -0.1500 
  7 C        1.9010    -2.3820    -1.0860 C.3   1 <1>   0.0200 
  8 O        1.4320     3.3610    -1.5510 O.2   1 <1>  -0.5700 
  9 N        2.2790     3.8050     0.4720 N.am  1 <1>  -0.6600 
 10 C        2.9760    -3.4470    -0.8530 C.3   1 <1>  -0.2400 
 11 C        2.8130     3.3630     1.8040 C.3   1 <1>   0.1400 
 12 C        1.9490     5.2540     0.3480 C.3   1 <1>   0.1400 
 13 C        3.8540     4.3180     2.4170 C.3   1 <1>   0.1400 
 14 C        3.1630     6.0290    -0.1800 C.3   1 <1>  -0.1600 
 15 N        4.7560     4.9150     1.3870 N.am  1 <1>  -0.6600 
 16 C        4.2860     6.2200     0.8460 C.3   1 <1>   0.1400 
 17 C        5.8270     4.1950     0.8810 C.2   1 <1>   0.5440 
 18 O        5.9880     3.0580     1.2960 O.2   1 <1>  -0.5700 
 19 C        6.7350     4.6930    -0.1500 C.ar  1 <1>   0.3960 
 20 N        7.3540     5.8810    -0.0310 N.ar  1 <1>  -0.6200 
 21 C        6.9510     3.8750    -1.2650 C.ar  1 <1>   0.1600 
 22 C        8.1470     6.1600    -1.0480 C.ar  1 <1>   0.1600 
 23 N        7.7400     4.1570    -2.2900 N.ar  1 <1>  -0.6200 
 24 C        8.3340     5.3270    -2.1440 C.ar  1 <1>   0.1600 
 25 H        4.5250     1.4310     0.0230 H     1 <1>   0.1500 
 26 H        4.4800    -1.0720    -0.1980 H     1 <1>   0.1500 
 27 H        1.5620    -2.4340    -2.1060 H     1 <1>   0.0800 
 28 H        1.0590    -2.5790    -0.4450 H     1 <1>   0.0800 
 29 H        3.8170    -3.2740    -1.5020 H     1 <1>   0.0800 
 30 H        2.5770    -4.4240    -1.0590 H     1 <1>   0.0800 
 31 H        3.3110    -3.4200     0.1690 H     1 <1>   0.0800 
 32 H        3.2720     2.3970     1.7250 H     1 <1>   0.0800 
 33 H        1.9910     3.2590     2.4900 H     1 <1>   0.0800 
 34 H        1.6340     5.6450     1.3000 H     1 <1>   0.0800 
 35 H        1.1260     5.3820    -0.3360 H     1 <1>   0.0800 
 36 H        4.4420     3.7780     3.1400 H     1 <1>   0.0800 
 37 H        3.3470     5.1020     2.9510 H     1 <1>   0.0800 
 38 H        2.8280     7.0040    -0.4830 H     1 <1>   0.0800 
 39 H        3.5460     5.5410    -1.0590 H     1 <1>   0.0800 
 40 H        3.9320     6.8300     1.6590 H     1 <1>   0.0800 
 41 H        5.0940     6.7570     0.3860 H     1 <1>   0.0800 
 42 H        6.4330     2.9320    -1.2960 H     1 <1>   0.1500 
 43 H        8.6790     7.0950    -1.0170 H     1 <1>   0.1500 
 44 H        9.0010     5.6420    -2.9270 H     1 <1>   0.1500 
@<TRIPOS>BOND
  1   1   2  1   
  2   1   3  1   
  3   2   4  1   
  4   2   5  2   
  5   3   6  2   
  6   3   7  1   
  7   4   8  2   
  8   4   9  am  
  9   5   6  1   
 10   5  25  1   
 11   6  26  1   
 12   7  10  1   
 13   7  27  1   
 14   7  28  1   
 15   9  11  1   
 16   9  12  1   
 17  10  29  1   
 18  10  30  1   
 19  10  31  1   
 20  11  13  1   
 21  11  32  1   
 22  11  33  1   
 23  12  14  1   
 24  12  34  1   
 25  12  35  1   
 26  13  15  1   
 27  13  36  1   
 28  13  37  1   
 29  14  16  1   
 30  14  38  1   
 31  14  39  1   
 32  15  16  1   
 33  15  17  am  
 34  16  40  1   
 35  16  41  1   
 36  17  18  2   
 37  17  19  1   
 38  19  20  ar  
 39  19  21  ar  
 40  20  22  ar  
 41  21  23  ar  
 42  21  42  1   
 43  22  24  ar  
 44  22  43  1   
 45  23  24  ar  
 46  24  44  1   
@<TRIPOS>SUBSTRUCTURE
  1 ****   5 GROUP 4 **** **** 0

# MOE 2024.06 (io_trps.svl 2023.06)
