@<TRIPOS>MOLECULE
NONAME
39 40 1 0 0 
SMALL
USER_CHARGES


@<TRIPOS>ATOM
  1 CL       0.1560    -1.0720     2.7250 Cl    1 <1>  -0.1770 
  2 C       -0.2510    -2.5090     1.8200 C.ar  1 <1>   0.1770 
  3 C       -0.9410    -3.5290     2.4450 C.ar  1 <1>  -0.1500 
  4 C        0.1230    -2.6040     0.4910 C.ar  1 <1>  -0.1500 
  5 C       -1.2460    -4.6490     1.6980 C.ar  1 <1>   0.1900 
  6 C       -0.1970    -3.7410    -0.2360 C.ar  1 <1>  -0.1500 
  7 F       -1.9010    -5.6190     2.2890 F     1 <1>  -0.1900 
  8 C       -0.8940    -4.7940     0.3540 C.ar  1 <1>   0.1170 
  9 N       -1.2380    -5.9690    -0.3420 N.am  1 <1>  -0.5470 
 10 C       -1.2820    -6.2910    -1.6680 C.2   1 <1>   0.5690 
 11 O       -0.9780    -5.5380    -2.5600 O.2   1 <1>  -0.5700 
 12 C       -1.7610    -7.7040    -2.0110 C.3   1 <1>   0.1710 
 13 N       -2.5600    -8.3500    -0.9240 N.3   1 <1>  -0.8100 
 14 C       -2.6180    -9.8130    -1.1170 C.3   1 <1>   0.1100 
 15 C       -3.9160    -7.7790    -0.8490 C.3   1 <1>   0.1100 
 16 C       -3.3510   -10.4900     0.0530 C.3   1 <1>   0.2000 
 17 C       -4.6590    -8.3630     0.3570 C.3   1 <1>  -0.1600 
 18 O       -3.4580   -11.8480    -0.2040 O.3   1 <1>  -0.6800 
 19 C       -4.7560    -9.9010     0.2730 C.3   1 <1>  -0.0800 
 20 C       -5.4070   -10.5170     1.5230 C.3   1 <1>   0.1200 
 21 O       -6.6830   -10.0030     1.6910 O.3   1 <1>  -0.6800 
 22 H       -1.2280    -3.4520     3.4770 H     1 <1>   0.1500 
 23 H        0.6590    -1.7940     0.0300 H     1 <1>   0.1500 
 24 H        0.1040    -3.8030    -1.2670 H     1 <1>   0.1500 
 25 H       -1.6200    -6.7300     0.2350 H     1 <1>   0.3700 
 26 H       -0.8800    -8.2910    -2.2020 H     1 <1>   0.0800 
 27 H       -2.3350    -7.6670    -2.9200 H     1 <1>   0.0800 
 28 H       -3.1230   -10.0350    -2.0410 H     1 <1>   0.0800 
 29 H       -1.6160   -10.2070    -1.1620 H     1 <1>   0.0800 
 30 H       -3.8620    -6.7080    -0.7400 H     1 <1>   0.0800 
 31 H       -4.4590    -7.9950    -1.7550 H     1 <1>   0.0800 
 32 H       -2.7570   -10.3770     0.9440 H     1 <1>   0.0800 
 33 H       -4.1430    -8.0720     1.2560 H     1 <1>   0.0800 
 34 H       -5.6440    -7.9340     0.3860 H     1 <1>   0.0800 
 35 H       -4.0800   -12.0090    -0.9380 H     1 <1>   0.4000 
 36 H       -5.3610   -10.1510    -0.5820 H     1 <1>   0.0800 
 37 H       -4.8340   -10.3010     2.4090 H     1 <1>   0.0800 
 38 H       -5.4980   -11.5850     1.4180 H     1 <1>   0.0800 
 39 H       -6.6410    -9.0500     1.8960 H     1 <1>   0.4000 
@<TRIPOS>BOND
  1   1   2  1   
  2   2   3  ar  
  3   2   4  ar  
  4   3   5  ar  
  5   3  22  1   
  6   4   6  ar  
  7   4  23  1   
  8   5   7  1   
  9   5   8  ar  
 10   6   8  ar  
 11   6  24  1   
 12   8   9  1   
 13   9  10  am  
 14   9  25  1   
 15  10  11  2   
 16  10  12  1   
 17  12  13  1   
 18  12  26  1   
 19  12  27  1   
 20  13  14  1   
 21  13  15  1   
 22  14  16  1   
 23  14  28  1   
 24  14  29  1   
 25  15  17  1   
 26  15  30  1   
 27  15  31  1   
 28  16  18  1   
 29  16  19  1   
 30  16  32  1   
 31  17  19  1   
 32  17  33  1   
 33  17  34  1   
 34  18  35  1   
 35  19  20  1   
 36  19  36  1   
 37  20  21  1   
 38  20  37  1   
 39  20  38  1   
 40  21  39  1   
@<TRIPOS>SUBSTRUCTURE
  1 ****   9 GROUP 4 **** **** 0

# MOE 2024.06 (io_trps.svl 2023.06)
