@<TRIPOS>MOLECULE
NONAME
45 48 1 0 0 
SMALL
USER_CHARGES


@<TRIPOS>ATOM
  1 O        1.8120     3.8660    -1.2510 O.3   1 <1>  -0.0190 
  2 N        3.0810     3.6820    -1.4470 N.2   1 <1>  -0.4100 
  3 C        1.3090     2.9680    -0.4490 C.2   1 <1>  -0.0400 
  4 C        3.3880     2.5980    -0.8270 C.2   1 <1>   0.1080 
  5 C        2.2800     2.0910    -0.1530 C.2   1 <1>  -0.1500 
  6 C       -0.1340     3.0750     0.0150 C.3   1 <1>   0.0200 
  7 C        4.7660     1.9710    -0.8290 C.3   1 <1>  -0.0590 
  8 C       -0.4220     4.3690     0.8180 C.3   1 <1>  -0.0800 
  9 C       -0.6520     5.5920    -0.0860 C.3   1 <1>   0.2000 
 10 C        0.7490     4.7880     1.7160 C.3   1 <1>   0.3430 
 11 O       -1.7720     6.2800     0.3600 O.3   1 <1>  -0.6800 
 12 C        0.5930     6.4830     0.0450 C.3   1 <1>   0.3430 
 13 N        1.5630     5.7070     0.8820 N.4   1 <1>  -0.9590 
 14 C        2.5790     6.5190     1.6100 C.3   1 <1>   0.4860 
 15 C        2.9940     7.7260     0.7880 C.ar  1 <1>  -0.1440 
 16 C        3.6370     7.6150    -0.4580 C.ar  1 <1>  -0.1520 
 17 C        2.7220     8.9870     1.2790 C.ar  1 <1>  -0.1500 
 18 N        4.0440     6.5300    -1.2100 N.pl3 1 <1>   0.0330 
 19 C        3.9750     8.7630    -1.1720 C.ar  1 <1>   0.0000 
 20 C        3.0660    10.1350     0.5600 C.ar  1 <1>  -0.1500 
 21 C        4.6110     6.9910    -2.3620 C.2   1 <1>  -0.3020 
 22 C        3.6880    10.0290    -0.6590 C.ar  1 <1>  -0.1500 
 23 C        4.5870     8.3420    -2.3690 C.2   1 <1>  -0.1500 
 24 H        2.2590     1.2070     0.4610 H     1 <1>   0.1500 
 25 H       -0.7930     3.0050    -0.8340 H     1 <1>   0.0800 
 26 H       -0.3410     2.2260     0.6430 H     1 <1>   0.0800 
 27 H        4.7010     0.9490    -1.1570 H     1 <1>   0.0800 
 28 H        5.1860     1.9960     0.1600 H     1 <1>   0.0800 
 29 H        5.4160     2.5050    -1.4990 H     1 <1>   0.0800 
 30 H       -1.2940     4.1800     1.4210 H     1 <1>   0.0800 
 31 H       -0.8260     5.3240    -1.1150 H     1 <1>   0.0800 
 32 H        1.3220     3.9370     2.0480 H     1 <1>   0.0800 
 33 H        0.3690     5.3190     2.5750 H     1 <1>   0.0800 
 34 H       -1.7400     6.5100     1.3090 H     1 <1>   0.4000 
 35 H        0.3310     7.4100     0.5280 H     1 <1>   0.0800 
 36 H        1.0180     6.6950    -0.9230 H     1 <1>   0.0800 
 37 H        2.0810     5.1200     0.2070 H     1 <1>   0.4500 
 38 H        2.1630     6.8640     2.5420 H     1 <1>   0.0800 
 39 H        3.4450     5.9170     1.8320 H     1 <1>   0.0800 
 40 H        2.2370     9.1240     2.2310 H     1 <1>   0.1500 
 41 H        3.9310     5.5300    -1.0010 H     1 <1>   0.2700 
 42 H        2.8420    11.1050     0.9700 H     1 <1>   0.1500 
 43 H        4.9990     6.3230    -3.1120 H     1 <1>   0.1500 
 44 H        3.9610    10.9000    -1.2280 H     1 <1>   0.1500 
 45 H        4.9560     9.0100    -3.1280 H     1 <1>   0.1500 
@<TRIPOS>BOND
  1   1   2  1   
  2   1   3  1   
  3   2   4  2   
  4   3   5  2   
  5   3   6  1   
  6   4   5  1   
  7   4   7  1   
  8   5  24  1   
  9   6   8  1   
 10   6  25  1   
 11   6  26  1   
 12   7  27  1   
 13   7  28  1   
 14   7  29  1   
 15   8   9  1   
 16   8  10  1   
 17   8  30  1   
 18   9  11  1   
 19   9  12  1   
 20   9  31  1   
 21  10  13  1   
 22  10  32  1   
 23  10  33  1   
 24  11  34  1   
 25  12  13  1   
 26  12  35  1   
 27  12  36  1   
 28  13  14  1   
 29  13  37  1   
 30  14  15  1   
 31  14  38  1   
 32  14  39  1   
 33  15  16  ar  
 34  15  17  ar  
 35  16  18  1   
 36  16  19  ar  
 37  17  20  ar  
 38  17  40  1   
 39  18  21  1   
 40  18  41  1   
 41  19  22  ar  
 42  19  23  1   
 43  20  22  ar  
 44  20  42  1   
 45  21  23  2   
 46  21  43  1   
 47  22  44  1   
 48  23  45  1   
@<TRIPOS>SUBSTRUCTURE
  1 ****  13 GROUP 4 **** **** 0

# MOE 2024.06 (io_trps.svl 2023.06)
