@<TRIPOS>MOLECULE
NONAME
57 60 1 0 0 
SMALL
USER_CHARGES


@<TRIPOS>ATOM
  1 O       -0.3700     0.0910    -0.9700 O.2   1 <1>  -0.5700 
  2 C       -1.3660     0.7780    -0.8320 C.2   1 <1>   0.5440 
  3 N       -1.2990     2.1300    -1.1100 N.am  1 <1>  -0.6600 
  4 C       -2.5980     0.1580    -0.3860 C.ar  1 <1>   0.0860 
  5 C       -2.4780     3.0400    -1.0500 C.3   1 <1>   0.1400 
  6 C       -0.0180     2.7910    -1.4800 C.3   1 <1>   0.1400 
  7 C       -2.9310     0.0500     0.9690 C.ar  1 <1>  -0.1440 
  8 C       -3.5000    -0.3400    -1.3260 C.ar  1 <1>  -0.1500 
  9 C       -2.1980     4.1880    -0.0770 C.3   1 <1>  -0.1600 
 10 C        0.2730     3.9300    -0.4990 C.3   1 <1>  -0.1600 
 11 C       -4.1350    -0.5220     1.3490 C.ar  1 <1>  -0.1500 
 12 C       -1.9700     0.5560     2.0370 C.3   1 <1>  -0.0970 
 13 C       -4.6980    -0.9110    -0.9440 C.ar  1 <1>  -0.1500 
 14 C       -0.8940     4.9320    -0.4280 C.3   1 <1>  -0.0190 
 15 C       -5.0180    -1.0000     0.3980 C.ar  1 <1>  -0.1500 
 16 C       -0.5790     6.0630     0.5580 C.2   1 <1>   0.5690 
 17 O       -0.8660     5.9150     1.7240 O.2   1 <1>  -0.5700 
 18 N        0.0260     7.2110     0.1240 N.am  1 <1>  -0.6600 
 19 C        0.3860     8.3110     1.0540 C.3   1 <1>   0.1400 
 20 C        0.5010     7.5290    -1.2470 C.3   1 <1>   0.1400 
 21 C        0.8390     9.4440     0.1340 C.3   1 <1>  -0.0800 
 22 C        1.4670     8.6990    -1.0500 C.3   1 <1>  -0.0800 
 23 C        1.7380    10.5020     0.7980 C.3   1 <1>  -0.0220 
 24 C        2.8840     8.1610    -0.7480 C.3   1 <1>  -0.0220 
 25 C        3.2160    10.1450     0.7780 C.2   1 <1>  -0.2760 
 26 C        3.7110     9.1130     0.0930 C.2   1 <1>  -0.2880 
 27 C        4.0850    11.0780     1.6050 C.3   1 <1>  -0.1020 
 28 H       -2.6620     3.4330    -2.0350 H     1 <1>   0.0800 
 29 H       -3.3610     2.5140    -0.7330 H     1 <1>   0.0800 
 30 H        0.7970     2.0880    -1.4590 H     1 <1>   0.0800 
 31 H       -0.0990     3.1750    -2.4810 H     1 <1>   0.0800 
 32 H       -3.2460    -0.2740    -2.3700 H     1 <1>   0.1500 
 33 H       -3.0220     4.8790    -0.0940 H     1 <1>   0.0800 
 34 H       -2.1340     3.7880     0.9190 H     1 <1>   0.0800 
 35 H        0.4490     3.5110     0.4770 H     1 <1>   0.0800 
 36 H        1.1720     4.4350    -0.8010 H     1 <1>   0.0800 
 37 H       -4.3920    -0.6020     2.3910 H     1 <1>   0.1500 
 38 H       -2.3570     0.3800     3.0240 H     1 <1>   0.0800 
 39 H       -1.8030     1.6110     1.9190 H     1 <1>   0.0800 
 40 H       -1.0260     0.0470     1.9480 H     1 <1>   0.0800 
 41 H       -5.3800    -1.2880    -1.6870 H     1 <1>   0.1500 
 42 H       -1.0320     5.3630    -1.4020 H     1 <1>   0.0800 
 43 H       -5.9500    -1.4430     0.7020 H     1 <1>   0.1500 
 44 H       -0.4580     8.5970     1.6580 H     1 <1>   0.0800 
 45 H        1.1940     7.9880     1.6890 H     1 <1>   0.0800 
 46 H        0.9830     6.6840    -1.7070 H     1 <1>   0.0800 
 47 H       -0.3390     7.8390    -1.8450 H     1 <1>   0.0800 
 48 H       -0.0530     9.9410    -0.2050 H     1 <1>   0.0800 
 49 H        1.5030     9.3330    -1.9190 H     1 <1>   0.0800 
 50 H        1.4110    10.6580     1.8110 H     1 <1>   0.0800 
 51 H        1.6190    11.4330     0.2720 H     1 <1>   0.0800 
 52 H        2.8290     7.2270    -0.2150 H     1 <1>   0.0800 
 53 H        3.3910     7.9770    -1.6790 H     1 <1>   0.0800 
 54 H        4.7590     8.8630     0.0930 H     1 <1>   0.1500 
 55 H        3.9950    12.0860     1.2420 H     1 <1>   0.0800 
 56 H        5.1180    10.7850     1.5450 H     1 <1>   0.0800 
 57 H        3.7830    11.0490     2.6360 H     1 <1>   0.0800 
@<TRIPOS>BOND
  1   1   2  2   
  2   2   3  am  
  3   2   4  1   
  4   3   5  1   
  5   3   6  1   
  6   4   7  ar  
  7   4   8  ar  
  8   5   9  1   
  9   5  28  1   
 10   5  29  1   
 11   6  10  1   
 12   6  30  1   
 13   6  31  1   
 14   7  11  ar  
 15   7  12  1   
 16   8  13  ar  
 17   8  32  1   
 18   9  14  1   
 19   9  33  1   
 20   9  34  1   
 21  10  14  1   
 22  10  35  1   
 23  10  36  1   
 24  11  15  ar  
 25  11  37  1   
 26  12  38  1   
 27  12  39  1   
 28  12  40  1   
 29  13  15  ar  
 30  13  41  1   
 31  14  16  1   
 32  14  42  1   
 33  15  43  1   
 34  16  17  2   
 35  16  18  am  
 36  18  19  1   
 37  18  20  1   
 38  19  21  1   
 39  19  44  1   
 40  19  45  1   
 41  20  22  1   
 42  20  46  1   
 43  20  47  1   
 44  21  22  1   
 45  21  23  1   
 46  21  48  1   
 47  22  24  1   
 48  22  49  1   
 49  23  25  1   
 50  23  50  1   
 51  23  51  1   
 52  24  26  1   
 53  24  52  1   
 54  24  53  1   
 55  25  26  2   
 56  25  27  1   
 57  26  54  1   
 58  27  55  1   
 59  27  56  1   
 60  27  57  1   
@<TRIPOS>SUBSTRUCTURE
  1 ****  14 GROUP 4 **** **** 0

# MOE 2024.06 (io_trps.svl 2023.06)
