@<TRIPOS>MOLECULE
NONAME
46 48 1 0 0 
SMALL
USER_CHARGES


@<TRIPOS>ATOM
  1 S        0.9160     0.1690    -1.3010 S.3   1 <1>  -0.0800 
  2 C        1.3210    -1.0410    -0.0740 C.2   1 <1>  -0.0450 
  3 C        1.8440     1.4110    -0.4960 C.2   1 <1>  -0.1100 
  4 C        2.1240    -0.4580     0.8590 C.2   1 <1>  -0.1810 
  5 C        0.7990    -2.3780    -0.2440 C.2   1 <1>   0.7150 
  6 C        2.4130     0.9190     0.6180 C.2   1 <1>  -0.1500 
  7 C        2.7170    -1.1280     2.0870 C.3   1 <1>  -0.0590 
  8 O        1.4130    -3.3490     0.1670 O.2   1 <1>  -0.5700 
  9 N       -0.4230    -2.6230    -0.8320 N.am  1 <1>  -0.6600 
 10 C       -0.7270    -3.9710    -1.3760 C.3   1 <1>   0.1400 
 11 C       -1.6370    -1.8760    -0.4200 C.3   1 <1>   0.1400 
 12 C       -1.3910    -4.8150    -0.2650 C.3   1 <1>   0.4230 
 13 C       -2.3240    -2.6550     0.7130 C.3   1 <1>  -0.1600 
 14 N       -1.5860    -6.2800    -0.6170 N.4   1 <1>  -0.9590 
 15 C       -2.6450    -4.1440     0.3790 C.3   1 <1>   0.0000 
 16 C       -2.4810    -7.0110     0.3360 C.3   1 <1>   0.3430 
 17 C       -2.0390    -6.5080    -2.0280 C.3   1 <1>   0.2630 
 18 C       -2.9420    -4.8920     1.7130 C.3   1 <1>  -0.1600 
 19 C       -3.9370    -4.2070    -0.4880 C.3   1 <1>   0.1200 
 20 C       -2.4690    -6.3630     1.7230 C.3   1 <1>  -0.1600 
 21 O       -3.7200    -3.8250    -1.8000 O.3   1 <1>  -0.6800 
 22 H        1.8680     2.3870    -0.9460 H     1 <1>   0.1500 
 23 H        3.0370     1.4830     1.2890 H     1 <1>   0.1500 
 24 H        2.4470    -0.5800     2.9710 H     1 <1>   0.0800 
 25 H        3.7890    -1.1500     2.0060 H     1 <1>   0.0800 
 26 H        2.3640    -2.1370     2.1930 H     1 <1>   0.0800 
 27 H       -1.3580    -3.8620    -2.2370 H     1 <1>   0.0800 
 28 H        0.1890    -4.4410    -1.6890 H     1 <1>   0.0800 
 29 H       -1.3750    -0.8920    -0.0690 H     1 <1>   0.0800 
 30 H       -2.2940    -1.7600    -1.2650 H     1 <1>   0.0800 
 31 H       -0.6560    -4.8060     0.5240 H     1 <1>   0.0800 
 32 H       -1.6600    -2.6040     1.5590 H     1 <1>   0.0800 
 33 H       -3.2220    -2.1360     0.9980 H     1 <1>   0.0800 
 34 H       -0.6480    -6.6950    -0.5240 H     1 <1>   0.4500 
 35 H       -3.4920    -6.9990    -0.0370 H     1 <1>   0.0800 
 36 H       -2.1710    -8.0410     0.4110 H     1 <1>   0.0800 
 37 H       -3.0030    -6.0540    -2.1910 H     1 <1>   0.0800 
 38 H       -2.1170    -7.5640    -2.2300 H     1 <1>   0.0800 
 39 H       -1.3380    -6.0790    -2.7250 H     1 <1>   0.0800 
 40 H       -2.4580    -4.4040     2.5420 H     1 <1>   0.0800 
 41 H       -3.9980    -4.8540     1.9260 H     1 <1>   0.0800 
 42 H       -4.6880    -3.5520    -0.0760 H     1 <1>   0.0800 
 43 H       -4.3460    -5.2010    -0.5090 H     1 <1>   0.0800 
 44 H       -3.1000    -6.9310     2.3850 H     1 <1>   0.0800 
 45 H       -1.4700    -6.4210     2.1200 H     1 <1>   0.0800 
 46 H       -4.5640    -3.5760    -2.2360 H     1 <1>   0.4000 
@<TRIPOS>BOND
  1   1   2  1   
  2   1   3  1   
  3   2   4  2   
  4   2   5  1   
  5   3   6  2   
  6   3  22  1   
  7   4   6  1   
  8   4   7  1   
  9   5   8  2   
 10   5   9  am  
 11   6  23  1   
 12   7  24  1   
 13   7  25  1   
 14   7  26  1   
 15   9  10  1   
 16   9  11  1   
 17  10  12  1   
 18  10  27  1   
 19  10  28  1   
 20  11  13  1   
 21  11  29  1   
 22  11  30  1   
 23  12  14  1   
 24  12  15  1   
 25  12  31  1   
 26  13  15  1   
 27  13  32  1   
 28  13  33  1   
 29  14  16  1   
 30  14  17  1   
 31  14  34  1   
 32  15  18  1   
 33  15  19  1   
 34  16  20  1   
 35  16  35  1   
 36  16  36  1   
 37  17  37  1   
 38  17  38  1   
 39  17  39  1   
 40  18  20  1   
 41  18  40  1   
 42  18  41  1   
 43  19  21  1   
 44  19  42  1   
 45  19  43  1   
 46  20  44  1   
 47  20  45  1   
 48  21  46  1   
@<TRIPOS>SUBSTRUCTURE
  1 ****   9 GROUP 4 **** **** 0

# MOE 2024.06 (io_trps.svl 2023.06)
