@<TRIPOS>MOLECULE
NONAME
23 24 1 0 0 
SMALL
USER_CHARGES


@<TRIPOS>ATOM
  1 F       -0.9190    -0.7460     1.2560 F     1 <1>  -0.3400 
  2 C       -1.4000    -0.8760     0.0260 C.3   1 <1>   1.1640 
  3 F       -1.4720     0.3510    -0.4780 F     1 <1>  -0.3400 
  4 F       -0.4660    -1.5080    -0.6750 F     1 <1>  -0.3400 
  5 C       -2.7500    -1.6110     0.0140 C.ar  1 <1>  -0.1440 
  6 C       -2.7960    -3.0010     0.0200 C.ar  1 <1>  -0.1500 
  7 C       -3.9490    -0.9070     0.0060 C.ar  1 <1>  -0.1500 
  8 C       -4.0000    -3.7100     0.0130 C.ar  1 <1>   0.0860 
  9 C       -5.1560    -1.5820    -0.0010 C.ar  1 <1>  -0.1500 
 10 C       -4.0420    -5.1640     0.0180 C.2   1 <1>   0.5140 
 11 C       -5.1770    -2.9630     0.0020 C.ar  1 <1>  -0.1500 
 12 O       -2.8790    -5.8310     0.0360 O.3   1 <1>  -0.4300 
 13 N       -5.0700    -5.9070     0.0080 N.2   1 <1>  -0.6960 
 14 C       -3.1300    -7.2120     0.0380 C.3   1 <1>   0.1200 
 15 C       -4.6500    -7.2930     0.0190 C.3   1 <1>   0.0860 
 16 H       -1.8750    -3.5600     0.0320 H     1 <1>   0.1500 
 17 H       -3.9550     0.1710     0.0060 H     1 <1>   0.1500 
 18 H       -6.0820    -1.0310    -0.0090 H     1 <1>   0.1500 
 19 H       -6.1220    -3.4790    -0.0040 H     1 <1>   0.1500 
 20 H       -2.7140    -7.6430     0.9300 H     1 <1>   0.0800 
 21 H       -2.6920    -7.6500    -0.8410 H     1 <1>   0.0800 
 22 H       -5.0030    -7.7980    -0.8630 H     1 <1>   0.0800 
 23 H       -5.0250    -7.7920     0.8960 H     1 <1>   0.0800 
@<TRIPOS>BOND
  1   1   2  1   
  2   2   3  1   
  3   2   4  1   
  4   2   5  1   
  5   5   6  ar  
  6   5   7  ar  
  7   6   8  ar  
  8   6  16  1   
  9   7   9  ar  
 10   7  17  1   
 11   8  10  1   
 12   8  11  ar  
 13   9  11  ar  
 14   9  18  1   
 15  10  12  1   
 16  10  13  2   
 17  11  19  1   
 18  12  14  1   
 19  13  15  1   
 20  14  15  1   
 21  14  20  1   
 22  14  21  1   
 23  15  22  1   
 24  15  23  1   
@<TRIPOS>SUBSTRUCTURE
  1 ****   6 GROUP 4 **** **** 0

# MOE 2024.06 (io_trps.svl 2023.06)
