@<TRIPOS>MOLECULE
NONAME
37 38 1 0 0 
SMALL
USER_CHARGES


@<TRIPOS>ATOM
  1 S       -0.5790     0.4900     1.3910 S.o2  1 <1>   1.4470 
  2 O       -1.2380     1.5920     2.0630 O.2   1 <1>  -0.6500 
  3 O       -0.3950    -0.7420     2.1310 O.2   1 <1>  -0.6500 
  4 N       -1.4410     0.1150    -0.0230 N.am  1 <1>  -0.8490 
  5 C        1.0440     1.0190     0.7740 C.ar  1 <1>  -0.0090 
  6 C       -1.0350    -1.1490    -0.6910 C.3   1 <1>   0.1960 
  7 C       -2.8940     0.2610     0.0920 C.3   1 <1>   0.1960 
  8 C        1.1890     2.1520    -0.0250 C.ar  1 <1>   0.0820 
  9 C        2.1850     0.2850     1.0850 C.ar  1 <1>  -0.1500 
 10 C       -2.0900    -2.2820    -0.6810 C.3   1 <1>   0.2000 
 11 C       -3.5320    -0.8820     0.9000 C.3   1 <1>  -0.1600 
 12 O        0.0740     2.8650    -0.3220 O.3   1 <1>  -0.3630 
 13 C        2.4470     2.5240    -0.4960 C.ar  1 <1>  -0.1500 
 14 C        3.4340     0.6550     0.6200 C.ar  1 <1>  -0.1500 
 15 O       -2.9460    -2.1270    -1.7630 O.3   1 <1>  -0.6800 
 16 C       -2.9210    -2.2770     0.6060 C.3   1 <1>  -0.1860 
 17 C        0.1060     4.0520    -1.0800 C.3   1 <1>   0.0400 
 18 C        3.5640     1.7770    -0.1740 C.ar  1 <1>  -0.1500 
 19 C       -3.9560    -3.3860     0.5710 C.2   1 <1>   0.9060 
 20 O       -3.9580    -4.2360     1.4640 O.co2 1 <1>  -0.9000 
 21 O       -4.7510    -3.4190    -0.3800 O.co2 1 <1>  -0.9000 
 22 H       -0.7850    -0.9330    -1.7150 H     1 <1>   0.0800 
 23 H       -0.1430    -1.5270    -0.2260 H     1 <1>   0.0800 
 24 H       -3.1430     1.2110     0.5340 H     1 <1>   0.0800 
 25 H       -3.3120     0.2580    -0.9000 H     1 <1>   0.0800 
 26 H        2.0960    -0.5920     1.7040 H     1 <1>   0.1500 
 27 H       -1.6070    -3.2370    -0.8020 H     1 <1>   0.0800 
 28 H       -3.4450    -0.6740     1.9520 H     1 <1>   0.0800 
 29 H       -4.5830    -0.8980     0.6690 H     1 <1>   0.0800 
 30 H        2.5780     3.3920    -1.1140 H     1 <1>   0.1500 
 31 H        4.3020     0.0700     0.8750 H     1 <1>   0.1500 
 32 H       -3.7870    -2.6180    -1.5110 H     1 <1>   0.4000 
 33 H       -2.2510    -2.5130     1.4120 H     1 <1>   0.0800 
 34 H       -0.8990     4.4270    -1.1510 H     1 <1>   0.0800 
 35 H        0.4830     3.8300    -2.0620 H     1 <1>   0.0800 
 36 H        0.7280     4.7710    -0.5770 H     1 <1>   0.0800 
 37 H        4.5340     2.0680    -0.5400 H     1 <1>   0.1500 
@<TRIPOS>BOND
  1   1   2  2   
  2   1   3  2   
  3   1   4  am  
  4   1   5  1   
  5   4   6  1   
  6   4   7  1   
  7   5   8  ar  
  8   5   9  ar  
  9   6  10  1   
 10   6  22  1   
 11   6  23  1   
 12   7  11  1   
 13   7  24  1   
 14   7  25  1   
 15   8  12  1   
 16   8  13  ar  
 17   9  14  ar  
 18   9  26  1   
 19  10  15  1   
 20  10  16  1   
 21  10  27  1   
 22  11  16  1   
 23  11  28  1   
 24  11  29  1   
 25  12  17  1   
 26  13  18  ar  
 27  13  30  1   
 28  14  18  ar  
 29  14  31  1   
 30  15  32  1   
 31  16  19  1   
 32  16  33  1   
 33  17  34  1   
 34  17  35  1   
 35  17  36  1   
 36  18  37  1   
 37  19  20  ar  
 38  19  21  ar  
@<TRIPOS>SUBSTRUCTURE
  1 ****   4 GROUP 4 **** **** 0

# MOE 2024.06 (io_trps.svl 2023.06)
