@<TRIPOS>MOLECULE
NONAME
52 53 1 0 0 
SMALL
USER_CHARGES


@<TRIPOS>ATOM
  1 O       -0.5650    -0.1890     0.7520 O.2   1 <1>  -0.5700 
  2 C       -1.2500     0.4790     0.0160 C.2   1 <1>   0.5690 
  3 N       -2.1930    -0.0770    -0.7900 N.am  1 <1>  -0.7300 
  4 C       -1.0630     1.9940     0.0090 C.3   1 <1>  -0.0190 
  5 C       -2.4640    -1.5310    -0.8820 C.3   1 <1>   0.1400 
  6 C       -2.3460     2.7350     0.4340 C.3   1 <1>  -0.1600 
  7 C       -0.5370     2.5090    -1.3530 C.3   1 <1>  -0.1600 
  8 C       -3.5620    -1.9210     0.1070 C.3   1 <1>  -0.0170 
  9 C       -2.1170     4.2530     0.5860 C.3   1 <1>   0.2000 
 10 C       -0.8340     4.0010    -1.6090 C.3   1 <1>  -0.1600 
 11 C       -3.7790    -3.4360     0.0840 C.ar  1 <1>  -0.1440 
 12 O       -3.3100     4.9050     0.2270 O.3   1 <1>  -0.5600 
 13 C       -0.9570     4.7830    -0.2990 C.3   1 <1>   0.2000 
 14 C       -3.0210    -4.2640     0.9140 C.ar  1 <1>  -0.1440 
 15 C       -4.7260    -4.0060    -0.7690 C.ar  1 <1>  -0.1440 
 16 C       -4.2670     4.9850     1.2370 C.3   1 <1>   0.0400 
 17 O       -1.1940     6.1050    -0.6130 O.3   1 <1>  -0.6800 
 18 C       -3.2180    -5.6350     0.8830 C.ar  1 <1>  -0.1500 
 19 C       -1.9680    -3.7230     1.8760 C.3   1 <1>  -0.0970 
 20 C       -4.9030    -5.3800    -0.7810 C.ar  1 <1>  -0.1500 
 21 C       -5.5940    -3.1740    -1.7060 C.3   1 <1>  -0.0970 
 22 C       -4.1540    -6.2010     0.0390 C.ar  1 <1>  -0.1440 
 23 C       -4.3590    -7.7050     0.0170 C.3   1 <1>  -0.0970 
 24 H       -2.7700     0.5270    -1.3760 H     1 <1>   0.3700 
 25 H       -0.3120     2.2110     0.7500 H     1 <1>   0.0800 
 26 H       -2.7600    -1.7820    -1.8860 H     1 <1>   0.0800 
 27 H       -1.5640    -2.0780    -0.6580 H     1 <1>   0.0800 
 28 H       -2.6930     2.3350     1.3710 H     1 <1>   0.0800 
 29 H       -3.1050     2.5630    -0.3090 H     1 <1>   0.0800 
 30 H        0.5280     2.3480    -1.3830 H     1 <1>   0.0800 
 31 H       -0.9620     1.9400    -2.1610 H     1 <1>   0.0800 
 32 H       -3.2800    -1.6010     1.0930 H     1 <1>   0.0800 
 33 H       -4.4690    -1.4020    -0.1350 H     1 <1>   0.0800 
 34 H       -1.8810     4.4930     1.6090 H     1 <1>   0.0800 
 35 H       -1.7640     4.0860    -2.1440 H     1 <1>   0.0800 
 36 H       -0.0540     4.4250    -2.2170 H     1 <1>   0.0800 
 37 H       -0.0240     4.7320     0.2350 H     1 <1>   0.0800 
 38 H       -5.1260     5.4990     0.8440 H     1 <1>   0.0800 
 39 H       -3.8630     5.5420     2.0650 H     1 <1>   0.0800 
 40 H       -4.5490     3.9940     1.5470 H     1 <1>   0.0800 
 41 H       -2.1730     6.2040    -0.6350 H     1 <1>   0.4000 
 42 H       -2.6380    -6.2740     1.5240 H     1 <1>   0.1500 
 43 H       -1.4000    -4.5210     2.3180 H     1 <1>   0.0800 
 44 H       -2.4430    -3.1720     2.6680 H     1 <1>   0.0800 
 45 H       -1.2780    -3.0750     1.3660 H     1 <1>   0.0800 
 46 H       -5.6340    -5.8220    -1.4330 H     1 <1>   0.1500 
 47 H       -6.1710    -3.8040    -2.3590 H     1 <1>   0.0800 
 48 H       -4.9840    -2.5370    -2.3170 H     1 <1>   0.0800 
 49 H       -6.2770    -2.5720    -1.1340 H     1 <1>   0.0800 
 50 H       -3.4410    -8.2120     0.2550 H     1 <1>   0.0800 
 51 H       -4.6810    -8.0260    -0.9560 H     1 <1>   0.0800 
 52 H       -5.1060    -7.9780     0.7400 H     1 <1>   0.0800 
@<TRIPOS>BOND
  1   1   2  2   
  2   2   3  am  
  3   2   4  1   
  4   3   5  1   
  5   3  24  1   
  6   4   6  1   
  7   4   7  1   
  8   4  25  1   
  9   5   8  1   
 10   5  26  1   
 11   5  27  1   
 12   6   9  1   
 13   6  28  1   
 14   6  29  1   
 15   7  10  1   
 16   7  30  1   
 17   7  31  1   
 18   8  11  1   
 19   8  32  1   
 20   8  33  1   
 21   9  12  1   
 22   9  13  1   
 23   9  34  1   
 24  10  13  1   
 25  10  35  1   
 26  10  36  1   
 27  11  14  ar  
 28  11  15  ar  
 29  12  16  1   
 30  13  17  1   
 31  13  37  1   
 32  14  18  ar  
 33  14  19  1   
 34  15  20  ar  
 35  15  21  1   
 36  16  38  1   
 37  16  39  1   
 38  16  40  1   
 39  17  41  1   
 40  18  22  ar  
 41  18  42  1   
 42  19  43  1   
 43  19  44  1   
 44  19  45  1   
 45  20  22  ar  
 46  20  46  1   
 47  21  47  1   
 48  21  48  1   
 49  21  49  1   
 50  22  23  1   
 51  23  50  1   
 52  23  51  1   
 53  23  52  1   
@<TRIPOS>SUBSTRUCTURE
  1 ****   3 GROUP 4 **** **** 0

# MOE 2024.06 (io_trps.svl 2023.06)
