@<TRIPOS>MOLECULE
NONAME
58 62 1 0 0 
SMALL
USER_CHARGES


@<TRIPOS>ATOM
  1 O       -2.8820     1.4030    -1.7390 O.2   1 <1>  -0.5700 
  2 C       -2.4690     1.2210    -0.6180 C.2   1 <1>   0.5690 
  3 N       -2.1240    -0.0200    -0.1890 N.am  1 <1>  -0.7300 
  4 C       -2.3420     2.4140     0.3420 C.3   1 <1>   0.1710 
  5 C       -2.0920    -1.2400    -1.0280 C.3   1 <1>   0.2200 
  6 N       -0.9920     3.0360     0.4310 N.3   1 <1>  -0.8100 
  7 C       -3.2260    -2.1920    -0.6660 C.3   1 <1>  -0.0800 
  8 C       -0.8900    -2.0730    -0.6100 C.3   1 <1>   0.1200 
  9 C       -0.5550     3.5120    -0.8970 C.3   1 <1>   0.2530 
 10 C        0.0010     2.1270     1.0400 C.3   1 <1>   0.1100 
 11 C       -2.6650    -2.9290     0.5590 C.3   1 <1>   0.1200 
 12 C       -4.5970    -1.5180    -0.4440 C.3   1 <1>  -0.0160 
 13 O       -1.2860    -2.6890     0.5770 O.3   1 <1>  -0.5600 
 14 C        0.4660     4.6340    -0.7870 C.ar  1 <1>  -0.1440 
 15 C        1.3080     2.8290     1.4340 C.3   1 <1>   0.1200 
 16 C       -5.7880    -2.4490    -0.1900 C.ar  1 <1>  -0.1440 
 17 C        1.7220     4.4140    -0.2350 C.ar  1 <1>   0.0820 
 18 C        0.1640     5.8960    -1.2790 C.ar  1 <1>  -0.1500 
 19 O        2.0490     3.2200     0.2970 O.3   1 <1>  -0.3630 
 20 C       -7.0370    -1.8970     0.1910 C.ar  1 <1>   0.0000 
 21 C       -5.7280    -3.8100    -0.3170 C.ar  1 <1>  -0.1500 
 22 C        2.6700     5.4240    -0.2080 C.ar  1 <1>  -0.1500 
 23 C        1.1040     6.9120    -1.2390 C.ar  1 <1>  -0.1500 
 24 C       -8.1090    -2.7870     0.4470 C.ar  1 <1>   0.3100 
 25 C       -7.2880    -0.5100     0.3270 C.ar  1 <1>  -0.1500 
 26 C       -6.8530    -4.5990    -0.0490 C.ar  1 <1>   0.1600 
 27 C        2.3610     6.6760    -0.7090 C.ar  1 <1>  -0.1500 
 28 N       -8.0000    -4.1320     0.3230 N.ar  1 <1>  -0.6200 
 29 C       -9.3510    -2.2640     0.8420 C.ar  1 <1>  -0.1500 
 30 C       -8.5110    -0.0330     0.7110 C.ar  1 <1>  -0.1500 
 31 C       -9.5570    -0.9190     0.9760 C.ar  1 <1>  -0.1500 
 32 H       -1.7910    -0.1730     0.7660 H     1 <1>   0.3700 
 33 H       -2.6490     2.1000     1.3230 H     1 <1>   0.0800 
 34 H       -3.0420     3.1660     0.0230 H     1 <1>   0.0800 
 35 H       -2.0750    -0.9850    -2.0760 H     1 <1>   0.0800 
 36 H       -3.3160    -2.8960    -1.4740 H     1 <1>   0.0800 
 37 H       -0.0080    -1.4810    -0.4400 H     1 <1>   0.0800 
 38 H       -0.6850    -2.8430    -1.3330 H     1 <1>   0.0800 
 39 H       -0.1350     2.6980    -1.4640 H     1 <1>   0.0800 
 40 H       -1.4060     3.8800    -1.4440 H     1 <1>   0.0800 
 41 H       -0.4220     1.7140     1.9390 H     1 <1>   0.0800 
 42 H        0.2280     1.3120     0.3750 H     1 <1>   0.0800 
 43 H       -2.8290    -3.9900     0.5030 H     1 <1>   0.0800 
 44 H       -3.0760    -2.5460     1.4770 H     1 <1>   0.0800 
 45 H       -4.8210    -0.9140    -1.3070 H     1 <1>   0.0800 
 46 H       -4.5140    -0.8590     0.4010 H     1 <1>   0.0800 
 47 H        1.9260     2.1510     1.9930 H     1 <1>   0.0800 
 48 H        1.1080     3.6960     2.0400 H     1 <1>   0.0800 
 49 H       -0.8060     6.0930    -1.7020 H     1 <1>   0.1500 
 50 H       -4.8400    -4.3280    -0.6200 H     1 <1>   0.1500 
 51 H        3.6390     5.2250     0.2090 H     1 <1>   0.1500 
 52 H        0.8580     7.8860    -1.6250 H     1 <1>   0.1500 
 53 H       -6.5040     0.1940     0.1200 H     1 <1>   0.1500 
 54 H       -6.7550    -5.6660    -0.1590 H     1 <1>   0.1500 
 55 H        3.0940     7.4620    -0.6850 H     1 <1>   0.1500 
 56 H      -10.1410    -2.9650     1.0370 H     1 <1>   0.1500 
 57 H       -8.6850     1.0250     0.8110 H     1 <1>   0.1500 
 58 H      -10.5150    -0.5320     1.2790 H     1 <1>   0.1500 
@<TRIPOS>BOND
  1   1   2  2   
  2   2   3  am  
  3   2   4  1   
  4   3   5  1   
  5   3  32  1   
  6   4   6  1   
  7   4  33  1   
  8   4  34  1   
  9   5   7  1   
 10   5   8  1   
 11   5  35  1   
 12   6   9  1   
 13   6  10  1   
 14   7  11  1   
 15   7  12  1   
 16   7  36  1   
 17   8  13  1   
 18   8  37  1   
 19   8  38  1   
 20   9  14  1   
 21   9  39  1   
 22   9  40  1   
 23  10  15  1   
 24  10  41  1   
 25  10  42  1   
 26  11  13  1   
 27  11  43  1   
 28  11  44  1   
 29  12  16  1   
 30  12  45  1   
 31  12  46  1   
 32  14  17  ar  
 33  14  18  ar  
 34  15  19  1   
 35  15  47  1   
 36  15  48  1   
 37  16  20  ar  
 38  16  21  ar  
 39  17  19  1   
 40  17  22  ar  
 41  18  23  ar  
 42  18  49  1   
 43  20  24  ar  
 44  20  25  ar  
 45  21  26  ar  
 46  21  50  1   
 47  22  27  ar  
 48  22  51  1   
 49  23  27  ar  
 50  23  52  1   
 51  24  28  ar  
 52  24  29  ar  
 53  25  30  ar  
 54  25  53  1   
 55  26  28  ar  
 56  26  54  1   
 57  27  55  1   
 58  29  31  ar  
 59  29  56  1   
 60  30  31  ar  
 61  30  57  1   
 62  31  58  1   
@<TRIPOS>SUBSTRUCTURE
  1 ****   2 GROUP 4 **** **** 0

# MOE 2024.06 (io_trps.svl 2023.06)
