@<TRIPOS>MOLECULE
NONAME
50 52 1 0 0 
SMALL
USER_CHARGES


@<TRIPOS>ATOM
  1 O       -2.6540     1.8480    -1.3200 O.2   1 <1>  -0.5700 
  2 C       -2.2330     1.4860    -0.2470 C.2   1 <1>   0.5690 
  3 N       -1.9670     0.1780     0.0000 N.am  1 <1>  -0.7300 
  4 C       -2.0050     2.5230     0.8630 C.3   1 <1>   0.1710 
  5 C       -2.0590    -0.9150    -0.9950 C.3   1 <1>   0.2200 
  6 N       -0.6250     3.0730     0.9710 N.3   1 <1>  -0.8100 
  7 C       -3.2190    -1.8520    -0.6820 C.3   1 <1>  -0.0800 
  8 C       -0.8800    -1.8560    -0.7930 C.3   1 <1>   0.1200 
  9 C       -0.2460     3.7900    -0.2650 C.3   1 <1>   0.2530 
 10 C        0.3670     2.0510     1.3400 C.3   1 <1>   0.0300 
 11 C       -2.6160    -2.8200     0.3440 C.3   1 <1>   0.1200 
 12 C       -4.5250    -1.1740    -0.2270 C.3   1 <1>  -0.0160 
 13 O       -1.2300    -2.6320     0.3120 O.3   1 <1>  -0.5600 
 14 C        1.0710     4.5380    -0.0990 C.ar  1 <1>  -0.1440 
 15 C       -5.6340    -2.2000    -0.0510 C.ar  1 <1>  -0.1440 
 16 C        1.2470     5.4220     0.9550 C.ar  1 <1>  -0.1500 
 17 C        2.1070     4.3480    -1.0030 C.ar  1 <1>  -0.1500 
 18 C       -6.3610    -2.6700    -1.1250 C.ar  1 <1>  -0.1500 
 19 C       -5.9700    -2.7150     1.1850 C.ar  1 <1>  -0.1500 
 20 C        2.4400     6.1070     1.1060 C.ar  1 <1>  -0.1500 
 21 C        3.3010     5.0330    -0.8540 C.ar  1 <1>  -0.1500 
 22 C       -7.3580    -3.6100    -0.9190 C.ar  1 <1>   0.1600 
 23 C       -6.9850    -3.6520     1.2830 C.ar  1 <1>   0.1600 
 24 C        3.4680     5.9130     0.2010 C.ar  1 <1>  -0.1500 
 25 N       -7.6860    -4.1140     0.2600 N.ar  1 <1>  -0.6200 
 26 H       -1.5920    -0.1180     0.9040 H     1 <1>   0.3700 
 27 H       -2.2740     2.0800     1.8040 H     1 <1>   0.0800 
 28 H       -2.6850     3.3390     0.6960 H     1 <1>   0.0800 
 29 H       -2.1010    -0.5200    -1.9970 H     1 <1>   0.0800 
 30 H       -3.4290    -2.4190    -1.5710 H     1 <1>   0.0800 
 31 H        0.0420    -1.3370    -0.5980 H     1 <1>   0.0800 
 32 H       -0.7630    -2.5130    -1.6370 H     1 <1>   0.0800 
 33 H       -0.1720     3.0940    -1.0840 H     1 <1>   0.0800 
 34 H       -1.0120     4.5060    -0.5090 H     1 <1>   0.0800 
 35 H        1.3130     2.5190     1.5530 H     1 <1>   0.0800 
 36 H        0.5050     1.3460     0.5380 H     1 <1>   0.0800 
 37 H        0.0470     1.5300     2.2250 H     1 <1>   0.0800 
 38 H       -2.8370    -3.8450     0.1000 H     1 <1>   0.0800 
 39 H       -2.9510    -2.6040     1.3440 H     1 <1>   0.0800 
 40 H       -4.8250    -0.4480    -0.9640 H     1 <1>   0.0800 
 41 H       -4.3750    -0.6500     0.7000 H     1 <1>   0.0800 
 42 H        0.4490     5.5670     1.6620 H     1 <1>   0.1500 
 43 H        1.9870     3.6670    -1.8270 H     1 <1>   0.1500 
 44 H       -6.1640    -2.3150    -2.1200 H     1 <1>   0.1500 
 45 H       -5.4560    -2.3970     2.0730 H     1 <1>   0.1500 
 46 H        2.5660     6.7890     1.9290 H     1 <1>   0.1500 
 47 H        4.1000     4.8820    -1.5590 H     1 <1>   0.1500 
 48 H       -7.9160    -3.9650    -1.7690 H     1 <1>   0.1500 
 49 H       -7.2340    -4.0430     2.2540 H     1 <1>   0.1500 
 50 H        4.3960     6.4450     0.3170 H     1 <1>   0.1500 
@<TRIPOS>BOND
  1   1   2  2   
  2   2   3  am  
  3   2   4  1   
  4   3   5  1   
  5   3  26  1   
  6   4   6  1   
  7   4  27  1   
  8   4  28  1   
  9   5   7  1   
 10   5   8  1   
 11   5  29  1   
 12   6   9  1   
 13   6  10  1   
 14   7  11  1   
 15   7  12  1   
 16   7  30  1   
 17   8  13  1   
 18   8  31  1   
 19   8  32  1   
 20   9  14  1   
 21   9  33  1   
 22   9  34  1   
 23  10  35  1   
 24  10  36  1   
 25  10  37  1   
 26  11  13  1   
 27  11  38  1   
 28  11  39  1   
 29  12  15  1   
 30  12  40  1   
 31  12  41  1   
 32  14  16  ar  
 33  14  17  ar  
 34  15  18  ar  
 35  15  19  ar  
 36  16  20  ar  
 37  16  42  1   
 38  17  21  ar  
 39  17  43  1   
 40  18  22  ar  
 41  18  44  1   
 42  19  23  ar  
 43  19  45  1   
 44  20  24  ar  
 45  20  46  1   
 46  21  24  ar  
 47  21  47  1   
 48  22  25  ar  
 49  22  48  1   
 50  23  25  ar  
 51  23  49  1   
 52  24  50  1   
@<TRIPOS>SUBSTRUCTURE
  1 ****   3 GROUP 4 **** **** 0

# MOE 2024.06 (io_trps.svl 2023.06)
