@<TRIPOS>MOLECULE
NONAME
52 55 1 0 0 
SMALL
USER_CHARGES


@<TRIPOS>ATOM
  1 O        0.0240     0.4670     0.0490 O.2   1 <1>  -0.5700 
  2 C       -0.5410     1.5070     0.2970 C.2   1 <1>   0.5690 
  3 N       -1.9050     1.5670     0.4140 N.am  1 <1>  -0.6600 
  4 C        0.2990     2.7620     0.4850 C.3   1 <1>  -0.0990 
  5 C       -2.6970     2.7990     0.7220 C.3   1 <1>   0.1400 
  6 C       -2.7170     0.3210     0.2430 C.3   1 <1>   0.1400 
  7 C        1.7910     2.5530     0.2030 C.3   1 <1>   0.0210 
  8 C       -3.7210     3.0960    -0.3970 C.3   1 <1>   0.1440 
  9 C       -4.2140     0.6180     0.0490 C.3   1 <1>  -0.1600 
 10 C        2.6460     3.8160     0.2930 C.2   1 <1>  -0.1810 
 11 C       -4.6970     4.1210     0.1570 C.ar  1 <1>   0.1670 
 12 C       -4.4230     1.8060    -0.9040 C.3   1 <1>  -0.1600 
 13 C       -3.0700     3.8760    -1.5720 C.3   1 <1>  -0.1600 
 14 C        2.4310     5.0960     0.6630 C.2   1 <1>  -0.0400 
 15 C        4.0000     3.8190    -0.0550 C.2   1 <1>   0.1080 
 16 N       -5.6500     3.8750     1.0280 N.ar  1 <1>  -0.6200 
 17 C       -4.4560     5.3670    -0.3420 C.ar  1 <1>  -0.1430 
 18 C       -3.2940     5.3740    -1.3020 C.3   1 <1>  -0.0170 
 19 O        3.5570     5.7440     0.5270 O.3   1 <1>  -0.0190 
 20 C        1.2510     5.9050     1.1720 C.3   1 <1>  -0.0600 
 21 N        4.5140     4.9840     0.0940 N.2   1 <1>  -0.4100 
 22 C        4.7910     2.6260    -0.5480 C.3   1 <1>  -0.0590 
 23 C       -6.3690     4.9350     1.3700 C.ar  1 <1>   0.4770 
 24 C       -5.2620     6.3940     0.0820 C.ar  1 <1>   0.1600 
 25 N       -6.2320     6.1850     0.9480 N.ar  1 <1>  -0.6200 
 26 C       -7.4840     4.6920     2.3580 C.3   1 <1>  -0.0970 
 27 H        0.1800     3.0860     1.5020 H     1 <1>   0.0800 
 28 H       -0.0670     3.5180    -0.1820 H     1 <1>   0.0800 
 29 H       -2.0680     3.6550     0.8740 H     1 <1>   0.0800 
 30 H       -3.2270     2.6320     1.6450 H     1 <1>   0.0800 
 31 H       -2.5770    -0.3140     1.1010 H     1 <1>   0.0800 
 32 H       -2.3500    -0.2080    -0.6210 H     1 <1>   0.0800 
 33 H        1.8950     2.1460    -0.7880 H     1 <1>   0.0800 
 34 H        2.1780     1.8250     0.8950 H     1 <1>   0.0800 
 35 H       -4.6670     0.8320     1.0020 H     1 <1>   0.0800 
 36 H       -4.6980    -0.2570    -0.3460 H     1 <1>   0.0800 
 37 H       -4.0200     1.5220    -1.8600 H     1 <1>   0.0800 
 38 H       -5.4760     1.9870    -1.0380 H     1 <1>   0.0800 
 39 H       -3.5820     3.6360    -2.4880 H     1 <1>   0.0800 
 40 H       -2.0300     3.6340    -1.6980 H     1 <1>   0.0800 
 41 H       -3.5260     5.9090    -2.2060 H     1 <1>   0.0800 
 42 H       -2.4320     5.8110    -0.8270 H     1 <1>   0.0800 
 43 H        0.3630     5.3180     1.2720 H     1 <1>   0.0800 
 44 H        1.0550     6.7140     0.4910 H     1 <1>   0.0800 
 45 H        1.4950     6.3200     2.1330 H     1 <1>   0.0800 
 46 H        4.7450     1.8310     0.1740 H     1 <1>   0.0800 
 47 H        5.8200     2.9020    -0.6910 H     1 <1>   0.0800 
 48 H        4.3920     2.2820    -1.4840 H     1 <1>   0.0800 
 49 H       -5.1140     7.3950    -0.2860 H     1 <1>   0.1500 
 50 H       -7.3000     3.7930     2.9160 H     1 <1>   0.0800 
 51 H       -8.4120     4.5950     1.8270 H     1 <1>   0.0800 
 52 H       -7.5530     5.5180     3.0410 H     1 <1>   0.0800 
@<TRIPOS>BOND
  1   1   2  2   
  2   2   3  am  
  3   2   4  1   
  4   3   5  1   
  5   3   6  1   
  6   4   7  1   
  7   4  27  1   
  8   4  28  1   
  9   5   8  1   
 10   5  29  1   
 11   5  30  1   
 12   6   9  1   
 13   6  31  1   
 14   6  32  1   
 15   7  10  1   
 16   7  33  1   
 17   7  34  1   
 18   8  11  1   
 19   8  12  1   
 20   8  13  1   
 21   9  12  1   
 22   9  35  1   
 23   9  36  1   
 24  10  14  2   
 25  10  15  1   
 26  11  16  ar  
 27  11  17  ar  
 28  12  37  1   
 29  12  38  1   
 30  13  18  1   
 31  13  39  1   
 32  13  40  1   
 33  14  19  1   
 34  14  20  1   
 35  15  21  2   
 36  15  22  1   
 37  16  23  ar  
 38  17  18  1   
 39  17  24  ar  
 40  18  41  1   
 41  18  42  1   
 42  19  21  1   
 43  20  43  1   
 44  20  44  1   
 45  20  45  1   
 46  22  46  1   
 47  22  47  1   
 48  22  48  1   
 49  23  25  ar  
 50  23  26  1   
 51  24  25  ar  
 52  24  49  1   
 53  26  50  1   
 54  26  51  1   
 55  26  52  1   
@<TRIPOS>SUBSTRUCTURE
  1 ****   5 GROUP 4 **** **** 0

# MOE 2024.06 (io_trps.svl 2023.06)
