@<TRIPOS>MOLECULE
NONAME
50 52 1 0 0 
SMALL
USER_CHARGES


@<TRIPOS>ATOM
  1 S       -0.6670    -0.3160    -1.7820 S.o2  1 <1>   1.2040 
  2 O       -0.8310    -1.1440    -2.9540 O.2   1 <1>  -0.6500 
  3 O       -0.6740     1.1250    -1.9070 O.2   1 <1>  -0.6500 
  4 C       -1.8720    -0.8200    -0.5270 C.ar  1 <1>  -0.0090 
  5 C        0.8780    -0.7740    -1.0220 C.3   1 <1>  -0.1350 
  6 C       -2.2150    -2.1560    -0.3660 C.ar  1 <1>  -0.1500 
  7 C       -2.4630     0.1090     0.3190 C.ar  1 <1>  -0.1500 
  8 C       -3.1180    -2.5900     0.6030 C.ar  1 <1>   0.0860 
  9 C       -3.3620    -0.2860     1.2920 C.ar  1 <1>  -0.1500 
 10 C       -3.4390    -4.0000     0.7460 C.2   1 <1>   0.5440 
 11 C       -3.6820    -1.6230     1.4330 C.ar  1 <1>  -0.1500 
 12 O       -2.5690    -4.8390     0.5910 O.2   1 <1>  -0.5700 
 13 N       -4.7110    -4.4360     1.0370 N.am  1 <1>  -0.6600 
 14 C       -4.9410    -5.8310     1.5160 C.3   1 <1>   0.1400 
 15 C       -5.9230    -3.8160     0.4300 C.3   1 <1>   0.1400 
 16 C       -5.3370    -6.7130     0.3090 C.3   1 <1>   0.4230 
 17 C       -6.3800    -4.6860    -0.7520 C.3   1 <1>  -0.1600 
 18 N       -5.4890    -8.1730     0.6290 N.4   1 <1>  -0.9590 
 19 C       -6.6300    -6.1650    -0.3360 C.3   1 <1>  -0.1060 
 20 C       -5.7470    -8.9820    -0.5890 C.3   1 <1>   0.3430 
 21 C       -4.4080    -8.7470     1.4730 C.3   1 <1>   0.2630 
 22 C       -7.7710    -6.2560     0.6950 C.2   1 <1>   0.9060 
 23 C       -6.9680    -6.9890    -1.6020 C.3   1 <1>  -0.1600 
 24 C       -7.0130    -8.4940    -1.2980 C.3   1 <1>  -0.1600 
 25 O       -7.7630    -7.1850     1.5200 O.co2 1 <1>  -0.9000 
 26 O       -8.6590    -5.4050     0.6950 O.co2 1 <1>  -0.9000 
 27 H        0.9040    -1.8290    -0.8300 H     1 <1>   0.0800 
 28 H        1.0100    -0.2490    -0.0960 H     1 <1>   0.0800 
 29 H        1.6930    -0.5260    -1.6730 H     1 <1>   0.0800 
 30 H       -1.7710    -2.8940    -1.0140 H     1 <1>   0.1500 
 31 H       -2.2210     1.1550     0.2140 H     1 <1>   0.1500 
 32 H       -3.8130     0.4470     1.9410 H     1 <1>   0.1500 
 33 H       -4.3770    -1.9270     2.1980 H     1 <1>   0.1500 
 34 H       -4.0390    -6.1960     1.9710 H     1 <1>   0.0800 
 35 H       -5.7170    -5.8260     2.2620 H     1 <1>   0.0800 
 36 H       -6.7050    -3.7510     1.1700 H     1 <1>   0.0800 
 37 H       -5.7140    -2.8210     0.0800 H     1 <1>   0.0800 
 38 H       -4.5410    -6.6160    -0.4100 H     1 <1>   0.0800 
 39 H       -7.2870    -4.2670    -1.1530 H     1 <1>   0.0800 
 40 H       -5.6330    -4.6330    -1.5240 H     1 <1>   0.0800 
 41 H       -6.3940    -8.1600     1.1740 H     1 <1>   0.4500 
 42 H       -4.9060    -8.9030    -1.2580 H     1 <1>   0.0800 
 43 H       -5.8730   -10.0180    -0.3180 H     1 <1>   0.0800 
 44 H       -3.4560    -8.6490     0.9780 H     1 <1>   0.0800 
 45 H       -4.6010    -9.7900     1.6630 H     1 <1>   0.0800 
 46 H       -4.3640    -8.2340     2.4200 H     1 <1>   0.0800 
 47 H       -7.9230    -6.6720    -1.9880 H     1 <1>   0.0800 
 48 H       -6.2290    -6.8070    -2.3630 H     1 <1>   0.0800 
 49 H       -7.1360    -9.0400    -2.2160 H     1 <1>   0.0800 
 50 H       -7.8670    -8.7150    -0.6810 H     1 <1>   0.0800 
@<TRIPOS>BOND
  1   1   2  2   
  2   1   3  2   
  3   1   4  1   
  4   1   5  1   
  5   4   6  ar  
  6   4   7  ar  
  7   5  27  1   
  8   5  28  1   
  9   5  29  1   
 10   6   8  ar  
 11   6  30  1   
 12   7   9  ar  
 13   7  31  1   
 14   8  10  1   
 15   8  11  ar  
 16   9  11  ar  
 17   9  32  1   
 18  10  12  2   
 19  10  13  am  
 20  11  33  1   
 21  13  14  1   
 22  13  15  1   
 23  14  16  1   
 24  14  34  1   
 25  14  35  1   
 26  15  17  1   
 27  15  36  1   
 28  15  37  1   
 29  16  18  1   
 30  16  19  1   
 31  16  38  1   
 32  17  19  1   
 33  17  39  1   
 34  17  40  1   
 35  18  20  1   
 36  18  21  1   
 37  18  41  1   
 38  19  22  1   
 39  19  23  1   
 40  20  24  1   
 41  20  42  1   
 42  20  43  1   
 43  21  44  1   
 44  21  45  1   
 45  21  46  1   
 46  22  25  ar  
 47  22  26  ar  
 48  23  24  1   
 49  23  47  1   
 50  23  48  1   
 51  24  49  1   
 52  24  50  1   
@<TRIPOS>SUBSTRUCTURE
  1 ****  13 GROUP 4 **** **** 0

# MOE 2024.06 (io_trps.svl 2023.06)
