@<TRIPOS>MOLECULE
NONAME
43 45 1 0 0 
SMALL
USER_CHARGES


@<TRIPOS>ATOM
  1 CL       2.7140    -0.7870    -3.8180 Cl    1 <1>  -0.1770 
  2 C        2.4430    -1.2570    -2.1600 C.ar  1 <1>   0.1770 
  3 C        2.4690    -2.5970    -1.8240 C.ar  1 <1>  -0.1500 
  4 C        2.2070    -0.2730    -1.2140 C.ar  1 <1>  -0.1500 
  5 C        2.2510    -3.0020    -0.5080 C.ar  1 <1>   0.0860 
  6 C        1.9950    -0.6470     0.1020 C.ar  1 <1>  -0.1500 
  7 C        2.0240    -1.9930     0.4280 C.ar  1 <1>   0.1900 
  8 C        2.2720    -4.4020    -0.1560 C.2   1 <1>   0.5440 
  9 F        1.8280    -2.3100     1.6790 F     1 <1>  -0.1900 
 10 O        3.3130    -5.0230    -0.2480 O.2   1 <1>  -0.5700 
 11 N        1.1340    -5.0650     0.2370 N.am  1 <1>  -0.6600 
 12 C       -0.2330    -4.4960     0.2250 C.3   1 <1>   0.1400 
 13 C        1.1000    -6.5210     0.4840 C.3   1 <1>   0.1400 
 14 C       -1.1450    -5.6140     0.7520 C.3   1 <1>  -0.0800 
 15 C       -0.3790    -6.9150     0.4470 C.3   1 <1>  -0.0800 
 16 C       -2.6250    -5.5880     0.2570 C.3   1 <1>   0.2800 
 17 C       -0.8010    -7.4920    -0.9130 C.3   1 <1>  -0.1600 
 18 O       -2.7110    -4.9680    -0.9760 O.3   1 <1>  -0.6800 
 19 C       -3.1430    -7.0250     0.0570 C.3   1 <1>  -0.1600 
 20 C       -3.5610    -4.8170     1.2140 C.3   1 <1>  -0.1600 
 21 C       -2.2980    -7.8530    -0.9350 C.3   1 <1>  -0.1600 
 22 C       -3.2120    -3.3350     1.4370 C.3   1 <1>  -0.2400 
 23 H        2.6610    -3.3370    -2.5820 H     1 <1>   0.1500 
 24 H        2.1930     0.7620    -1.5070 H     1 <1>   0.1500 
 25 H        1.8130     0.0880     0.8660 H     1 <1>   0.1500 
 26 H       -0.2920    -3.6230     0.8490 H     1 <1>   0.0800 
 27 H       -0.4700    -4.2270    -0.7890 H     1 <1>   0.0800 
 28 H        1.6770    -7.0480    -0.2560 H     1 <1>   0.0800 
 29 H        1.5160    -6.7130     1.4580 H     1 <1>   0.0800 
 30 H       -1.1550    -5.5260     1.8240 H     1 <1>   0.0800 
 31 H       -0.5660    -7.6550     1.2050 H     1 <1>   0.0800 
 32 H       -0.6080    -6.7540    -1.6750 H     1 <1>   0.0800 
 33 H       -0.2150    -8.3630    -1.1500 H     1 <1>   0.0800 
 34 H       -3.6220    -5.0420    -1.3090 H     1 <1>   0.4000 
 35 H       -3.1190    -7.5190     1.0120 H     1 <1>   0.0800 
 36 H       -4.1700    -7.0170    -0.2620 H     1 <1>   0.0800 
 37 H       -4.5680    -4.8780     0.8400 H     1 <1>   0.0800 
 38 H       -3.5580    -5.3110     2.1700 H     1 <1>   0.0800 
 39 H       -2.4190    -8.8970    -0.7020 H     1 <1>   0.0800 
 40 H       -2.6670    -7.7010    -1.9350 H     1 <1>   0.0800 
 41 H       -3.1550    -2.8110     0.4990 H     1 <1>   0.0800 
 42 H       -2.2720    -3.2350     1.9500 H     1 <1>   0.0800 
 43 H       -3.9710    -2.8690     2.0400 H     1 <1>   0.0800 
@<TRIPOS>BOND
  1   1   2  1   
  2   2   3  ar  
  3   2   4  ar  
  4   3   5  ar  
  5   3  23  1   
  6   4   6  ar  
  7   4  24  1   
  8   5   7  ar  
  9   5   8  1   
 10   6   7  ar  
 11   6  25  1   
 12   7   9  1   
 13   8  10  2   
 14   8  11  am  
 15  11  12  1   
 16  11  13  1   
 17  12  14  1   
 18  12  26  1   
 19  12  27  1   
 20  13  15  1   
 21  13  28  1   
 22  13  29  1   
 23  14  15  1   
 24  14  16  1   
 25  14  30  1   
 26  15  17  1   
 27  15  31  1   
 28  16  18  1   
 29  16  19  1   
 30  16  20  1   
 31  17  21  1   
 32  17  32  1   
 33  17  33  1   
 34  18  34  1   
 35  19  21  1   
 36  19  35  1   
 37  19  36  1   
 38  20  22  1   
 39  20  37  1   
 40  20  38  1   
 41  21  39  1   
 42  21  40  1   
 43  22  41  1   
 44  22  42  1   
 45  22  43  1   
@<TRIPOS>SUBSTRUCTURE
  1 ****  12 GROUP 4 **** **** 0

# MOE 2024.06 (io_trps.svl 2023.06)
