@<TRIPOS>MOLECULE
NONAME
45 48 1 0 0 
SMALL
USER_CHARGES


@<TRIPOS>ATOM
  1 F        3.1890    -0.1370    -1.7600 F     1 <1>  -0.1900 
  2 C        3.1600    -1.0450    -0.8240 C.ar  1 <1>   0.1900 
  3 C        4.0590    -0.9510     0.2170 C.ar  1 <1>  -0.1500 
  4 C        2.2310    -2.0580    -0.9170 C.ar  1 <1>  -0.1500 
  5 C        4.0320    -1.9150     1.2160 C.ar  1 <1>   0.0730 
  6 C        2.1750    -3.0400     0.0720 C.ar  1 <1>   0.0860 
  7 C        4.9540    -1.8510     2.3160 C.1   1 <1>   0.4840 
  8 C        3.0920    -2.9380     1.1240 C.ar  1 <1>  -0.1500 
  9 C        1.2080    -4.1260     0.0170 C.2   1 <1>   0.5440 
 10 N        5.6850    -1.7970     3.1880 N.1   1 <1>  -0.5570 
 11 O        1.1700    -4.9970     0.8680 O.2   1 <1>  -0.5700 
 12 N        0.2700    -4.2170    -0.9810 N.am  1 <1>  -0.6600 
 13 C       -1.1240    -3.7820    -0.6500 C.3   1 <1>   0.1400 
 14 C        0.2950    -5.4470    -1.8400 C.3   1 <1>   0.1400 
 15 C       -1.9120    -4.8930     0.1000 C.3   1 <1>   0.4230 
 16 C       -0.7170    -6.5210    -1.3670 C.3   1 <1>   0.3430 
 17 N       -1.2090    -6.2280     0.0230 N.4   1 <1>  -0.9590 
 18 C       -3.3670    -5.0030    -0.4110 C.3   1 <1>   0.1200 
 19 C       -2.0210    -7.2950     0.6780 C.3   1 <1>   0.5180 
 20 O       -4.0500    -6.0310     0.2510 O.3   1 <1>  -0.5600 
 21 C       -1.3270    -8.6520     0.5180 C.3   1 <1>  -0.1950 
 22 C       -3.4700    -7.3050     0.1440 C.3   1 <1>   0.1200 
 23 C       -1.2810    -9.6110     1.6680 C.3   1 <1>  -0.2000 
 24 C       -0.0220    -8.9450     1.1950 C.3   1 <1>  -0.2000 
 25 H        4.7660    -0.1400     0.2450 H     1 <1>   0.1500 
 26 H        1.5600    -2.0750    -1.7570 H     1 <1>   0.1500 
 27 H        3.0730    -3.6870     1.9000 H     1 <1>   0.1500 
 28 H       -1.0940    -2.8970    -0.0360 H     1 <1>   0.0800 
 29 H       -1.6300    -3.5170    -1.5620 H     1 <1>   0.0800 
 30 H        0.0900    -5.1800    -2.8630 H     1 <1>   0.0800 
 31 H        1.2840    -5.8740    -1.8160 H     1 <1>   0.0800 
 32 H       -1.9650    -4.6010     1.1360 H     1 <1>   0.0800 
 33 H       -0.2340    -7.4830    -1.3980 H     1 <1>   0.0800 
 34 H       -1.5500    -6.5500    -2.0490 H     1 <1>   0.0800 
 35 H       -0.3390    -6.0960     0.5810 H     1 <1>   0.4500 
 36 H       -3.3980    -5.1970    -1.4690 H     1 <1>   0.0800 
 37 H       -3.8980    -4.0870    -0.2170 H     1 <1>   0.0800 
 38 H       -2.0710    -7.0780     1.7330 H     1 <1>   0.0800 
 39 H       -1.5050    -9.1010    -0.4450 H     1 <1>   0.1000 
 40 H       -4.0680    -7.9850     0.7260 H     1 <1>   0.0800 
 41 H       -3.5040    -7.6160    -0.8850 H     1 <1>   0.0800 
 42 H       -1.6690    -9.3260     2.6330 H     1 <1>   0.1000 
 43 H       -1.4000   -10.6650     1.4800 H     1 <1>   0.1000 
 44 H        0.7110    -9.5540     0.6910 H     1 <1>   0.1000 
 45 H        0.4340    -8.2120     1.8400 H     1 <1>   0.1000 
@<TRIPOS>BOND
  1   1   2  1   
  2   2   3  ar  
  3   2   4  ar  
  4   3   5  ar  
  5   3  25  1   
  6   4   6  ar  
  7   4  26  1   
  8   5   7  1   
  9   5   8  ar  
 10   6   8  ar  
 11   6   9  1   
 12   7  10  3   
 13   8  27  1   
 14   9  11  2   
 15   9  12  am  
 16  12  13  1   
 17  12  14  1   
 18  13  15  1   
 19  13  28  1   
 20  13  29  1   
 21  14  16  1   
 22  14  30  1   
 23  14  31  1   
 24  15  17  1   
 25  15  18  1   
 26  15  32  1   
 27  16  17  1   
 28  16  33  1   
 29  16  34  1   
 30  17  19  1   
 31  17  35  1   
 32  18  20  1   
 33  18  36  1   
 34  18  37  1   
 35  19  21  1   
 36  19  22  1   
 37  19  38  1   
 38  20  22  1   
 39  21  23  1   
 40  21  24  1   
 41  21  39  1   
 42  22  40  1   
 43  22  41  1   
 44  23  24  1   
 45  23  42  1   
 46  23  43  1   
 47  24  44  1   
 48  24  45  1   
@<TRIPOS>SUBSTRUCTURE
  1 ****   9 GROUP 4 **** **** 0

# MOE 2024.06 (io_trps.svl 2023.06)
