@<TRIPOS>MOLECULE
NONAME
59 61 1 0 0 
SMALL
USER_CHARGES


@<TRIPOS>ATOM
  1 O       -0.4810     0.4200     1.2070 O.2   1 <1>  -0.5700 
  2 C       -1.4060     0.9870     0.6490 C.2   1 <1>   0.5440 
  3 N       -2.4380     0.2210     0.1550 N.am  1 <1>  -0.6600 
  4 C       -1.3680     2.4270     0.4800 C.ar  1 <1>   0.0860 
  5 C       -3.3130     0.6220    -0.9810 C.3   1 <1>   0.1400 
  6 C       -2.4830    -1.2590     0.3180 C.3   1 <1>   0.1400 
  7 C       -0.2030     3.0760     0.0530 C.ar  1 <1>   0.0830 
  8 C       -2.4930     3.2120     0.7270 C.ar  1 <1>  -0.1500 
  9 C       -4.2740    -0.5510    -1.1530 C.3   1 <1>   0.2000 
 10 C       -3.4160    -1.7630    -0.7880 C.3   1 <1>  -0.0800 
 11 O        0.9130     2.3400    -0.1050 O.3   1 <1>  -0.5320 
 12 C       -0.1790     4.4480    -0.1890 C.ar  1 <1>  -0.1430 
 13 C       -2.4940     4.5770     0.5050 C.ar  1 <1>  -0.1430 
 14 O       -5.2910    -0.4030    -0.2220 O.3   1 <1>  -0.6800 
 15 C       -4.1910    -3.0400    -0.4150 C.3   1 <1>   0.0210 
 16 C       -1.3350     5.1800     0.0410 C.ar  1 <1>  -0.1500 
 17 C        1.0830     5.1650    -0.6880 C.3   1 <1>   0.0630 
 18 C       -3.7410     5.4200     0.7620 C.3   1 <1>   0.0630 
 19 C       -3.2400    -4.1640    -0.0490 C.2   1 <1>   0.1080 
 20 C        1.5700     6.1920     0.3400 C.3   1 <1>  -0.2400 
 21 C        0.8360     5.8320    -2.0460 C.3   1 <1>  -0.2400 
 22 C       -4.1340     5.3750     2.2430 C.3   1 <1>  -0.2400 
 23 C       -4.9040     4.9600    -0.1230 C.3   1 <1>  -0.2400 
 24 N       -2.3230    -4.6010    -0.8550 N.2   1 <1>  -0.7070 
 25 C       -3.2320    -4.8350     1.1690 C.2   1 <1>  -0.1500 
 26 N       -1.6980    -5.5730    -0.1650 N.pl3 1 <1>   0.3000 
 27 C       -2.2310    -5.7330     1.0650 C.2   1 <1>  -0.3320 
 28 C       -1.7420    -6.7500     2.0800 C.3   1 <1>  -0.0600 
 29 H       -3.8460     1.5370    -0.7940 H     1 <1>   0.0800 
 30 H       -2.7080     0.7340    -1.8650 H     1 <1>   0.0800 
 31 H       -1.5010    -1.6930     0.2190 H     1 <1>   0.0800 
 32 H       -2.8750    -1.4920     1.2930 H     1 <1>   0.0800 
 33 H       -3.3790     2.7320     1.1000 H     1 <1>   0.1500 
 34 H       -4.7080    -0.6090    -2.1370 H     1 <1>   0.0800 
 35 H       -2.7980    -1.9920    -1.6400 H     1 <1>   0.0800 
 36 H        0.8070     1.4410     0.2920 H     1 <1>   0.4500 
 37 H       -4.8840    -0.2260     0.6500 H     1 <1>   0.4000 
 38 H       -4.7890    -3.3540    -1.2510 H     1 <1>   0.0800 
 39 H       -4.8490    -2.8560     0.4150 H     1 <1>   0.0800 
 40 H       -1.3320     6.2400    -0.1380 H     1 <1>   0.1500 
 41 H        1.8780     4.4530    -0.8270 H     1 <1>   0.0800 
 42 H       -3.5250     6.4450     0.5120 H     1 <1>   0.0800 
 43 H        0.8460     6.9740     0.4790 H     1 <1>   0.0800 
 44 H        2.4960     6.6310     0.0160 H     1 <1>   0.0800 
 45 H        1.7360     5.7050     1.2850 H     1 <1>   0.0800 
 46 H        0.1020     6.6130    -1.9670 H     1 <1>   0.0800 
 47 H        0.4850     5.0990    -2.7500 H     1 <1>   0.0800 
 48 H        1.7500     6.2560    -2.4210 H     1 <1>   0.0800 
 49 H       -4.4110     4.3790     2.5380 H     1 <1>   0.0800 
 50 H       -4.9650     6.0320     2.4270 H     1 <1>   0.0800 
 51 H       -3.3050     5.6930     2.8490 H     1 <1>   0.0800 
 52 H       -5.2030     3.9570     0.1220 H     1 <1>   0.0800 
 53 H       -4.6090     4.9880    -1.1570 H     1 <1>   0.0800 
 54 H       -5.7500     5.6100     0.0070 H     1 <1>   0.0800 
 55 H       -3.8930    -4.6550     1.9980 H     1 <1>   0.1500 
 56 H       -0.9150    -6.1070    -0.5600 H     1 <1>   0.2700 
 57 H       -2.3250    -6.6820     2.9810 H     1 <1>   0.0800 
 58 H       -0.7110    -6.5650     2.3250 H     1 <1>   0.0800 
 59 H       -1.8370    -7.7450     1.6840 H     1 <1>   0.0800 
@<TRIPOS>BOND
  1   1   2  2   
  2   2   3  am  
  3   2   4  1   
  4   3   5  1   
  5   3   6  1   
  6   4   7  ar  
  7   4   8  ar  
  8   5   9  1   
  9   5  29  1   
 10   5  30  1   
 11   6  10  1   
 12   6  31  1   
 13   6  32  1   
 14   7  11  1   
 15   7  12  ar  
 16   8  13  ar  
 17   8  33  1   
 18   9  10  1   
 19   9  14  1   
 20   9  34  1   
 21  10  15  1   
 22  10  35  1   
 23  11  36  1   
 24  12  16  ar  
 25  12  17  1   
 26  13  16  ar  
 27  13  18  1   
 28  14  37  1   
 29  15  19  1   
 30  15  38  1   
 31  15  39  1   
 32  16  40  1   
 33  17  20  1   
 34  17  21  1   
 35  17  41  1   
 36  18  22  1   
 37  18  23  1   
 38  18  42  1   
 39  19  24  2   
 40  19  25  1   
 41  20  43  1   
 42  20  44  1   
 43  20  45  1   
 44  21  46  1   
 45  21  47  1   
 46  21  48  1   
 47  22  49  1   
 48  22  50  1   
 49  22  51  1   
 50  23  52  1   
 51  23  53  1   
 52  23  54  1   
 53  24  26  1   
 54  25  27  2   
 55  25  55  1   
 56  26  27  1   
 57  26  56  1   
 58  27  28  1   
 59  28  57  1   
 60  28  58  1   
 61  28  59  1   
@<TRIPOS>SUBSTRUCTURE
  1 ****   3 GROUP 4 **** **** 0

# MOE 2024.06 (io_trps.svl 2023.06)
