@<TRIPOS>MOLECULE
NONAME
49 52 1 0 0 
SMALL
USER_CHARGES


@<TRIPOS>ATOM
  1 O       -0.6140     0.4380     0.5220 O.2   1 <1>  -0.5700 
  2 C       -1.6510     0.9730     0.1740 C.2   1 <1>   0.7160 
  3 N       -2.8520     0.4290     0.5820 N.am  1 <1>  -0.6600 
  4 C       -1.5910     2.1500    -0.6580 C.2   1 <1>  -0.0860 
  5 C       -4.1170     0.5450    -0.1950 C.3   1 <1>   0.1400 
  6 C       -2.9320    -0.5030     1.7420 C.3   1 <1>   0.1400 
  7 C       -2.4360     3.2620    -0.5900 C.2   1 <1>   0.1390 
  8 C       -0.7270     2.4830    -1.6570 C.2   1 <1>  -0.3020 
  9 C       -4.5380    -0.8410    -0.6900 C.3   1 <1>  -0.1600 
 10 C       -3.3490    -1.8930     1.2570 C.3   1 <1>  -0.1600 
 11 N       -2.1490     4.1760    -1.4620 N.2   1 <1>  -0.7070 
 12 N       -1.0800     3.6910    -2.1200 N.pl3 1 <1>   0.3000 
 13 C       -4.6620    -1.8520     0.4620 C.3   1 <1>   0.4240 
 14 O       -5.6290    -1.3680     1.3650 O.3   1 <1>  -0.5600 
 15 C       -5.0210    -3.2590    -0.0620 C.ar  1 <1>  -0.1430 
 16 C       -6.9670    -1.6400     1.0840 C.3   1 <1>   0.1200 
 17 C       -6.2190    -3.8720     0.2800 C.ar  1 <1>  -0.1430 
 18 C       -4.1480    -3.9430    -0.8980 C.ar  1 <1>  -0.1500 
 19 C       -7.1950    -3.1450     1.1840 C.3   1 <1>  -0.0170 
 20 C       -6.5290    -5.1350    -0.2000 C.ar  1 <1>  -0.1500 
 21 C       -4.4380    -5.2070    -1.3820 C.ar  1 <1>   0.0830 
 22 C       -5.6540    -5.8180    -1.0400 C.ar  1 <1>   0.0830 
 23 O       -3.4760    -5.7520    -2.1790 O.3   1 <1>  -0.3620 
 24 O       -5.9650    -7.0480    -1.5460 O.3   1 <1>  -0.3630 
 25 C       -3.2130    -7.1370    -2.1500 C.3   1 <1>   0.0400 
 26 C       -7.2400    -7.6280    -1.3780 C.3   1 <1>   0.0400 
 27 H       -3.9900     1.1920    -1.0450 H     1 <1>   0.0800 
 28 H       -4.8830     0.9600     0.4370 H     1 <1>   0.0800 
 29 H       -3.6570    -0.1270     2.4440 H     1 <1>   0.0800 
 30 H       -1.9840    -0.5630     2.2480 H     1 <1>   0.0800 
 31 H       -3.2440     3.3550     0.1170 H     1 <1>   0.1500 
 32 H        0.1040     1.9150    -2.0360 H     1 <1>   0.1500 
 33 H       -3.7980    -1.1860    -1.3890 H     1 <1>   0.0800 
 34 H       -5.4660    -0.7760    -1.2240 H     1 <1>   0.0800 
 35 H       -3.4660    -2.5520     2.0970 H     1 <1>   0.0800 
 36 H       -2.5550    -2.2840     0.6490 H     1 <1>   0.0800 
 37 H       -0.6180     4.2160    -2.8730 H     1 <1>   0.2700 
 38 H       -7.2050    -1.2770     0.1000 H     1 <1>   0.0800 
 39 H       -7.5680    -1.1190     1.8080 H     1 <1>   0.0800 
 40 H       -3.2130    -3.5020    -1.1910 H     1 <1>   0.1500 
 41 H       -8.2070    -3.3690     0.8990 H     1 <1>   0.0800 
 42 H       -7.0520    -3.4620     2.2020 H     1 <1>   0.0800 
 43 H       -7.4630    -5.5720     0.0940 H     1 <1>   0.1500 
 44 H       -2.2170    -7.2960    -2.5210 H     1 <1>   0.0800 
 45 H       -3.9210    -7.6370    -2.7850 H     1 <1>   0.0800 
 46 H       -3.2920    -7.4890    -1.1370 H     1 <1>   0.0800 
 47 H       -7.2600    -8.5530    -1.9250 H     1 <1>   0.0800 
 48 H       -7.9840    -6.9570    -1.7710 H     1 <1>   0.0800 
 49 H       -7.4030    -7.8200    -0.3330 H     1 <1>   0.0800 
@<TRIPOS>BOND
  1   1   2  2   
  2   2   3  am  
  3   2   4  1   
  4   3   5  1   
  5   3   6  1   
  6   4   7  1   
  7   4   8  2   
  8   5   9  1   
  9   5  27  1   
 10   5  28  1   
 11   6  10  1   
 12   6  29  1   
 13   6  30  1   
 14   7  11  2   
 15   7  31  1   
 16   8  12  1   
 17   8  32  1   
 18   9  13  1   
 19   9  33  1   
 20   9  34  1   
 21  10  13  1   
 22  10  35  1   
 23  10  36  1   
 24  11  12  1   
 25  12  37  1   
 26  13  14  1   
 27  13  15  1   
 28  14  16  1   
 29  15  17  ar  
 30  15  18  ar  
 31  16  19  1   
 32  16  38  1   
 33  16  39  1   
 34  17  19  1   
 35  17  20  ar  
 36  18  21  ar  
 37  18  40  1   
 38  19  41  1   
 39  19  42  1   
 40  20  22  ar  
 41  20  43  1   
 42  21  22  ar  
 43  21  23  1   
 44  22  24  1   
 45  23  25  1   
 46  24  26  1   
 47  25  44  1   
 48  25  45  1   
 49  25  46  1   
 50  26  47  1   
 51  26  48  1   
 52  26  49  1   
@<TRIPOS>SUBSTRUCTURE
  1 ****  13 GROUP 4 **** **** 0

# MOE 2024.06 (io_trps.svl 2023.06)
