@<TRIPOS>MOLECULE
NONAME
45 47 1 0 0 
SMALL
USER_CHARGES


@<TRIPOS>ATOM
  1 O       -3.7460     2.7690    -0.9150 O.2   1 <1>  -0.5700 
  2 C       -2.6470     2.2850    -0.7920 C.2   1 <1>   0.5690 
  3 N       -2.3690     1.0260    -1.2110 N.am  1 <1>  -0.7300 
  4 C       -1.5430     3.1000    -0.1370 C.3   1 <1>   0.0820 
  5 C       -3.3240     0.0690    -1.8060 C.3   1 <1>   0.2200 
  6 C       -0.3820     2.2200     0.3180 C.2   1 <1>  -0.1810 
  7 C       -3.5900    -1.0450    -0.8090 C.3   1 <1>  -0.0800 
  8 C       -2.6510    -0.6820    -2.9540 C.3   1 <1>   0.1200 
  9 C       -0.3830     1.3860     1.4350 C.2   1 <1>   0.1080 
 10 C        0.8300     2.0330    -0.2510 C.2   1 <1>  -0.3320 
 11 C       -2.3900    -1.9620    -1.0520 C.3   1 <1>   0.1200 
 12 C       -4.9310    -1.7480    -1.0940 C.3   1 <1>  -0.0160 
 13 O       -2.0390    -1.8100    -2.3960 O.3   1 <1>  -0.5600 
 14 N        0.7260     0.7320     1.5570 N.2   1 <1>  -0.7070 
 15 C       -1.5210     1.2230     2.4190 C.3   1 <1>  -0.0590 
 16 N        1.4800     1.1370     0.5220 N.pl3 1 <1>   0.3000 
 17 C        1.4430     2.6380    -1.5030 C.3   1 <1>  -0.0600 
 18 C       -5.2100    -2.8540    -0.0880 C.ar  1 <1>  -0.1440 
 19 C       -5.0510    -4.1880    -0.4030 C.ar  1 <1>  -0.1500 
 20 C       -5.6430    -2.5780     1.1930 C.ar  1 <1>  -0.1500 
 21 C       -5.3210    -5.1550     0.5510 C.ar  1 <1>   0.1600 
 22 C       -5.8860    -3.6210     2.0730 C.ar  1 <1>   0.1600 
 23 N       -5.7350    -4.9030     1.7830 N.ar  1 <1>  -0.6200 
 24 H       -1.4290     0.6540    -1.0260 H     1 <1>   0.3700 
 25 H       -1.2020     3.8340    -0.8400 H     1 <1>   0.0800 
 26 H       -1.9520     3.6210     0.7080 H     1 <1>   0.0800 
 27 H       -4.2170     0.5830    -2.1220 H     1 <1>   0.0800 
 28 H       -3.5970    -0.6750     0.2010 H     1 <1>   0.0800 
 29 H       -1.9130    -0.0850    -3.4600 H     1 <1>   0.0800 
 30 H       -3.3840    -1.0280    -3.6600 H     1 <1>   0.0800 
 31 H       -2.5950    -2.9990    -0.8530 H     1 <1>   0.0800 
 32 H       -1.5470    -1.6470    -0.4590 H     1 <1>   0.0800 
 33 H       -4.9320    -2.1590    -2.0890 H     1 <1>   0.0800 
 34 H       -5.7280    -1.0270    -1.0420 H     1 <1>   0.0800 
 35 H       -2.4460     1.0640     1.8970 H     1 <1>   0.0800 
 36 H       -1.6010     2.1030     3.0280 H     1 <1>   0.0800 
 37 H       -1.3330     0.3770     3.0540 H     1 <1>   0.0800 
 38 H        2.4310     0.7790     0.3680 H     1 <1>   0.2700 
 39 H        0.7460     3.2930    -1.9940 H     1 <1>   0.0800 
 40 H        1.7190     1.8610    -2.1930 H     1 <1>   0.0800 
 41 H        2.3200     3.2060    -1.2480 H     1 <1>   0.0800 
 42 H       -4.7180    -4.4860    -1.3810 H     1 <1>   0.1500 
 43 H       -5.7940    -1.5650     1.5150 H     1 <1>   0.1500 
 44 H       -5.1910    -6.1900     0.2870 H     1 <1>   0.1500 
 45 H       -6.2220    -3.3860     3.0680 H     1 <1>   0.1500 
@<TRIPOS>BOND
  1   1   2  2   
  2   2   3  am  
  3   2   4  1   
  4   3   5  1   
  5   3  24  1   
  6   4   6  1   
  7   4  25  1   
  8   4  26  1   
  9   5   7  1   
 10   5   8  1   
 11   5  27  1   
 12   6   9  1   
 13   6  10  2   
 14   7  11  1   
 15   7  12  1   
 16   7  28  1   
 17   8  13  1   
 18   8  29  1   
 19   8  30  1   
 20   9  14  2   
 21   9  15  1   
 22  10  16  1   
 23  10  17  1   
 24  11  13  1   
 25  11  31  1   
 26  11  32  1   
 27  12  18  1   
 28  12  33  1   
 29  12  34  1   
 30  14  16  1   
 31  15  35  1   
 32  15  36  1   
 33  15  37  1   
 34  16  38  1   
 35  17  39  1   
 36  17  40  1   
 37  17  41  1   
 38  18  19  ar  
 39  18  20  ar  
 40  19  21  ar  
 41  19  42  1   
 42  20  22  ar  
 43  20  43  1   
 44  21  23  ar  
 45  21  44  1   
 46  22  23  ar  
 47  22  45  1   
@<TRIPOS>SUBSTRUCTURE
  1 ****   7 GROUP 4 **** **** 0

# MOE 2024.06 (io_trps.svl 2023.06)
