@<TRIPOS>MOLECULE
NONAME
48 50 1 0 0 
SMALL
USER_CHARGES


@<TRIPOS>ATOM
  1 S        0.1800     0.4560    -1.4850 S.o2  1 <1>   1.4470 
  2 O        1.1290     1.2800    -2.2020 O.2   1 <1>  -0.6500 
  3 O       -0.7190    -0.3910    -2.2420 O.2   1 <1>  -0.6500 
  4 N       -0.8090     1.4900    -0.5710 N.am  1 <1>  -0.8490 
  5 C        1.0500    -0.5370    -0.2240 C.ar  1 <1>  -0.0090 
  6 C       -1.7860     0.7620     0.2530 C.3   1 <1>   0.1960 
  7 C       -1.3710     2.6010    -1.3630 C.3   1 <1>   0.1960 
  8 C        1.9300     0.0190     0.7170 C.ar  1 <1>  -0.1440 
  9 C        0.8200    -1.9130    -0.1780 C.ar  1 <1>  -0.1500 
 10 C       -2.8690     1.7010     0.7860 C.3   1 <1>  -0.1600 
 11 C       -2.8540     2.3810    -1.6580 C.3   1 <1>  -0.1600 
 12 C        2.5430    -0.7880     1.6660 C.ar  1 <1>  -0.1500 
 13 C        2.2490     1.5100     0.7380 C.3   1 <1>  -0.0970 
 14 C        1.4280    -2.7250     0.7630 C.ar  1 <1>  -0.1500 
 15 C       -3.6730     2.3690    -0.3550 C.3   1 <1>   0.2800 
 16 C        2.2820    -2.1420     1.6730 C.ar  1 <1>   0.1900 
 17 O       -3.8260     3.7190    -0.0030 O.3   1 <1>  -0.5600 
 18 C       -5.0350     1.6870    -0.6200 C.3   1 <1>  -0.1600 
 19 F        2.8600    -2.8940     2.5690 F     1 <1>  -0.1900 
 20 C       -5.0040     4.1980     0.5840 C.3   1 <1>   0.1200 
 21 C       -6.1060     1.9490     0.4580 C.3   1 <1>   0.2800 
 22 C       -5.7260     3.1110     1.3780 C.3   1 <1>  -0.1600 
 23 O       -7.2540     2.3200    -0.2010 O.3   1 <1>  -0.6800 
 24 C       -6.4780     0.7000     1.2550 C.3   1 <1>  -0.2400 
 25 H       -1.2750     0.2960     1.0790 H     1 <1>   0.0800 
 26 H       -2.2580    -0.0150    -0.3270 H     1 <1>   0.0800 
 27 H       -0.8320     2.7310    -2.2870 H     1 <1>   0.0800 
 28 H       -1.2620     3.5120    -0.7990 H     1 <1>   0.0800 
 29 H        0.1520    -2.3620    -0.8950 H     1 <1>   0.1500 
 30 H       -2.3870     2.4510     1.3880 H     1 <1>   0.0800 
 31 H       -3.5150     1.1360     1.4270 H     1 <1>   0.0800 
 32 H       -2.9590     1.4500    -2.1880 H     1 <1>   0.0800 
 33 H       -3.2160     3.1600    -2.3040 H     1 <1>   0.0800 
 34 H        3.2210    -0.3830     2.3960 H     1 <1>   0.1500 
 35 H        1.3560     2.0870     0.8960 H     1 <1>   0.0800 
 36 H        2.6970     1.8090    -0.1930 H     1 <1>   0.0800 
 37 H        2.9390     1.7480     1.5270 H     1 <1>   0.0800 
 38 H        1.2470    -3.7850     0.7920 H     1 <1>   0.1500 
 39 H       -4.8740     0.6300    -0.7220 H     1 <1>   0.0800 
 40 H       -5.3900     2.0310    -1.5760 H     1 <1>   0.0800 
 41 H       -5.6320     4.5740    -0.2040 H     1 <1>   0.0800 
 42 H       -4.7340     5.0190     1.2260 H     1 <1>   0.0800 
 43 H       -6.6060     3.5130     1.8470 H     1 <1>   0.0800 
 44 H       -5.0760     2.7760     2.1650 H     1 <1>   0.0800 
 45 H       -7.0700     3.0880    -0.7710 H     1 <1>   0.4000 
 46 H       -5.6360     0.3350     1.8110 H     1 <1>   0.0800 
 47 H       -6.8120    -0.0790     0.5930 H     1 <1>   0.0800 
 48 H       -7.2680     0.9260     1.9500 H     1 <1>   0.0800 
@<TRIPOS>BOND
  1   1   2  2   
  2   1   3  2   
  3   1   4  am  
  4   1   5  1   
  5   4   6  1   
  6   4   7  1   
  7   5   8  ar  
  8   5   9  ar  
  9   6  10  1   
 10   6  25  1   
 11   6  26  1   
 12   7  11  1   
 13   7  27  1   
 14   7  28  1   
 15   8  12  ar  
 16   8  13  1   
 17   9  14  ar  
 18   9  29  1   
 19  10  15  1   
 20  10  30  1   
 21  10  31  1   
 22  11  15  1   
 23  11  32  1   
 24  11  33  1   
 25  12  16  ar  
 26  12  34  1   
 27  13  35  1   
 28  13  36  1   
 29  13  37  1   
 30  14  16  ar  
 31  14  38  1   
 32  15  17  1   
 33  15  18  1   
 34  16  19  1   
 35  17  20  1   
 36  18  21  1   
 37  18  39  1   
 38  18  40  1   
 39  20  22  1   
 40  20  41  1   
 41  20  42  1   
 42  21  22  1   
 43  21  23  1   
 44  21  24  1   
 45  22  43  1   
 46  22  44  1   
 47  23  45  1   
 48  24  46  1   
 49  24  47  1   
 50  24  48  1   
@<TRIPOS>SUBSTRUCTURE
  1 ****   6 GROUP 4 **** **** 0

# MOE 2024.06 (io_trps.svl 2023.06)
