@<TRIPOS>MOLECULE
NONAME
49 51 1 0 0 
SMALL
USER_CHARGES


@<TRIPOS>ATOM
  1 F       -1.5640    -5.5070    -1.3550 F     1 <1>  -0.1900 
  2 C       -2.5920    -4.8210    -0.9350 C.ar  1 <1>   0.1900 
  3 C       -2.9410    -4.8920     0.3990 C.ar  1 <1>  -0.1500 
  4 C       -3.2950    -4.0500    -1.8410 C.ar  1 <1>  -0.1500 
  5 C       -4.0370    -4.1670     0.8380 C.ar  1 <1>  -0.1500 
  6 C       -4.3870    -3.3290    -1.3870 C.ar  1 <1>  -0.1500 
  7 C       -4.7660    -3.3830    -0.0510 C.ar  1 <1>  -0.0320 
  8 C       -5.9870    -2.5810     0.3970 C.3   1 <1>   0.0320 
  9 C       -7.2780    -3.1100    -0.2610 C.2   1 <1>   0.6300 
 10 C       -5.8010    -1.0990     0.6410 C.3   1 <1>  -0.1900 
 11 C       -6.0430    -1.9960     1.8000 C.3   1 <1>  -0.2000 
 12 O       -7.6220    -2.6060    -1.3070 O.2   1 <1>  -0.5700 
 13 N       -8.0280    -4.1110     0.3090 N.am  1 <1>  -0.6600 
 14 C       -6.9050    -0.0940     0.2800 C.3   1 <1>  -0.1450 
 15 C       -4.4110    -0.4580     0.5070 C.3   1 <1>  -0.1450 
 16 C       -7.6200    -4.8500     1.5430 C.3   1 <1>   0.3210 
 17 C       -9.4260    -4.3600    -0.1740 C.3   1 <1>   0.1400 
 18 C       -7.6810    -6.3610     1.3650 C.2   1 <1>   0.0460 
 19 C       -9.4720    -5.1300    -1.5040 C.3   1 <1>   0.1200 
 20 N       -8.5130    -7.0900     2.1340 N.2   1 <1>  -0.5650 
 21 C       -6.9970    -7.1590     0.5080 C.2   1 <1>  -0.3320 
 22 O       -9.1860    -6.4700    -1.3030 O.3   1 <1>  -0.6800 
 23 C       -8.3250    -8.3050     1.7360 C.2   1 <1>   0.0360 
 24 N       -7.4120    -8.4160     0.7500 N.pl3 1 <1>   0.0330 
 25 C       -5.9720    -6.8350    -0.5650 C.3   1 <1>  -0.0600 
 26 H       -2.3680    -5.5020     1.0740 H     1 <1>   0.1500 
 27 H       -2.9940    -4.0160    -2.8720 H     1 <1>   0.1500 
 28 H       -4.3150    -4.2190     1.8750 H     1 <1>   0.1500 
 29 H       -4.9520    -2.7220    -2.0750 H     1 <1>   0.1500 
 30 H       -5.2330    -2.1560     2.4880 H     1 <1>   0.1000 
 31 H       -6.9940    -1.9400     2.3000 H     1 <1>   0.1000 
 32 H       -7.8830    -0.5010     0.4660 H     1 <1>   0.0800 
 33 H       -6.8410     0.1610    -0.7630 H     1 <1>   0.0800 
 34 H       -6.8010     0.8040     0.8630 H     1 <1>   0.0800 
 35 H       -3.6370    -1.1180     0.8540 H     1 <1>   0.0800 
 36 H       -4.3610     0.4470     1.0850 H     1 <1>   0.0800 
 37 H       -4.2160    -0.2200    -0.5240 H     1 <1>   0.0800 
 38 H       -8.2730    -4.5670     2.3500 H     1 <1>   0.0800 
 39 H       -6.6200    -4.6000     1.8300 H     1 <1>   0.0800 
 40 H       -9.9000    -3.4060    -0.3270 H     1 <1>   0.0800 
 41 H       -9.9980    -4.8880     0.5710 H     1 <1>   0.0800 
 42 H       -8.7620    -4.7270    -2.2040 H     1 <1>   0.0800 
 43 H      -10.4560    -5.0730    -1.9340 H     1 <1>   0.0800 
 44 H       -8.5090    -6.5570    -0.5890 H     1 <1>   0.4000 
 45 H       -8.8390    -9.1610     2.1370 H     1 <1>   0.1500 
 46 H       -7.1160    -9.2760     0.2780 H     1 <1>   0.2700 
 47 H       -5.9200    -5.7760    -0.7290 H     1 <1>   0.0800 
 48 H       -6.2470    -7.2980    -1.4960 H     1 <1>   0.0800 
 49 H       -4.9980    -7.1870    -0.2740 H     1 <1>   0.0800 
@<TRIPOS>BOND
  1   1   2  1   
  2   2   3  ar  
  3   2   4  ar  
  4   3   5  ar  
  5   3  26  1   
  6   4   6  ar  
  7   4  27  1   
  8   5   7  ar  
  9   5  28  1   
 10   6   7  ar  
 11   6  29  1   
 12   7   8  1   
 13   8   9  1   
 14   8  10  1   
 15   8  11  1   
 16   9  12  2   
 17   9  13  am  
 18  10  11  1   
 19  10  14  1   
 20  10  15  1   
 21  11  30  1   
 22  11  31  1   
 23  13  16  1   
 24  13  17  1   
 25  14  32  1   
 26  14  33  1   
 27  14  34  1   
 28  15  35  1   
 29  15  36  1   
 30  15  37  1   
 31  16  18  1   
 32  16  38  1   
 33  16  39  1   
 34  17  19  1   
 35  17  40  1   
 36  17  41  1   
 37  18  20  1   
 38  18  21  2   
 39  19  22  1   
 40  19  42  1   
 41  19  43  1   
 42  20  23  2   
 43  21  24  1   
 44  21  25  1   
 45  22  44  1   
 46  23  24  1   
 47  23  45  1   
 48  24  46  1   
 49  25  47  1   
 50  25  48  1   
 51  25  49  1   
@<TRIPOS>SUBSTRUCTURE
  1 ****   9 GROUP 4 **** **** 0

# MOE 2024.06 (io_trps.svl 2023.06)
