@<TRIPOS>MOLECULE
NONAME
54 57 1 0 0 
SMALL
USER_CHARGES


@<TRIPOS>ATOM
  1 O       -0.2580     0.2750    -1.1710 O.2   1 <1>  -0.5700 
  2 C       -1.1720     0.9510    -0.7620 C.2   1 <1>   0.5690 
  3 N       -2.3300     0.3820    -0.3160 N.am  1 <1>  -0.6600 
  4 C       -1.0280     2.4640    -0.7580 C.3   1 <1>  -0.0990 
  5 C       -3.5560     1.0910     0.1270 C.3   1 <1>   0.1400 
  6 C       -2.5320    -1.0860    -0.2910 C.3   1 <1>   0.1400 
  7 C        0.4090     2.9350    -1.0330 C.3   1 <1>   0.0200 
  8 C       -4.6100    -0.0060     0.2800 C.3   1 <1>   0.2000 
  9 C       -3.8280    -1.3010     0.4940 C.3   1 <1>  -0.0800 
 10 C        0.5040     4.4470    -0.9930 C.2   1 <1>   0.2980 
 11 O       -5.4420     0.2340     1.3620 O.3   1 <1>  -0.6800 
 12 C       -4.6110    -2.5510     0.0640 C.3   1 <1>  -0.0160 
 13 O       -0.0320     5.1360    -1.9660 O.3   1 <1>  -0.0190 
 14 N        1.0620     5.1290    -0.0830 N.2   1 <1>  -0.5650 
 15 C       -3.7980    -3.8150     0.2950 C.ar  1 <1>  -0.1440 
 16 N        0.2090     6.3690    -1.6480 N.2   1 <1>  -0.4100 
 17 C        0.8490     6.3710    -0.5320 C.2   1 <1>   0.4620 
 18 C       -3.0790    -4.4220    -0.7150 C.ar  1 <1>  -0.1500 
 19 C       -3.7380    -4.4190     1.5340 C.ar  1 <1>  -0.1500 
 20 C        1.3460     7.5300     0.1860 C.ar  1 <1>   0.0540 
 21 C       -2.3520    -5.5700    -0.4430 C.ar  1 <1>   0.1600 
 22 C       -2.9810    -5.5680     1.7000 C.ar  1 <1>   0.1600 
 23 C        0.5770     8.6840     0.3970 C.ar  1 <1>   0.0820 
 24 C        2.6450     7.5120     0.6950 C.ar  1 <1>  -0.1500 
 25 N       -2.2860    -6.1570     0.7410 N.ar  1 <1>  -0.6200 
 26 O       -0.7000     8.6960    -0.0670 O.3   1 <1>  -0.3620 
 27 C        1.1190     9.7730     1.0770 C.ar  1 <1>  -0.1500 
 28 C        3.1770     8.5920     1.3720 C.ar  1 <1>  -0.1500 
 29 C       -1.5080     9.8510    -0.0400 C.3   1 <1>   0.0400 
 30 C        2.4130     9.7280     1.5610 C.ar  1 <1>  -0.1500 
 31 H       -1.6840     2.8690    -1.5060 H     1 <1>   0.0800 
 32 H       -1.3330     2.8390     0.2010 H     1 <1>   0.0800 
 33 H       -3.3650     1.5740     1.0700 H     1 <1>   0.0800 
 34 H       -3.8650     1.8140    -0.6090 H     1 <1>   0.0800 
 35 H       -2.6290    -1.4400    -1.3030 H     1 <1>   0.0800 
 36 H       -1.6980    -1.5810     0.1790 H     1 <1>   0.0800 
 37 H        0.7360     2.5900    -1.9980 H     1 <1>   0.0800 
 38 H        1.0710     2.5240    -0.2910 H     1 <1>   0.0800 
 39 H       -5.2150    -0.0550    -0.6090 H     1 <1>   0.0800 
 40 H       -3.5570    -1.3890     1.5310 H     1 <1>   0.0800 
 41 H       -4.9340     0.2230     2.1960 H     1 <1>   0.4000 
 42 H       -4.8820    -2.4780    -0.9750 H     1 <1>   0.0800 
 43 H       -5.5250    -2.6100     0.6300 H     1 <1>   0.0800 
 44 H       -3.0740    -4.0180    -1.7100 H     1 <1>   0.1500 
 45 H       -4.2720    -4.0100     2.3720 H     1 <1>   0.1500 
 46 H       -1.7960    -6.0290    -1.2420 H     1 <1>   0.1500 
 47 H       -2.9460    -6.0250     2.6740 H     1 <1>   0.1500 
 48 H        3.2470     6.6310     0.5530 H     1 <1>   0.1500 
 49 H        0.5480    10.6660     1.2450 H     1 <1>   0.1500 
 50 H        4.1840     8.5500     1.7510 H     1 <1>   0.1500 
 51 H       -2.4390     9.6170    -0.5230 H     1 <1>   0.0800 
 52 H       -1.0080    10.6390    -0.5750 H     1 <1>   0.0800 
 53 H       -1.6870    10.1290     0.9830 H     1 <1>   0.0800 
 54 H        2.8240    10.5730     2.0860 H     1 <1>   0.1500 
@<TRIPOS>BOND
  1   1   2  2   
  2   2   3  am  
  3   2   4  1   
  4   3   5  1   
  5   3   6  1   
  6   4   7  1   
  7   4  31  1   
  8   4  32  1   
  9   5   8  1   
 10   5  33  1   
 11   5  34  1   
 12   6   9  1   
 13   6  35  1   
 14   6  36  1   
 15   7  10  1   
 16   7  37  1   
 17   7  38  1   
 18   8   9  1   
 19   8  11  1   
 20   8  39  1   
 21   9  12  1   
 22   9  40  1   
 23  10  13  1   
 24  10  14  2   
 25  11  41  1   
 26  12  15  1   
 27  12  42  1   
 28  12  43  1   
 29  13  16  1   
 30  14  17  1   
 31  15  18  ar  
 32  15  19  ar  
 33  16  17  2   
 34  17  20  1   
 35  18  21  ar  
 36  18  44  1   
 37  19  22  ar  
 38  19  45  1   
 39  20  23  ar  
 40  20  24  ar  
 41  21  25  ar  
 42  21  46  1   
 43  22  25  ar  
 44  22  47  1   
 45  23  26  1   
 46  23  27  ar  
 47  24  28  ar  
 48  24  48  1   
 49  26  29  1   
 50  27  30  ar  
 51  27  49  1   
 52  28  30  ar  
 53  28  50  1   
 54  29  51  1   
 55  29  52  1   
 56  29  53  1   
 57  30  54  1   
@<TRIPOS>SUBSTRUCTURE
  1 ****   4 GROUP 4 **** **** 0

# MOE 2024.06 (io_trps.svl 2023.06)
