@<TRIPOS>MOLECULE
NONAME
49 51 1 0 0 
SMALL
USER_CHARGES


@<TRIPOS>ATOM
  1 O       -0.3520     1.3880    -1.5140 O.2   1 <1>  -0.5700 
  2 C       -0.5360     2.5810    -1.4560 C.2   1 <1>   0.5690 
  3 N       -1.0920     3.2160    -0.3730 N.am  1 <1>  -0.6600 
  4 C       -0.1250     3.4120    -2.6690 C.3   1 <1>   0.1810 
  5 C       -1.3030     4.7040    -0.3820 C.3   1 <1>   0.3640 
  6 C       -1.4340     2.5440     0.9140 C.3   1 <1>   0.2200 
  7 O        0.2580     4.7140    -2.3070 O.3   1 <1>  -0.5600 
  8 C       -2.7960     4.9980    -0.2180 C.ar  1 <1>  -0.1440 
  9 C       -0.7620     5.4410    -1.6390 C.3   1 <1>   0.2610 
 10 C       -0.1720     1.9920     1.5750 C.3   1 <1>  -0.2400 
 11 C       -2.4950     1.4610     0.7120 C.3   1 <1>  -0.2400 
 12 C       -3.7390     4.3800    -1.0310 C.ar  1 <1>  -0.1500 
 13 C       -3.2290     5.8940     0.7490 C.ar  1 <1>  -0.1500 
 14 C       -0.2420     6.8320    -1.2500 C.2   1 <1>   0.5690 
 15 C       -5.0870     4.6530    -0.8790 C.ar  1 <1>  -0.1500 
 16 C       -4.5770     6.1680     0.9020 C.ar  1 <1>  -0.1500 
 17 O       -0.9650     7.6110    -0.6690 O.2   1 <1>  -0.5700 
 18 N        1.0410     7.1660    -1.5490 N.am  1 <1>  -0.7300 
 19 C       -5.5070     5.5480     0.0890 C.ar  1 <1>  -0.1500 
 20 C        1.6730     8.4920    -1.3560 C.3   1 <1>   0.2780 
 21 C        2.0300     8.7110     0.1100 C.2   1 <1>  -0.0380 
 22 N        1.0170     8.6810     1.0310 N.pl3 1 <1>  -0.5500 
 23 C        3.2730     8.9460     0.5890 C.2   1 <1>  -0.1360 
 24 C        1.2540     8.8720     2.3610 C.2   1 <1>   0.4400 
 25 C        3.4720     9.1460     1.9820 C.2   1 <1>   0.7670 
 26 N        2.4160     9.0960     2.8530 N.2   1 <1>  -0.6610 
 27 O        4.5890     9.3670     2.4210 O.2   1 <1>  -0.5700 
 28 H       -0.9400     3.4680    -3.3670 H     1 <1>   0.0800 
 29 H        0.7150     2.9440    -3.1500 H     1 <1>   0.0800 
 30 H       -0.7830     5.1010     0.4740 H     1 <1>   0.0800 
 31 H       -1.8540     3.2760     1.5850 H     1 <1>   0.0800 
 32 H       -1.5630     5.5810    -2.3410 H     1 <1>   0.0800 
 33 H        0.2530     1.1980     0.9880 H     1 <1>   0.0800 
 34 H       -0.4130     1.5980     2.5450 H     1 <1>   0.0800 
 35 H        0.5570     2.7730     1.6960 H     1 <1>   0.0800 
 36 H       -2.1160     0.6480     0.1210 H     1 <1>   0.0800 
 37 H       -3.3630     1.8740     0.2340 H     1 <1>   0.0800 
 38 H       -2.7940     1.0670     1.6660 H     1 <1>   0.0800 
 39 H       -3.4300     3.6750    -1.7830 H     1 <1>   0.1500 
 40 H       -2.5200     6.3920     1.3880 H     1 <1>   0.1500 
 41 H       -5.8090     4.1680    -1.5120 H     1 <1>   0.1500 
 42 H       -4.9030     6.8660     1.6540 H     1 <1>   0.1500 
 43 H        1.6140     6.4410    -1.9950 H     1 <1>   0.3700 
 44 H       -6.5550     5.7610     0.2070 H     1 <1>   0.1500 
 45 H        2.5560     8.5590    -1.9680 H     1 <1>   0.0800 
 46 H        0.9870     9.2600    -1.6710 H     1 <1>   0.0800 
 47 H        0.0600     8.4730     0.6950 H     1 <1>   0.4000 
 48 H        4.1470     8.9940    -0.0290 H     1 <1>   0.1500 
 49 H        0.4000     8.8240     3.0150 H     1 <1>   0.0600 
@<TRIPOS>BOND
  1   1   2  2   
  2   2   3  am  
  3   2   4  1   
  4   3   5  1   
  5   3   6  1   
  6   4   7  1   
  7   4  28  1   
  8   4  29  1   
  9   5   8  1   
 10   5   9  1   
 11   5  30  1   
 12   6  10  1   
 13   6  11  1   
 14   6  31  1   
 15   7   9  1   
 16   8  12  ar  
 17   8  13  ar  
 18   9  14  1   
 19   9  32  1   
 20  10  33  1   
 21  10  34  1   
 22  10  35  1   
 23  11  36  1   
 24  11  37  1   
 25  11  38  1   
 26  12  15  ar  
 27  12  39  1   
 28  13  16  ar  
 29  13  40  1   
 30  14  17  2   
 31  14  18  am  
 32  15  19  ar  
 33  15  41  1   
 34  16  19  ar  
 35  16  42  1   
 36  18  20  1   
 37  18  43  1   
 38  19  44  1   
 39  20  21  1   
 40  20  45  1   
 41  20  46  1   
 42  21  22  1   
 43  21  23  2   
 44  22  24  1   
 45  22  47  1   
 46  23  25  1   
 47  23  48  1   
 48  24  26  2   
 49  24  49  1   
 50  25  26  1   
 51  25  27  2   
@<TRIPOS>SUBSTRUCTURE
  1 ****   5 GROUP 4 **** **** 0

# MOE 2024.06 (io_trps.svl 2023.06)
