@<TRIPOS>MOLECULE
NONAME
53 55 1 0 0 
SMALL
USER_CHARGES


@<TRIPOS>ATOM
  1 S        0.7310     0.2790    -0.4060 S.o2  1 <1>   1.3330 
  2 O        2.0330     0.4850     0.1870 O.2   1 <1>  -0.6500 
  3 O        0.6310    -0.0700    -1.8030 O.2   1 <1>  -0.6500 
  4 N       -0.1530    -0.8230     0.5290 N.am  1 <1>  -0.8490 
  5 C       -0.1530     1.8190    -0.1750 C.3   1 <1>  -0.0550 
  6 C        0.6950    -1.8620     1.1250 C.3   1 <1>   0.1160 
  7 C       -1.2620    -1.4500    -0.2010 C.3   1 <1>   0.1160 
  8 C        0.4540     2.9720    -1.0050 C.3   1 <1>  -0.0800 
  9 C       -0.2180     4.3350    -0.8300 C.3   1 <1>   0.2000 
 10 C        1.9440     3.2250    -0.7050 C.3   1 <1>   0.3430 
 11 O       -0.4990     4.5490     0.5190 O.3   1 <1>  -0.6800 
 12 C        0.8890     5.3010    -1.2600 C.3   1 <1>   0.3430 
 13 N        2.1630     4.7000    -0.7470 N.4   1 <1>  -0.9590 
 14 C        2.5190     5.1980     0.6090 C.3   1 <1>   0.4810 
 15 C        2.6750     6.6960     0.5250 C.2   1 <1>  -0.2760 
 16 C        3.6820     7.3450    -0.0790 C.2   1 <1>  -0.1780 
 17 C        1.5630     7.4870     1.2120 C.3   1 <1>   0.2580 
 18 C        3.6810     8.7810    -0.1400 C.ar  1 <1>   0.0280 
 19 O        1.4100     8.7520     0.5990 O.3   1 <1>  -0.3620 
 20 C        2.5090     9.4590     0.2050 C.ar  1 <1>   0.0820 
 21 C        4.7880     9.5180    -0.5480 C.ar  1 <1>  -0.1500 
 22 C        2.4410    10.8500     0.1320 C.ar  1 <1>   0.0820 
 23 C        4.7290    10.8970    -0.6160 C.ar  1 <1>  -0.1500 
 24 O        1.2650    11.4500     0.4740 O.3   1 <1>  -0.3620 
 25 C        3.5620    11.5640    -0.2790 C.ar  1 <1>  -0.1500 
 26 C        1.1000    12.8480     0.4000 C.3   1 <1>   0.0400 
 27 H       -1.1780     1.6810    -0.4610 H     1 <1>   0.0800 
 28 H       -0.1340     2.0650     0.8700 H     1 <1>   0.0800 
 29 H        0.1020    -2.5270     1.7300 H     1 <1>   0.0800 
 30 H        1.4420    -1.4120     1.7580 H     1 <1>   0.0800 
 31 H        1.1900    -2.4310     0.3560 H     1 <1>   0.0800 
 32 H       -1.8380    -2.0730     0.4630 H     1 <1>   0.0800 
 33 H       -0.8860    -2.0560    -1.0100 H     1 <1>   0.0800 
 34 H       -1.9140    -0.6970    -0.6090 H     1 <1>   0.0800 
 35 H        0.3870     2.7020    -2.0460 H     1 <1>   0.0800 
 36 H       -1.1210     4.4600    -1.4040 H     1 <1>   0.0800 
 37 H        2.5620     2.7190    -1.4310 H     1 <1>   0.0800 
 38 H        2.1910     2.8440     0.2740 H     1 <1>   0.0800 
 39 H       -1.4110     4.2630     0.7410 H     1 <1>   0.4000 
 40 H        0.7140     6.2980    -0.8910 H     1 <1>   0.0800 
 41 H        0.9210     5.3350    -2.3360 H     1 <1>   0.0800 
 42 H        2.9370     4.9530    -1.3730 H     1 <1>   0.4500 
 43 H        1.7530     4.9390     1.3220 H     1 <1>   0.0800 
 44 H        3.4500     4.7560     0.9280 H     1 <1>   0.0800 
 45 H        4.5150     6.8510    -0.5480 H     1 <1>   0.1500 
 46 H        1.7970     7.6500     2.2500 H     1 <1>   0.0800 
 47 H        0.6130     6.9890     1.1410 H     1 <1>   0.0800 
 48 H        5.6990     9.0120    -0.8130 H     1 <1>   0.1500 
 49 H        5.5930    11.4580    -0.9320 H     1 <1>   0.1500 
 50 H        3.5500    12.6350    -0.3450 H     1 <1>   0.1500 
 51 H        0.0950    13.0800     0.7030 H     1 <1>   0.0800 
 52 H        1.2580    13.1640    -0.6160 H     1 <1>   0.0800 
 53 H        1.8010    13.3180     1.0660 H     1 <1>   0.0800 
@<TRIPOS>BOND
  1   1   2  2   
  2   1   3  2   
  3   1   4  am  
  4   1   5  1   
  5   4   6  1   
  6   4   7  1   
  7   5   8  1   
  8   5  27  1   
  9   5  28  1   
 10   6  29  1   
 11   6  30  1   
 12   6  31  1   
 13   7  32  1   
 14   7  33  1   
 15   7  34  1   
 16   8   9  1   
 17   8  10  1   
 18   8  35  1   
 19   9  11  1   
 20   9  12  1   
 21   9  36  1   
 22  10  13  1   
 23  10  37  1   
 24  10  38  1   
 25  11  39  1   
 26  12  13  1   
 27  12  40  1   
 28  12  41  1   
 29  13  14  1   
 30  13  42  1   
 31  14  15  1   
 32  14  43  1   
 33  14  44  1   
 34  15  16  2   
 35  15  17  1   
 36  16  18  1   
 37  16  45  1   
 38  17  19  1   
 39  17  46  1   
 40  17  47  1   
 41  18  20  ar  
 42  18  21  ar  
 43  19  20  1   
 44  20  22  ar  
 45  21  23  ar  
 46  21  48  1   
 47  22  24  1   
 48  22  25  ar  
 49  23  25  ar  
 50  23  49  1   
 51  24  26  1   
 52  25  50  1   
 53  26  51  1   
 54  26  52  1   
 55  26  53  1   
@<TRIPOS>SUBSTRUCTURE
  1 ****  14 GROUP 4 **** **** 0

# MOE 2024.06 (io_trps.svl 2023.06)
