@<TRIPOS>MOLECULE
NONAME
55 58 1 0 0 
SMALL
USER_CHARGES


@<TRIPOS>ATOM
  1 O       -4.8040     2.8710     0.6830 O.2   1 <1>  -0.5700 
  2 C       -3.6250     3.0190     0.4730 C.2   1 <1>   0.5690 
  3 N       -2.9590     2.2630    -0.4350 N.am  1 <1>  -0.7300 
  4 C       -2.8520     4.0660     1.2590 C.3   1 <1>   0.0820 
  5 C       -3.5180     1.1470    -1.2220 C.3   1 <1>   0.2200 
  6 C       -1.3520     3.7840     1.2400 C.2   1 <1>  -0.1810 
  7 C       -3.0550    -0.1640    -0.6120 C.3   1 <1>  -0.0800 
  8 C       -2.8520     1.1090    -2.5960 C.3   1 <1>   0.1200 
  9 C       -0.7030     2.8050     1.9860 C.2   1 <1>   0.1080 
 10 C       -0.3760     4.3500     0.4960 C.2   1 <1>  -0.3320 
 11 C       -1.6560    -0.3070    -1.2180 C.3   1 <1>   0.1200 
 12 C       -3.9850    -1.3280    -1.0030 C.3   1 <1>  -0.0170 
 13 O       -1.6880     0.3440    -2.4560 O.3   1 <1>  -0.5600 
 14 N        0.5620     2.7580     1.7330 N.2   1 <1>  -0.7070 
 15 C       -1.3580     1.8710     2.9800 C.3   1 <1>  -0.0590 
 16 N        0.7930     3.7270     0.8150 N.pl3 1 <1>   0.5930 
 17 C       -0.4710     5.4560    -0.5480 C.3   1 <1>  -0.0600 
 18 C       -3.5380    -2.6390    -0.3750 C.ar  1 <1>  -0.1440 
 19 C        2.0740     3.9620     0.2460 C.ar  1 <1>  -0.0230 
 20 C       -3.7630    -2.9190     0.9580 C.ar  1 <1>  -0.1500 
 21 C       -2.8910    -3.6180    -1.1020 C.ar  1 <1>  -0.1500 
 22 C        2.7470     5.1580     0.4730 C.ar  1 <1>  -0.1500 
 23 C        2.6730     2.9980    -0.5590 C.ar  1 <1>  -0.1500 
 24 C       -3.3380    -4.1280     1.4850 C.ar  1 <1>   0.1600 
 25 C       -2.5080    -4.7940    -0.4780 C.ar  1 <1>   0.1600 
 26 C        3.9840     5.3910    -0.1020 C.ar  1 <1>  -0.1500 
 27 C        3.9100     3.2290    -1.1350 C.ar  1 <1>  -0.1500 
 28 N       -2.7150    -5.0720     0.7990 N.ar  1 <1>  -0.6200 
 29 C        4.5650     4.4270    -0.9080 C.ar  1 <1>  -0.1500 
 30 H       -1.9430     2.3860    -0.5150 H     1 <1>   0.3700 
 31 H       -3.0580     5.0290     0.8350 H     1 <1>   0.0800 
 32 H       -3.2060     4.0720     2.2730 H     1 <1>   0.0800 
 33 H       -4.5900     1.2360    -1.2860 H     1 <1>   0.0800 
 34 H       -3.0070    -0.1020     0.4610 H     1 <1>   0.0800 
 35 H       -2.5980     2.0890    -2.9590 H     1 <1>   0.0800 
 36 H       -3.4830     0.6100    -3.3090 H     1 <1>   0.0800 
 37 H       -1.3540    -1.3290    -1.3630 H     1 <1>   0.0800 
 38 H       -0.9270     0.1970    -0.6060 H     1 <1>   0.0800 
 39 H       -4.0180    -1.4370    -2.0730 H     1 <1>   0.0800 
 40 H       -4.9850    -1.1120    -0.6690 H     1 <1>   0.0800 
 41 H       -2.1940     1.3730     2.5270 H     1 <1>   0.0800 
 42 H       -1.6930     2.4280     3.8350 H     1 <1>   0.0800 
 43 H       -0.6490     1.1310     3.3070 H     1 <1>   0.0800 
 44 H       -1.4930     5.7300    -0.7310 H     1 <1>   0.0800 
 45 H       -0.0390     5.1250    -1.4760 H     1 <1>   0.0800 
 46 H        0.0610     6.3290    -0.2130 H     1 <1>   0.0800 
 47 H       -4.2640    -2.2100     1.5910 H     1 <1>   0.1500 
 48 H       -2.6800    -3.4790    -2.1460 H     1 <1>   0.1500 
 49 H        2.3020     5.9070     1.1050 H     1 <1>   0.1500 
 50 H        2.1670     2.0630    -0.7300 H     1 <1>   0.1500 
 51 H       -3.5220    -4.3280     2.5270 H     1 <1>   0.1500 
 52 H       -2.0030    -5.5460    -1.0610 H     1 <1>   0.1500 
 53 H        4.4970     6.3200     0.0780 H     1 <1>   0.1500 
 54 H        4.3630     2.4770    -1.7560 H     1 <1>   0.1500 
 55 H        5.5260     4.6070    -1.3560 H     1 <1>   0.1500 
@<TRIPOS>BOND
  1   1   2  2   
  2   2   3  am  
  3   2   4  1   
  4   3   5  1   
  5   3  30  1   
  6   4   6  1   
  7   4  31  1   
  8   4  32  1   
  9   5   7  1   
 10   5   8  1   
 11   5  33  1   
 12   6   9  1   
 13   6  10  2   
 14   7  11  1   
 15   7  12  1   
 16   7  34  1   
 17   8  13  1   
 18   8  35  1   
 19   8  36  1   
 20   9  14  2   
 21   9  15  1   
 22  10  16  1   
 23  10  17  1   
 24  11  13  1   
 25  11  37  1   
 26  11  38  1   
 27  12  18  1   
 28  12  39  1   
 29  12  40  1   
 30  14  16  1   
 31  15  41  1   
 32  15  42  1   
 33  15  43  1   
 34  16  19  1   
 35  17  44  1   
 36  17  45  1   
 37  17  46  1   
 38  18  20  ar  
 39  18  21  ar  
 40  19  22  ar  
 41  19  23  ar  
 42  20  24  ar  
 43  20  47  1   
 44  21  25  ar  
 45  21  48  1   
 46  22  26  ar  
 47  22  49  1   
 48  23  27  ar  
 49  23  50  1   
 50  24  28  ar  
 51  24  51  1   
 52  25  28  ar  
 53  25  52  1   
 54  26  29  ar  
 55  26  53  1   
 56  27  29  ar  
 57  27  54  1   
 58  29  55  1   
@<TRIPOS>SUBSTRUCTURE
  1 ****   3 GROUP 4 **** **** 0

# MOE 2024.06 (io_trps.svl 2023.06)
