@<TRIPOS>MOLECULE
NONAME
45 47 1 0 0 
SMALL
USER_CHARGES


@<TRIPOS>ATOM
  1 CL      -0.6970    -0.2160    -0.9770 Cl    1 <1>  -0.1770 
  2 C        0.3400    -1.3650    -0.1650 C.ar  1 <1>   0.1770 
  3 C        1.6280    -1.5910    -0.6270 C.ar  1 <1>  -0.1430 
  4 C       -0.1640    -2.0290     0.9420 C.ar  1 <1>  -0.1500 
  5 C        2.3900    -2.5150     0.0720 C.ar  1 <1>   0.1900 
  6 C        2.1720    -0.8560    -1.8380 C.3   1 <1>   0.3530 
  7 C        0.6240    -2.9470     1.6180 C.ar  1 <1>  -0.1500 
  8 F        3.6130    -2.7650    -0.3150 F     1 <1>  -0.1900 
  9 C        1.9140    -3.1940     1.1800 C.ar  1 <1>  -0.1500 
 10 N        2.5210     0.5260    -1.4380 N.pl3 1 <1>  -0.8690 
 11 C        3.6570     1.0120    -0.9180 C.ar  1 <1>   0.4100 
 12 N        3.5700     2.2400    -0.4650 N.ar  1 <1>  -0.6200 
 13 C        4.8490     0.2700    -0.8430 C.ar  1 <1>  -0.1500 
 14 C        4.6440     2.7820     0.0930 C.ar  1 <1>   0.7710 
 15 C        5.9350     0.8330    -0.2640 C.ar  1 <1>   0.2180 
 16 N        5.7980     2.0980     0.2010 N.ar  1 <1>  -0.1790 
 17 N        4.5770     4.0530     0.5750 N.pl3 1 <1>  -0.8380 
 18 C        7.2740     0.1230    -0.1110 C.3   1 <1>  -0.0170 
 19 C        5.7080     4.9010     1.0940 C.3   1 <1>   0.2090 
 20 C        3.2720     4.8150     0.6280 C.3   1 <1>   0.2090 
 21 C        7.6490    -0.0940     1.3610 C.3   1 <1>  -0.2400 
 22 C        5.7150     6.2890     0.4250 C.3   1 <1>   0.1200 
 23 C        3.4130     6.2100    -0.0060 C.3   1 <1>   0.1200 
 24 O        4.4750     6.9100     0.5760 O.3   1 <1>  -0.5600 
 25 H       -1.1680    -1.8250     1.2710 H     1 <1>   0.1500 
 26 H        1.4260    -0.8210    -2.6140 H     1 <1>   0.0800 
 27 H        3.0310    -1.3590    -2.2450 H     1 <1>   0.0800 
 28 H        0.2350    -3.4650     2.4790 H     1 <1>   0.1500 
 29 H        2.5430    -3.9030     1.6890 H     1 <1>   0.1500 
 30 H        1.7060     1.1460    -1.3840 H     1 <1>   0.4000 
 31 H        4.8760    -0.7260    -1.2400 H     1 <1>   0.1500 
 32 H        6.5520     2.5710     0.6780 H     1 <1>   0.4570 
 33 H        8.0460     0.6900    -0.6040 H     1 <1>   0.0800 
 34 H        7.2250    -0.8370    -0.5970 H     1 <1>   0.0800 
 35 H        6.6630     4.4410     0.9210 H     1 <1>   0.0800 
 36 H        5.5910     5.0370     2.1570 H     1 <1>   0.0800 
 37 H        2.9730     4.9330     1.6550 H     1 <1>   0.0800 
 38 H        2.4770     4.2950     0.1240 H     1 <1>   0.0800 
 39 H        7.7830     0.8390     1.8790 H     1 <1>   0.0800 
 40 H        8.5710    -0.6470     1.4240 H     1 <1>   0.0800 
 41 H        6.8850    -0.6640     1.8630 H     1 <1>   0.0800 
 42 H        5.9360     6.2110    -0.6250 H     1 <1>   0.0800 
 43 H        6.4520     6.9230     0.8870 H     1 <1>   0.0800 
 44 H        2.5160     6.7820     0.1550 H     1 <1>   0.0800 
 45 H        3.5850     6.1320    -1.0660 H     1 <1>   0.0800 
@<TRIPOS>BOND
  1   1   2  1   
  2   2   3  ar  
  3   2   4  ar  
  4   3   5  ar  
  5   3   6  1   
  6   4   7  ar  
  7   4  25  1   
  8   5   8  1   
  9   5   9  ar  
 10   6  10  1   
 11   6  26  1   
 12   6  27  1   
 13   7   9  ar  
 14   7  28  1   
 15   9  29  1   
 16  10  11  1   
 17  10  30  1   
 18  11  12  ar  
 19  11  13  ar  
 20  12  14  ar  
 21  13  15  ar  
 22  13  31  1   
 23  14  16  ar  
 24  14  17  1   
 25  15  16  ar  
 26  15  18  1   
 27  16  32  1   
 28  17  19  1   
 29  17  20  1   
 30  18  21  1   
 31  18  33  1   
 32  18  34  1   
 33  19  22  1   
 34  19  35  1   
 35  19  36  1   
 36  20  23  1   
 37  20  37  1   
 38  20  38  1   
 39  21  39  1   
 40  21  40  1   
 41  21  41  1   
 42  22  24  1   
 43  22  42  1   
 44  22  43  1   
 45  23  24  1   
 46  23  44  1   
 47  23  45  1   
@<TRIPOS>SUBSTRUCTURE
  1 ****  11 GROUP 4 **** **** 0

# MOE 2024.06 (io_trps.svl 2023.06)
