@<TRIPOS>MOLECULE
NONAME
40 41 1 0 0 
SMALL
USER_CHARGES


@<TRIPOS>ATOM
  1 F        1.2750     4.0410     0.0320 F     1 <1>  -0.3400 
  2 C        1.6080     3.4350     1.1660 C.3   1 <1>   0.9600 
  3 F        1.9510     4.4310     1.9800 F     1 <1>  -0.3400 
  4 O        2.8080     2.6980     0.9410 O.3   1 <1>  -0.3630 
  5 C        0.3920     2.6660     1.7660 C.3   1 <1>   0.6000 
  6 C        2.8210     1.6390     0.1030 C.ar  1 <1>   0.0830 
  7 F        0.7240     1.9850     2.8660 F     1 <1>  -0.3400 
  8 F       -0.1020     1.7420     0.9400 F     1 <1>  -0.3400 
  9 C        3.0510     1.7920    -1.2720 C.ar  1 <1>   0.0860 
 10 C        2.6460     0.3800     0.6610 C.ar  1 <1>  -0.1500 
 11 C        3.2940     3.0720    -1.9070 C.2   1 <1>   0.5440 
 12 C        3.0400     0.6360    -2.0550 C.ar  1 <1>  -0.1500 
 13 C        2.6540    -0.7460    -0.1390 C.ar  1 <1>  -0.1500 
 14 O        2.6080     3.3940    -2.8590 O.2   1 <1>  -0.5700 
 15 N        4.2920     3.9320    -1.5060 N.am  1 <1>  -0.6600 
 16 C        2.8450    -0.6160    -1.5030 C.ar  1 <1>  -0.1500 
 17 C        4.3270     5.3520    -2.0060 C.3   1 <1>   0.2010 
 18 C        5.4390     3.5660    -0.6310 C.3   1 <1>   0.1400 
 19 C        4.9450     6.3690    -1.0360 C.2   1 <1>   0.5690 
 20 C        5.5450     4.5260     0.5640 C.3   1 <1>   0.1400 
 21 O        4.9230     7.5340    -1.3620 O.2   1 <1>  -0.5700 
 22 N        5.5090     5.9610     0.1510 N.am  1 <1>  -0.6600 
 23 C        6.0240     6.9370     1.1440 C.3   1 <1>   0.1400 
 24 C        4.9830     7.1490     2.2410 C.3   1 <1>  -0.2400 
 25 H       -0.4100     3.3320     2.0220 H     1 <1>   0.0800 
 26 H        2.5000     0.2760     1.7220 H     1 <1>   0.1500 
 27 H        3.1860     0.7320    -3.1180 H     1 <1>   0.1500 
 28 H        2.5080    -1.7210     0.2950 H     1 <1>   0.1500 
 29 H        2.8420    -1.4900    -2.1320 H     1 <1>   0.1500 
 30 H        3.3260     5.6780    -2.2240 H     1 <1>   0.0800 
 31 H        4.8860     5.3810    -2.9230 H     1 <1>   0.0800 
 32 H        6.3470     3.6220    -1.2070 H     1 <1>   0.0800 
 33 H        5.3430     2.5570    -0.2740 H     1 <1>   0.0800 
 34 H        6.4650     4.3270     1.0850 H     1 <1>   0.0800 
 35 H        4.7340     4.3410     1.2440 H     1 <1>   0.0800 
 36 H        6.2300     7.8780     0.6600 H     1 <1>   0.0800 
 37 H        6.9450     6.5750     1.5660 H     1 <1>   0.0800 
 38 H        4.0630     7.5020     1.8080 H     1 <1>   0.0800 
 39 H        5.3370     7.8890     2.9350 H     1 <1>   0.0800 
 40 H        4.8000     6.2370     2.7780 H     1 <1>   0.0800 
@<TRIPOS>BOND
  1   1   2  1   
  2   2   3  1   
  3   2   4  1   
  4   2   5  1   
  5   4   6  1   
  6   5   7  1   
  7   5   8  1   
  8   5  25  1   
  9   6   9  ar  
 10   6  10  ar  
 11   9  11  1   
 12   9  12  ar  
 13  10  13  ar  
 14  10  26  1   
 15  11  14  2   
 16  11  15  am  
 17  12  16  ar  
 18  12  27  1   
 19  13  16  ar  
 20  13  28  1   
 21  15  17  1   
 22  15  18  1   
 23  16  29  1   
 24  17  19  1   
 25  17  30  1   
 26  17  31  1   
 27  18  20  1   
 28  18  32  1   
 29  18  33  1   
 30  19  21  2   
 31  19  22  am  
 32  20  22  1   
 33  20  34  1   
 34  20  35  1   
 35  22  23  1   
 36  23  24  1   
 37  23  36  1   
 38  23  37  1   
 39  24  38  1   
 40  24  39  1   
 41  24  40  1   
@<TRIPOS>SUBSTRUCTURE
  1 ****   4 GROUP 4 **** **** 0

# MOE 2024.06 (io_trps.svl 2023.06)
