@<TRIPOS>MOLECULE
NONAME
54 57 1 0 0 
SMALL
USER_CHARGES


@<TRIPOS>ATOM
  1 O        0.3310     1.0910     0.2050 O.2   1 <1>  -0.5700 
  2 C        0.0350     2.2490     0.0250 C.2   1 <1>   0.5690 
  3 N       -0.9110     2.8920     0.7760 N.am  1 <1>  -0.6600 
  4 C        0.7350     3.0050    -1.1040 C.3   1 <1>   0.1810 
  5 C       -1.2940     4.3160     0.4960 C.3   1 <1>   0.3640 
  6 C       -1.5800     2.2480     1.9430 C.3   1 <1>   0.0600 
  7 O        0.7430     4.3950    -0.8920 O.3   1 <1>  -0.5600 
  8 C       -2.8180     4.4600     0.3510 C.ar  1 <1>  -0.1440 
  9 C       -0.5470     4.9620    -0.7010 C.3   1 <1>   0.2610 
 10 C       -3.6170     3.6850    -0.4990 C.ar  1 <1>  -0.1440 
 11 C       -3.4260     5.4400     1.1270 C.ar  1 <1>  -0.1500 
 12 C       -0.4220     6.4690    -0.4620 C.2   1 <1>   0.5690 
 13 C       -4.9860     3.9050    -0.5350 C.ar  1 <1>  -0.1500 
 14 C       -3.0720     2.5840    -1.4020 C.3   1 <1>  -0.0960 
 15 C       -4.7910     5.6510     1.0800 C.ar  1 <1>  -0.1500 
 16 O       -1.3700     7.1900    -0.6580 O.2   1 <1>  -0.5700 
 17 N        0.7630     6.9650    -0.0250 N.am  1 <1>  -0.7300 
 18 C       -5.5740     4.8800     0.2480 C.ar  1 <1>  -0.1500 
 19 C        1.0930     8.3980     0.1410 C.3   1 <1>   0.2350 
 20 C        2.5200     8.7180    -0.3440 C.3   1 <1>  -0.0630 
 21 C        2.8170    10.2010    -0.1900 C.ar  1 <1>  -0.0320 
 22 C        3.6560     7.7570    -0.1460 C.3   1 <1>  -0.2000 
 23 C        3.1180     8.0100    -1.5250 C.3   1 <1>  -0.2000 
 24 C        3.4060    10.6840     0.9680 C.ar  1 <1>  -0.1500 
 25 C        2.4870    11.0870    -1.2040 C.ar  1 <1>  -0.1500 
 26 C        3.6650    12.0370     1.1100 C.ar  1 <1>  -0.1500 
 27 C        2.7450    12.4400    -1.0640 C.ar  1 <1>  -0.1500 
 28 C        3.3350    12.9150     0.0940 C.ar  1 <1>  -0.1500 
 29 H        0.2460     2.8010    -2.0390 H     1 <1>   0.0800 
 30 H        1.7560     2.6780    -1.1670 H     1 <1>   0.0800 
 31 H       -0.9980     4.8730     1.3690 H     1 <1>   0.0800 
 32 H       -1.4570     2.8590     2.8200 H     1 <1>   0.0800 
 33 H       -1.1540     1.2780     2.1380 H     1 <1>   0.0800 
 34 H       -2.6310     2.1260     1.7440 H     1 <1>   0.0800 
 35 H       -1.1070     4.8200    -1.6060 H     1 <1>   0.0800 
 36 H       -2.8380     6.0630     1.7790 H     1 <1>   0.1500 
 37 H       -5.6140     3.3140    -1.1780 H     1 <1>   0.1500 
 38 H       -3.8110     2.2750    -2.1190 H     1 <1>   0.0800 
 39 H       -2.8030     1.7250    -0.8140 H     1 <1>   0.0800 
 40 H       -2.2150     2.9200    -1.9480 H     1 <1>   0.0800 
 41 H       -5.2400     6.4170     1.6880 H     1 <1>   0.1500 
 42 H        1.5630     6.3260    -0.0080 H     1 <1>   0.3700 
 43 H       -6.6380     5.0390     0.2060 H     1 <1>   0.1500 
 44 H        0.3880     8.9960    -0.4120 H     1 <1>   0.0800 
 45 H        1.0060     8.6580     1.1810 H     1 <1>   0.0800 
 46 H        4.6310     8.1460     0.0920 H     1 <1>   0.1000 
 47 H        3.4810     6.7990     0.3080 H     1 <1>   0.1000 
 48 H        2.5580     7.2340    -2.0170 H     1 <1>   0.1000 
 49 H        3.7240     8.5730    -2.2130 H     1 <1>   0.1000 
 50 H        3.6640    10.0060     1.7610 H     1 <1>   0.1500 
 51 H        2.0260    10.7210    -2.1050 H     1 <1>   0.1500 
 52 H        4.1240    12.4050     2.0120 H     1 <1>   0.1500 
 53 H        2.4860    13.1210    -1.8560 H     1 <1>   0.1500 
 54 H        3.5360    13.9670     0.2030 H     1 <1>   0.1500 
@<TRIPOS>BOND
  1   1   2  2   
  2   2   3  am  
  3   2   4  1   
  4   3   5  1   
  5   3   6  1   
  6   4   7  1   
  7   4  29  1   
  8   4  30  1   
  9   5   8  1   
 10   5   9  1   
 11   5  31  1   
 12   6  32  1   
 13   6  33  1   
 14   6  34  1   
 15   7   9  1   
 16   8  10  ar  
 17   8  11  ar  
 18   9  12  1   
 19   9  35  1   
 20  10  13  ar  
 21  10  14  1   
 22  11  15  ar  
 23  11  36  1   
 24  12  16  2   
 25  12  17  am  
 26  13  18  ar  
 27  13  37  1   
 28  14  38  1   
 29  14  39  1   
 30  14  40  1   
 31  15  18  ar  
 32  15  41  1   
 33  17  19  1   
 34  17  42  1   
 35  18  43  1   
 36  19  20  1   
 37  19  44  1   
 38  19  45  1   
 39  20  21  1   
 40  20  22  1   
 41  20  23  1   
 42  21  24  ar  
 43  21  25  ar  
 44  22  23  1   
 45  22  46  1   
 46  22  47  1   
 47  23  48  1   
 48  23  49  1   
 49  24  26  ar  
 50  24  50  1   
 51  25  27  ar  
 52  25  51  1   
 53  26  28  ar  
 54  26  52  1   
 55  27  28  ar  
 56  27  53  1   
 57  28  54  1   
@<TRIPOS>SUBSTRUCTURE
  1 ****  12 GROUP 4 **** **** 0

# MOE 2024.06 (io_trps.svl 2023.06)
