@<TRIPOS>MOLECULE
NONAME
40 42 1 0 0 
SMALL
USER_CHARGES


@<TRIPOS>ATOM
  1 S       -0.2010    -0.2850    -0.3490 S.3   1 <1>  -0.0800 
  2 C       -1.2800    -1.0560     0.7650 C.2   1 <1>   0.4420 
  3 C       -0.2380     1.1040     0.6870 C.2   1 <1>   0.1980 
  4 N       -1.5720    -0.2990     1.7600 N.2   1 <1>  -0.3380 
  5 N       -1.6580    -2.3450     0.4560 N.am  1 <1>  -0.4940 
  6 N       -0.9760     0.9310     1.7080 N.2   1 <1>  -0.3380 
  7 C        0.5650     2.3410     0.2930 C.3   1 <1>   0.3800 
  8 C       -2.5880    -3.1550     1.0610 C.2   1 <1>   0.5440 
  9 O        0.2310     2.7640    -0.9970 O.3   1 <1>  -0.5600 
 10 C        2.0710     2.0800     0.3000 C.3   1 <1>  -0.2400 
 11 O       -3.3750    -2.6930     1.8570 O.2   1 <1>  -0.5700 
 12 C       -2.6480    -4.5540     0.7050 C.ar  1 <1>   0.0860 
 13 C       -1.0380     3.3310    -1.1190 C.3   1 <1>   0.0400 
 14 C       -1.4920    -5.2970     0.4830 C.ar  1 <1>   0.1600 
 15 C       -3.8560    -5.2200     0.5600 C.ar  1 <1>  -0.1500 
 16 N       -1.4440    -6.5630     0.1130 N.ar  1 <1>  -0.6200 
 17 C       -3.8400    -6.5470     0.1850 C.ar  1 <1>  -0.1430 
 18 C       -2.6130    -7.1710    -0.0290 C.ar  1 <1>   0.1670 
 19 C       -5.1660    -7.2830     0.0320 C.3   1 <1>  -0.0170 
 20 C       -2.5320    -8.6280    -0.4660 C.3   1 <1>  -0.0170 
 21 C       -5.0310    -8.5700    -0.7880 C.3   1 <1>  -0.1600 
 22 C       -3.8470    -9.3990    -0.2840 C.3   1 <1>  -0.1600 
 23 H       -1.2130    -2.7260    -0.3740 H     1 <1>   0.3700 
 24 H        0.3450     3.1420     0.9790 H     1 <1>   0.0800 
 25 H        2.3240     1.3230    -0.4210 H     1 <1>   0.0800 
 26 H        2.3770     1.7480     1.2750 H     1 <1>   0.0800 
 27 H        2.5980     2.9860     0.0640 H     1 <1>   0.0800 
 28 H       -1.1700     3.6380    -2.1420 H     1 <1>   0.0800 
 29 H       -1.1100     4.1900    -0.4740 H     1 <1>   0.0800 
 30 H       -1.7890     2.6030    -0.8630 H     1 <1>   0.0800 
 31 H       -0.5410    -4.8140     0.6260 H     1 <1>   0.1500 
 32 H       -4.7800    -4.6980     0.7430 H     1 <1>   0.1500 
 33 H       -5.8900    -6.6400    -0.4380 H     1 <1>   0.0800 
 34 H       -5.5310    -7.5280     1.0140 H     1 <1>   0.0800 
 35 H       -1.7540    -9.1210     0.0890 H     1 <1>   0.0800 
 36 H       -2.2520    -8.6430    -1.5040 H     1 <1>   0.0800 
 37 H       -4.8800    -8.3220    -1.8250 H     1 <1>   0.0800 
 38 H       -5.9390    -9.1430    -0.7120 H     1 <1>   0.0800 
 39 H       -3.9860    -9.6220     0.7610 H     1 <1>   0.0800 
 40 H       -3.7930   -10.3310    -0.8180 H     1 <1>   0.0800 
@<TRIPOS>BOND
  1   1   2  1   
  2   1   3  1   
  3   2   4  2   
  4   2   5  1   
  5   3   6  2   
  6   3   7  1   
  7   4   6  1   
  8   5   8  am  
  9   5  23  1   
 10   7   9  1   
 11   7  10  1   
 12   7  24  1   
 13   8  11  2   
 14   8  12  1   
 15   9  13  1   
 16  10  25  1   
 17  10  26  1   
 18  10  27  1   
 19  12  14  ar  
 20  12  15  ar  
 21  13  28  1   
 22  13  29  1   
 23  13  30  1   
 24  14  16  ar  
 25  14  31  1   
 26  15  17  ar  
 27  15  32  1   
 28  16  18  ar  
 29  17  18  ar  
 30  17  19  1   
 31  18  20  1   
 32  19  21  1   
 33  19  33  1   
 34  19  34  1   
 35  20  22  1   
 36  20  35  1   
 37  20  36  1   
 38  21  22  1   
 39  21  37  1   
 40  21  38  1   
 41  22  39  1   
 42  22  40  1   
@<TRIPOS>SUBSTRUCTURE
  1 ****   5 GROUP 4 **** **** 0

# MOE 2024.06 (io_trps.svl 2023.06)
