@<TRIPOS>MOLECULE
NONAME
37 39 1 0 0 
SMALL
USER_CHARGES


@<TRIPOS>ATOM
  1 O        0.3380    -0.4040    -1.6020 O.3   1 <1>  -0.6800 
  2 C        1.7090    -0.3400    -1.3830 C.3   1 <1>   0.2000 
  3 C        2.1630    -1.4780    -0.4760 C.3   1 <1>  -0.0800 
  4 C        2.0900     0.9280    -0.6290 C.3   1 <1>   0.2090 
  5 C        3.3580    -0.9090     0.2970 C.3   1 <1>   0.2090 
  6 C        2.5100    -2.7590    -1.2520 C.3   1 <1>   0.0210 
  7 N        3.3210     0.5710     0.1330 N.pl3 1 <1>  -0.8380 
  8 C        3.1000    -3.8130    -0.3370 C.2   1 <1>   0.1080 
  9 C        4.5060     1.1900    -0.2330 C.ar  1 <1>   0.4100 
 10 N        2.4630    -4.2930     0.6850 N.2   1 <1>  -0.7070 
 11 C        4.3690    -4.3670    -0.4730 C.2   1 <1>  -0.1500 
 12 N        4.8650     0.9930    -1.4990 N.ar  1 <1>  -0.6200 
 13 C        5.2720     1.9580     0.6780 C.ar  1 <1>   0.3830 
 14 N        3.3170    -5.1790     1.2340 N.pl3 1 <1>   0.3000 
 15 C        4.4790    -5.2390     0.5500 C.2   1 <1>  -0.3320 
 16 C        5.9980     1.5910    -1.8100 C.ar  1 <1>   0.1600 
 17 N        6.4190     2.5530     0.3390 N.ar  1 <1>  -0.6200 
 18 C        4.7960     2.1010     2.0260 C.1   1 <1>   0.4840 
 19 C        5.6410    -6.1420     0.9230 C.3   1 <1>  -0.0600 
 20 C        6.7500     2.3450    -0.9230 C.ar  1 <1>   0.1600 
 21 N        4.4360     2.2230     3.1050 N.1   1 <1>  -0.5570 
 22 H        0.0890    -1.2780    -1.9580 H     1 <1>   0.4000 
 23 H        2.2180    -0.3590    -2.3310 H     1 <1>   0.0800 
 24 H        1.3940    -1.6920     0.2460 H     1 <1>   0.0800 
 25 H        1.3140     1.1960     0.0670 H     1 <1>   0.0800 
 26 H        2.2690     1.7420    -1.3100 H     1 <1>   0.0800 
 27 H        4.2850    -1.2960    -0.0940 H     1 <1>   0.0800 
 28 H        3.2880    -1.1700     1.3400 H     1 <1>   0.0800 
 29 H        3.2150    -2.5360    -2.0320 H     1 <1>   0.0800 
 30 H        1.6220    -3.1610    -1.7050 H     1 <1>   0.0800 
 31 H        5.0870    -4.1320    -1.2390 H     1 <1>   0.1500 
 32 H        3.0760    -5.7230     2.0700 H     1 <1>   0.2700 
 33 H        6.3520     1.4780    -2.8200 H     1 <1>   0.1500 
 34 H        6.4500    -6.0110     0.2260 H     1 <1>   0.0800 
 35 H        5.3340    -7.1730     0.9010 H     1 <1>   0.0800 
 36 H        5.9970    -5.9020     1.9100 H     1 <1>   0.0800 
 37 H        7.6640     2.7950    -1.2720 H     1 <1>   0.1500 
@<TRIPOS>BOND
  1   1   2  1   
  2   1  22  1   
  3   2   3  1   
  4   2   4  1   
  5   2  23  1   
  6   3   5  1   
  7   3   6  1   
  8   3  24  1   
  9   4   7  1   
 10   4  25  1   
 11   4  26  1   
 12   5   7  1   
 13   5  27  1   
 14   5  28  1   
 15   6   8  1   
 16   6  29  1   
 17   6  30  1   
 18   7   9  1   
 19   8  10  2   
 20   8  11  1   
 21   9  12  ar  
 22   9  13  ar  
 23  10  14  1   
 24  11  15  2   
 25  11  31  1   
 26  12  16  ar  
 27  13  17  ar  
 28  13  18  1   
 29  14  15  1   
 30  14  32  1   
 31  15  19  1   
 32  16  20  ar  
 33  16  33  1   
 34  17  20  ar  
 35  18  21  3   
 36  19  34  1   
 37  19  35  1   
 38  19  36  1   
 39  20  37  1   
@<TRIPOS>SUBSTRUCTURE
  1 ****   5 GROUP 4 **** **** 0

# MOE 2024.06 (io_trps.svl 2023.06)
