@<TRIPOS>MOLECULE
NONAME
39 41 1 0 0 
SMALL
USER_CHARGES


@<TRIPOS>ATOM
  1 S       -0.3370     0.5530    -1.1840 S.3   1 <1>  -0.0800 
  2 C       -0.5910     1.7650     0.0550 C.2   1 <1>   0.1980 
  3 C        1.3540     0.9570    -1.2020 C.2   1 <1>  -0.1100 
  4 N        0.4690     2.3840     0.3960 N.2   1 <1>  -0.5650 
  5 C       -2.0190     1.9370     0.5690 C.3   1 <1>   0.1000 
  6 C        1.5810     1.9360    -0.3120 C.2   1 <1>   0.0460 
  7 C       -2.2220     3.3070     1.2330 C.3   1 <1>  -0.2400 
  8 C       -2.3750     0.8190     1.5580 C.3   1 <1>  -0.2400 
  9 C        2.9450     2.5680    -0.0310 C.3   1 <1>   0.3900 
 10 N        3.0480     3.9900    -0.4890 N.pl3 1 <1>  -0.8380 
 11 C        4.0810     4.7680    -0.0220 C.ar  1 <1>   0.4100 
 12 C        2.3020     4.3610    -1.7210 C.3   1 <1>   0.1290 
 13 N        5.2490     4.1720     0.1500 N.ar  1 <1>  -0.6200 
 14 C        3.9240     6.1250     0.2560 C.ar  1 <1>   0.0000 
 15 C        6.2550     4.9330     0.5570 C.ar  1 <1>   0.4770 
 16 C        5.0640     6.7700     0.6640 C.ar  1 <1>   0.2970 
 17 C        2.7740     6.9930     0.2150 C.2   1 <1>  -0.1500 
 18 N        6.2500     6.2240     0.8260 N.ar  1 <1>  -0.5670 
 19 C        7.5750     4.2200     0.7320 C.3   1 <1>  -0.0970 
 20 S        4.7330     8.4760     0.9640 S.3   1 <1>  -0.0800 
 21 C        3.0280     8.2700     0.5540 C.2   1 <1>  -0.1100 
 22 H        1.9940     0.4200    -1.8770 H     1 <1>   0.1500 
 23 H       -2.6830     1.8750    -0.2750 H     1 <1>   0.0800 
 24 H       -1.5790     3.4040     2.0900 H     1 <1>   0.0800 
 25 H       -3.2430     3.4280     1.5470 H     1 <1>   0.0800 
 26 H       -1.9780     4.0900     0.5370 H     1 <1>   0.0800 
 27 H       -1.7120     0.8510     2.4050 H     1 <1>   0.0800 
 28 H       -2.2790    -0.1410     1.0840 H     1 <1>   0.0800 
 29 H       -3.3870     0.9310     1.9030 H     1 <1>   0.0800 
 30 H        3.7080     1.9950    -0.5270 H     1 <1>   0.0800 
 31 H        3.1350     2.5260     1.0270 H     1 <1>   0.0800 
 32 H        1.2520     4.4440    -1.4970 H     1 <1>   0.0800 
 33 H        2.4420     3.6070    -2.4760 H     1 <1>   0.0800 
 34 H        2.6550     5.3010    -2.1070 H     1 <1>   0.0800 
 35 H        1.8140     6.5970    -0.0620 H     1 <1>   0.1500 
 36 H        7.4730     3.4610     1.4840 H     1 <1>   0.0800 
 37 H        8.3420     4.9100     1.0310 H     1 <1>   0.0800 
 38 H        7.8580     3.7620    -0.1970 H     1 <1>   0.0800 
 39 H        2.3990     9.1400     0.6210 H     1 <1>   0.1500 
@<TRIPOS>BOND
  1   1   2  1   
  2   1   3  1   
  3   2   4  2   
  4   2   5  1   
  5   3   6  2   
  6   3  22  1   
  7   4   6  1   
  8   5   7  1   
  9   5   8  1   
 10   5  23  1   
 11   6   9  1   
 12   7  24  1   
 13   7  25  1   
 14   7  26  1   
 15   8  27  1   
 16   8  28  1   
 17   8  29  1   
 18   9  10  1   
 19   9  30  1   
 20   9  31  1   
 21  10  11  1   
 22  10  12  1   
 23  11  13  ar  
 24  11  14  ar  
 25  12  32  1   
 26  12  33  1   
 27  12  34  1   
 28  13  15  ar  
 29  14  16  ar  
 30  14  17  1   
 31  15  18  ar  
 32  15  19  1   
 33  16  18  ar  
 34  16  20  1   
 35  17  21  2   
 36  17  35  1   
 37  19  36  1   
 38  19  37  1   
 39  19  38  1   
 40  20  21  1   
 41  21  39  1   
@<TRIPOS>SUBSTRUCTURE
  1 ****  10 GROUP 4 **** **** 0

# MOE 2024.06 (io_trps.svl 2023.06)
