@<TRIPOS>MOLECULE
NONAME
53 56 1 0 0 
SMALL
USER_CHARGES


@<TRIPOS>ATOM
  1 O       -0.3200    -0.2410    -2.6900 O.2   1 <1>  -0.5700 
  2 C       -0.9950     0.5810    -2.1130 C.2   1 <1>   0.5690 
  3 N       -2.0630     0.2090    -1.3370 N.am  1 <1>  -0.6600 
  4 C       -0.6270     2.0640    -2.2810 C.3   1 <1>   0.1710 
  5 C       -2.8620     1.1230    -0.4850 C.3   1 <1>   0.1400 
  6 C       -2.4230    -1.2040    -1.0780 C.3   1 <1>   0.1400 
  7 N       -0.1670     2.7530    -1.0420 N.3   1 <1>  -0.8100 
  8 C       -3.8040     0.2070     0.2980 C.3   1 <1>   0.2000 
  9 C       -3.1590    -1.1770     0.2630 C.3   1 <1>  -0.0800 
 10 C        1.0860     2.1370    -0.5400 C.3   1 <1>   0.1100 
 11 C        0.0640     4.1920    -1.2980 C.3   1 <1>   0.1100 
 12 O       -3.9530     0.6260     1.6100 O.3   1 <1>  -0.6800 
 13 C       -4.1800    -2.3120     0.4480 C.3   1 <1>  -0.0170 
 14 C        1.6130     2.8230     0.7350 C.3   1 <1>   0.2090 
 15 C        0.5420     4.9410    -0.0400 C.3   1 <1>   0.2090 
 16 C       -3.5100    -3.6770     0.4690 C.ar  1 <1>   0.1670 
 17 N        1.7640     4.3000     0.5380 N.pl3 1 <1>  -0.8380 
 18 N       -3.2150    -4.2090    -0.7060 N.ar  1 <1>  -0.6200 
 19 C       -3.2340    -4.2980     1.6860 C.ar  1 <1>   0.1600 
 20 C        2.8590     5.0150     0.9820 C.ar  1 <1>   0.7200 
 21 C       -2.6290    -5.3880    -0.5850 C.ar  1 <1>   0.1600 
 22 N       -2.6480    -5.4780     1.8100 N.ar  1 <1>  -0.6200 
 23 N        2.8440     6.3350     0.7900 N.ar  1 <1>  -0.6200 
 24 N        3.8400     4.3290     1.5690 N.ar  1 <1>  -0.6200 
 25 C       -2.3540    -6.0010     0.6320 C.ar  1 <1>   0.1600 
 26 C        3.8870     7.0020     1.2170 C.ar  1 <1>   0.1600 
 27 C        4.8710     5.0220     1.9870 C.ar  1 <1>   0.1600 
 28 C        4.9470     6.3830     1.8330 C.ar  1 <1>  -0.1500 
 29 H       -1.4960     2.5700    -2.6610 H     1 <1>   0.0800 
 30 H        0.1410     2.1330    -3.0320 H     1 <1>   0.0800 
 31 H       -2.2060     1.6570     0.1800 H     1 <1>   0.0800 
 32 H       -3.4170     1.8140    -1.0940 H     1 <1>   0.0800 
 33 H       -3.0680    -1.5530    -1.8660 H     1 <1>   0.0800 
 34 H       -1.5460    -1.8300    -1.0370 H     1 <1>   0.0800 
 35 H       -4.7750     0.1970    -0.1690 H     1 <1>   0.0800 
 36 H       -2.4110    -1.2400     1.0350 H     1 <1>   0.0800 
 37 H        0.9140     1.0980    -0.3200 H     1 <1>   0.0800 
 38 H        1.8490     2.1920    -1.2980 H     1 <1>   0.0800 
 39 H        0.8070     4.3130    -2.0680 H     1 <1>   0.0800 
 40 H       -0.8500     4.6440    -1.6390 H     1 <1>   0.0800 
 41 H       -3.0780     0.7250     2.0340 H     1 <1>   0.4000 
 42 H       -4.9040    -2.2900    -0.3490 H     1 <1>   0.0800 
 43 H       -4.7130    -2.1600     1.3700 H     1 <1>   0.0800 
 44 H        2.5500     2.3660     0.9990 H     1 <1>   0.0800 
 45 H        0.9230     2.6470     1.5400 H     1 <1>   0.0800 
 46 H       -0.2410     4.9280     0.6980 H     1 <1>   0.0800 
 47 H        0.7260     5.9660    -0.3050 H     1 <1>   0.0800 
 48 H       -3.5080    -3.7980     2.5970 H     1 <1>   0.1500 
 49 H       -2.3510    -5.8940    -1.4920 H     1 <1>   0.1500 
 50 H       -1.8730    -6.9630     0.6280 H     1 <1>   0.1500 
 51 H        3.8980     8.0690     1.0720 H     1 <1>   0.1500 
 52 H        5.6760     4.4890     2.4640 H     1 <1>   0.1500 
 53 H        5.7960     6.9400     2.1790 H     1 <1>   0.1500 
@<TRIPOS>BOND
  1   1   2  2   
  2   2   3  am  
  3   2   4  1   
  4   3   5  1   
  5   3   6  1   
  6   4   7  1   
  7   4  29  1   
  8   4  30  1   
  9   5   8  1   
 10   5  31  1   
 11   5  32  1   
 12   6   9  1   
 13   6  33  1   
 14   6  34  1   
 15   7  10  1   
 16   7  11  1   
 17   8   9  1   
 18   8  12  1   
 19   8  35  1   
 20   9  13  1   
 21   9  36  1   
 22  10  14  1   
 23  10  37  1   
 24  10  38  1   
 25  11  15  1   
 26  11  39  1   
 27  11  40  1   
 28  12  41  1   
 29  13  16  1   
 30  13  42  1   
 31  13  43  1   
 32  14  17  1   
 33  14  44  1   
 34  14  45  1   
 35  15  17  1   
 36  15  46  1   
 37  15  47  1   
 38  16  18  ar  
 39  16  19  ar  
 40  17  20  1   
 41  18  21  ar  
 42  19  22  ar  
 43  19  48  1   
 44  20  23  ar  
 45  20  24  ar  
 46  21  25  ar  
 47  21  49  1   
 48  22  25  ar  
 49  23  26  ar  
 50  24  27  ar  
 51  25  50  1   
 52  26  28  ar  
 53  26  51  1   
 54  27  28  ar  
 55  27  52  1   
 56  28  53  1   
@<TRIPOS>SUBSTRUCTURE
  1 ****  10 GROUP 4 **** **** 0

# MOE 2024.06 (io_trps.svl 2023.06)
