@<TRIPOS>MOLECULE
NONAME
63 66 1 0 0 
SMALL
USER_CHARGES


@<TRIPOS>ATOM
  1 O       -0.1830     0.8630     1.6320 O.2   1 <1>  -0.5700 
  2 C       -0.8590     1.0990     0.6550 C.2   1 <1>   0.5690 
  3 N       -1.7440     0.1410     0.1920 N.am  1 <1>  -0.6600 
  4 C       -0.6770     2.4810    -0.0180 C.3   1 <1>   0.0610 
  5 C       -1.9840    -1.1030     0.9840 C.3   1 <1>   0.1400 
  6 C       -2.4190     0.1050    -1.1380 C.3   1 <1>   0.1400 
  7 C       -0.0920     3.5440     0.9530 C.3   1 <1>   0.2200 
  8 C       -2.0050     3.1980    -0.4270 C.3   1 <1>  -0.1600 
  9 C        0.2520     2.3290    -1.2570 C.3   1 <1>  -0.0220 
 10 C       -3.4880    -1.3010     1.1990 C.3   1 <1>  -0.1600 
 11 C       -3.9310    -0.0720    -0.9550 C.3   1 <1>  -0.1600 
 12 N       -0.4700     4.7710     0.2570 N.am  1 <1>  -0.6600 
 13 C       -0.9360     3.7360     2.2320 C.3   1 <1>  -0.1600 
 14 C       -1.9090     4.5870     0.2220 C.3   1 <1>   0.2200 
 15 C        1.6750     1.9170    -0.9070 C.2   1 <1>  -0.2880 
 16 C       -4.2530    -1.3250    -0.1310 C.3   1 <1>  -0.1600 
 17 C        0.3590     5.7520    -0.1950 C.2   1 <1>   0.5690 
 18 C       -2.1990     4.4490     1.7180 C.3   1 <1>  -0.1600 
 19 C        2.2310     0.7010    -0.9670 C.2   1 <1>  -0.2760 
 20 O        1.5570     5.6790    -0.0770 O.2   1 <1>  -0.5700 
 21 C       -0.2210     6.9820    -0.8560 C.3   1 <1>  -0.0990 
 22 C        3.6820     0.4770    -0.5750 C.3   1 <1>  -0.1020 
 23 C        1.5430    -0.5890    -1.3890 C.3   1 <1>  -0.1020 
 24 C       -0.6510     8.0070     0.1950 C.3   1 <1>   0.0210 
 25 C       -1.3140     9.1990    -0.4670 C.2   1 <1>  -0.1810 
 26 C       -2.6120     9.2580    -0.9670 C.2   1 <1>   0.1390 
 27 C       -0.7990    10.4220    -0.7070 C.2   1 <1>  -0.3020 
 28 N       -2.8890    10.4160    -1.4800 N.2   1 <1>  -0.7070 
 29 N       -1.7640    11.1380    -1.3180 N.pl3 1 <1>   0.3000 
 30 H       -1.5730    -1.9430     0.4510 H     1 <1>   0.0800 
 31 H       -1.4970    -1.0520     1.9430 H     1 <1>   0.0800 
 32 H       -2.2300     0.9920    -1.7070 H     1 <1>   0.0800 
 33 H       -2.0300    -0.7280    -1.6980 H     1 <1>   0.0800 
 34 H        0.9640     3.4540     1.1470 H     1 <1>   0.0800 
 35 H       -2.8740     2.6820    -0.0650 H     1 <1>   0.0800 
 36 H       -2.0880     3.3050    -1.4930 H     1 <1>   0.0800 
 37 H       -0.1650     1.6200    -1.9420 H     1 <1>   0.0800 
 38 H        0.3110     3.2600    -1.7940 H     1 <1>   0.0800 
 39 H       -3.6510    -2.2230     1.7270 H     1 <1>   0.0800 
 40 H       -3.8550    -0.5000     1.8180 H     1 <1>   0.0800 
 41 H       -4.3320     0.7960    -0.4630 H     1 <1>   0.0800 
 42 H       -4.4000    -0.1480    -1.9200 H     1 <1>   0.0800 
 43 H       -1.1680     2.8170     2.7370 H     1 <1>   0.0800 
 44 H       -0.3990     4.3690     2.9150 H     1 <1>   0.0800 
 45 H       -2.4620     5.3650    -0.2760 H     1 <1>   0.0800 
 46 H        2.2470     2.7700    -0.5750 H     1 <1>   0.1500 
 47 H       -5.3110    -1.3770     0.0580 H     1 <1>   0.0800 
 48 H       -3.9700    -2.2020    -0.6880 H     1 <1>   0.0800 
 49 H       -2.2950     5.4210     2.1690 H     1 <1>   0.0800 
 50 H       -3.0940     3.8830     1.9070 H     1 <1>   0.0800 
 51 H        0.5280     7.4200    -1.4910 H     1 <1>   0.0800 
 52 H       -1.0520     6.7040    -1.4760 H     1 <1>   0.0800 
 53 H        3.7380    -0.2080     0.2520 H     1 <1>   0.0800 
 54 H        4.1440     1.4020    -0.2780 H     1 <1>   0.0800 
 55 H        4.2340     0.0730    -1.4040 H     1 <1>   0.0800 
 56 H        2.0470    -1.0150    -2.2380 H     1 <1>   0.0800 
 57 H        0.5160    -0.4320    -1.6500 H     1 <1>   0.0800 
 58 H        1.5710    -1.2940    -0.5780 H     1 <1>   0.0800 
 59 H        0.2130     8.3350     0.7470 H     1 <1>   0.0800 
 60 H       -1.3390     7.5600     0.8920 H     1 <1>   0.0800 
 61 H       -3.3160     8.4430    -0.9380 H     1 <1>   0.1500 
 62 H        0.1760    10.8150    -0.4860 H     1 <1>   0.1500 
 63 H       -1.6890    12.1130    -1.6340 H     1 <1>   0.2700 
@<TRIPOS>BOND
  1   1   2  2   
  2   2   3  am  
  3   2   4  1   
  4   3   5  1   
  5   3   6  1   
  6   4   7  1   
  7   4   8  1   
  8   4   9  1   
  9   5  10  1   
 10   5  30  1   
 11   5  31  1   
 12   6  11  1   
 13   6  32  1   
 14   6  33  1   
 15   7  12  1   
 16   7  13  1   
 17   7  34  1   
 18   8  14  1   
 19   8  35  1   
 20   8  36  1   
 21   9  15  1   
 22   9  37  1   
 23   9  38  1   
 24  10  16  1   
 25  10  39  1   
 26  10  40  1   
 27  11  16  1   
 28  11  41  1   
 29  11  42  1   
 30  12  14  1   
 31  12  17  am  
 32  13  18  1   
 33  13  43  1   
 34  13  44  1   
 35  14  18  1   
 36  14  45  1   
 37  15  19  2   
 38  15  46  1   
 39  16  47  1   
 40  16  48  1   
 41  17  20  2   
 42  17  21  1   
 43  18  49  1   
 44  18  50  1   
 45  19  22  1   
 46  19  23  1   
 47  21  24  1   
 48  21  51  1   
 49  21  52  1   
 50  22  53  1   
 51  22  54  1   
 52  22  55  1   
 53  23  56  1   
 54  23  57  1   
 55  23  58  1   
 56  24  25  1   
 57  24  59  1   
 58  24  60  1   
 59  25  26  1   
 60  25  27  2   
 61  26  28  2   
 62  26  61  1   
 63  27  29  1   
 64  27  62  1   
 65  28  29  1   
 66  29  63  1   
@<TRIPOS>SUBSTRUCTURE
  1 ****  12 GROUP 4 **** **** 0

# MOE 2024.06 (io_trps.svl 2023.06)
