@<TRIPOS>MOLECULE
NONAME
61 63 1 0 0 
SMALL
USER_CHARGES


@<TRIPOS>ATOM
  1 O        1.0890    -0.1040     0.8030 O.3   1 <1>  -0.6800 
  2 C        2.1930     0.7240     0.8740 C.3   1 <1>   0.2000 
  3 C        3.4170     0.0400     0.1980 C.3   1 <1>   0.0000 
  4 C        1.8140     2.0710     0.2570 C.3   1 <1>  -0.1600 
  5 C        4.5650     1.0700     0.1300 C.3   1 <1>   0.3430 
  6 C        3.0860    -0.5160    -1.2230 C.3   1 <1>   0.1200 
  7 C        3.8890    -1.1820     1.0370 C.3   1 <1>  -0.1600 
  8 C        3.0220     3.0030     0.1850 C.3   1 <1>   0.3430 
  9 N        4.1300     2.3290    -0.5560 N.4   1 <1>  -0.9590 
 10 O        3.0040     0.4700    -2.2100 O.3   1 <1>  -0.6800 
 11 C        4.3350    -0.9050     2.4870 C.3   1 <1>  -0.1600 
 12 C        5.2710     3.1680    -1.0090 C.3   1 <1>   0.4230 
 13 C        4.8340    -2.1930     3.1470 C.3   1 <1>  -0.2400 
 14 C        5.9260     3.9330     0.1460 C.3   1 <1>  -0.1600 
 15 C        4.8160     4.1350    -2.1040 C.3   1 <1>  -0.1600 
 16 C        7.0890     4.7830    -0.3660 C.3   1 <1>   0.3430 
 17 C        5.9890     4.9810    -2.6020 C.3   1 <1>   0.3430 
 18 N        6.6190     5.6940    -1.4550 N.4   1 <1>  -0.9590 
 19 C        7.7260     6.5890    -1.9180 C.3   1 <1>   0.4870 
 20 C        8.1300     7.4680    -0.7530 C.ar  1 <1>  -0.1430 
 21 C        9.3170     7.2270    -0.0750 C.ar  1 <1>  -0.1500 
 22 C        7.3110     8.5130    -0.3470 C.ar  1 <1>  -0.1500 
 23 C        9.6700     8.0100     1.0100 C.ar  1 <1>  -0.1500 
 24 C        7.6670     9.2940     0.7380 C.ar  1 <1>  -0.1500 
 25 C        8.8440     9.0410     1.4180 C.ar  1 <1>  -0.1500 
 26 H        0.3440     0.2380     1.3360 H     1 <1>   0.4000 
 27 H        2.3980     0.8850     1.9180 H     1 <1>   0.0800 
 28 H        1.4090     1.9320    -0.7300 H     1 <1>   0.0800 
 29 H        1.0560     2.5390     0.8600 H     1 <1>   0.0800 
 30 H        5.3880     0.6250    -0.4060 H     1 <1>   0.0800 
 31 H        4.8980     1.3050     1.1260 H     1 <1>   0.0800 
 32 H        2.1500    -1.0520    -1.2090 H     1 <1>   0.0800 
 33 H        3.8490    -1.2080    -1.5400 H     1 <1>   0.0800 
 34 H        3.0880    -1.9040     1.0700 H     1 <1>   0.0800 
 35 H        4.7090    -1.6590     0.5280 H     1 <1>   0.0800 
 36 H        3.3460     3.2540     1.1820 H     1 <1>   0.0800 
 37 H        2.7310     3.9100    -0.3180 H     1 <1>   0.0800 
 38 H        3.6740     1.9400    -1.4120 H     1 <1>   0.4500 
 39 H        2.5910     0.0800    -3.0150 H     1 <1>   0.4000 
 40 H        5.1310    -0.1830     2.5220 H     1 <1>   0.0800 
 41 H        3.5110    -0.5350     3.0730 H     1 <1>   0.0800 
 42 H        6.0130     2.5150    -1.4420 H     1 <1>   0.0800 
 43 H        5.6810    -2.5920     2.6170 H     1 <1>   0.0800 
 44 H        4.0550    -2.9360     3.1610 H     1 <1>   0.0800 
 45 H        5.1300    -1.9980     4.1630 H     1 <1>   0.0800 
 46 H        5.2210     4.5810     0.6350 H     1 <1>   0.0800 
 47 H        6.3100     3.2410     0.8740 H     1 <1>   0.0800 
 48 H        4.4240     3.5760    -2.9360 H     1 <1>   0.0800 
 49 H        4.0440     4.7930    -1.7480 H     1 <1>   0.0800 
 50 H        7.8740     4.1440    -0.7390 H     1 <1>   0.0800 
 51 H        7.4930     5.3630     0.4510 H     1 <1>   0.0800 
 52 H        5.6340     5.6940    -3.3310 H     1 <1>   0.0800 
 53 H        6.7170     4.3460    -3.0820 H     1 <1>   0.0800 
 54 H        5.9360     6.3420    -1.0370 H     1 <1>   0.4500 
 55 H        8.5690     6.0090    -2.2560 H     1 <1>   0.0800 
 56 H        7.3900     7.2130    -2.7310 H     1 <1>   0.0800 
 57 H        9.9840     6.4360    -0.3770 H     1 <1>   0.1500 
 58 H        6.3950     8.7420    -0.8650 H     1 <1>   0.1500 
 59 H       10.5910     7.8240     1.5380 H     1 <1>   0.1500 
 60 H        7.0330    10.1050     1.0550 H     1 <1>   0.1500 
 61 H        9.1210     9.6510     2.2620 H     1 <1>   0.1500 
@<TRIPOS>BOND
  1   1   2  1   
  2   1  26  1   
  3   2   3  1   
  4   2   4  1   
  5   2  27  1   
  6   3   5  1   
  7   3   6  1   
  8   3   7  1   
  9   4   8  1   
 10   4  28  1   
 11   4  29  1   
 12   5   9  1   
 13   5  30  1   
 14   5  31  1   
 15   6  10  1   
 16   6  32  1   
 17   6  33  1   
 18   7  11  1   
 19   7  34  1   
 20   7  35  1   
 21   8   9  1   
 22   8  36  1   
 23   8  37  1   
 24   9  12  1   
 25   9  38  1   
 26  10  39  1   
 27  11  13  1   
 28  11  40  1   
 29  11  41  1   
 30  12  14  1   
 31  12  15  1   
 32  12  42  1   
 33  13  43  1   
 34  13  44  1   
 35  13  45  1   
 36  14  16  1   
 37  14  46  1   
 38  14  47  1   
 39  15  17  1   
 40  15  48  1   
 41  15  49  1   
 42  16  18  1   
 43  16  50  1   
 44  16  51  1   
 45  17  18  1   
 46  17  52  1   
 47  17  53  1   
 48  18  19  1   
 49  18  54  1   
 50  19  20  1   
 51  19  55  1   
 52  19  56  1   
 53  20  21  ar  
 54  20  22  ar  
 55  21  23  ar  
 56  21  57  1   
 57  22  24  ar  
 58  22  58  1   
 59  23  25  ar  
 60  23  59  1   
 61  24  25  ar  
 62  24  60  1   
 63  25  61  1   
@<TRIPOS>SUBSTRUCTURE
  1 ****  14 GROUP 4 **** **** 0

# MOE 2024.06 (io_trps.svl 2023.06)
