@<TRIPOS>MOLECULE
NONAME
48 50 1 0 0 
SMALL
USER_CHARGES


@<TRIPOS>ATOM
  1 O       -1.1970     0.8630     2.4790 O.2   1 <1>  -0.5700 
  2 C       -1.7190     1.2590     1.4620 C.2   1 <1>   0.5690 
  3 N       -2.0670     0.3830     0.4580 N.am  1 <1>  -0.6600 
  4 C       -1.9960     2.7530     1.3810 C.3   1 <1>   0.1570 
  5 C       -1.6290    -1.0550     0.5320 C.3   1 <1>   0.1400 
  6 C       -2.7350     0.7700    -0.8150 C.3   1 <1>   0.1400 
  7 N       -1.2600     3.3990     0.2730 N.pl3 1 <1>   0.0480 
  8 C       -2.5670    -2.0570    -0.2060 C.3   1 <1>   0.0000 
  9 C       -4.0000    -0.0710    -1.0410 C.3   1 <1>  -0.1600 
 10 C       -1.7640     4.3320    -0.5800 C.2   1 <1>  -0.3020 
 11 C        0.0260     3.1680    -0.1070 C.2   1 <1>  -0.3020 
 12 C       -3.9850    -1.4320    -0.3210 C.3   1 <1>   0.2000 
 13 C       -2.0630    -2.3550    -1.6470 C.3   1 <1>   0.1200 
 14 C       -2.6830    -3.3870     0.6020 C.3   1 <1>  -0.0160 
 15 C       -0.8150     4.6820    -1.4860 C.2   1 <1>  -0.1500 
 16 C        0.3290     3.9380    -1.1840 C.2   1 <1>  -0.1500 
 17 O       -4.4940    -1.2140     0.9470 O.3   1 <1>  -0.6800 
 18 O       -0.7250    -2.7190    -1.6750 O.3   1 <1>  -0.6800 
 19 C       -1.4240    -4.2490     0.6450 C.ar  1 <1>  -0.1440 
 20 C       -0.3970    -3.9670     1.5340 C.ar  1 <1>  -0.1500 
 21 C       -1.2950    -5.3320    -0.2130 C.ar  1 <1>  -0.1500 
 22 C        0.7500    -4.7410     1.5490 C.ar  1 <1>  -0.1500 
 23 C       -0.1500    -6.1070    -0.1990 C.ar  1 <1>  -0.1500 
 24 C        0.8760    -5.8110     0.6810 C.ar  1 <1>  -0.1500 
 25 H       -1.6940     3.2170     2.3000 H     1 <1>   0.0800 
 26 H       -3.0480     2.9110     1.2480 H     1 <1>   0.0800 
 27 H       -0.6200    -1.1270     0.1650 H     1 <1>   0.0800 
 28 H       -1.5980    -1.3300     1.5710 H     1 <1>   0.0800 
 29 H       -3.0020     1.8100    -0.8280 H     1 <1>   0.0800 
 30 H       -2.0360     0.6110    -1.6200 H     1 <1>   0.0800 
 31 H       -4.1010    -0.2340    -2.0980 H     1 <1>   0.0800 
 32 H       -4.8680     0.4880    -0.7390 H     1 <1>   0.0800 
 33 H       -2.7700     4.7060    -0.5020 H     1 <1>   0.1500 
 34 H        0.6610     2.4660     0.4060 H     1 <1>   0.1500 
 35 H       -4.6610    -2.1100    -0.8140 H     1 <1>   0.0800 
 36 H       -2.1530    -1.4970    -2.2870 H     1 <1>   0.0800 
 37 H       -2.6300    -3.1590    -2.0840 H     1 <1>   0.0800 
 38 H       -2.9720    -3.1730     1.6170 H     1 <1>   0.0800 
 39 H       -3.4810    -3.9770     0.1860 H     1 <1>   0.0800 
 40 H       -0.8950     5.3930    -2.2910 H     1 <1>   0.1500 
 41 H        1.2610     3.9860    -1.7200 H     1 <1>   0.1500 
 42 H       -3.8960    -0.5870     1.4070 H     1 <1>   0.4000 
 43 H       -0.5610    -3.4590    -1.0440 H     1 <1>   0.4000 
 44 H       -0.4770    -3.1450     2.2240 H     1 <1>   0.1500 
 45 H       -2.0850    -5.5780    -0.9020 H     1 <1>   0.1500 
 46 H        1.5440    -4.5120     2.2380 H     1 <1>   0.1500 
 47 H       -0.0550    -6.9420    -0.8710 H     1 <1>   0.1500 
 48 H        1.7680    -6.4120     0.6920 H     1 <1>   0.1500 
@<TRIPOS>BOND
  1   1   2  2   
  2   2   3  am  
  3   2   4  1   
  4   3   5  1   
  5   3   6  1   
  6   4   7  1   
  7   4  25  1   
  8   4  26  1   
  9   5   8  1   
 10   5  27  1   
 11   5  28  1   
 12   6   9  1   
 13   6  29  1   
 14   6  30  1   
 15   7  10  1   
 16   7  11  1   
 17   8  12  1   
 18   8  13  1   
 19   8  14  1   
 20   9  12  1   
 21   9  31  1   
 22   9  32  1   
 23  10  15  2   
 24  10  33  1   
 25  11  16  2   
 26  11  34  1   
 27  12  17  1   
 28  12  35  1   
 29  13  18  1   
 30  13  36  1   
 31  13  37  1   
 32  14  19  1   
 33  14  38  1   
 34  14  39  1   
 35  15  16  1   
 36  15  40  1   
 37  16  41  1   
 38  17  42  1   
 39  18  43  1   
 40  19  20  ar  
 41  19  21  ar  
 42  20  22  ar  
 43  20  44  1   
 44  21  23  ar  
 45  21  45  1   
 46  22  24  ar  
 47  22  46  1   
 48  23  24  ar  
 49  23  47  1   
 50  24  48  1   
@<TRIPOS>SUBSTRUCTURE
  1 ****   5 GROUP 4 **** **** 0

# MOE 2024.06 (io_trps.svl 2023.06)
