@<TRIPOS>MOLECULE
NONAME
53 55 1 0 0 
SMALL
USER_CHARGES


@<TRIPOS>ATOM
  1 F       -1.1950    -0.2370    -0.7050 F     1 <1>  -0.1900 
  2 C       -2.1220     0.5140    -0.1760 C.ar  1 <1>   0.1900 
  3 C       -3.0950    -0.0690     0.6350 C.ar  1 <1>   0.0860 
  4 C       -2.0830     1.8650    -0.4570 C.ar  1 <1>  -0.1500 
  5 C       -3.1380    -1.4850     0.9160 C.2   1 <1>   0.5440 
  6 C       -4.0430     0.7960     1.1840 C.ar  1 <1>  -0.1500 
  7 C       -3.0430     2.6980     0.0900 C.ar  1 <1>   0.0830 
  8 O       -3.0010    -1.8550     2.0650 O.2   1 <1>  -0.5700 
  9 N       -3.3820    -2.4160    -0.0690 N.am  1 <1>  -0.6600 
 10 C       -4.0250     2.1540     0.9180 C.ar  1 <1>  -0.1500 
 11 O       -2.9620     4.0110    -0.2190 O.3   1 <1>  -0.3620 
 12 C       -3.4010    -3.8900     0.2370 C.3   1 <1>   0.3640 
 13 C       -3.8230    -2.0290    -1.4470 C.3   1 <1>   0.1400 
 14 C       -3.8600     4.9600     0.3130 C.3   1 <1>   0.0400 
 15 C       -2.1370    -4.6060    -0.2780 C.ar  1 <1>  -0.1430 
 16 C       -4.7050    -4.5540    -0.3140 C.3   1 <1>   0.2000 
 17 C       -4.3440    -3.2280    -2.2540 C.3   1 <1>   0.1200 
 18 C       -1.9810    -5.9560     0.0170 C.ar  1 <1>  -0.1500 
 19 C       -1.1340    -3.9730    -1.0070 C.ar  1 <1>  -0.1500 
 20 O       -5.2410    -3.9560    -1.4770 O.3   1 <1>  -0.5600 
 21 C       -5.8200    -4.5350     0.7390 C.3   1 <1>   0.1200 
 22 C       -0.8810    -6.6700    -0.4260 C.ar  1 <1>   0.0830 
 23 C       -0.0190    -4.6720    -1.4400 C.ar  1 <1>  -0.1500 
 24 O       -5.5490    -5.4600     1.7430 O.3   1 <1>  -0.6800 
 25 O       -0.8410    -7.9940    -0.1330 O.3   1 <1>  -0.3630 
 26 C        0.1240    -6.0150    -1.1450 C.ar  1 <1>   0.0830 
 27 C       -0.8510    -8.8840    -1.2270 C.3   1 <1>   0.0400 
 28 O        1.2550    -6.6330    -1.5630 O.3   1 <1>  -0.3630 
 29 C        2.1500    -7.0300    -0.5480 C.3   1 <1>   0.0400 
 30 H       -1.3160     2.2720    -1.0890 H     1 <1>   0.1500 
 31 H       -4.7990     0.3850     1.8320 H     1 <1>   0.1500 
 32 H       -4.7790     2.7760     1.3640 H     1 <1>   0.1500 
 33 H       -3.3960    -4.0340     1.3040 H     1 <1>   0.0800 
 34 H       -4.6100    -1.2990    -1.3740 H     1 <1>   0.0800 
 35 H       -3.0030    -1.5830    -1.9790 H     1 <1>   0.0800 
 36 H       -3.5860     5.9280    -0.0670 H     1 <1>   0.0800 
 37 H       -3.7820     4.9530     1.3850 H     1 <1>   0.0800 
 38 H       -4.8580     4.7140    -0.0040 H     1 <1>   0.0800 
 39 H       -4.5110    -5.5790    -0.5720 H     1 <1>   0.0800 
 40 H       -3.5400    -3.8760    -2.5600 H     1 <1>   0.0800 
 41 H       -4.8640    -2.8890    -3.1320 H     1 <1>   0.0800 
 42 H       -2.7180    -6.4770     0.6010 H     1 <1>   0.1500 
 43 H       -1.1930    -2.9270    -1.2400 H     1 <1>   0.1500 
 44 H       -6.7670    -4.7910     0.2970 H     1 <1>   0.0800 
 45 H       -5.8840    -3.5600     1.1930 H     1 <1>   0.0800 
 46 H        0.7510    -4.1720    -1.9990 H     1 <1>   0.1500 
 47 H       -5.7570    -6.3680     1.4450 H     1 <1>   0.4000 
 48 H       -0.9790    -9.8820    -0.8470 H     1 <1>   0.0800 
 49 H        0.0810    -8.8120    -1.7560 H     1 <1>   0.0800 
 50 H       -1.6700    -8.6280    -1.8760 H     1 <1>   0.0800 
 51 H        3.0310    -7.4330    -1.0150 H     1 <1>   0.0800 
 52 H        1.6840    -7.7800     0.0650 H     1 <1>   0.0800 
 53 H        2.4060    -6.1700     0.0450 H     1 <1>   0.0800 
@<TRIPOS>BOND
  1   1   2  1   
  2   2   3  ar  
  3   2   4  ar  
  4   3   5  1   
  5   3   6  ar  
  6   4   7  ar  
  7   4  30  1   
  8   5   8  2   
  9   5   9  am  
 10   6  10  ar  
 11   6  31  1   
 12   7  10  ar  
 13   7  11  1   
 14   9  12  1   
 15   9  13  1   
 16  10  32  1   
 17  11  14  1   
 18  12  15  1   
 19  12  16  1   
 20  12  33  1   
 21  13  17  1   
 22  13  34  1   
 23  13  35  1   
 24  14  36  1   
 25  14  37  1   
 26  14  38  1   
 27  15  18  ar  
 28  15  19  ar  
 29  16  20  1   
 30  16  21  1   
 31  16  39  1   
 32  17  20  1   
 33  17  40  1   
 34  17  41  1   
 35  18  22  ar  
 36  18  42  1   
 37  19  23  ar  
 38  19  43  1   
 39  21  24  1   
 40  21  44  1   
 41  21  45  1   
 42  22  25  1   
 43  22  26  ar  
 44  23  26  ar  
 45  23  46  1   
 46  24  47  1   
 47  25  27  1   
 48  26  28  1   
 49  27  48  1   
 50  27  49  1   
 51  27  50  1   
 52  28  29  1   
 53  29  51  1   
 54  29  52  1   
 55  29  53  1   
@<TRIPOS>SUBSTRUCTURE
  1 ****   9 GROUP 4 **** **** 0

# MOE 2024.06 (io_trps.svl 2023.06)
