@<TRIPOS>MOLECULE
NONAME
42 44 1 0 0 
SMALL
USER_CHARGES


@<TRIPOS>ATOM
  1 CL      -3.3640     0.3040     1.8490 Cl    1 <1>  -0.1240 
  2 C       -3.3810    -0.9600     0.6470 C.2   1 <1>   0.2640 
  3 O       -3.9160    -2.1180     0.9740 O.3   1 <1>  -0.2800 
  4 C       -2.9240    -0.9510    -0.6190 C.2   1 <1>  -0.1500 
  5 C       -3.8130    -2.8950    -0.0930 C.2   1 <1>  -0.0400 
  6 C       -3.2120    -2.2330    -1.1110 C.2   1 <1>  -0.1500 
  7 C       -4.3670    -4.3060    -0.0010 C.3   1 <1>   0.5230 
  8 N       -5.7320    -4.2250     0.5830 N.4   1 <1>  -0.9590 
  9 C       -6.1970    -5.5730     1.0650 C.3   1 <1>   0.3430 
 10 C       -6.6920    -3.6110    -0.3820 C.3   1 <1>   0.3430 
 11 C       -7.4570    -5.5200     1.9570 C.3   1 <1>   0.1400 
 12 C       -7.6540    -2.6510     0.3270 C.3   1 <1>  -0.1600 
 13 N       -8.5550    -4.7080     1.3520 N.am  1 <1>  -0.6600 
 14 C       -8.4130    -3.2410     1.5220 C.3   1 <1>   0.1400 
 15 C       -9.5840    -5.2520     0.5930 C.2   1 <1>   0.7160 
 16 O      -10.5540    -4.5480     0.3720 O.2   1 <1>  -0.5700 
 17 C       -9.5150    -6.5910     0.0100 C.2   1 <1>   0.2030 
 18 N       -8.4180    -7.2810    -0.2630 N.2   1 <1>  -0.7070 
 19 C      -10.6410    -7.3260    -0.3740 C.2   1 <1>  -0.1500 
 20 N       -8.8320    -8.4530    -0.8120 N.pl3 1 <1>   0.3140 
 21 C      -10.1820    -8.4860    -0.8820 C.2   1 <1>  -0.3020 
 22 C       -7.9210    -9.5610    -1.2830 C.3   1 <1>   0.8560 
 23 F       -7.2340   -10.0570    -0.2550 F     1 <1>  -0.3400 
 24 F       -6.9990    -9.0800    -2.1150 F     1 <1>  -0.3400 
 25 H       -2.4420    -0.1490    -1.1530 H     1 <1>   0.1500 
 26 H       -2.9780    -2.5700    -2.1080 H     1 <1>   0.1500 
 27 H       -3.7270    -4.8850     0.6440 H     1 <1>   0.0800 
 28 H       -4.3930    -4.7690    -0.9740 H     1 <1>   0.0800 
 29 H       -5.6450    -3.5780     1.3780 H     1 <1>   0.4500 
 30 H       -5.4110    -6.0460     1.6300 H     1 <1>   0.0800 
 31 H       -6.4010    -6.2030     0.2160 H     1 <1>   0.0800 
 32 H       -7.2570    -4.3870    -0.8760 H     1 <1>   0.0800 
 33 H       -6.1590    -3.0580    -1.1390 H     1 <1>   0.0800 
 34 H       -7.1980    -5.1110     2.9180 H     1 <1>   0.0800 
 35 H       -7.8030    -6.5240     2.1350 H     1 <1>   0.0800 
 36 H       -8.3840    -2.3340    -0.3970 H     1 <1>   0.0800 
 37 H       -7.1290    -1.7650     0.6370 H     1 <1>   0.0800 
 38 H       -9.3840    -2.7780     1.6060 H     1 <1>   0.0800 
 39 H       -7.8830    -3.0330     2.4360 H     1 <1>   0.0800 
 40 H      -11.6590    -6.9890    -0.2690 H     1 <1>   0.1500 
 41 H      -10.7400    -9.3140    -1.2820 H     1 <1>   0.1500 
 42 H       -8.4450   -10.3620    -1.7700 H     1 <1>   0.0800 
@<TRIPOS>BOND
  1   1   2  1   
  2   2   3  1   
  3   2   4  2   
  4   3   5  1   
  5   4   6  1   
  6   4  25  1   
  7   5   6  2   
  8   5   7  1   
  9   6  26  1   
 10   7   8  1   
 11   7  27  1   
 12   7  28  1   
 13   8   9  1   
 14   8  10  1   
 15   8  29  1   
 16   9  11  1   
 17   9  30  1   
 18   9  31  1   
 19  10  12  1   
 20  10  32  1   
 21  10  33  1   
 22  11  13  1   
 23  11  34  1   
 24  11  35  1   
 25  12  14  1   
 26  12  36  1   
 27  12  37  1   
 28  13  14  1   
 29  13  15  am  
 30  14  38  1   
 31  14  39  1   
 32  15  16  2   
 33  15  17  1   
 34  17  18  2   
 35  17  19  1   
 36  18  20  1   
 37  19  21  2   
 38  19  40  1   
 39  20  21  1   
 40  20  22  1   
 41  21  41  1   
 42  22  23  1   
 43  22  24  1   
 44  22  42  1   
@<TRIPOS>SUBSTRUCTURE
  1 ****   9 GROUP 4 **** **** 0

# MOE 2024.06 (io_trps.svl 2023.06)
