@<TRIPOS>MOLECULE
NONAME
42 44 1 0 0 
SMALL
USER_CHARGES


@<TRIPOS>ATOM
  1 O        0.2880     0.1520    -1.3060 O.3   1 <1>  -0.5600 
  2 C        1.5360    -0.4680    -1.4850 C.3   1 <1>   0.2000 
  3 C        0.3440     1.5440    -1.4260 C.3   1 <1>   0.1200 
  4 C        2.5330     0.0470    -0.4080 C.3   1 <1>   0.3340 
  5 C        1.3030    -1.9870    -1.4330 C.3   1 <1>   0.1200 
  6 C        1.2930     2.1360    -0.3710 C.3   1 <1>   0.1100 
  7 N        2.6370     1.5270    -0.4490 N.3   1 <1>  -0.8100 
  8 C        3.9090    -0.5980    -0.5830 C.ar  1 <1>  -0.1440 
  9 O        2.3880    -2.6860    -1.9570 O.3   1 <1>  -0.6800 
 10 C        3.5430     2.0460     0.6010 C.3   1 <1>   0.2900 
 11 C        4.7270    -0.2420    -1.6460 C.ar  1 <1>  -0.1500 
 12 C        4.3480    -1.5620     0.3140 C.ar  1 <1>  -0.1500 
 13 C        3.6160     3.5680     0.6170 C.2   1 <1>  -0.0400 
 14 C        5.9600    -0.8460    -1.8160 C.ar  1 <1>  -0.1500 
 15 C        5.5810    -2.1680     0.1440 C.ar  1 <1>  -0.1500 
 16 O        4.1250     4.2080    -0.4180 O.3   1 <1>  -0.2800 
 17 C        3.2280     4.4470     1.5680 C.2   1 <1>  -0.1500 
 18 C        6.3870    -1.8110    -0.9220 C.ar  1 <1>  -0.1500 
 19 C        4.0740     5.4980    -0.1580 C.2   1 <1>  -0.0400 
 20 C        3.5290     5.7150     1.0570 C.2   1 <1>  -0.1500 
 21 C        4.6000     6.4640    -1.1960 C.3   1 <1>  -0.0600 
 22 H        1.8900    -0.2080    -2.4670 H     1 <1>   0.0800 
 23 H        0.6800     1.7960    -2.4170 H     1 <1>   0.0800 
 24 H       -0.6510     1.9270    -1.2890 H     1 <1>   0.0800 
 25 H        2.1420    -0.2400     0.5530 H     1 <1>   0.0800 
 26 H        0.4430    -2.2450    -2.0270 H     1 <1>   0.0800 
 27 H        1.1470    -2.3140    -0.4200 H     1 <1>   0.0800 
 28 H        0.8720     1.9830     0.6080 H     1 <1>   0.0800 
 29 H        1.3660     3.1970    -0.5430 H     1 <1>   0.0800 
 30 H        3.2340    -2.3600    -1.5730 H     1 <1>   0.4000 
 31 H        3.2120     1.7020     1.5640 H     1 <1>   0.0800 
 32 H        4.5400     1.6740     0.4360 H     1 <1>   0.0800 
 33 H        4.4010     0.5150    -2.3410 H     1 <1>   0.1500 
 34 H        3.7320    -1.8520     1.1480 H     1 <1>   0.1500 
 35 H        6.5860    -0.5620    -2.6450 H     1 <1>   0.1500 
 36 H        5.9140    -2.9170     0.8410 H     1 <1>   0.1500 
 37 H        2.7810     4.2520     2.5250 H     1 <1>   0.1500 
 38 H        7.3450    -2.2810    -1.0550 H     1 <1>   0.1500 
 39 H        3.3490     6.6490     1.5580 H     1 <1>   0.1500 
 40 H        4.4920     7.4760    -0.8520 H     1 <1>   0.0800 
 41 H        4.0520     6.3420    -2.1130 H     1 <1>   0.0800 
 42 H        5.6390     6.2630    -1.3810 H     1 <1>   0.0800 
@<TRIPOS>BOND
  1   1   2  1   
  2   1   3  1   
  3   2   4  1   
  4   2   5  1   
  5   2  22  1   
  6   3   6  1   
  7   3  23  1   
  8   3  24  1   
  9   4   7  1   
 10   4   8  1   
 11   4  25  1   
 12   5   9  1   
 13   5  26  1   
 14   5  27  1   
 15   6   7  1   
 16   6  28  1   
 17   6  29  1   
 18   7  10  1   
 19   8  11  ar  
 20   8  12  ar  
 21   9  30  1   
 22  10  13  1   
 23  10  31  1   
 24  10  32  1   
 25  11  14  ar  
 26  11  33  1   
 27  12  15  ar  
 28  12  34  1   
 29  13  16  1   
 30  13  17  2   
 31  14  18  ar  
 32  14  35  1   
 33  15  18  ar  
 34  15  36  1   
 35  16  19  1   
 36  17  20  1   
 37  17  37  1   
 38  18  38  1   
 39  19  20  2   
 40  19  21  1   
 41  20  39  1   
 42  21  40  1   
 43  21  41  1   
 44  21  42  1   
@<TRIPOS>SUBSTRUCTURE
  1 ****   7 GROUP 4 **** **** 0

# MOE 2024.06 (io_trps.svl 2023.06)
