@<TRIPOS>MOLECULE
NONAME
40 42 1 0 0 
SMALL
USER_CHARGES


@<TRIPOS>ATOM
  1 S        0.0440    -0.0270     0.0630 S.3   1 <1>  -0.0800 
  2 C       -1.2600    -0.9880     0.7540 C.2   1 <1>  -0.0450 
  3 C       -0.5620     1.4870     0.7320 C.2   1 <1>  -0.0450 
  4 C       -1.2750    -2.4090     0.5000 C.2   1 <1>   0.7150 
  5 C       -2.0730    -0.1520     1.4530 C.2   1 <1>  -0.1500 
  6 C        0.1270     2.7210     0.4890 C.2   1 <1>   0.5940 
  7 C       -1.6900     1.2130     1.4370 C.2   1 <1>  -0.1500 
  8 O       -0.2320    -3.0080     0.3120 O.2   1 <1>  -0.5700 
  9 N       -2.4520    -3.1250     0.4600 N.am  1 <1>  -0.6600 
 10 O       -0.2700     3.7780     0.9110 O.2   1 <1>  -0.5700 
 11 C        1.4040     2.7370    -0.3260 C.3   1 <1>  -0.1790 
 12 C       -3.7910    -2.5360     0.2090 C.3   1 <1>   0.1400 
 13 C       -2.4700    -4.5850     0.1850 C.3   1 <1>   0.1400 
 14 C       -4.6100    -3.6660    -0.4120 C.3   1 <1>   0.2000 
 15 C       -3.9500    -4.9570     0.0640 C.3   1 <1>  -0.0800 
 16 O       -5.9320    -3.6250     0.0030 O.3   1 <1>  -0.6800 
 17 C       -4.2300    -6.1450    -0.8730 C.3   1 <1>  -0.0170 
 18 C       -3.6270    -7.4370    -0.3440 C.ar  1 <1>   0.1670 
 19 N       -2.3380    -7.6250    -0.5750 N.ar  1 <1>  -0.6200 
 20 C       -4.4260    -8.3480     0.3450 C.ar  1 <1>   0.1600 
 21 C       -1.9040    -8.7700    -0.0750 C.ar  1 <1>   0.1600 
 22 N       -3.9940    -9.4930     0.8480 N.ar  1 <1>  -0.6200 
 23 C       -2.7050    -9.6730     0.6130 C.ar  1 <1>   0.1600 
 24 H       -2.9440    -0.4640     2.0000 H     1 <1>   0.1500 
 25 H       -2.2640     1.9630     1.9540 H     1 <1>   0.1500 
 26 H        2.1430     2.1140     0.1410 H     1 <1>   0.0800 
 27 H        1.7860     3.7400    -0.3860 H     1 <1>   0.0800 
 28 H        1.2080     2.3810    -1.3200 H     1 <1>   0.0800 
 29 H       -4.2210    -2.2280     1.1450 H     1 <1>   0.0800 
 30 H       -3.7220    -1.7000    -0.4660 H     1 <1>   0.0800 
 31 H       -1.9480    -4.7780    -0.7380 H     1 <1>   0.0800 
 32 H       -1.9870    -5.1310     0.9790 H     1 <1>   0.0800 
 33 H       -4.5870    -3.5850    -1.4860 H     1 <1>   0.0800 
 34 H       -4.2990    -5.1930     1.0550 H     1 <1>   0.0800 
 35 H       -5.9930    -3.7370     0.9720 H     1 <1>   0.4000 
 36 H       -3.8270    -5.9450    -1.8510 H     1 <1>   0.0800 
 37 H       -5.2930    -6.2650    -0.9820 H     1 <1>   0.0800 
 38 H       -5.4670    -8.1210     0.4890 H     1 <1>   0.1500 
 39 H       -0.8640    -9.0060    -0.2170 H     1 <1>   0.1500 
 40 H       -2.2610   -10.5800     0.9830 H     1 <1>   0.1500 
@<TRIPOS>BOND
  1   1   2  1   
  2   1   3  1   
  3   2   4  1   
  4   2   5  2   
  5   3   6  1   
  6   3   7  2   
  7   4   8  2   
  8   4   9  am  
  9   5   7  1   
 10   5  24  1   
 11   6  10  2   
 12   6  11  1   
 13   7  25  1   
 14   9  12  1   
 15   9  13  1   
 16  11  26  1   
 17  11  27  1   
 18  11  28  1   
 19  12  14  1   
 20  12  29  1   
 21  12  30  1   
 22  13  15  1   
 23  13  31  1   
 24  13  32  1   
 25  14  15  1   
 26  14  16  1   
 27  14  33  1   
 28  15  17  1   
 29  15  34  1   
 30  16  35  1   
 31  17  18  1   
 32  17  36  1   
 33  17  37  1   
 34  18  19  ar  
 35  18  20  ar  
 36  19  21  ar  
 37  20  22  ar  
 38  20  38  1   
 39  21  23  ar  
 40  21  39  1   
 41  22  23  ar  
 42  23  40  1   
@<TRIPOS>SUBSTRUCTURE
  1 ****   9 GROUP 4 **** **** 0

# MOE 2024.06 (io_trps.svl 2023.06)
