@<TRIPOS>MOLECULE
NONAME
46 48 1 0 0 
SMALL
USER_CHARGES


@<TRIPOS>ATOM
  1 O        3.9030    -1.9060    -1.2620 O.2   1 <1>  -0.5700 
  2 C        3.1080    -1.5440    -0.4280 C.2   1 <1>   0.5690 
  3 N        3.0130    -0.2230    -0.1130 N.am  1 <1>  -0.6600 
  4 C        2.2930    -2.5720     0.3170 C.3   1 <1>  -0.0990 
  5 C        3.5640     0.2090     1.2200 C.3   1 <1>   0.2200 
  6 C        2.9850     0.7760    -1.2300 C.3   1 <1>   0.1400 
  7 C        1.3160    -3.2640    -0.6380 C.3   1 <1>   0.0960 
  8 C        3.0460     1.5830     1.6770 C.3   1 <1>   0.1200 
  9 C        5.1170     0.1820     1.1960 C.3   1 <1>   0.3430 
 10 C        4.0280     1.9070    -1.1270 C.3   1 <1>  -0.0800 
 11 N        0.4810    -4.2250     0.1060 N.pl3 1 <1>   0.3140 
 12 O        3.8590     2.6030     1.1800 O.3   1 <1>  -0.5600 
 13 N        5.6840     0.1740    -0.2020 N.4   1 <1>  -0.9590 
 14 C        3.6060     2.9940    -0.1270 C.3   1 <1>   0.1200 
 15 C        5.4950     1.4660    -0.9340 C.3   1 <1>   0.3430 
 16 N       -0.4150    -3.7920     1.0120 N.2   1 <1>  -0.7070 
 17 C        0.4930    -5.5760     0.0320 C.2   1 <1>  -0.3320 
 18 C        7.1080    -0.2630    -0.2190 C.3   1 <1>   0.2630 
 19 C       -0.9570    -4.8710     1.4860 C.2   1 <1>   0.1390 
 20 C       -0.4300    -6.0200     0.9120 C.2   1 <1>  -0.1500 
 21 C        1.3870    -6.4010    -0.8800 C.3   1 <1>  -0.0600 
 22 H        2.9540    -3.3010     0.7470 H     1 <1>   0.0800 
 23 H        1.7370    -2.0940     1.1030 H     1 <1>   0.0800 
 24 H        3.2330    -0.4960     1.9630 H     1 <1>   0.0800 
 25 H        3.1300     0.2630    -2.1670 H     1 <1>   0.0800 
 26 H        1.9990     1.2090    -1.2680 H     1 <1>   0.0800 
 27 H        1.8490    -3.7790    -1.4150 H     1 <1>   0.0800 
 28 H        0.6630    -2.5400    -1.0890 H     1 <1>   0.0800 
 29 H        3.1070     1.6430     2.7500 H     1 <1>   0.0800 
 30 H        2.0200     1.7450     1.3900 H     1 <1>   0.0800 
 31 H        5.4360    -0.7100     1.7070 H     1 <1>   0.0800 
 32 H        5.5020     1.0240     1.7490 H     1 <1>   0.0800 
 33 H        3.9990     2.4050    -2.0800 H     1 <1>   0.0800 
 34 H        5.1160    -0.5360    -0.7180 H     1 <1>   0.4500 
 35 H        2.5630     3.2460    -0.2230 H     1 <1>   0.0800 
 36 H        4.1790     3.8900    -0.2980 H     1 <1>   0.0800 
 37 H        6.0290     2.2510    -0.4220 H     1 <1>   0.0800 
 38 H        5.9360     1.3620    -1.9120 H     1 <1>   0.0800 
 39 H        7.7240     0.4440     0.3140 H     1 <1>   0.0800 
 40 H        7.4620    -0.3370    -1.2340 H     1 <1>   0.0800 
 41 H        7.2060    -1.2300     0.2470 H     1 <1>   0.0800 
 42 H       -1.7280    -4.8660     2.2380 H     1 <1>   0.1500 
 43 H       -0.7180    -7.0300     1.1440 H     1 <1>   0.1500 
 44 H        1.2030    -7.4500    -0.7260 H     1 <1>   0.0800 
 45 H        2.4220    -6.2020    -0.6680 H     1 <1>   0.0800 
 46 H        1.1850    -6.1680    -1.9100 H     1 <1>   0.0800 
@<TRIPOS>BOND
  1   1   2  2   
  2   2   3  am  
  3   2   4  1   
  4   3   5  1   
  5   3   6  1   
  6   4   7  1   
  7   4  22  1   
  8   4  23  1   
  9   5   8  1   
 10   5   9  1   
 11   5  24  1   
 12   6  10  1   
 13   6  25  1   
 14   6  26  1   
 15   7  11  1   
 16   7  27  1   
 17   7  28  1   
 18   8  12  1   
 19   8  29  1   
 20   8  30  1   
 21   9  13  1   
 22   9  31  1   
 23   9  32  1   
 24  10  14  1   
 25  10  15  1   
 26  10  33  1   
 27  11  16  1   
 28  11  17  1   
 29  12  14  1   
 30  13  15  1   
 31  13  18  1   
 32  13  34  1   
 33  14  35  1   
 34  14  36  1   
 35  15  37  1   
 36  15  38  1   
 37  16  19  2   
 38  17  20  2   
 39  17  21  1   
 40  18  39  1   
 41  18  40  1   
 42  18  41  1   
 43  19  20  1   
 44  19  42  1   
 45  20  43  1   
 46  21  44  1   
 47  21  45  1   
 48  21  46  1   
@<TRIPOS>SUBSTRUCTURE
  1 ****   2 GROUP 4 **** **** 0

# MOE 2024.06 (io_trps.svl 2023.06)
