@<TRIPOS>MOLECULE
NONAME
56 58 1 0 0 
SMALL
USER_CHARGES


@<TRIPOS>ATOM
  1 O       -3.3800     0.0900    -0.3970 O.2   1 <1>  -0.5700 
  2 C       -2.9160     1.0910     0.1280 C.2   1 <1>   0.5440 
  3 N       -2.7410     1.0740     1.4930 N.am  1 <1>  -0.6600 
  4 C       -2.5980     2.2490    -0.6780 C.ar  1 <1>   0.0860 
  5 C       -2.3620    -0.1820     2.2060 C.3   1 <1>   0.1400 
  6 C       -3.1190     2.2090     2.3830 C.3   1 <1>   0.1400 
  7 C       -3.2990     2.5060    -1.8560 C.ar  1 <1>   0.1600 
  8 C       -1.5890     3.1520    -0.3500 C.ar  1 <1>  -0.1500 
  9 C       -3.5590    -1.1070     2.4870 C.3   1 <1>   0.1400 
 10 C       -4.5500     2.0630     2.9230 C.3   1 <1>  -0.1600 
 11 N       -3.1280     3.5360    -2.6630 N.ar  1 <1>  -0.6200 
 12 C       -1.3880     4.2290    -1.1800 C.ar  1 <1>  -0.1500 
 13 N       -4.8630    -0.3810     2.6320 N.am  1 <1>  -0.6600 
 14 C       -4.8610     0.7310     3.6230 C.3   1 <1>   0.1400 
 15 C       -2.1800     4.3850    -2.3130 C.ar  1 <1>   0.4100 
 16 C       -5.9490    -0.5650     1.8080 C.2   1 <1>   0.5690 
 17 N       -2.0200     5.4290    -3.1540 N.pl3 1 <1>  -0.9000 
 18 O       -6.9960     0.0180     2.0040 O.2   1 <1>  -0.5700 
 19 C       -5.8990    -1.4960     0.5640 C.3   1 <1>   0.4840 
 20 N       -6.7990    -1.0170    -0.5550 N.4   1 <1>  -0.9590 
 21 C       -6.2990    -2.9200     0.9740 C.3   1 <1>  -0.2400 
 22 C       -6.8980    -1.9380    -1.7240 C.3   1 <1>   0.3430 
 23 C       -6.3770     0.3490    -0.9800 C.3   1 <1>   0.3430 
 24 C       -7.9240    -1.4020    -2.7250 C.3   1 <1>  -0.1600 
 25 C       -7.3950     0.9350    -1.9580 C.3   1 <1>  -0.1600 
 26 C       -7.5910     0.0250    -3.1770 C.3   1 <1>  -0.1600 
 27 H       -1.8850     0.0690     3.1380 H     1 <1>   0.0800 
 28 H       -1.6370    -0.7180     1.6180 H     1 <1>   0.0800 
 29 H       -3.0520     3.1400     1.8470 H     1 <1>   0.0800 
 30 H       -2.4250     2.2610     3.2050 H     1 <1>   0.0800 
 31 H       -4.0560     1.8030    -2.1500 H     1 <1>   0.1500 
 32 H       -0.9830     3.0060     0.5270 H     1 <1>   0.1500 
 33 H       -3.3640    -1.6610     3.3900 H     1 <1>   0.0800 
 34 H       -3.6100    -1.8260     1.6910 H     1 <1>   0.0800 
 35 H       -5.2520     2.2200     2.1240 H     1 <1>   0.0800 
 36 H       -4.7120     2.8540     3.6330 H     1 <1>   0.0800 
 37 H       -0.6300     4.9590    -0.9680 H     1 <1>   0.1500 
 38 H       -5.8330     0.7920     4.0850 H     1 <1>   0.0800 
 39 H       -4.1430     0.5360     4.4010 H     1 <1>   0.0800 
 40 H       -1.1030     5.8600    -3.2630 H     1 <1>   0.4000 
 41 H       -2.5640     5.3660    -4.0160 H     1 <1>   0.4000 
 42 H       -4.8860    -1.5110     0.2050 H     1 <1>   0.0800 
 43 H       -7.7260    -0.9020    -0.1210 H     1 <1>   0.4500 
 44 H       -7.3440    -2.9630     1.2230 H     1 <1>   0.0800 
 45 H       -5.7420    -3.2100     1.8480 H     1 <1>   0.0800 
 46 H       -6.0720    -3.6320     0.2030 H     1 <1>   0.0800 
 47 H       -7.2050    -2.9200    -1.4040 H     1 <1>   0.0800 
 48 H       -5.9350    -2.0190    -2.2030 H     1 <1>   0.0800 
 49 H       -5.4130     0.2930    -1.4590 H     1 <1>   0.0800 
 50 H       -6.2930     1.0000    -0.1240 H     1 <1>   0.0800 
 51 H       -8.9030    -1.4260    -2.2780 H     1 <1>   0.0800 
 52 H       -7.9480    -2.0500    -3.5840 H     1 <1>   0.0800 
 53 H       -7.0510     1.9010    -2.2860 H     1 <1>   0.0800 
 54 H       -8.3320     1.0820    -1.4500 H     1 <1>   0.0800 
 55 H       -8.3840     0.4090    -3.7970 H     1 <1>   0.0800 
 56 H       -6.6890     0.0150    -3.7660 H     1 <1>   0.0800 
@<TRIPOS>BOND
  1   1   2  2   
  2   2   3  am  
  3   2   4  1   
  4   3   5  1   
  5   3   6  1   
  6   4   7  ar  
  7   4   8  ar  
  8   5   9  1   
  9   5  27  1   
 10   5  28  1   
 11   6  10  1   
 12   6  29  1   
 13   6  30  1   
 14   7  11  ar  
 15   7  31  1   
 16   8  12  ar  
 17   8  32  1   
 18   9  13  1   
 19   9  33  1   
 20   9  34  1   
 21  10  14  1   
 22  10  35  1   
 23  10  36  1   
 24  11  15  ar  
 25  12  15  ar  
 26  12  37  1   
 27  13  14  1   
 28  13  16  am  
 29  14  38  1   
 30  14  39  1   
 31  15  17  1   
 32  16  18  2   
 33  16  19  1   
 34  17  40  1   
 35  17  41  1   
 36  19  20  1   
 37  19  21  1   
 38  19  42  1   
 39  20  22  1   
 40  20  23  1   
 41  20  43  1   
 42  21  44  1   
 43  21  45  1   
 44  21  46  1   
 45  22  24  1   
 46  22  47  1   
 47  22  48  1   
 48  23  25  1   
 49  23  49  1   
 50  23  50  1   
 51  24  26  1   
 52  24  51  1   
 53  24  52  1   
 54  25  26  1   
 55  25  53  1   
 56  25  54  1   
 57  26  55  1   
 58  26  56  1   
@<TRIPOS>SUBSTRUCTURE
  1 ****   1 GROUP 4 **** **** 0

# MOE 2024.06 (io_trps.svl 2023.06)
