@<TRIPOS>MOLECULE
NONAME
42 43 1 0 0 
SMALL
USER_CHARGES


@<TRIPOS>ATOM
  1 O       -1.0720    -0.4890     0.4860 O.2   1 <1>  -0.5700 
  2 C       -2.0980     0.1380     0.5060 C.2   1 <1>   0.4230 
  3 C       -3.2960    -0.3300    -0.1340 C.ar  1 <1>   0.0860 
  4 C       -2.0910     1.4240     1.3080 C.3   1 <1>  -0.1790 
  5 C       -4.1990     0.4360    -0.8710 C.ar  1 <1>   0.1660 
  6 C       -3.6220    -1.6740    -0.0320 C.ar  1 <1>   0.1600 
  7 N       -5.3010    -0.0660    -1.3680 N.ar  1 <1>  -0.6200 
  8 C       -3.9690     1.9060    -1.1830 C.3   1 <1>  -0.0960 
  9 N       -4.7130    -2.2020    -0.5270 N.ar  1 <1>  -0.6200 
 10 C       -5.5100    -1.3570    -1.1710 C.ar  1 <1>   0.7200 
 11 N       -6.6590    -1.8280    -1.6910 N.pl3 1 <1>  -0.8690 
 12 C       -7.0000    -3.2470    -1.8680 C.3   1 <1>   0.2090 
 13 C       -7.6570    -3.7370    -0.5760 C.3   1 <1>  -0.1600 
 14 C       -7.8030    -5.2590    -0.5400 C.3   1 <1>   0.4230 
 15 N       -8.3780    -5.6890     0.7520 N.4   1 <1>  -0.9590 
 16 C       -6.4740    -6.0100    -0.6060 C.3   1 <1>  -0.1600 
 17 C       -8.0260    -7.1220     0.9110 C.3   1 <1>   0.3430 
 18 C       -9.8450    -5.4370     0.8850 C.3   1 <1>   0.2630 
 19 C       -6.6620    -7.2650     0.2500 C.3   1 <1>  -0.1600 
 20 H       -3.0870     1.7050     1.5950 H     1 <1>   0.0800 
 21 H       -1.6410     2.2120     0.7330 H     1 <1>   0.0800 
 22 H       -1.5080     1.2820     2.2010 H     1 <1>   0.0800 
 23 H       -2.9410    -2.3250     0.4920 H     1 <1>   0.1500 
 24 H       -2.9260     2.1090    -1.3400 H     1 <1>   0.0800 
 25 H       -4.3430     2.5170    -0.3820 H     1 <1>   0.0800 
 26 H       -4.4930     2.1760    -2.0830 H     1 <1>   0.0800 
 27 H       -7.1700    -1.1390    -2.2440 H     1 <1>   0.4000 
 28 H       -6.0960    -3.7950    -2.0790 H     1 <1>   0.0800 
 29 H       -7.6680    -3.3570    -2.7050 H     1 <1>   0.0800 
 30 H       -8.6220    -3.2710    -0.4970 H     1 <1>   0.0800 
 31 H       -7.0530    -3.4250     0.2580 H     1 <1>   0.0800 
 32 H       -8.4390    -5.5930    -1.3440 H     1 <1>   0.0800 
 33 H       -7.8710    -5.1640     1.4790 H     1 <1>   0.4500 
 34 H       -5.6790    -5.4070    -0.1990 H     1 <1>   0.0800 
 35 H       -6.2240    -6.2570    -1.6230 H     1 <1>   0.0800 
 36 H       -8.7420    -7.7350     0.3890 H     1 <1>   0.0800 
 37 H       -7.9970    -7.4110     1.9500 H     1 <1>   0.0800 
 38 H      -10.3870    -5.9640     0.1160 H     1 <1>   0.0800 
 39 H      -10.0550    -4.3840     0.7960 H     1 <1>   0.0800 
 40 H      -10.1960    -5.7750     1.8470 H     1 <1>   0.0800 
 41 H       -5.8910    -7.3320     0.9990 H     1 <1>   0.0800 
 42 H       -6.6340    -8.1600    -0.3470 H     1 <1>   0.0800 
@<TRIPOS>BOND
  1   1   2  2   
  2   2   3  1   
  3   2   4  1   
  4   3   5  ar  
  5   3   6  ar  
  6   4  20  1   
  7   4  21  1   
  8   4  22  1   
  9   5   7  ar  
 10   5   8  1   
 11   6   9  ar  
 12   6  23  1   
 13   7  10  ar  
 14   8  24  1   
 15   8  25  1   
 16   8  26  1   
 17   9  10  ar  
 18  10  11  1   
 19  11  12  1   
 20  11  27  1   
 21  12  13  1   
 22  12  28  1   
 23  12  29  1   
 24  13  14  1   
 25  13  30  1   
 26  13  31  1   
 27  14  15  1   
 28  14  16  1   
 29  14  32  1   
 30  15  17  1   
 31  15  18  1   
 32  15  33  1   
 33  16  19  1   
 34  16  34  1   
 35  16  35  1   
 36  17  19  1   
 37  17  36  1   
 38  17  37  1   
 39  18  38  1   
 40  18  39  1   
 41  18  40  1   
 42  19  41  1   
 43  19  42  1   
@<TRIPOS>SUBSTRUCTURE
  1 ****   9 GROUP 4 **** **** 0

# MOE 2024.06 (io_trps.svl 2023.06)
