@<TRIPOS>MOLECULE
NONAME
53 56 1 0 0 
SMALL
USER_CHARGES


@<TRIPOS>ATOM
  1 O       -0.5110     0.6600    -0.6140 O.2   1 <1>  -0.5700 
  2 C       -1.6150     1.1380    -0.4980 C.2   1 <1>   0.5690 
  3 N       -2.7080     0.3520    -0.2700 N.am  1 <1>  -0.6600 
  4 C       -1.7900     2.6480    -0.6180 C.3   1 <1>  -0.0990 
  5 C       -4.1220     0.7950    -0.1830 C.3   1 <1>   0.1400 
  6 C       -2.6090    -1.1200    -0.1200 C.3   1 <1>   0.1400 
  7 C       -0.4640     3.4330    -0.6540 C.3   1 <1>  -0.1600 
  8 C       -4.9360    -0.4980    -0.2020 C.3   1 <1>   0.2000 
  9 C       -3.9960    -1.5730     0.3360 C.3   1 <1>  -0.0800 
 10 C       -0.6930     4.9490    -0.7530 C.3   1 <1>   0.0200 
 11 O       -6.0650    -0.4000     0.5950 O.3   1 <1>  -0.6800 
 12 C       -4.3650    -2.9900    -0.1300 C.3   1 <1>   0.0210 
 13 C        0.6180     5.7120    -0.7560 C.2   1 <1>   0.2980 
 14 C       -3.3470    -4.0020     0.3580 C.2   1 <1>   0.1080 
 15 O        1.4010     5.6170    -1.7990 O.3   1 <1>  -0.0190 
 16 N        1.0410     6.4580     0.1780 N.2   1 <1>  -0.5650 
 17 N       -3.1370    -4.2350     1.6160 N.2   1 <1>  -0.7070 
 18 C       -2.5290    -4.7690    -0.4630 C.2   1 <1>  -0.1500 
 19 N        2.4140     6.3680    -1.5010 N.2   1 <1>  -0.4100 
 20 C        2.2070     6.8640    -0.3330 C.2   1 <1>   0.4620 
 21 N       -2.1680    -5.1700     1.6320 N.pl3 1 <1>   0.3000 
 22 C       -1.7820    -5.5090     0.3830 C.2   1 <1>  -0.3320 
 23 C        3.1030     7.7570     0.3750 C.ar  1 <1>   0.0540 
 24 C       -0.7060    -6.5330     0.0730 C.3   1 <1>  -0.0600 
 25 C        2.8020     8.2280     1.6540 C.ar  1 <1>   0.1600 
 26 C        4.3030     8.1860    -0.1810 C.ar  1 <1>  -0.1500 
 27 N        3.5520     9.0440     2.3820 N.ar  1 <1>  -0.6200 
 28 C        5.0990     9.0340     0.5570 C.ar  1 <1>  -0.1500 
 29 C        4.6840     9.4280     1.8170 C.ar  1 <1>   0.1600 
 30 H       -2.3440     2.8460    -1.5170 H     1 <1>   0.0800 
 31 H       -2.3700     2.9850     0.2210 H     1 <1>   0.0800 
 32 H       -4.2700     1.3240     0.7430 H     1 <1>   0.0800 
 33 H       -4.3800     1.4190    -1.0200 H     1 <1>   0.0800 
 34 H       -2.3520    -1.5510    -1.0730 H     1 <1>   0.0800 
 35 H       -1.8530    -1.3830     0.6020 H     1 <1>   0.0800 
 36 H        0.1000     3.2170     0.2390 H     1 <1>   0.0800 
 37 H        0.1220     3.1040    -1.4960 H     1 <1>   0.0800 
 38 H       -5.2490    -0.7140    -1.2090 H     1 <1>   0.0800 
 39 H       -3.9950    -1.5480     1.4120 H     1 <1>   0.0800 
 40 H       -1.2800     5.2800     0.0860 H     1 <1>   0.0800 
 41 H       -1.2310     5.1840    -1.6530 H     1 <1>   0.0800 
 42 H       -5.8160    -0.4330     1.5400 H     1 <1>   0.4000 
 43 H       -4.4180    -3.0260    -1.2020 H     1 <1>   0.0800 
 44 H       -5.3300    -3.2570     0.2630 H     1 <1>   0.0800 
 45 H       -2.5130    -4.7550    -1.5380 H     1 <1>   0.1500 
 46 H       -1.7930    -5.5530     2.5070 H     1 <1>   0.2700 
 47 H       -0.5810    -6.6250    -0.9920 H     1 <1>   0.0800 
 48 H       -0.9800    -7.4940     0.4700 H     1 <1>   0.0800 
 49 H        0.2320    -6.2280     0.5020 H     1 <1>   0.0800 
 50 H        1.8780     7.9080     2.1050 H     1 <1>   0.1500 
 51 H        4.6020     7.8620    -1.1630 H     1 <1>   0.1500 
 52 H        6.0340     9.3890     0.1630 H     1 <1>   0.1500 
 53 H        5.3120    10.0920     2.3870 H     1 <1>   0.1500 
@<TRIPOS>BOND
  1   1   2  2   
  2   2   3  am  
  3   2   4  1   
  4   3   5  1   
  5   3   6  1   
  6   4   7  1   
  7   4  30  1   
  8   4  31  1   
  9   5   8  1   
 10   5  32  1   
 11   5  33  1   
 12   6   9  1   
 13   6  34  1   
 14   6  35  1   
 15   7  10  1   
 16   7  36  1   
 17   7  37  1   
 18   8   9  1   
 19   8  11  1   
 20   8  38  1   
 21   9  12  1   
 22   9  39  1   
 23  10  13  1   
 24  10  40  1   
 25  10  41  1   
 26  11  42  1   
 27  12  14  1   
 28  12  43  1   
 29  12  44  1   
 30  13  15  1   
 31  13  16  2   
 32  14  17  2   
 33  14  18  1   
 34  15  19  1   
 35  16  20  1   
 36  17  21  1   
 37  18  22  2   
 38  18  45  1   
 39  19  20  2   
 40  20  23  1   
 41  21  22  1   
 42  21  46  1   
 43  22  24  1   
 44  23  25  ar  
 45  23  26  ar  
 46  24  47  1   
 47  24  48  1   
 48  24  49  1   
 49  25  27  ar  
 50  25  50  1   
 51  26  28  ar  
 52  26  51  1   
 53  27  29  ar  
 54  28  29  ar  
 55  28  52  1   
 56  29  53  1   
@<TRIPOS>SUBSTRUCTURE
  1 ****   2 GROUP 4 **** **** 0

# MOE 2024.06 (io_trps.svl 2023.06)
