@<TRIPOS>MOLECULE
NONAME
47 49 1 0 0 
SMALL
USER_CHARGES


@<TRIPOS>ATOM
  1 S        0.3630    -0.2290     0.1460 S.3   1 <1>  -0.3320 
  2 C        1.7640     0.8890     0.3120 C.ar  1 <1>   0.1020 
  3 C        0.9640    -1.9320     0.5410 C.3   1 <1>  -0.0100 
  4 C        1.5370     2.2180     0.0610 C.ar  1 <1>  -0.1500 
  5 C        3.0280     0.4320     0.6800 C.ar  1 <1>  -0.1500 
  6 C        2.5720     3.1620     0.1670 C.ar  1 <1>   0.0000 
  7 C        4.0590     1.3360     0.7890 C.ar  1 <1>  -0.1500 
  8 C        3.8500     2.6980     0.5370 C.ar  1 <1>   0.3610 
  9 C        2.4120     4.5610    -0.0760 C.ar  1 <1>  -0.1440 
 10 N        4.8870     3.6080     0.6440 N.ar  1 <1>  -0.1790 
 11 C        3.4830     5.3930     0.0500 C.ar  1 <1>  -0.1500 
 12 C        1.0480     5.1180    -0.4690 C.3   1 <1>  -0.0970 
 13 C        4.7670     4.9160     0.4130 C.ar  1 <1>   0.4610 
 14 N        5.8490     5.6980     0.5380 N.pl3 1 <1>  -0.8690 
 15 C        5.9530     7.1660     0.2700 C.3   1 <1>   0.2090 
 16 C        7.3380     7.5910    -0.2720 C.3   1 <1>   0.0000 
 17 C        7.8820     6.7440    -1.4590 C.3   1 <1>   0.0000 
 18 C        8.5550     7.1140     0.5760 C.3   1 <1>   0.0000 
 19 C        7.3800     9.0970    -0.5730 C.3   1 <1>   0.1200 
 20 C        8.8020     5.9890    -0.4640 C.3   1 <1>   0.0000 
 21 O        6.9820     9.7900     0.5660 O.3   1 <1>  -0.5600 
 22 C        7.0600    11.1740     0.4440 C.3   1 <1>   0.0400 
 23 H        0.1270    -2.6000     0.4420 H     1 <1>   0.0800 
 24 H        1.3300    -1.9320     1.5520 H     1 <1>   0.0800 
 25 H        1.7370    -2.1850    -0.1620 H     1 <1>   0.0800 
 26 H        0.5440     2.5230    -0.2190 H     1 <1>   0.1500 
 27 H        3.1970    -0.6110     0.8750 H     1 <1>   0.1500 
 28 H        5.0350     0.9820     1.0730 H     1 <1>   0.1500 
 29 H        5.8030     3.2590     0.9060 H     1 <1>   0.4570 
 30 H        3.3670     6.4460    -0.1210 H     1 <1>   0.1500 
 31 H        0.7130     4.6710    -1.3880 H     1 <1>   0.0800 
 32 H        1.0880     6.1830    -0.6120 H     1 <1>   0.0800 
 33 H        0.3250     4.9120     0.3020 H     1 <1>   0.0800 
 34 H        6.7560     5.3440     0.8620 H     1 <1>   0.4000 
 35 H        5.7610     7.6970     1.1880 H     1 <1>   0.0800 
 36 H        5.2090     7.4680    -0.4460 H     1 <1>   0.0800 
 37 H        8.4510     7.3240    -2.1660 H     1 <1>   0.0000 
 38 H        7.1480     6.1140    -1.9290 H     1 <1>   0.0000 
 39 H        8.2970     6.7460     1.5530 H     1 <1>   0.0000 
 40 H        9.3640     7.8240     0.5950 H     1 <1>   0.0000 
 41 H        6.7030     9.3420    -1.3740 H     1 <1>   0.0800 
 42 H        8.3770     9.4080    -0.8390 H     1 <1>   0.0800 
 43 H        9.8250     5.9280    -0.7910 H     1 <1>   0.0000 
 44 H        8.3990     5.0400    -0.1580 H     1 <1>   0.0000 
 45 H        6.7230    11.6110     1.3670 H     1 <1>   0.0800 
 46 H        6.4260    11.4980    -0.3630 H     1 <1>   0.0800 
 47 H        8.0820    11.4580     0.2620 H     1 <1>   0.0800 
@<TRIPOS>BOND
  1   1   2  1   
  2   1   3  1   
  3   2   4  ar  
  4   2   5  ar  
  5   3  23  1   
  6   3  24  1   
  7   3  25  1   
  8   4   6  ar  
  9   4  26  1   
 10   5   7  ar  
 11   5  27  1   
 12   6   8  ar  
 13   6   9  ar  
 14   7   8  ar  
 15   7  28  1   
 16   8  10  ar  
 17   9  11  ar  
 18   9  12  1   
 19  10  13  ar  
 20  10  29  1   
 21  11  13  ar  
 22  11  30  1   
 23  12  31  1   
 24  12  32  1   
 25  12  33  1   
 26  13  14  1   
 27  14  15  1   
 28  14  34  1   
 29  15  16  1   
 30  15  35  1   
 31  15  36  1   
 32  16  17  1   
 33  16  18  1   
 34  16  19  1   
 35  17  20  1   
 36  17  37  1   
 37  17  38  1   
 38  18  20  1   
 39  18  39  1   
 40  18  40  1   
 41  19  21  1   
 42  19  41  1   
 43  19  42  1   
 44  20  43  1   
 45  20  44  1   
 46  21  22  1   
 47  22  45  1   
 48  22  46  1   
 49  22  47  1   
@<TRIPOS>SUBSTRUCTURE
  1 ****  13 GROUP 4 **** **** 0

# MOE 2024.06 (io_trps.svl 2023.06)
