@<TRIPOS>MOLECULE
NONAME
45 48 1 0 0 
SMALL
USER_CHARGES


@<TRIPOS>ATOM
  1 O       -0.0170    -0.9730     1.5390 O.3   1 <1>  -0.6800 
  2 C        0.6150    -2.0940     1.0260 C.3   1 <1>   0.2000 
  3 C        1.8550    -1.7600     0.1760 C.3   1 <1>   0.0000 
  4 C       -0.3320    -2.8660     0.1090 C.3   1 <1>  -0.1600 
  5 C        3.0660    -1.4850     1.0950 C.3   1 <1>   0.2090 
  6 C        1.6290    -0.5500    -0.7740 C.3   1 <1>  -0.1600 
  7 C        1.9990    -3.0640    -0.6300 C.3   1 <1>  -0.1600 
  8 C        0.5710    -3.5310    -0.9400 C.3   1 <1>  -0.1600 
  9 N        4.2770    -1.0430     0.3380 N.pl3 1 <1>  -0.8380 
 10 C        2.9110    -0.1550    -1.5280 C.3   1 <1>  -0.1600 
 11 C        5.3910    -1.8610     0.2140 C.ar  1 <1>   0.4100 
 12 C        4.0740     0.1150    -0.5710 C.3   1 <1>   0.2090 
 13 N        5.1780    -3.1300    -0.0700 N.ar  1 <1>  -0.3100 
 14 C        6.6990    -1.3290     0.3750 C.ar  1 <1>   0.0000 
 15 N        6.1930    -3.9530    -0.2950 N.ar  1 <1>  -0.3100 
 16 C        7.7680    -2.1940     0.1020 C.ar  1 <1>   0.0000 
 17 C        6.9910    -0.0160     0.8070 C.ar  1 <1>  -0.1500 
 18 C        7.4200    -3.5180    -0.2300 C.ar  1 <1>   0.1670 
 19 C        9.0890    -1.6940     0.1960 C.ar  1 <1>  -0.1500 
 20 C        8.2770     0.4410     0.9040 C.ar  1 <1>  -0.1500 
 21 C        8.5060    -4.5370    -0.5290 C.3   1 <1>  -0.0970 
 22 C        9.3390    -0.4080     0.5850 C.ar  1 <1>  -0.1500 
 23 H       -0.8480    -1.2320     1.9780 H     1 <1>   0.4000 
 24 H        0.9020    -2.7240     1.8520 H     1 <1>   0.0800 
 25 H       -0.8860    -3.6020     0.6620 H     1 <1>   0.0800 
 26 H       -1.0100    -2.1920    -0.3850 H     1 <1>   0.0800 
 27 H        3.3000    -2.3660     1.6680 H     1 <1>   0.0800 
 28 H        2.8030    -0.7080     1.7910 H     1 <1>   0.0800 
 29 H        0.8480    -0.7640    -1.4810 H     1 <1>   0.0800 
 30 H        1.3150     0.3000    -0.1950 H     1 <1>   0.0800 
 31 H        2.5900    -2.9540    -1.5210 H     1 <1>   0.0800 
 32 H        2.4740    -3.8100    -0.0160 H     1 <1>   0.0800 
 33 H        0.5050    -4.6050    -0.8960 H     1 <1>   0.0800 
 34 H        0.2840    -3.2060    -1.9250 H     1 <1>   0.0800 
 35 H        2.7230     0.7310    -2.1070 H     1 <1>   0.0800 
 36 H        3.2010    -0.9290    -2.2130 H     1 <1>   0.0800 
 37 H        3.8630     0.9890     0.0200 H     1 <1>   0.0800 
 38 H        4.9690     0.2960    -1.1420 H     1 <1>   0.0800 
 39 H        6.1750     0.6310     1.0710 H     1 <1>   0.1500 
 40 H        9.9150    -2.3390    -0.0390 H     1 <1>   0.1500 
 41 H        8.4840     1.4460     1.2280 H     1 <1>   0.1500 
 42 H        9.0840    -4.2200    -1.3770 H     1 <1>   0.0800 
 43 H        8.0730    -5.4960    -0.7540 H     1 <1>   0.0800 
 44 H        9.1490    -4.6490     0.3250 H     1 <1>   0.0800 
 45 H       10.3470    -0.0350     0.6560 H     1 <1>   0.1500 
@<TRIPOS>BOND
  1   1   2  1   
  2   1  23  1   
  3   2   3  1   
  4   2   4  1   
  5   2  24  1   
  6   3   5  1   
  7   3   6  1   
  8   3   7  1   
  9   4   8  1   
 10   4  25  1   
 11   4  26  1   
 12   5   9  1   
 13   5  27  1   
 14   5  28  1   
 15   6  10  1   
 16   6  29  1   
 17   6  30  1   
 18   7   8  1   
 19   7  31  1   
 20   7  32  1   
 21   8  33  1   
 22   8  34  1   
 23   9  11  1   
 24   9  12  1   
 25  10  12  1   
 26  10  35  1   
 27  10  36  1   
 28  11  13  ar  
 29  11  14  ar  
 30  12  37  1   
 31  12  38  1   
 32  13  15  ar  
 33  14  16  ar  
 34  14  17  ar  
 35  15  18  ar  
 36  16  18  ar  
 37  16  19  ar  
 38  17  20  ar  
 39  17  39  1   
 40  18  21  1   
 41  19  22  ar  
 42  19  40  1   
 43  20  22  ar  
 44  20  41  1   
 45  21  42  1   
 46  21  43  1   
 47  21  44  1   
 48  22  45  1   
@<TRIPOS>SUBSTRUCTURE
  1 ****  11 GROUP 4 **** **** 0

# MOE 2024.06 (io_trps.svl 2023.06)
