@<TRIPOS>MOLECULE
NONAME
39 39 1 0 0 
SMALL
USER_CHARGES


@<TRIPOS>ATOM
  1 O       -0.3860     0.1690    -0.5130 O.2   1 <1>  -0.5700 
  2 C       -1.3320    -0.3350     0.0600 C.2   1 <1>   0.7800 
  3 O       -1.3380    -1.6290     0.3910 O.3   1 <1>  -0.4300 
  4 N       -2.4400     0.3810     0.3910 N.am  1 <1>  -0.5100 
  5 C       -0.3140    -2.5740     0.1660 C.3   1 <1>   0.2800 
  6 C       -3.8410    -0.1340     0.4670 C.3   1 <1>   0.2250 
  7 C       -2.9080     1.6340    -0.2840 C.3   1 <1>   0.2250 
  8 C       -0.0760    -2.7500    -1.3380 C.3   1 <1>  -0.2400 
  9 C       -0.8440    -3.8840     0.7490 C.3   1 <1>  -0.2400 
 10 C        0.9590    -2.1660     0.9170 C.3   1 <1>  -0.2400 
 11 C       -4.2160     0.8840    -0.6350 C.3   1 <1>   0.0000 
 12 C       -5.5200     1.6790    -0.4370 C.3   1 <1>   0.2000 
 13 O       -5.5540     2.2710     0.8160 O.3   1 <1>  -0.6800 
 14 C       -6.7640     0.8030    -0.6080 C.3   1 <1>  -0.0990 
 15 C       -8.0290     1.6250    -0.5380 C.2   1 <1>   0.6590 
 16 O       -8.4350     2.2270    -1.4970 O.2   1 <1>  -0.5700 
 17 O       -8.6670     1.6180     0.6260 O.3   1 <1>  -0.4300 
 18 C       -9.8530     2.3600     0.8200 C.3   1 <1>   0.0400 
 19 H       -4.2730     0.0660     1.4320 H     1 <1>   0.0000 
 20 H       -3.9240    -1.1590     0.1520 H     1 <1>   0.0000 
 21 H       -2.3140     1.8880    -1.1440 H     1 <1>   0.0000 
 22 H       -3.0170     2.4340     0.4260 H     1 <1>   0.0000 
 23 H       -1.0000    -2.9670    -1.8420 H     1 <1>   0.0800 
 24 H        0.6040    -3.5650    -1.5080 H     1 <1>   0.0800 
 25 H        0.3640    -1.8690    -1.7680 H     1 <1>   0.0800 
 26 H       -1.7510    -4.1750     0.2500 H     1 <1>   0.0800 
 27 H       -1.0420    -3.7720     1.8000 H     1 <1>   0.0800 
 28 H       -0.1210    -4.6690     0.6230 H     1 <1>   0.0800 
 29 H        1.3990    -1.2850     0.4870 H     1 <1>   0.0800 
 30 H        1.6880    -2.9530     0.8580 H     1 <1>   0.0800 
 31 H        0.7390    -1.9810     1.9530 H     1 <1>   0.0800 
 32 H       -4.1600     0.4430    -1.6150 H     1 <1>   0.0000 
 33 H       -5.5490     2.4780    -1.1610 H     1 <1>   0.0800 
 34 H       -5.6470     1.6090     1.5280 H     1 <1>   0.4000 
 35 H       -6.7920     0.0270     0.1330 H     1 <1>   0.0800 
 36 H       -6.7330     0.3370    -1.5750 H     1 <1>   0.0800 
 37 H      -10.1900     2.2080     1.8290 H     1 <1>   0.0800 
 38 H      -10.5970     2.0150     0.1230 H     1 <1>   0.0800 
 39 H       -9.6420     3.4020     0.6520 H     1 <1>   0.0800 
@<TRIPOS>BOND
  1   1   2  2   
  2   2   3  1   
  3   2   4  am  
  4   3   5  1   
  5   4   6  1   
  6   4   7  1   
  7   5   8  1   
  8   5   9  1   
  9   5  10  1   
 10   6  11  1   
 11   6  19  1   
 12   6  20  1   
 13   7  11  1   
 14   7  21  1   
 15   7  22  1   
 16   8  23  1   
 17   8  24  1   
 18   8  25  1   
 19   9  26  1   
 20   9  27  1   
 21   9  28  1   
 22  10  29  1   
 23  10  30  1   
 24  10  31  1   
 25  11  12  1   
 26  11  32  1   
 27  12  13  1   
 28  12  14  1   
 29  12  33  1   
 30  13  34  1   
 31  14  15  1   
 32  14  35  1   
 33  14  36  1   
 34  15  16  2   
 35  15  17  1   
 36  17  18  1   
 37  18  37  1   
 38  18  38  1   
 39  18  39  1   
@<TRIPOS>SUBSTRUCTURE
  1 ****   6 GROUP 4 **** **** 0

# MOE 2024.06 (io_trps.svl 2023.06)
