@<TRIPOS>MOLECULE
NONAME
61 64 1 0 0 
SMALL
USER_CHARGES


@<TRIPOS>ATOM
  1 O       -3.6740    -1.2470     1.0920 O.2   1 <1>  -0.5700 
  2 C       -2.9700    -1.2080     0.1130 C.2   1 <1>   0.5690 
  3 N       -2.2590    -2.3120    -0.2620 N.am  1 <1>  -0.6600 
  4 C       -2.9350     0.0610    -0.7150 C.3   1 <1>  -0.0990 
  5 C       -1.9140    -3.3380     0.7960 C.3   1 <1>   0.2200 
  6 C       -2.0900    -2.6800    -1.7000 C.3   1 <1>   0.1400 
  7 C       -2.9370     1.3060     0.1810 C.3   1 <1>   0.0960 
  8 C       -0.5920    -4.0740     0.5190 C.3   1 <1>   0.1200 
  9 C       -3.0720    -4.3440     0.9940 C.3   1 <1>   0.3430 
 10 C       -2.2210    -4.1910    -1.9820 C.3   1 <1>  -0.0800 
 11 N       -2.7130     2.5140    -0.6380 N.pl3 1 <1>   0.0480 
 12 O       -0.8040    -5.1860    -0.2970 O.3   1 <1>  -0.5600 
 13 N       -4.0440    -4.3120    -0.1540 N.4   1 <1>  -0.9590 
 14 C       -0.9200    -4.9410    -1.6560 C.3   1 <1>   0.1200 
 15 C       -3.4670    -4.9100    -1.4040 C.3   1 <1>   0.3430 
 16 C       -1.6090     3.2990    -0.7410 C.2   1 <1>   0.0060 
 17 C       -3.5980     3.0550    -1.4950 C.2   1 <1>  -0.3020 
 18 C       -5.3410    -4.9570     0.2490 C.3   1 <1>   0.4860 
 19 N       -1.7420     4.2660    -1.5900 N.2   1 <1>  -0.5650 
 20 C       -0.3290     3.0960     0.0560 C.3   1 <1>   0.0200 
 21 C       -2.9910     4.1160    -2.0640 C.2   1 <1>   0.0770 
 22 C       -5.2600    -6.4840     0.3300 C.ar  1 <1>   0.1670 
 23 C        0.5040     1.9280    -0.4820 C.3   1 <1>  -0.2400 
 24 N       -4.4560    -6.9980     1.2510 N.ar  1 <1>  -0.6200 
 25 C       -6.0110    -7.2470    -0.5520 C.ar  1 <1>  -0.1500 
 26 C       -4.3990    -8.3210     1.2930 C.ar  1 <1>   0.1600 
 27 C       -5.9370    -8.6220    -0.4970 C.ar  1 <1>  -0.1500 
 28 C       -5.1040    -9.1710     0.4540 C.ar  1 <1>  -0.1430 
 29 C       -4.9750   -10.6810     0.5760 C.3   1 <1>  -0.0970 
 30 H       -2.0480     0.0690    -1.3190 H     1 <1>   0.0800 
 31 H       -3.7960     0.0800    -1.3570 H     1 <1>   0.0800 
 32 H       -1.7760    -2.8170     1.7280 H     1 <1>   0.0800 
 33 H       -2.8330    -2.1630    -2.2830 H     1 <1>   0.0800 
 34 H       -1.1260    -2.3340    -2.0350 H     1 <1>   0.0800 
 35 H       -2.1640     1.2320     0.9230 H     1 <1>   0.0800 
 36 H       -3.8820     1.4010     0.6880 H     1 <1>   0.0800 
 37 H       -0.2020    -4.4520     1.4480 H     1 <1>   0.0800 
 38 H        0.1480    -3.4250     0.0830 H     1 <1>   0.0800 
 39 H       -3.5870    -4.0810     1.9020 H     1 <1>   0.0800 
 40 H       -2.6760    -5.3390     1.1240 H     1 <1>   0.0800 
 41 H       -2.3080    -4.2760    -3.0510 H     1 <1>   0.0800 
 42 H       -4.1970    -3.3050    -0.3040 H     1 <1>   0.4500 
 43 H       -0.0480    -4.4020    -1.9900 H     1 <1>   0.0800 
 44 H       -0.9210    -5.9030    -2.1430 H     1 <1>   0.0800 
 45 H       -3.2110    -5.9410    -1.2150 H     1 <1>   0.0800 
 46 H       -4.2310    -4.9060    -2.1630 H     1 <1>   0.0800 
 47 H       -4.5890     2.6720    -1.6530 H     1 <1>   0.1500 
 48 H       -5.6450    -4.5820     1.2120 H     1 <1>   0.0800 
 49 H       -6.1060    -4.6920    -0.4610 H     1 <1>   0.0800 
 50 H        0.2550     3.9980    -0.0100 H     1 <1>   0.0800 
 51 H       -0.5650     2.9430     1.0940 H     1 <1>   0.0800 
 52 H       -3.3910     4.7930    -2.8010 H     1 <1>   0.1500 
 53 H        0.7100     2.0830    -1.5270 H     1 <1>   0.0800 
 54 H       -0.0170     0.9970    -0.3630 H     1 <1>   0.0800 
 55 H        1.4380     1.8710     0.0480 H     1 <1>   0.0800 
 56 H       -6.6560    -6.7860    -1.2790 H     1 <1>   0.1500 
 57 H       -3.7530    -8.7540     2.0390 H     1 <1>   0.1500 
 58 H       -6.5100    -9.2420    -1.1660 H     1 <1>   0.1500 
 59 H       -4.9480   -11.1330    -0.4000 H     1 <1>   0.0800 
 60 H       -5.8150   -11.0770     1.1180 H     1 <1>   0.0800 
 61 H       -4.0720   -10.9480     1.0960 H     1 <1>   0.0800 
@<TRIPOS>BOND
  1   1   2  2   
  2   2   3  am  
  3   2   4  1   
  4   3   5  1   
  5   3   6  1   
  6   4   7  1   
  7   4  30  1   
  8   4  31  1   
  9   5   8  1   
 10   5   9  1   
 11   5  32  1   
 12   6  10  1   
 13   6  33  1   
 14   6  34  1   
 15   7  11  1   
 16   7  35  1   
 17   7  36  1   
 18   8  12  1   
 19   8  37  1   
 20   8  38  1   
 21   9  13  1   
 22   9  39  1   
 23   9  40  1   
 24  10  14  1   
 25  10  15  1   
 26  10  41  1   
 27  11  16  1   
 28  11  17  1   
 29  12  14  1   
 30  13  15  1   
 31  13  18  1   
 32  13  42  1   
 33  14  43  1   
 34  14  44  1   
 35  15  45  1   
 36  15  46  1   
 37  16  19  2   
 38  16  20  1   
 39  17  21  2   
 40  17  47  1   
 41  18  22  1   
 42  18  48  1   
 43  18  49  1   
 44  19  21  1   
 45  20  23  1   
 46  20  50  1   
 47  20  51  1   
 48  21  52  1   
 49  22  24  ar  
 50  22  25  ar  
 51  23  53  1   
 52  23  54  1   
 53  23  55  1   
 54  24  26  ar  
 55  25  27  ar  
 56  25  56  1   
 57  26  28  ar  
 58  26  57  1   
 59  27  28  ar  
 60  27  58  1   
 61  28  29  1   
 62  29  59  1   
 63  29  60  1   
 64  29  61  1   
@<TRIPOS>SUBSTRUCTURE
  1 ****   3 GROUP 4 **** **** 0

# MOE 2024.06 (io_trps.svl 2023.06)
