@<TRIPOS>MOLECULE
NONAME
45 48 1 0 0 
SMALL
USER_CHARGES


@<TRIPOS>ATOM
  1 S        0.3330     0.3630    -1.9630 S.o2  1 <1>   1.5000 
  2 O       -0.0030     1.3980    -2.9100 O.2   1 <1>  -0.6500 
  3 O        1.3380    -0.6170    -2.3250 O.2   1 <1>  -0.6500 
  4 N        1.0170     1.1580    -0.6180 N.am  1 <1>  -0.8490 
  5 C       -1.1600    -0.4960    -1.3690 C.2   1 <1>   0.0780 
  6 C        0.8760     0.5120     0.7190 C.3   1 <1>   0.2760 
  7 C        2.2960     1.8130    -0.9510 C.3   1 <1>   0.1960 
  8 O       -1.0190    -1.4740    -0.4880 O.3   1 <1>  -0.2800 
  9 C       -2.4780    -0.3370    -1.6300 C.2   1 <1>  -0.1500 
 10 C        1.1860     1.4780     1.8770 C.3   1 <1>   0.1200 
 11 C        1.6700    -0.8120     0.8940 C.3   1 <1>   0.3430 
 12 C        3.4880     1.5280    -0.0150 C.3   1 <1>  -0.0800 
 13 C       -2.2020    -1.9400    -0.1300 C.2   1 <1>   0.1410 
 14 C       -3.1530    -1.2720    -0.8350 C.2   1 <1>  -0.1500 
 15 O        2.5450     1.4790     2.1920 O.3   1 <1>  -0.5600 
 16 N        2.8420    -0.9670    -0.0380 N.4   1 <1>  -0.9590 
 17 C        3.3450     2.2270     1.3430 C.3   1 <1>   0.1200 
 18 C        3.9210     0.0540     0.1410 C.3   1 <1>   0.3430 
 19 C       -2.2670    -2.9700     0.8800 C.2   1 <1>   0.2880 
 20 C        3.3810    -2.3530     0.0390 C.3   1 <1>   0.2630 
 21 N       -1.2530    -3.3210     1.6410 N.2   1 <1>  -0.7070 
 22 C       -3.4060    -3.7170     1.1960 C.2   1 <1>  -0.1500 
 23 N       -1.7360    -4.2930     2.4390 N.pl3 1 <1>   0.3000 
 24 C       -3.0330    -4.5480     2.1880 C.2   1 <1>  -0.3020 
 25 H       -0.1640     0.2870     0.8670 H     1 <1>   0.0800 
 26 H        2.5930     1.5490    -1.9540 H     1 <1>   0.0800 
 27 H        2.1200     2.8770    -0.9700 H     1 <1>   0.0800 
 28 H       -2.9410     0.3650    -2.3030 H     1 <1>   0.1500 
 29 H        0.6720     1.1410     2.7610 H     1 <1>   0.0800 
 30 H        0.8530     2.4790     1.6590 H     1 <1>   0.0800 
 31 H        0.9860    -1.6310     0.7350 H     1 <1>   0.0800 
 32 H        2.0050    -0.8810     1.9160 H     1 <1>   0.0800 
 33 H        4.3250     2.0230    -0.4750 H     1 <1>   0.0800 
 34 H       -4.2200    -1.4040    -0.7980 H     1 <1>   0.1500 
 35 H        2.4570    -0.8430    -0.9980 H     1 <1>   0.4500 
 36 H        2.9350     3.2190     1.2470 H     1 <1>   0.0800 
 37 H        4.3090     2.3090     1.8170 H     1 <1>   0.0800 
 38 H        4.3670    -0.0690     1.1150 H     1 <1>   0.0800 
 39 H        4.6890    -0.1410    -0.5900 H     1 <1>   0.0800 
 40 H        3.7830    -2.5450     1.0200 H     1 <1>   0.0800 
 41 H        4.1610    -2.4920    -0.6920 H     1 <1>   0.0800 
 42 H        2.5970    -3.0660    -0.1610 H     1 <1>   0.0800 
 43 H       -4.3670    -3.6250     0.7230 H     1 <1>   0.1500 
 44 H       -1.1610    -4.7690     3.1470 H     1 <1>   0.2700 
 45 H       -3.6030    -5.2900     2.7200 H     1 <1>   0.1500 
@<TRIPOS>BOND
  1   1   2  2   
  2   1   3  2   
  3   1   4  am  
  4   1   5  1   
  5   4   6  1   
  6   4   7  1   
  7   5   8  1   
  8   5   9  2   
  9   6  10  1   
 10   6  11  1   
 11   6  25  1   
 12   7  12  1   
 13   7  26  1   
 14   7  27  1   
 15   8  13  1   
 16   9  14  1   
 17   9  28  1   
 18  10  15  1   
 19  10  29  1   
 20  10  30  1   
 21  11  16  1   
 22  11  31  1   
 23  11  32  1   
 24  12  17  1   
 25  12  18  1   
 26  12  33  1   
 27  13  14  2   
 28  13  19  1   
 29  14  34  1   
 30  15  17  1   
 31  16  18  1   
 32  16  20  1   
 33  16  35  1   
 34  17  36  1   
 35  17  37  1   
 36  18  38  1   
 37  18  39  1   
 38  19  21  2   
 39  19  22  1   
 40  20  40  1   
 41  20  41  1   
 42  20  42  1   
 43  21  23  1   
 44  22  24  2   
 45  22  43  1   
 46  23  24  1   
 47  23  44  1   
 48  24  45  1   
@<TRIPOS>SUBSTRUCTURE
  1 ****   6 GROUP 4 **** **** 0

# MOE 2024.06 (io_trps.svl 2023.06)
