@<TRIPOS>MOLECULE
NONAME
56 59 1 0 0 
SMALL
USER_CHARGES


@<TRIPOS>ATOM
  1 CL      -3.6970    -2.7540    -2.2660 Cl    1 <1>  -0.1230 
  2 C       -3.7530    -1.3410    -1.2290 C.2   1 <1>   0.3500 
  3 N       -3.4030    -0.1470    -1.7200 N.2   1 <1>  -0.5650 
  4 C       -4.1260    -1.2860     0.0680 C.2   1 <1>  -0.3320 
  5 C       -3.5480     0.6420    -0.7060 C.2   1 <1>   0.0060 
  6 N       -3.9820     0.0140     0.4130 N.pl3 1 <1>   0.0330 
  7 C       -4.5980    -2.3560     1.0240 C.3   1 <1>   0.5230 
  8 C       -3.2610     2.1330    -0.7540 C.3   1 <1>   0.0200 
  9 N       -5.3850    -3.3680     0.2960 N.4   1 <1>  -0.9590 
 10 C       -2.0330     2.4920     0.0930 C.3   1 <1>  -0.1600 
 11 C       -6.5690    -2.8270    -0.4540 C.3   1 <1>   0.3430 
 12 C       -5.9090    -4.4500     1.1600 C.3   1 <1>   0.3430 
 13 C       -1.7280     3.9940     0.0310 C.3   1 <1>  -0.1600 
 14 C       -7.7390    -3.7850    -0.1640 C.3   1 <1>   0.2000 
 15 C       -7.0540    -5.0530     0.3430 C.3   1 <1>  -0.0800 
 16 C       -0.5010     4.3420     0.8790 C.3   1 <1>  -0.2400 
 17 O       -8.4800    -3.2540     0.8850 O.3   1 <1>  -0.6800 
 18 C       -6.5750    -5.9340    -0.8420 C.3   1 <1>  -0.0170 
 19 C       -5.2310    -6.6010    -0.5930 C.ar  1 <1>   0.1670 
 20 N       -4.1700    -5.8790    -0.8030 N.ar  1 <1>  -0.6200 
 21 C       -5.1970    -7.9300    -0.1440 C.ar  1 <1>  -0.1500 
 22 C       -2.9590    -6.4660    -0.5960 C.ar  1 <1>   0.3100 
 23 C       -3.9980    -8.5310     0.0950 C.ar  1 <1>  -0.1500 
 24 C       -2.8260    -7.7920    -0.1290 C.ar  1 <1>   0.0000 
 25 C       -1.7900    -5.7270    -0.8480 C.ar  1 <1>  -0.1500 
 26 C       -1.5360    -8.3170     0.0880 C.ar  1 <1>  -0.1500 
 27 C       -0.5460    -6.2570    -0.6330 C.ar  1 <1>  -0.1500 
 28 C       -0.4190    -7.5650    -0.1570 C.ar  1 <1>  -0.1500 
 29 H       -4.1500     0.4710     1.3160 H     1 <1>   0.2700 
 30 H       -5.2170    -1.9100     1.7860 H     1 <1>   0.0800 
 31 H       -3.7490    -2.8200     1.5000 H     1 <1>   0.0800 
 32 H       -3.0840     2.4170    -1.7770 H     1 <1>   0.0800 
 33 H       -4.1230     2.6750    -0.4070 H     1 <1>   0.0800 
 34 H       -4.7560    -3.8420    -0.3840 H     1 <1>   0.4500 
 35 H       -2.1990     2.2050     1.1160 H     1 <1>   0.0800 
 36 H       -1.1840     1.9400    -0.2760 H     1 <1>   0.0800 
 37 H       -6.8220    -1.8300    -0.1350 H     1 <1>   0.0800 
 38 H       -6.3500    -2.8160    -1.5090 H     1 <1>   0.0800 
 39 H       -5.1480    -5.1750     1.4020 H     1 <1>   0.0800 
 40 H       -6.3090    -4.0320     2.0700 H     1 <1>   0.0800 
 41 H       -1.5440     4.2850    -0.9900 H     1 <1>   0.0800 
 42 H       -2.5750     4.5550     0.3900 H     1 <1>   0.0800 
 43 H       -8.3870    -3.9260    -1.0130 H     1 <1>   0.0800 
 44 H       -7.6970    -5.6370     0.9780 H     1 <1>   0.0800 
 45 H        0.3650     3.8120     0.5230 H     1 <1>   0.0800 
 46 H       -0.6680     4.0830     1.9100 H     1 <1>   0.0800 
 47 H       -0.3010     5.3970     0.8210 H     1 <1>   0.0800 
 48 H       -9.3470    -3.7040     0.9740 H     1 <1>   0.4000 
 49 H       -6.4710    -5.3450    -1.7380 H     1 <1>   0.0800 
 50 H       -7.3180    -6.6820    -1.0560 H     1 <1>   0.0800 
 51 H       -6.1160    -8.4670     0.0080 H     1 <1>   0.1500 
 52 H       -3.9290    -9.5470     0.4420 H     1 <1>   0.1500 
 53 H       -1.8960    -4.7270    -1.2230 H     1 <1>   0.1500 
 54 H       -1.4430    -9.3260     0.4500 H     1 <1>   0.1500 
 55 H        0.3430    -5.6820    -0.8300 H     1 <1>   0.1500 
 56 H        0.5660    -7.9690     0.0090 H     1 <1>   0.1500 
@<TRIPOS>BOND
  1   1   2  1   
  2   2   3  1   
  3   2   4  2   
  4   3   5  2   
  5   4   6  1   
  6   4   7  1   
  7   5   6  1   
  8   5   8  1   
  9   6  29  1   
 10   7   9  1   
 11   7  30  1   
 12   7  31  1   
 13   8  10  1   
 14   8  32  1   
 15   8  33  1   
 16   9  11  1   
 17   9  12  1   
 18   9  34  1   
 19  10  13  1   
 20  10  35  1   
 21  10  36  1   
 22  11  14  1   
 23  11  37  1   
 24  11  38  1   
 25  12  15  1   
 26  12  39  1   
 27  12  40  1   
 28  13  16  1   
 29  13  41  1   
 30  13  42  1   
 31  14  15  1   
 32  14  17  1   
 33  14  43  1   
 34  15  18  1   
 35  15  44  1   
 36  16  45  1   
 37  16  46  1   
 38  16  47  1   
 39  17  48  1   
 40  18  19  1   
 41  18  49  1   
 42  18  50  1   
 43  19  20  ar  
 44  19  21  ar  
 45  20  22  ar  
 46  21  23  ar  
 47  21  51  1   
 48  22  24  ar  
 49  22  25  ar  
 50  23  24  ar  
 51  23  52  1   
 52  24  26  ar  
 53  25  27  ar  
 54  25  53  1   
 55  26  28  ar  
 56  26  54  1   
 57  27  28  ar  
 58  27  55  1   
 59  28  56  1   
@<TRIPOS>SUBSTRUCTURE
  1 ****   9 GROUP 4 **** **** 0

# MOE 2024.06 (io_trps.svl 2023.06)
