@<TRIPOS>MOLECULE
NONAME
62 64 1 0 0 
SMALL
USER_CHARGES


@<TRIPOS>ATOM
  1 O        0.6480     1.3810     0.2800 O.2   1 <1>  -0.5700 
  2 C        0.3970     2.5390     0.0700 C.2   1 <1>   0.5690 
  3 N       -0.6890     3.1240     0.6230 N.am  1 <1>  -0.7300 
  4 C        1.3030     3.3690    -0.8450 C.3   1 <1>   0.1810 
  5 C       -1.0630     4.5420     0.4070 C.3   1 <1>   0.3640 
  6 O        1.1780     4.7580    -0.6110 O.3   1 <1>  -0.5600 
  7 C       -2.5340     4.6230     0.0210 C.ar  1 <1>  -0.1440 
  8 C       -0.1680     5.2240    -0.6580 C.3   1 <1>   0.2610 
  9 C       -3.0800     3.7660    -0.9260 C.ar  1 <1>  -0.1500 
 10 C       -3.3500     5.5780     0.6140 C.ar  1 <1>  -0.1500 
 11 C       -0.2310     6.7490    -0.5000 C.2   1 <1>   0.5690 
 12 C       -4.4160     3.8600    -1.2720 C.ar  1 <1>  -0.1500 
 13 C       -4.6860     5.6730     0.2680 C.ar  1 <1>  -0.1500 
 14 O       -0.7740     7.3710    -1.3820 O.2   1 <1>  -0.5700 
 15 N        0.3400     7.4210     0.5640 N.am  1 <1>  -0.6600 
 16 C       -5.2200     4.8140    -0.6750 C.ar  1 <1>  -0.1500 
 17 C        1.3690     6.8420     1.4780 C.3   1 <1>   0.1400 
 18 C        0.4070     8.9130     0.5400 C.3   1 <1>   0.1400 
 19 C        2.7690     7.2320     0.9620 C.3   1 <1>   0.3430 
 20 C        1.7910     9.3440     0.0170 C.3   1 <1>   0.3430 
 21 N        2.9270     8.7300     0.8130 N.4   1 <1>  -0.9590 
 22 C        4.2530     9.0450     0.2130 C.3   1 <1>   0.3430 
 23 C        4.5900    10.5250     0.4020 C.3   1 <1>  -0.1600 
 24 C        6.0040    10.8270    -0.1140 C.3   1 <1>  -0.1600 
 25 C        6.3540    12.3090     0.0730 C.3   1 <1>  -0.1600 
 26 C        7.7660    12.6110    -0.4420 C.3   1 <1>  -0.1600 
 27 C        8.1170    14.0910    -0.2560 C.3   1 <1>  -0.1600 
 28 C        9.5280    14.3920    -0.7710 C.3   1 <1>  -0.2400 
 29 H       -1.3310     2.5490     1.1720 H     1 <1>   0.3700 
 30 H        1.0550     3.1700    -1.8720 H     1 <1>   0.0800 
 31 H        2.3280     3.0930    -0.6760 H     1 <1>   0.0800 
 32 H       -0.9330     5.0530     1.3450 H     1 <1>   0.0800 
 33 H       -0.5510     4.9850    -1.6350 H     1 <1>   0.0800 
 34 H       -2.4720     3.0160    -1.4030 H     1 <1>   0.1500 
 35 H       -2.9560     6.2590     1.3480 H     1 <1>   0.1500 
 36 H       -4.8310     3.1920    -2.0070 H     1 <1>   0.1500 
 37 H       -5.3120     6.4160     0.7310 H     1 <1>   0.1500 
 38 H       -6.2590     4.8890    -0.9450 H     1 <1>   0.1500 
 39 H        1.2260     7.2280     2.4730 H     1 <1>   0.0800 
 40 H        1.2870     5.7730     1.5410 H     1 <1>   0.0800 
 41 H       -0.3600     9.3220    -0.0960 H     1 <1>   0.0800 
 42 H        0.2440     9.3020     1.5300 H     1 <1>   0.0800 
 43 H        2.9150     6.7550     0.0060 H     1 <1>   0.0800 
 44 H        3.5150     6.8500     1.6390 H     1 <1>   0.0800 
 45 H        1.8570    10.4190     0.0470 H     1 <1>   0.0800 
 46 H        1.8660     9.0390    -1.0140 H     1 <1>   0.0800 
 47 H        2.9050     9.1410     1.7550 H     1 <1>   0.4500 
 48 H        5.0170     8.4560     0.6960 H     1 <1>   0.0800 
 49 H        4.2540     8.7990    -0.8370 H     1 <1>   0.0800 
 50 H        3.8930    11.1400    -0.1400 H     1 <1>   0.0800 
 51 H        4.5430    10.7790     1.4470 H     1 <1>   0.0800 
 52 H        6.7230    10.2270     0.4190 H     1 <1>   0.0800 
 53 H        6.0720    10.5800    -1.1610 H     1 <1>   0.0800 
 54 H        5.6460    12.9200    -0.4610 H     1 <1>   0.0800 
 55 H        6.2970    12.5670     1.1180 H     1 <1>   0.0800 
 56 H        8.4820    12.0080     0.0910 H     1 <1>   0.0800 
 57 H        7.8310    12.3600    -1.4870 H     1 <1>   0.0800 
 58 H        7.4090    14.7030    -0.7900 H     1 <1>   0.0800 
 59 H        8.0610    14.3500     0.7880 H     1 <1>   0.0800 
 60 H        9.6020    14.1630    -1.8190 H     1 <1>   0.0800 
 61 H       10.2560    13.8090    -0.2350 H     1 <1>   0.0800 
 62 H        9.7560    15.4340    -0.6320 H     1 <1>   0.0800 
@<TRIPOS>BOND
  1   1   2  2   
  2   2   3  am  
  3   2   4  1   
  4   3   5  1   
  5   3  29  1   
  6   4   6  1   
  7   4  30  1   
  8   4  31  1   
  9   5   7  1   
 10   5   8  1   
 11   5  32  1   
 12   6   8  1   
 13   7   9  ar  
 14   7  10  ar  
 15   8  11  1   
 16   8  33  1   
 17   9  12  ar  
 18   9  34  1   
 19  10  13  ar  
 20  10  35  1   
 21  11  14  2   
 22  11  15  am  
 23  12  16  ar  
 24  12  36  1   
 25  13  16  ar  
 26  13  37  1   
 27  15  17  1   
 28  15  18  1   
 29  16  38  1   
 30  17  19  1   
 31  17  39  1   
 32  17  40  1   
 33  18  20  1   
 34  18  41  1   
 35  18  42  1   
 36  19  21  1   
 37  19  43  1   
 38  19  44  1   
 39  20  21  1   
 40  20  45  1   
 41  20  46  1   
 42  21  22  1   
 43  21  47  1   
 44  22  23  1   
 45  22  48  1   
 46  22  49  1   
 47  23  24  1   
 48  23  50  1   
 49  23  51  1   
 50  24  25  1   
 51  24  52  1   
 52  24  53  1   
 53  25  26  1   
 54  25  54  1   
 55  25  55  1   
 56  26  27  1   
 57  26  56  1   
 58  26  57  1   
 59  27  28  1   
 60  27  58  1   
 61  27  59  1   
 62  28  60  1   
 63  28  61  1   
 64  28  62  1   
@<TRIPOS>SUBSTRUCTURE
  1 ****  15 GROUP 4 **** **** 0

# MOE 2024.06 (io_trps.svl 2023.06)
