@<TRIPOS>MOLECULE
NONAME
45 46 1 0 0 
SMALL
USER_CHARGES


@<TRIPOS>ATOM
  1 S        0.7100     0.3020     0.7120 S.o2  1 <1>   1.3330 
  2 O        0.8970    -1.0680     1.1360 O.2   1 <1>  -0.6500 
  3 O        0.5880     1.3470     1.7040 O.2   1 <1>  -0.6500 
  4 N       -0.6630     0.3520    -0.2860 N.am  1 <1>  -0.8490 
  5 C        2.0370     0.7500    -0.4040 C.3   1 <1>  -0.0550 
  6 C       -0.8570    -0.8670    -1.0760 C.3   1 <1>   0.1160 
  7 C       -1.8830     0.6620     0.4640 C.3   1 <1>   0.1160 
  8 C        3.3950     0.9030     0.3010 C.3   1 <1>  -0.0800 
  9 C        4.5030     1.2990    -0.6610 C.3   1 <1>   0.2200 
 10 C        3.9410    -0.3710     0.9330 C.3   1 <1>   0.1200 
 11 N        4.6880     2.7630    -0.6320 N.am  1 <1>  -0.7300 
 12 C        5.7280     0.5340    -0.1570 C.3   1 <1>   0.1200 
 13 O        5.3170    -0.1810     0.9680 O.3   1 <1>  -0.5600 
 14 C        4.1700     3.6310    -1.5390 C.2   1 <1>   0.5690 
 15 O        3.5500     3.2410    -2.4990 O.2   1 <1>  -0.5700 
 16 C        4.3600     5.1300    -1.3430 C.3   1 <1>   0.1810 
 17 O        4.8730     5.4180    -0.0480 O.3   1 <1>  -0.3630 
 18 C        5.0660     6.6940     0.3660 C.ar  1 <1>   0.0820 
 19 C        5.4630     6.8660     1.6820 C.ar  1 <1>  -0.1500 
 20 C        4.8870     7.8110    -0.4530 C.ar  1 <1>  -0.1500 
 21 C        5.6730     8.1460     2.1510 C.ar  1 <1>   0.1900 
 22 C        5.1040     9.0880     0.0430 C.ar  1 <1>  -0.1500 
 23 F        6.0490     8.3090     3.3920 F     1 <1>  -0.1900 
 24 C        5.5020     9.2640     1.3580 C.ar  1 <1>  -0.1500 
 25 H        2.1160     0.0130    -1.1780 H     1 <1>   0.0800 
 26 H        1.7910     1.6860    -0.8690 H     1 <1>   0.0800 
 27 H       -1.6870    -0.7420    -1.7510 H     1 <1>   0.0800 
 28 H       -1.0530    -1.7080    -0.4310 H     1 <1>   0.0800 
 29 H        0.0240    -1.0770    -1.6580 H     1 <1>   0.0800 
 30 H       -2.7300     0.7030    -0.2000 H     1 <1>   0.0800 
 31 H       -1.7870     1.6210     0.9450 H     1 <1>   0.0800 
 32 H       -2.0590    -0.0870     1.2190 H     1 <1>   0.0800 
 33 H        3.3080     1.6370     1.0850 H     1 <1>   0.0800 
 34 H        4.2830     0.9780    -1.6660 H     1 <1>   0.0800 
 35 H        3.7380    -1.2390     0.3280 H     1 <1>   0.0800 
 36 H        3.5780    -0.5280     1.9350 H     1 <1>   0.0800 
 37 H        5.1230     3.1510     0.2110 H     1 <1>   0.3700 
 38 H        6.5360     1.1860     0.1270 H     1 <1>   0.0800 
 39 H        6.0650    -0.1750    -0.8930 H     1 <1>   0.0800 
 40 H        3.4110     5.6230    -1.4510 H     1 <1>   0.0800 
 41 H        5.0540     5.4980    -2.0760 H     1 <1>   0.0800 
 42 H        5.6040     6.0190     2.3260 H     1 <1>   0.1500 
 43 H        4.5820     7.7110    -1.4770 H     1 <1>   0.1500 
 44 H        4.9650     9.9460    -0.5940 H     1 <1>   0.1500 
 45 H        5.6760    10.2450     1.7630 H     1 <1>   0.1500 
@<TRIPOS>BOND
  1   1   2  2   
  2   1   3  2   
  3   1   4  am  
  4   1   5  1   
  5   4   6  1   
  6   4   7  1   
  7   5   8  1   
  8   5  25  1   
  9   5  26  1   
 10   6  27  1   
 11   6  28  1   
 12   6  29  1   
 13   7  30  1   
 14   7  31  1   
 15   7  32  1   
 16   8   9  1   
 17   8  10  1   
 18   8  33  1   
 19   9  11  1   
 20   9  12  1   
 21   9  34  1   
 22  10  13  1   
 23  10  35  1   
 24  10  36  1   
 25  11  14  am  
 26  11  37  1   
 27  12  13  1   
 28  12  38  1   
 29  12  39  1   
 30  14  15  2   
 31  14  16  1   
 32  16  17  1   
 33  16  40  1   
 34  16  41  1   
 35  17  18  1   
 36  18  19  ar  
 37  18  20  ar  
 38  19  21  ar  
 39  19  42  1   
 40  20  22  ar  
 41  20  43  1   
 42  21  23  1   
 43  21  24  ar  
 44  22  24  ar  
 45  22  44  1   
 46  24  45  1   
@<TRIPOS>SUBSTRUCTURE
  1 ****  11 GROUP 4 **** **** 0

# MOE 2024.06 (io_trps.svl 2023.06)
