@<TRIPOS>MOLECULE
NONAME
39 41 1 0 0 
SMALL
USER_CHARGES


@<TRIPOS>ATOM
  1 O        0.5070    -0.0590    -0.0750 O.3   1 <1>  -0.6800 
  2 C        1.7960    -0.2280    -0.5610 C.3   1 <1>   0.2000 
  3 C        2.4720    -1.4180     0.1120 C.3   1 <1>  -0.0800 
  4 C        2.6750     0.9730    -0.2170 C.3   1 <1>   0.2090 
  5 C        3.9620    -1.0730     0.0890 C.3   1 <1>   0.2090 
  6 C        2.1540    -2.7650    -0.5600 C.3   1 <1>   0.0210 
  7 N        4.0400     0.4130     0.0190 N.pl3 1 <1>  -0.8380 
  8 C        3.0060    -3.9040    -0.0250 C.2   1 <1>   0.1080 
  9 C        5.1300     1.1790     0.2650 C.ar  1 <1>   0.4100 
 10 N        3.3620    -4.0120     1.2190 N.2   1 <1>  -0.7070 
 11 C        3.4930    -4.9500    -0.8000 C.2   1 <1>  -0.1500 
 12 N        4.9720     2.4910     0.2470 N.ar  1 <1>  -0.6200 
 13 C        6.3870     0.5970     0.5290 C.ar  1 <1>  -0.1500 
 14 N        4.0820    -5.1490     1.2720 N.pl3 1 <1>   0.3000 
 15 C        4.1800    -5.7330     0.0590 C.2   1 <1>  -0.3320 
 16 C        6.0220     3.2400     0.5000 C.ar  1 <1>   0.7710 
 17 C        7.4470     1.3990     0.7840 C.ar  1 <1>   0.2110 
 18 C        4.9290    -7.0250    -0.2070 C.3   1 <1>  -0.0600 
 19 N        7.2410     2.7390     0.7670 N.ar  1 <1>  -0.1790 
 20 N        5.8260     4.5550     0.4790 N.pl3 1 <1>  -0.9000 
 21 H       -0.0140    -0.8780    -0.1780 H     1 <1>   0.4000 
 22 H        1.7510    -0.3480    -1.6300 H     1 <1>   0.0800 
 23 H        2.1770    -1.4570     1.1470 H     1 <1>   0.0800 
 24 H        2.3260     1.4450     0.6850 H     1 <1>   0.0800 
 25 H        2.6890     1.6830    -1.0250 H     1 <1>   0.0800 
 26 H        4.4340    -1.4920    -0.7840 H     1 <1>   0.0800 
 27 H        4.4440    -1.4500     0.9750 H     1 <1>   0.0800 
 28 H        2.3140    -2.6890    -1.6210 H     1 <1>   0.0800 
 29 H        1.1210    -3.0110    -0.3950 H     1 <1>   0.0800 
 30 H        3.3380    -5.0870    -1.8560 H     1 <1>   0.1500 
 31 H        6.4850    -0.4720     0.5230 H     1 <1>   0.1500 
 32 H        4.4870    -5.5010     2.1480 H     1 <1>   0.2700 
 33 H        8.4330     1.0170     0.9950 H     1 <1>   0.1500 
 34 H        4.8590    -7.2870    -1.2480 H     1 <1>   0.0800 
 35 H        4.5080    -7.8260     0.3750 H     1 <1>   0.0800 
 36 H        5.9680    -6.9140     0.0490 H     1 <1>   0.0800 
 37 H        7.9830     3.4050     0.9510 H     1 <1>   0.4570 
 38 H        6.4900     5.3130     0.6440 H     1 <1>   0.4000 
 39 H        4.8750     4.8790     0.2730 H     1 <1>   0.4000 
@<TRIPOS>BOND
  1   1   2  1   
  2   1  21  1   
  3   2   3  1   
  4   2   4  1   
  5   2  22  1   
  6   3   5  1   
  7   3   6  1   
  8   3  23  1   
  9   4   7  1   
 10   4  24  1   
 11   4  25  1   
 12   5   7  1   
 13   5  26  1   
 14   5  27  1   
 15   6   8  1   
 16   6  28  1   
 17   6  29  1   
 18   7   9  1   
 19   8  10  2   
 20   8  11  1   
 21   9  12  ar  
 22   9  13  ar  
 23  10  14  1   
 24  11  15  2   
 25  11  30  1   
 26  12  16  ar  
 27  13  17  ar  
 28  13  31  1   
 29  14  15  1   
 30  14  32  1   
 31  15  18  1   
 32  16  19  ar  
 33  16  20  1   
 34  17  19  ar  
 35  17  33  1   
 36  18  34  1   
 37  18  35  1   
 38  18  36  1   
 39  19  37  1   
 40  20  38  1   
 41  20  39  1   
@<TRIPOS>SUBSTRUCTURE
  1 ****   5 GROUP 4 **** **** 0

# MOE 2024.06 (io_trps.svl 2023.06)
