@<TRIPOS>MOLECULE
NONAME
51 53 1 0 0 
SMALL
USER_CHARGES


@<TRIPOS>ATOM
  1 O        3.5830    -0.3950     2.4280 O.co2 1 <1>  -0.9000 
  2 C        3.2710     0.6870     1.9050 C.2   1 <1>   0.9060 
  3 O        3.1010     1.7020     2.5780 O.co2 1 <1>  -0.9000 
  4 C        3.1020     0.7550     0.3740 C.3   1 <1>  -0.1060 
  5 C        4.0690    -0.2580    -0.2790 C.3   1 <1>   0.4230 
  6 C        3.4520     2.1780    -0.1540 C.3   1 <1>  -0.1600 
  7 C        1.6490     0.4140    -0.0310 C.3   1 <1>  -0.1600 
  8 N        3.7070    -1.6600     0.1240 N.4   1 <1>  -0.9590 
  9 C        5.5330     0.1380     0.0200 C.3   1 <1>   0.1400 
 10 C        4.9210     2.5470     0.1010 C.3   1 <1>   0.1400 
 11 C        1.3090    -1.0530     0.2790 C.3   1 <1>  -0.1600 
 12 C        2.3340    -2.0280    -0.3060 C.3   1 <1>   0.3430 
 13 C        4.7110    -2.7030    -0.2160 C.3   1 <1>   0.2630 
 14 N        5.7860     1.5060    -0.5240 N.am  1 <1>  -0.6600 
 15 C        6.6700     1.7120    -1.5550 C.2   1 <1>   0.5690 
 16 O        7.2020     0.7770    -2.1090 O.2   1 <1>  -0.5700 
 17 C        6.9950     3.1080    -2.0750 C.3   1 <1>   0.0440 
 18 C        7.6800     4.0030    -1.0450 C.ar  1 <1>  -0.1440 
 19 C        7.2500     5.3070    -0.8500 C.ar  1 <1>  -0.1500 
 20 C        8.7440     3.5250    -0.2960 C.ar  1 <1>  -0.1500 
 21 C        7.8700     6.1160     0.0860 C.ar  1 <1>  -0.1500 
 22 C        9.3630     4.3340     0.6400 C.ar  1 <1>  -0.1500 
 23 C        8.9290     5.6350     0.8390 C.ar  1 <1>  -0.1440 
 24 C        9.6030     6.5260     1.8670 C.3   1 <1>   0.2630 
 25 O       10.3250     7.4810     1.1820 O.3   1 <1>  -0.6800 
 26 H        3.9490    -0.1860    -1.3460 H     1 <1>   0.0800 
 27 H        2.8270     2.9060     0.3360 H     1 <1>   0.0800 
 28 H        3.2580     2.2470    -1.2090 H     1 <1>   0.0800 
 29 H        0.9700     1.0590     0.5040 H     1 <1>   0.0800 
 30 H        1.5110     0.5920    -1.0830 H     1 <1>   0.0800 
 31 H        3.6650    -1.5530     1.1750 H     1 <1>   0.4500 
 32 H        6.2080    -0.5620    -0.4350 H     1 <1>   0.0800 
 33 H        5.7180     0.1420     1.0810 H     1 <1>   0.0800 
 34 H        5.1180     2.5880     1.1610 H     1 <1>   0.0800 
 35 H        5.1220     3.5230    -0.3020 H     1 <1>   0.0800 
 36 H        0.3360    -1.2850    -0.1160 H     1 <1>   0.0800 
 37 H        1.2590    -1.1970     1.3450 H     1 <1>   0.0800 
 38 H        2.2770    -2.0080    -1.3820 H     1 <1>   0.0800 
 39 H        2.1020    -3.0250     0.0300 H     1 <1>   0.0800 
 40 H        4.8560    -2.7500    -1.2830 H     1 <1>   0.0800 
 41 H        4.3790    -3.6650     0.1370 H     1 <1>   0.0800 
 42 H        5.6540    -2.4790     0.2560 H     1 <1>   0.0800 
 43 H        7.6470     3.0130    -2.9230 H     1 <1>   0.0800 
 44 H        6.0860     3.5610    -2.4220 H     1 <1>   0.0800 
 45 H        6.4310     5.7040    -1.4230 H     1 <1>   0.1500 
 46 H        9.0960     2.5170    -0.4370 H     1 <1>   0.1500 
 47 H        7.5280     7.1270     0.2290 H     1 <1>   0.1500 
 48 H       10.1850     3.9400     1.2130 H     1 <1>   0.1500 
 49 H       10.2830     5.9660     2.4850 H     1 <1>   0.0800 
 50 H        8.8810     7.0260     2.4900 H     1 <1>   0.0800 
 51 H       10.6420     7.0850     0.3470 H     1 <1>   0.4000 
@<TRIPOS>BOND
  1   1   2  ar  
  2   2   3  ar  
  3   2   4  1   
  4   4   5  1   
  5   4   6  1   
  6   4   7  1   
  7   5   8  1   
  8   5   9  1   
  9   5  26  1   
 10   6  10  1   
 11   6  27  1   
 12   6  28  1   
 13   7  11  1   
 14   7  29  1   
 15   7  30  1   
 16   8  12  1   
 17   8  13  1   
 18   8  31  1   
 19   9  14  1   
 20   9  32  1   
 21   9  33  1   
 22  10  14  1   
 23  10  34  1   
 24  10  35  1   
 25  11  12  1   
 26  11  36  1   
 27  11  37  1   
 28  12  38  1   
 29  12  39  1   
 30  13  40  1   
 31  13  41  1   
 32  13  42  1   
 33  14  15  am  
 34  15  16  2   
 35  15  17  1   
 36  17  18  1   
 37  17  43  1   
 38  17  44  1   
 39  18  19  ar  
 40  18  20  ar  
 41  19  21  ar  
 42  19  45  1   
 43  20  22  ar  
 44  20  46  1   
 45  21  23  ar  
 46  21  47  1   
 47  22  23  ar  
 48  22  48  1   
 49  23  24  1   
 50  24  25  1   
 51  24  49  1   
 52  24  50  1   
 53  25  51  1   
@<TRIPOS>SUBSTRUCTURE
  1 ****  14 GROUP 4 **** **** 0

# MOE 2024.06 (io_trps.svl 2023.06)
