@<TRIPOS>MOLECULE
NONAME
53 56 1 0 0 
SMALL
USER_CHARGES


@<TRIPOS>ATOM
  1 O       -0.5570    -2.6250    -0.3120 O.2   1 <1>  -0.5700 
  2 C        0.6010    -2.3910     0.0000 C.2   1 <1>   0.5440 
  3 N        1.0730    -2.7830     1.2340 N.am  1 <1>  -0.4200 
  4 C        1.5090    -1.7210    -0.8880 C.ar  1 <1>   0.0860 
  5 C        2.3850    -2.5480     1.5640 C.2   1 <1>   0.4500 
  6 C        0.1790    -3.4690     2.1980 C.3   1 <1>   0.1400 
  7 C        2.8230    -1.5290    -0.4400 C.ar  1 <1>   0.1790 
  8 C        1.1540    -1.2580    -2.1580 C.ar  1 <1>  -0.1500 
  9 N        3.2320    -1.9640     0.8060 N.2   1 <1>  -0.6290 
 10 C        0.1150    -4.9630     1.8690 C.3   1 <1>  -0.1600 
 11 C        3.7390    -0.8870    -1.2660 C.ar  1 <1>  -0.1500 
 12 C        2.0740    -0.6230    -2.9660 C.ar  1 <1>  -0.1500 
 13 C       -1.0390    -5.6530     2.6140 C.3   1 <1>  -0.0990 
 14 C        3.3740    -0.4360    -2.5170 C.ar  1 <1>  -0.1500 
 15 C       -1.1960    -7.0980     2.1760 C.2   1 <1>   0.5690 
 16 O       -0.6700    -7.9480     2.8530 O.2   1 <1>  -0.5700 
 17 N       -1.9030    -7.4060     1.0470 N.am  1 <1>  -0.6600 
 18 C       -2.5990    -6.4540     0.1410 C.3   1 <1>   0.1400 
 19 C       -2.0540    -8.7970     0.5580 C.3   1 <1>   0.1400 
 20 C       -3.1530    -7.3180    -0.9930 C.3   1 <1>   0.2000 
 21 C       -3.2090    -8.7420    -0.4430 C.3   1 <1>  -0.0800 
 22 O       -4.4220    -6.9070    -1.3720 O.3   1 <1>  -0.6800 
 23 C       -3.1340    -9.8060    -1.5510 C.3   1 <1>  -0.0170 
 24 C       -3.2200   -11.2140    -0.9870 C.ar  1 <1>   0.1670 
 25 N       -2.0860   -11.7440    -0.5550 N.ar  1 <1>  -0.6200 
 26 C       -4.4450   -11.8640    -0.9460 C.ar  1 <1>  -0.1500 
 27 C       -2.1760   -12.9670    -0.0590 C.ar  1 <1>   0.1600 
 28 C       -4.5240   -13.1390    -0.4290 C.ar  1 <1>  -0.1500 
 29 C       -3.3490   -13.6970     0.0260 C.ar  1 <1>  -0.1500 
 30 H        2.6990    -2.8900     2.5350 H     1 <1>   0.0600 
 31 H        0.5370    -3.3240     3.2030 H     1 <1>   0.0800 
 32 H       -0.8040    -3.0340     2.1300 H     1 <1>   0.0800 
 33 H        0.1440    -1.4050    -2.5030 H     1 <1>   0.1500 
 34 H       -0.0320    -5.0870     0.8110 H     1 <1>   0.0800 
 35 H        1.0450    -5.4370     2.1340 H     1 <1>   0.0800 
 36 H        4.7430    -0.7480    -0.9080 H     1 <1>   0.1500 
 37 H        1.7900    -0.2700    -3.9430 H     1 <1>   0.1500 
 38 H       -1.9620    -5.1310     2.4450 H     1 <1>   0.0800 
 39 H       -0.8450    -5.6370     3.6720 H     1 <1>   0.0800 
 40 H        4.0930     0.0600    -3.1470 H     1 <1>   0.1500 
 41 H       -3.3950    -5.9680     0.6760 H     1 <1>   0.0800 
 42 H       -1.9120    -5.7240    -0.2480 H     1 <1>   0.0800 
 43 H       -1.1400    -9.1010     0.0760 H     1 <1>   0.0800 
 44 H       -2.2640    -9.4750     1.3690 H     1 <1>   0.0800 
 45 H       -2.5040    -7.2520    -1.8490 H     1 <1>   0.0800 
 46 H       -4.1180    -8.8760     0.1170 H     1 <1>   0.0800 
 47 H       -5.0410    -6.9810    -0.6210 H     1 <1>   0.4000 
 48 H       -2.2130    -9.7050    -2.0980 H     1 <1>   0.0800 
 49 H       -3.9400    -9.6500    -2.2460 H     1 <1>   0.0800 
 50 H       -5.3300   -11.3790    -1.3150 H     1 <1>   0.1500 
 51 H       -1.2640   -13.4130     0.3000 H     1 <1>   0.1500 
 52 H       -5.4580   -13.6730    -0.3820 H     1 <1>   0.1500 
 53 H       -3.3390   -14.6880     0.4430 H     1 <1>   0.1500 
@<TRIPOS>BOND
  1   1   2  2   
  2   2   3  am  
  3   2   4  1   
  4   3   5  1   
  5   3   6  1   
  6   4   7  ar  
  7   4   8  ar  
  8   5   9  2   
  9   5  30  1   
 10   6  10  1   
 11   6  31  1   
 12   6  32  1   
 13   7   9  1   
 14   7  11  ar  
 15   8  12  ar  
 16   8  33  1   
 17  10  13  1   
 18  10  34  1   
 19  10  35  1   
 20  11  14  ar  
 21  11  36  1   
 22  12  14  ar  
 23  12  37  1   
 24  13  15  1   
 25  13  38  1   
 26  13  39  1   
 27  14  40  1   
 28  15  16  2   
 29  15  17  am  
 30  17  18  1   
 31  17  19  1   
 32  18  20  1   
 33  18  41  1   
 34  18  42  1   
 35  19  21  1   
 36  19  43  1   
 37  19  44  1   
 38  20  21  1   
 39  20  22  1   
 40  20  45  1   
 41  21  23  1   
 42  21  46  1   
 43  22  47  1   
 44  23  24  1   
 45  23  48  1   
 46  23  49  1   
 47  24  25  ar  
 48  24  26  ar  
 49  25  27  ar  
 50  26  28  ar  
 51  26  50  1   
 52  27  29  ar  
 53  27  51  1   
 54  28  29  ar  
 55  28  52  1   
 56  29  53  1   
@<TRIPOS>SUBSTRUCTURE
  1 ****  18 GROUP 4 **** **** 0

# MOE 2024.06 (io_trps.svl 2023.06)
