@<TRIPOS>MOLECULE
NONAME
60 64 1 0 0 
SMALL
USER_CHARGES


@<TRIPOS>ATOM
  1 O       -1.1570     0.5770    -4.0040 O.2   1 <1>  -0.5700 
  2 C       -1.7300     1.1960    -3.1340 C.2   1 <1>   0.5690 
  3 N       -2.9500     0.7880    -2.6470 N.am  1 <1>  -0.6600 
  4 C       -1.0230     2.4590    -2.6080 C.3   1 <1>   0.1710 
  5 C       -3.5630    -0.5030    -3.0570 C.3   1 <1>   0.1400 
  6 C       -3.6760     1.4440    -1.5250 C.3   1 <1>   0.1400 
  7 N       -0.6730     2.4710    -1.1560 N.3   1 <1>  -0.8100 
  8 C       -3.5160    -1.4690    -1.8700 C.3   1 <1>  -0.1600 
  9 C       -3.6260     0.5240    -0.3040 C.3   1 <1>  -0.1600 
 10 C       -0.0110     3.7380    -0.7980 C.3   1 <1>   0.2530 
 11 C        0.1720     1.3230    -0.7890 C.3   1 <1>   0.1100 
 12 C       -4.1850    -0.8800    -0.6130 C.3   1 <1>   0.4240 
 13 C        0.5060     3.7520     0.6390 C.ar  1 <1>  -0.1440 
 14 C        0.3070     1.2390     0.7350 C.3   1 <1>  -0.0160 
 15 O       -5.5300    -0.7030    -1.0040 O.3   1 <1>  -0.5600 
 16 C       -4.0620    -1.8440     0.6030 C.ar  1 <1>  -0.1440 
 17 C        0.6750     2.5760     1.3590 C.ar  1 <1>  -0.1440 
 18 C        0.8300     4.9640     1.2300 C.ar  1 <1>  -0.1500 
 19 C       -6.4910    -0.6090    -0.0050 C.3   1 <1>   0.1200 
 20 C       -2.8210    -2.2260     1.1310 C.ar  1 <1>   0.0820 
 21 C       -5.2130    -2.3550     1.2030 C.ar  1 <1>  -0.1440 
 22 C        1.1620     2.6220     2.6550 C.ar  1 <1>  -0.1500 
 23 C        1.3180     5.0070     2.5240 C.ar  1 <1>  -0.1500 
 24 C       -6.5820    -1.9580     0.6900 C.3   1 <1>  -0.0170 
 25 O       -1.6790    -1.7350     0.5810 O.3   1 <1>  -0.3620 
 26 C       -2.7570    -3.0980     2.2170 C.ar  1 <1>  -0.1500 
 27 C       -5.1370    -3.2260     2.2760 C.ar  1 <1>  -0.1500 
 28 C        1.4850     3.8350     3.2380 C.ar  1 <1>  -0.1500 
 29 C       -0.4430    -2.4020     0.7150 C.3   1 <1>   0.0400 
 30 C       -3.9100    -3.5990     2.7840 C.ar  1 <1>  -0.1500 
 31 H       -1.6660     3.2940    -2.8170 H     1 <1>   0.0800 
 32 H       -0.1250     2.5900    -3.1850 H     1 <1>   0.0800 
 33 H       -3.0360    -0.9280    -3.8930 H     1 <1>   0.0800 
 34 H       -4.5830    -0.3320    -3.3580 H     1 <1>   0.0800 
 35 H       -4.6980     1.6110    -1.8180 H     1 <1>   0.0800 
 36 H       -3.2430     2.3960    -1.2800 H     1 <1>   0.0800 
 37 H       -2.4860    -1.6970    -1.6870 H     1 <1>   0.0800 
 38 H       -4.0050    -2.3890    -2.1280 H     1 <1>   0.0800 
 39 H       -4.1590     0.9670     0.5140 H     1 <1>   0.0800 
 40 H       -2.6030     0.4530     0.0000 H     1 <1>   0.0800 
 41 H       -0.7130     4.5440    -0.9250 H     1 <1>   0.0800 
 42 H        0.8230     3.9090    -1.4570 H     1 <1>   0.0800 
 43 H        1.1450     1.4290    -1.2370 H     1 <1>   0.0800 
 44 H       -0.2690     0.4060    -1.1420 H     1 <1>   0.0800 
 45 H        1.0510     0.5050     0.9790 H     1 <1>   0.0800 
 46 H       -0.6280     0.9120     1.1510 H     1 <1>   0.0800 
 47 H        0.7060     5.8830     0.6840 H     1 <1>   0.1500 
 48 H       -7.4280    -0.3580    -0.4700 H     1 <1>   0.0800 
 49 H       -6.2170     0.1690     0.6850 H     1 <1>   0.0800 
 50 H        1.2880     1.7140     3.2160 H     1 <1>   0.1500 
 51 H        1.5660     5.9520     2.9760 H     1 <1>   0.1500 
 52 H       -6.9400    -2.6970    -0.0040 H     1 <1>   0.0800 
 53 H       -7.2810    -1.8880     1.5040 H     1 <1>   0.0800 
 54 H       -1.8170    -3.3920     2.6400 H     1 <1>   0.1500 
 55 H       -6.0350    -3.6180     2.7230 H     1 <1>   0.1500 
 56 H        1.8630     3.8660     4.2450 H     1 <1>   0.1500 
 57 H        0.2510    -1.9590     0.0250 H     1 <1>   0.0800 
 58 H       -0.5800    -3.4420     0.4770 H     1 <1>   0.0800 
 59 H       -0.0870    -2.2790     1.7220 H     1 <1>   0.0800 
 60 H       -3.8550    -4.2740     3.6210 H     1 <1>   0.1500 
@<TRIPOS>BOND
  1   1   2  2   
  2   2   3  am  
  3   2   4  1   
  4   3   5  1   
  5   3   6  1   
  6   4   7  1   
  7   4  31  1   
  8   4  32  1   
  9   5   8  1   
 10   5  33  1   
 11   5  34  1   
 12   6   9  1   
 13   6  35  1   
 14   6  36  1   
 15   7  10  1   
 16   7  11  1   
 17   8  12  1   
 18   8  37  1   
 19   8  38  1   
 20   9  12  1   
 21   9  39  1   
 22   9  40  1   
 23  10  13  1   
 24  10  41  1   
 25  10  42  1   
 26  11  14  1   
 27  11  43  1   
 28  11  44  1   
 29  12  15  1   
 30  12  16  1   
 31  13  17  ar  
 32  13  18  ar  
 33  14  17  1   
 34  14  45  1   
 35  14  46  1   
 36  15  19  1   
 37  16  20  ar  
 38  16  21  ar  
 39  17  22  ar  
 40  18  23  ar  
 41  18  47  1   
 42  19  24  1   
 43  19  48  1   
 44  19  49  1   
 45  20  25  1   
 46  20  26  ar  
 47  21  24  1   
 48  21  27  ar  
 49  22  28  ar  
 50  22  50  1   
 51  23  28  ar  
 52  23  51  1   
 53  24  52  1   
 54  24  53  1   
 55  25  29  1   
 56  26  30  ar  
 57  26  54  1   
 58  27  30  ar  
 59  27  55  1   
 60  28  56  1   
 61  29  57  1   
 62  29  58  1   
 63  29  59  1   
 64  30  60  1   
@<TRIPOS>SUBSTRUCTURE
  1 ****   9 GROUP 4 **** **** 0

# MOE 2024.06 (io_trps.svl 2023.06)
