@<TRIPOS>MOLECULE
NONAME
56 59 1 0 0 
SMALL
USER_CHARGES


@<TRIPOS>ATOM
  1 O        0.9940     1.4310    -1.5130 O.3   1 <1>  -0.6800 
  2 C        0.5130     2.3970    -0.6540 C.3   1 <1>   0.2000 
  3 C       -0.1810     3.4830    -1.4750 C.3   1 <1>  -0.1600 
  4 C        1.6910     2.9660     0.1320 C.3   1 <1>  -0.1600 
  5 C       -0.6320     4.6280    -0.5660 C.3   1 <1>   0.2090 
  6 C        1.2280     4.1120     1.0320 C.3   1 <1>   0.2090 
  7 N        0.5260     5.1380     0.2180 N.pl3 1 <1>  -0.8380 
  8 C        0.4780     6.4270     0.7090 C.ar  1 <1>   0.4100 
  9 N       -0.7040     6.9200     1.0340 N.ar  1 <1>  -0.6200 
 10 C        1.6220     7.1710     0.8670 C.ar  1 <1>  -0.1500 
 11 C       -0.6880     8.1470     1.5130 C.ar  1 <1>   0.4700 
 12 C        1.5200     8.4410     1.3850 C.ar  1 <1>   0.4100 
 13 N        0.3430     8.9430     1.7140 N.ar  1 <1>  -0.6200 
 14 N        2.6410     9.2290     1.5870 N.pl3 1 <1>  -0.8380 
 15 C        2.5360    10.7190     1.5640 C.3   1 <1>   0.2090 
 16 C        3.8070     8.6680     2.3220 C.3   1 <1>   0.1290 
 17 C        3.6450    11.3350     0.7000 C.3   1 <1>  -0.0800 
 18 C        3.5220    12.8510     0.5990 C.3   1 <1>   0.2090 
 19 C        3.6190    10.8750    -0.7560 C.3   1 <1>  -0.1600 
 20 N        4.1300    13.2180    -0.7050 N.pl3 1 <1>  -0.8380 
 21 C        4.3120    11.9930    -1.5250 C.3   1 <1>   0.2090 
 22 C        5.1980    14.1090    -0.6710 C.ar  1 <1>   0.1000 
 23 C        6.3990    13.7980    -0.0420 C.ar  1 <1>  -0.1500 
 24 C        5.0700    15.3490    -1.2820 C.ar  1 <1>  -0.1500 
 25 C        7.4440    14.7040    -0.0240 C.ar  1 <1>  -0.1500 
 26 C        6.1110    16.2590    -1.2680 C.ar  1 <1>  -0.1500 
 27 C        7.3020    15.9380    -0.6380 C.ar  1 <1>  -0.1500 
 28 H        0.2740     1.0830    -2.0700 H     1 <1>   0.4000 
 29 H       -0.1890     1.9290     0.0170 H     1 <1>   0.0800 
 30 H       -1.0390     3.0780    -1.9780 H     1 <1>   0.0800 
 31 H        0.4990     3.8800    -2.2080 H     1 <1>   0.0800 
 32 H        2.4380     3.3390    -0.5460 H     1 <1>   0.0800 
 33 H        2.1290     2.1940     0.7370 H     1 <1>   0.0800 
 34 H       -1.3960     4.2890     0.1140 H     1 <1>   0.0800 
 35 H       -1.0420     5.4250    -1.1630 H     1 <1>   0.0800 
 36 H        2.0760     4.5490     1.5280 H     1 <1>   0.0800 
 37 H        0.5530     3.7400     1.7840 H     1 <1>   0.0800 
 38 H        2.5700     6.7710     0.5800 H     1 <1>   0.1500 
 39 H       -1.6490     8.5550     1.7790 H     1 <1>   0.1500 
 40 H        2.5950    11.0950     2.5700 H     1 <1>   0.0800 
 41 H        1.5830    11.0130     1.1580 H     1 <1>   0.0800 
 42 H        3.5920     7.6710     2.6660 H     1 <1>   0.0800 
 43 H        4.0340     9.2800     3.1770 H     1 <1>   0.0800 
 44 H        4.6630     8.6370     1.6710 H     1 <1>   0.0800 
 45 H        4.6040    11.1140     1.1300 H     1 <1>   0.0800 
 46 H        4.0190    13.3440     1.4180 H     1 <1>   0.0800 
 47 H        2.4880    13.1500     0.5840 H     1 <1>   0.0800 
 48 H        2.6030    10.7930    -1.1020 H     1 <1>   0.0800 
 49 H        4.1090     9.9280    -0.8930 H     1 <1>   0.0800 
 50 H        3.8710    12.1270    -2.4980 H     1 <1>   0.0800 
 51 H        5.3610    11.7780    -1.6370 H     1 <1>   0.0800 
 52 H        6.5090    12.8410     0.4310 H     1 <1>   0.1500 
 53 H        4.1410    15.5860    -1.7670 H     1 <1>   0.1500 
 54 H        8.3680    14.4520     0.4650 H     1 <1>   0.1500 
 55 H        5.9950    17.2160    -1.7460 H     1 <1>   0.1500 
 56 H        8.1130    16.6440    -0.6250 H     1 <1>   0.1500 
@<TRIPOS>BOND
  1   1   2  1   
  2   1  28  1   
  3   2   3  1   
  4   2   4  1   
  5   2  29  1   
  6   3   5  1   
  7   3  30  1   
  8   3  31  1   
  9   4   6  1   
 10   4  32  1   
 11   4  33  1   
 12   5   7  1   
 13   5  34  1   
 14   5  35  1   
 15   6   7  1   
 16   6  36  1   
 17   6  37  1   
 18   7   8  1   
 19   8   9  ar  
 20   8  10  ar  
 21   9  11  ar  
 22  10  12  ar  
 23  10  38  1   
 24  11  13  ar  
 25  11  39  1   
 26  12  13  ar  
 27  12  14  1   
 28  14  15  1   
 29  14  16  1   
 30  15  17  1   
 31  15  40  1   
 32  15  41  1   
 33  16  42  1   
 34  16  43  1   
 35  16  44  1   
 36  17  18  1   
 37  17  19  1   
 38  17  45  1   
 39  18  20  1   
 40  18  46  1   
 41  18  47  1   
 42  19  21  1   
 43  19  48  1   
 44  19  49  1   
 45  20  21  1   
 46  20  22  1   
 47  21  50  1   
 48  21  51  1   
 49  22  23  ar  
 50  22  24  ar  
 51  23  25  ar  
 52  23  52  1   
 53  24  26  ar  
 54  24  53  1   
 55  25  27  ar  
 56  25  54  1   
 57  26  27  ar  
 58  26  55  1   
 59  27  56  1   
@<TRIPOS>SUBSTRUCTURE
  1 ****  14 GROUP 4 **** **** 0

# MOE 2024.06 (io_trps.svl 2023.06)
