@<TRIPOS>MOLECULE
NONAME
42 44 1 0 0 
SMALL
USER_CHARGES


@<TRIPOS>ATOM
  1 O       -0.1020    -0.4510     0.4690 O.3   1 <1>  -0.6800 
  2 C        0.4060    -0.5450    -0.8240 C.3   1 <1>   0.2000 
  3 C        1.6800    -1.3920    -0.8580 C.3   1 <1>  -0.0800 
  4 C        0.9150     0.8270    -1.2610 C.3   1 <1>   0.1100 
  5 C        2.8290    -0.4050    -0.6120 C.3   1 <1>   0.1100 
  6 C        1.7250    -2.6140     0.0800 C.3   1 <1>   0.0210 
  7 N        2.2550     0.9500    -0.6710 N.3   1 <1>  -0.8100 
  8 C        3.0450    -3.3580    -0.0260 C.2   1 <1>   0.1080 
  9 C        3.1270     1.9630    -1.3070 C.3   1 <1>   0.2540 
 10 N        3.6540    -3.5830    -1.1500 N.2   1 <1>  -0.7070 
 11 C        3.7410    -3.8790     1.0600 C.2   1 <1>  -0.1500 
 12 C        4.3960     2.2770    -0.4870 C.cat 1 <1>   0.6560 
 13 N        4.7590    -4.2730    -0.8070 N.pl3 1 <1>   0.3000 
 14 C        4.8370    -4.4590     0.5270 C.2   1 <1>  -0.3320 
 15 N        5.6210     2.3680    -0.9910 N.pl3 1 <1>  -0.7000 
 16 N        4.4440     2.4930     0.8300 N.pl3 1 <1>  -0.7640 
 17 C        5.9660    -5.1990     1.2200 C.3   1 <1>  -0.0600 
 18 C        6.4860     2.6440     0.0370 C.2   1 <1>   0.2000 
 19 C        5.7560     2.7200     1.1680 C.2   1 <1>   0.2000 
 20 C        3.3000     2.4300     1.7840 C.3   1 <1>   0.2740 
 21 H       -0.4960    -1.3000     0.7430 H     1 <1>   0.4000 
 22 H       -0.3700    -0.9180    -1.4710 H     1 <1>   0.0800 
 23 H        1.7930    -1.7520    -1.8660 H     1 <1>   0.0800 
 24 H        0.2610     1.6140    -0.9270 H     1 <1>   0.0800 
 25 H        0.9860     0.8480    -2.3350 H     1 <1>   0.0800 
 26 H        3.5910    -0.5510    -1.3600 H     1 <1>   0.0800 
 27 H        3.2640    -0.5600     0.3610 H     1 <1>   0.0800 
 28 H        0.9320    -3.2930    -0.1760 H     1 <1>   0.0800 
 29 H        1.5900    -2.3030     1.1000 H     1 <1>   0.0800 
 30 H        3.4050     1.6280    -2.2900 H     1 <1>   0.0800 
 31 H        2.5720     2.8780    -1.4110 H     1 <1>   0.0800 
 32 H        3.4450    -3.8220     2.0920 H     1 <1>   0.1500 
 33 H        5.4350    -4.6080    -1.5050 H     1 <1>   0.2700 
 34 H        5.8840     2.2390    -1.9720 H     1 <1>   0.4500 
 35 H        5.7980    -5.2190     2.2820 H     1 <1>   0.0800 
 36 H        6.9050    -4.7090     1.0310 H     1 <1>   0.0800 
 37 H        6.0200    -6.2120     0.8630 H     1 <1>   0.0800 
 38 H        7.5500     2.7650    -0.0940 H     1 <1>   0.1500 
 39 H        6.0850     2.9160     2.1770 H     1 <1>   0.1500 
 40 H        3.5040     3.0320     2.6530 H     1 <1>   0.0800 
 41 H        3.1360     1.4110     2.0910 H     1 <1>   0.0800 
 42 H        2.4000     2.7940     1.3170 H     1 <1>   0.0800 
@<TRIPOS>BOND
  1   1   2  1   
  2   1  21  1   
  3   2   3  1   
  4   2   4  1   
  5   2  22  1   
  6   3   5  1   
  7   3   6  1   
  8   3  23  1   
  9   4   7  1   
 10   4  24  1   
 11   4  25  1   
 12   5   7  1   
 13   5  26  1   
 14   5  27  1   
 15   6   8  1   
 16   6  28  1   
 17   6  29  1   
 18   7   9  1   
 19   8  10  2   
 20   8  11  1   
 21   9  12  1   
 22   9  30  1   
 23   9  31  1   
 24  10  13  1   
 25  11  14  2   
 26  11  32  1   
 27  12  15  ar  
 28  12  16  ar  
 29  13  14  1   
 30  13  33  1   
 31  14  17  1   
 32  15  18  1   
 33  15  34  1   
 34  16  19  1   
 35  16  20  1   
 36  17  35  1   
 37  17  36  1   
 38  17  37  1   
 39  18  19  2   
 40  18  38  1   
 41  19  39  1   
 42  20  40  1   
 43  20  41  1   
 44  20  42  1   
@<TRIPOS>SUBSTRUCTURE
  1 ****   5 GROUP 4 **** **** 0

# MOE 2024.06 (io_trps.svl 2023.06)
