@<TRIPOS>MOLECULE
NONAME
48 49 1 0 0 
SMALL
USER_CHARGES


@<TRIPOS>ATOM
  1 S       -1.0870     0.2750    -0.7110 S.3   1 <1>  -0.0800 
  2 C       -0.9420    -1.4750    -0.6440 C.2   1 <1>  -0.1400 
  3 C        0.3870     0.4810     0.2170 C.2   1 <1>  -0.1100 
  4 C        0.1660    -1.8260     0.0400 C.2   1 <1>  -0.1500 
  5 C       -2.0340    -2.2660    -1.3390 C.3   1 <1>   0.3200 
  6 C        0.9200    -0.7130     0.5310 C.2   1 <1>  -0.1500 
  7 N       -1.9610    -3.6770    -0.9210 N.am  1 <1>  -0.7300 
  8 C       -2.3150    -4.7280    -1.7060 C.2   1 <1>   0.5690 
  9 O       -2.7010    -4.5580    -2.8380 O.2   1 <1>  -0.5700 
 10 C       -2.1840    -6.1590    -1.1640 C.3   1 <1>   0.1710 
 11 N       -3.3090    -6.6410    -0.3080 N.3   1 <1>  -0.8100 
 12 C       -3.2310    -8.1050    -0.1340 C.3   1 <1>   0.1100 
 13 C       -3.3700    -5.9570     0.9940 C.3   1 <1>   0.1100 
 14 C       -4.5180    -8.6540     0.5210 C.3   1 <1>   0.0000 
 15 C       -4.6020    -6.4110     1.7820 C.3   1 <1>  -0.1600 
 16 C       -4.6540    -7.9380     1.8920 C.3   1 <1>   0.2000 
 17 C       -5.7440    -8.3350    -0.3800 C.3   1 <1>   0.1200 
 18 C       -4.4260   -10.2000     0.6850 C.3   1 <1>  -0.1600 
 19 O       -5.8340    -8.2810     2.5310 O.3   1 <1>  -0.6800 
 20 O       -5.5580    -8.7880    -1.6790 O.3   1 <1>  -0.6800 
 21 C       -3.2910   -10.7350     1.5790 C.3   1 <1>  -0.1600 
 22 C       -3.3030   -12.2660     1.6080 C.3   1 <1>  -0.2400 
 23 H        0.7020     1.4880     0.4290 H     1 <1>   0.1500 
 24 H        0.5000    -2.8310     0.2220 H     1 <1>   0.1500 
 25 H       -1.9220    -2.1860    -2.4080 H     1 <1>   0.0800 
 26 H       -2.9970    -1.8710    -1.0660 H     1 <1>   0.0800 
 27 H        1.8250    -0.8640     1.0940 H     1 <1>   0.1500 
 28 H       -1.6780    -3.8200     0.0460 H     1 <1>   0.3700 
 29 H       -1.2590    -6.2410    -0.6230 H     1 <1>   0.0800 
 30 H       -2.1090    -6.8000    -2.0240 H     1 <1>   0.0800 
 31 H       -3.0910    -8.5810    -1.0900 H     1 <1>   0.0800 
 32 H       -2.3760    -8.3400     0.4750 H     1 <1>   0.0800 
 33 H       -2.4770    -6.1670     1.5590 H     1 <1>   0.0800 
 34 H       -3.4420    -4.8940     0.8460 H     1 <1>   0.0800 
 35 H       -5.4800    -6.0280     1.2970 H     1 <1>   0.0800 
 36 H       -4.5560    -5.9880     2.7690 H     1 <1>   0.0800 
 37 H       -3.8500    -8.2470     2.5360 H     1 <1>   0.0800 
 38 H       -5.9240    -7.2770    -0.4420 H     1 <1>   0.0800 
 39 H       -6.6280    -8.8140     0.0040 H     1 <1>   0.0800 
 40 H       -5.3600   -10.5550     1.0860 H     1 <1>   0.0800 
 41 H       -4.3220   -10.6420    -0.2910 H     1 <1>   0.0800 
 42 H       -6.6000    -7.9840     2.0070 H     1 <1>   0.4000 
 43 H       -4.9130    -8.2020    -2.1260 H     1 <1>   0.4000 
 44 H       -2.3340   -10.4100     1.2130 H     1 <1>   0.0800 
 45 H       -3.4110   -10.3780     2.5860 H     1 <1>   0.0800 
 46 H       -3.1630   -12.6640     0.6180 H     1 <1>   0.0800 
 47 H       -4.2400   -12.6260     1.9960 H     1 <1>   0.0800 
 48 H       -2.5110   -12.6290     2.2390 H     1 <1>   0.0800 
@<TRIPOS>BOND
  1   1   2  1   
  2   1   3  1   
  3   2   4  2   
  4   2   5  1   
  5   3   6  2   
  6   3  23  1   
  7   4   6  1   
  8   4  24  1   
  9   5   7  1   
 10   5  25  1   
 11   5  26  1   
 12   6  27  1   
 13   7   8  am  
 14   7  28  1   
 15   8   9  2   
 16   8  10  1   
 17  10  11  1   
 18  10  29  1   
 19  10  30  1   
 20  11  12  1   
 21  11  13  1   
 22  12  14  1   
 23  12  31  1   
 24  12  32  1   
 25  13  15  1   
 26  13  33  1   
 27  13  34  1   
 28  14  16  1   
 29  14  17  1   
 30  14  18  1   
 31  15  16  1   
 32  15  35  1   
 33  15  36  1   
 34  16  19  1   
 35  16  37  1   
 36  17  20  1   
 37  17  38  1   
 38  17  39  1   
 39  18  21  1   
 40  18  40  1   
 41  18  41  1   
 42  19  42  1   
 43  20  43  1   
 44  21  22  1   
 45  21  44  1   
 46  21  45  1   
 47  22  46  1   
 48  22  47  1   
 49  22  48  1   
@<TRIPOS>SUBSTRUCTURE
  1 ****  11 GROUP 4 **** **** 0

# MOE 2024.06 (io_trps.svl 2023.06)
