@<TRIPOS>MOLECULE
NONAME
52 55 1 0 0 
SMALL
USER_CHARGES


@<TRIPOS>ATOM
  1 O        1.8490    -0.9820     1.7810 O.2   1 <1>  -0.5700 
  2 C        1.7750    -1.0570     0.5760 C.2   1 <1>   0.6300 
  3 N        1.9400     0.0390    -0.2100 N.am  1 <1>  -0.7300 
  4 C        1.4890    -2.3990    -0.1020 C.3   1 <1>   0.0320 
  5 C        2.0950     1.4240     0.2980 C.3   1 <1>   0.1400 
  6 C        0.0030    -2.5820    -0.3830 C.ar  1 <1>  -0.0320 
  7 C        2.3070    -3.6200     0.2240 C.3   1 <1>  -0.1900 
  8 C        2.5010    -2.9390    -1.0900 C.3   1 <1>  -0.2000 
  9 C        3.4510     1.5960     0.9860 C.3   1 <1>   0.0960 
 10 C       -0.8530    -2.8770     0.6660 C.ar  1 <1>  -0.1500 
 11 C       -0.5150    -2.4480    -1.6630 C.ar  1 <1>  -0.1500 
 12 C        1.7700    -5.0460     0.2030 C.3   1 <1>  -0.0650 
 13 C        3.4870    -3.6300     1.1960 C.3   1 <1>  -0.0650 
 14 N        3.6480     3.0150     1.3370 N.pl3 1 <1>   0.0480 
 15 C       -2.2090    -3.0440     0.4430 C.ar  1 <1>  -0.1500 
 16 C       -1.8710    -2.6150    -1.8900 C.ar  1 <1>  -0.1500 
 17 C        3.0250    -5.9000     0.3510 C.3   1 <1>  -0.1600 
 18 C        4.0010    -5.0750     1.2000 C.3   1 <1>  -0.1600 
 19 C        4.2670     3.9960     0.6310 C.2   1 <1>   0.0060 
 20 C        3.2000     3.6190     2.4510 C.2   1 <1>  -0.3020 
 21 C       -2.7180    -2.9130    -0.8370 C.ar  1 <1>  -0.1500 
 22 N        4.2330     5.1490     1.2210 N.2   1 <1>  -0.5650 
 23 C        4.9310     3.7410    -0.7200 C.3   1 <1>   0.0200 
 24 C        3.5650     4.9150     2.3640 C.2   1 <1>   0.0770 
 25 C        5.4320     5.0190    -1.4060 C.3   1 <1>  -0.2400 
 26 H        1.7740    -0.0650    -1.2130 H     1 <1>   0.3700 
 27 H        1.3070     1.6280     1.0040 H     1 <1>   0.0800 
 28 H        2.0100     2.1120    -0.5250 H     1 <1>   0.0800 
 29 H        3.4070    -2.3840    -1.2590 H     1 <1>   0.1000 
 30 H        2.1610    -3.4410    -1.9780 H     1 <1>   0.1000 
 31 H        4.2430     1.2800     0.3330 H     1 <1>   0.0800 
 32 H        3.4850     1.0110     1.8870 H     1 <1>   0.0800 
 33 H       -0.4570    -2.9750     1.6630 H     1 <1>   0.1500 
 34 H        0.1320    -2.2160    -2.4880 H     1 <1>   0.1500 
 35 H        1.2220    -5.2780    -0.6940 H     1 <1>   0.0800 
 36 H        1.1290    -5.1940     1.0550 H     1 <1>   0.0800 
 37 H        3.1310    -3.3780     2.1810 H     1 <1>   0.0800 
 38 H        4.2560    -2.9310     0.9180 H     1 <1>   0.0800 
 39 H       -2.8640    -3.2740     1.2640 H     1 <1>   0.1500 
 40 H       -2.2680    -2.5130    -2.8850 H     1 <1>   0.1500 
 41 H        3.4540    -6.0600    -0.6230 H     1 <1>   0.0800 
 42 H        2.8070    -6.8540     0.7980 H     1 <1>   0.0800 
 43 H        4.0220    -5.4470     2.2100 H     1 <1>   0.0800 
 44 H        4.9940    -5.1300     0.7890 H     1 <1>   0.0800 
 45 H        2.6590     3.1090     3.2270 H     1 <1>   0.1500 
 46 H       -3.7720    -3.0430    -1.0130 H     1 <1>   0.1500 
 47 H        4.2250     3.2580    -1.3710 H     1 <1>   0.0800 
 48 H        5.7640     3.0770    -0.5730 H     1 <1>   0.0800 
 49 H        3.3800     5.7040     3.0740 H     1 <1>   0.1500 
 50 H        4.6120     5.6970    -1.5640 H     1 <1>   0.0800 
 51 H        5.8810     4.7850    -2.3530 H     1 <1>   0.0800 
 52 H        6.1630     5.5070    -0.7840 H     1 <1>   0.0800 
@<TRIPOS>BOND
  1   1   2  2   
  2   2   3  am  
  3   2   4  1   
  4   3   5  1   
  5   3  26  1   
  6   4   6  1   
  7   4   7  1   
  8   4   8  1   
  9   5   9  1   
 10   5  27  1   
 11   5  28  1   
 12   6  10  ar  
 13   6  11  ar  
 14   7   8  1   
 15   7  12  1   
 16   7  13  1   
 17   8  29  1   
 18   8  30  1   
 19   9  14  1   
 20   9  31  1   
 21   9  32  1   
 22  10  15  ar  
 23  10  33  1   
 24  11  16  ar  
 25  11  34  1   
 26  12  17  1   
 27  12  35  1   
 28  12  36  1   
 29  13  18  1   
 30  13  37  1   
 31  13  38  1   
 32  14  19  1   
 33  14  20  1   
 34  15  21  ar  
 35  15  39  1   
 36  16  21  ar  
 37  16  40  1   
 38  17  18  1   
 39  17  41  1   
 40  17  42  1   
 41  18  43  1   
 42  18  44  1   
 43  19  22  2   
 44  19  23  1   
 45  20  24  2   
 46  20  45  1   
 47  21  46  1   
 48  22  24  1   
 49  23  25  1   
 50  23  47  1   
 51  23  48  1   
 52  24  49  1   
 53  25  50  1   
 54  25  51  1   
 55  25  52  1   
@<TRIPOS>SUBSTRUCTURE
  1 ****   2 GROUP 4 **** **** 0

# MOE 2024.06 (io_trps.svl 2023.06)
