@<TRIPOS>MOLECULE
NONAME
49 51 1 0 0 
SMALL
USER_CHARGES


@<TRIPOS>ATOM
  1 O       -4.2670     2.7550     1.1090 O.2   1 <1>  -0.5700 
  2 C       -3.1610     2.2540     1.0110 C.2   1 <1>   0.7150 
  3 N       -3.0110     1.0090     0.4230 N.am  1 <1>  -0.6600 
  4 C       -2.0280     2.9840     1.5070 C.2   1 <1>  -0.2370 
  5 C       -4.0800     0.2920    -0.3370 C.3   1 <1>   0.2200 
  6 C       -1.8230     0.1540     0.7200 C.3   1 <1>   0.0600 
  7 N       -0.9660     3.3840     0.7340 N.pl3 1 <1>   0.0480 
  8 C       -1.7960     3.4200     2.7860 C.2   1 <1>  -0.1500 
  9 C       -4.6690     1.1230    -1.4800 C.3   1 <1>  -0.1600 
 10 C       -5.2360    -0.1410     0.5670 C.3   1 <1>  -0.1600 
 11 C       -0.0900     4.0400     1.5310 C.2   1 <1>  -0.3020 
 12 C       -0.8060     3.1920    -0.7200 C.3   1 <1>   0.0160 
 13 C       -0.5710     4.0790     2.8010 C.2   1 <1>  -0.1500 
 14 C       -6.1880     0.8870    -1.4670 C.3   1 <1>  -0.0800 
 15 C       -6.5400     0.3640    -0.0690 C.3   1 <1>  -0.0800 
 16 C       -6.9840     2.1840    -1.6330 C.3   1 <1>  -0.1600 
 17 C       -7.1970     1.5370     0.6830 C.3   1 <1>  -0.1600 
 18 C       -7.0110     2.7530    -0.2180 C.3   1 <1>   0.4230 
 19 N       -8.0280     3.8160     0.0270 N.4   1 <1>  -0.9590 
 20 C       -9.4290     3.4710    -0.3720 C.3   1 <1>   0.2630 
 21 C       -7.5860     5.0930    -0.6090 C.3   1 <1>   0.2630 
 22 H       -3.6580    -0.5970    -0.7750 H     1 <1>   0.0800 
 23 H       -1.2710    -0.0280    -0.1850 H     1 <1>   0.0800 
 24 H       -2.1470    -0.7870     1.1290 H     1 <1>   0.0800 
 25 H       -1.1710     0.6210     1.4380 H     1 <1>   0.0800 
 26 H       -2.4380     3.2830     3.6400 H     1 <1>   0.1500 
 27 H       -4.4390     2.1650    -1.3530 H     1 <1>   0.0800 
 28 H       -4.2530     0.8050    -2.4190 H     1 <1>   0.0800 
 29 H       -5.2570    -1.2160     0.5980 H     1 <1>   0.0800 
 30 H       -5.1080     0.2130     1.5740 H     1 <1>   0.0800 
 31 H        0.8320     4.4540     1.1630 H     1 <1>   0.1500 
 32 H       -0.1090     3.9150    -1.1020 H     1 <1>   0.0800 
 33 H       -1.7560     3.3230    -1.2060 H     1 <1>   0.0800 
 34 H       -0.4360     2.2020    -0.9090 H     1 <1>   0.0800 
 35 H       -0.1140     4.5310     3.6660 H     1 <1>   0.1500 
 36 H       -6.4480     0.1610    -2.2200 H     1 <1>   0.0800 
 37 H       -7.2450    -0.4480    -0.1420 H     1 <1>   0.0800 
 38 H       -7.9710     1.9290    -1.9730 H     1 <1>   0.0800 
 39 H       -6.5170     2.8520    -2.3340 H     1 <1>   0.0800 
 40 H       -6.7450     1.7110     1.6430 H     1 <1>   0.0800 
 41 H       -8.2370     1.3090     0.8220 H     1 <1>   0.0800 
 42 H       -6.0360     3.1600    -0.0200 H     1 <1>   0.0800 
 43 H       -8.0110     3.9620     1.0480 H     1 <1>   0.4500 
 44 H       -9.4930     3.3400    -1.4400 H     1 <1>   0.0800 
 45 H      -10.1030     4.2610    -0.0830 H     1 <1>   0.0800 
 46 H       -9.7460     2.5600     0.1070 H     1 <1>   0.0800 
 47 H       -7.5650     4.9880    -1.6820 H     1 <1>   0.0800 
 48 H       -6.5950     5.3530    -0.2700 H     1 <1>   0.0800 
 49 H       -8.2590     5.8940    -0.3510 H     1 <1>   0.0800 
@<TRIPOS>BOND
  1   1   2  2   
  2   2   3  am  
  3   2   4  1   
  4   3   5  1   
  5   3   6  1   
  6   4   7  1   
  7   4   8  2   
  8   5   9  1   
  9   5  10  1   
 10   5  22  1   
 11   6  23  1   
 12   6  24  1   
 13   6  25  1   
 14   7  11  1   
 15   7  12  1   
 16   8  13  1   
 17   8  26  1   
 18   9  14  1   
 19   9  27  1   
 20   9  28  1   
 21  10  15  1   
 22  10  29  1   
 23  10  30  1   
 24  11  13  2   
 25  11  31  1   
 26  12  32  1   
 27  12  33  1   
 28  12  34  1   
 29  13  35  1   
 30  14  15  1   
 31  14  16  1   
 32  14  36  1   
 33  15  17  1   
 34  15  37  1   
 35  16  18  1   
 36  16  38  1   
 37  16  39  1   
 38  17  18  1   
 39  17  40  1   
 40  17  41  1   
 41  18  19  1   
 42  18  42  1   
 43  19  20  1   
 44  19  21  1   
 45  19  43  1   
 46  20  44  1   
 47  20  45  1   
 48  20  46  1   
 49  21  47  1   
 50  21  48  1   
 51  21  49  1   
@<TRIPOS>SUBSTRUCTURE
  1 ****   1 GROUP 4 **** **** 0

# MOE 2024.06 (io_trps.svl 2023.06)
