@<TRIPOS>MOLECULE
NONAME
43 45 1 0 0 
SMALL
USER_CHARGES


@<TRIPOS>ATOM
  1 O        0.6450    -0.4840    -1.9620 O.3   1 <1>  -0.6800 
  2 C        1.9920    -0.4130    -1.6260 C.3   1 <1>   0.2000 
  3 C        2.3410    -1.4670    -0.5820 C.3   1 <1>  -0.0800 
  4 C        2.3330     0.9100    -0.9520 C.3   1 <1>   0.2090 
  5 C        3.5210    -0.8610     0.1860 C.3   1 <1>   0.2090 
  6 C        2.6560    -2.8400    -1.1960 C.3   1 <1>  -0.0170 
  7 N        3.5010     0.6050    -0.0800 N.pl3 1 <1>  -0.8380 
  8 C        3.0700    -3.8400    -0.1270 C.ar  1 <1>  -0.1440 
  9 C        4.7040     1.1840    -0.4390 C.ar  1 <1>   0.4100 
 10 C        4.3830    -4.2320     0.0410 C.ar  1 <1>  -0.1500 
 11 C        2.1500    -4.4060     0.7330 C.ar  1 <1>  -0.1500 
 12 N        5.1800     0.8010    -1.6210 N.ar  1 <1>  -0.6200 
 13 C        5.3450     2.1040     0.4030 C.ar  1 <1>   0.0730 
 14 C        4.7030    -5.1420     1.0350 C.ar  1 <1>   0.1600 
 15 C        2.5760    -5.3080     1.6940 C.ar  1 <1>   0.1600 
 16 C        6.3210     1.3400    -1.9970 C.ar  1 <1>   0.1670 
 17 C        4.7520     2.4500     1.6610 C.1   1 <1>   0.4840 
 18 C        6.5470     2.6580    -0.0130 C.ar  1 <1>  -0.1440 
 19 N        3.8310    -5.6890     1.8650 N.ar  1 <1>  -0.6200 
 20 C        7.0310     2.2560    -1.2420 C.ar  1 <1>  -0.1500 
 21 C        6.8450     0.8970    -3.3470 C.3   1 <1>  -0.0970 
 22 N        4.3390     2.7700     2.6760 N.1   1 <1>  -0.5570 
 23 C        7.3220     3.6670     0.8270 C.3   1 <1>  -0.0970 
 24 H        0.4560    -1.3100    -2.4460 H     1 <1>   0.4000 
 25 H        2.5860    -0.5200    -2.5180 H     1 <1>   0.0800 
 26 H        1.5240    -1.5560     0.1120 H     1 <1>   0.0800 
 27 H        1.5140     1.2410    -0.3370 H     1 <1>   0.0800 
 28 H        2.5740     1.6630    -1.6830 H     1 <1>   0.0800 
 29 H        4.4520    -1.2800    -0.1560 H     1 <1>   0.0800 
 30 H        3.4240    -1.0470     1.2420 H     1 <1>   0.0800 
 31 H        3.4450    -2.7400    -1.9220 H     1 <1>   0.0800 
 32 H        1.7880    -3.2150    -1.7080 H     1 <1>   0.0800 
 33 H        5.1610    -3.8390    -0.5880 H     1 <1>   0.1500 
 34 H        1.1080    -4.1530     0.6660 H     1 <1>   0.1500 
 35 H        5.7330    -5.4360     1.1520 H     1 <1>   0.1500 
 36 H        1.8450    -5.7390     2.3560 H     1 <1>   0.1500 
 37 H        7.9570     2.6540    -1.6150 H     1 <1>   0.1500 
 38 H        7.7760     1.3800    -3.5820 H     1 <1>   0.0800 
 39 H        6.1260     1.1410    -4.1080 H     1 <1>   0.0800 
 40 H        6.9960    -0.1670    -3.3420 H     1 <1>   0.0800 
 41 H        8.2270     3.9700     0.3310 H     1 <1>   0.0800 
 42 H        7.5850     3.2350     1.7770 H     1 <1>   0.0800 
 43 H        6.7220     4.5430     1.0000 H     1 <1>   0.0800 
@<TRIPOS>BOND
  1   1   2  1   
  2   1  24  1   
  3   2   3  1   
  4   2   4  1   
  5   2  25  1   
  6   3   5  1   
  7   3   6  1   
  8   3  26  1   
  9   4   7  1   
 10   4  27  1   
 11   4  28  1   
 12   5   7  1   
 13   5  29  1   
 14   5  30  1   
 15   6   8  1   
 16   6  31  1   
 17   6  32  1   
 18   7   9  1   
 19   8  10  ar  
 20   8  11  ar  
 21   9  12  ar  
 22   9  13  ar  
 23  10  14  ar  
 24  10  33  1   
 25  11  15  ar  
 26  11  34  1   
 27  12  16  ar  
 28  13  17  1   
 29  13  18  ar  
 30  14  19  ar  
 31  14  35  1   
 32  15  19  ar  
 33  15  36  1   
 34  16  20  ar  
 35  16  21  1   
 36  17  22  3   
 37  18  20  ar  
 38  18  23  1   
 39  20  37  1   
 40  21  38  1   
 41  21  39  1   
 42  21  40  1   
 43  23  41  1   
 44  23  42  1   
 45  23  43  1   
@<TRIPOS>SUBSTRUCTURE
  1 ****   5 GROUP 4 **** **** 0

# MOE 2024.06 (io_trps.svl 2023.06)
