@<TRIPOS>MOLECULE
NONAME
49 51 1 0 0 
SMALL
USER_CHARGES


@<TRIPOS>ATOM
  1 F        0.2690    -1.2520     1.0100 F     1 <1>  -0.1900 
  2 C       -0.4740    -2.2320     0.5630 C.ar  1 <1>   0.1900 
  3 C       -0.0010    -3.1530    -0.3790 C.ar  1 <1>   0.0830 
  4 C       -1.7570    -2.3100     1.0670 C.ar  1 <1>  -0.1500 
  5 O        1.2400    -3.1800    -0.9490 O.3   1 <1>  -0.3630 
  6 C       -0.8670    -4.1520    -0.7920 C.ar  1 <1>  -0.1500 
  7 C       -2.5960    -3.3200     0.6320 C.ar  1 <1>  -0.1500 
  8 C        2.2660    -2.2790    -0.5990 C.3   1 <1>   0.0400 
  9 C       -2.1720    -4.2660    -0.3040 C.ar  1 <1>   0.0530 
 10 C       -3.0420    -5.3240    -0.7620 C.2   1 <1>   0.0870 
 11 O       -2.8170    -5.9240    -1.9080 O.3   1 <1>  -0.0190 
 12 C       -4.1520    -5.9000    -0.2360 C.2   1 <1>  -0.2330 
 13 N       -3.7020    -6.8480    -2.1810 N.2   1 <1>  -0.4100 
 14 C       -4.5190    -6.8510    -1.1870 C.2   1 <1>   0.3720 
 15 C       -4.8290    -5.6500     0.9900 C.2   1 <1>   1.0330 
 16 N       -5.6220    -7.7080    -1.1320 N.pl3 1 <1>  -0.8210 
 17 O       -4.5130    -6.2630     2.0240 O.co2 1 <1>  -0.9000 
 18 O       -5.7510    -4.8190     1.0420 O.co2 1 <1>  -0.9000 
 19 C       -5.6540    -8.5700     0.0770 C.3   1 <1>   0.2090 
 20 C       -6.9100    -6.9950    -1.3180 C.3   1 <1>   0.2090 
 21 C       -6.7220    -9.6590    -0.0830 C.3   1 <1>  -0.0800 
 22 C       -8.0220    -8.0270    -1.5280 C.3   1 <1>  -0.1600 
 23 C       -8.1020    -9.0200    -0.3580 C.3   1 <1>  -0.1600 
 24 C       -6.7260   -10.5310     1.1790 C.3   1 <1>   0.1400 
 25 N       -7.7020   -11.6390     1.0500 N.am  1 <1>  -0.7300 
 26 C       -7.4860   -12.9240     0.6970 C.2   1 <1>   0.5690 
 27 O       -8.4100   -13.6910     0.6190 O.2   1 <1>  -0.5700 
 28 C       -6.0940   -13.4160     0.3890 C.3   1 <1>  -0.1790 
 29 H       -2.1000    -1.5930     1.7910 H     1 <1>   0.1500 
 30 H       -0.5140    -4.8670    -1.5130 H     1 <1>   0.1500 
 31 H       -3.5970    -3.3680     1.0260 H     1 <1>   0.1500 
 32 H        3.1440    -2.5360    -1.1640 H     1 <1>   0.0800 
 33 H        2.4690    -2.3710     0.4540 H     1 <1>   0.0800 
 34 H        1.9540    -1.2800    -0.8460 H     1 <1>   0.0800 
 35 H       -5.8910    -7.9800     0.9450 H     1 <1>   0.0800 
 36 H       -4.6820    -9.0110     0.2230 H     1 <1>   0.0800 
 37 H       -6.8390    -6.3470    -2.1750 H     1 <1>   0.0800 
 38 H       -7.1240    -6.3900    -0.4520 H     1 <1>   0.0800 
 39 H       -6.4370   -10.2690    -0.9220 H     1 <1>   0.0800 
 40 H       -7.8250    -8.5570    -2.4440 H     1 <1>   0.0800 
 41 H       -8.9610    -7.5150    -1.6350 H     1 <1>   0.0800 
 42 H       -8.4320    -8.4940     0.5220 H     1 <1>   0.0800 
 43 H       -8.8260    -9.7820    -0.5890 H     1 <1>   0.0800 
 44 H       -6.9850    -9.9320     2.0360 H     1 <1>   0.0800 
 45 H       -5.7400   -10.9300     1.3450 H     1 <1>   0.0800 
 46 H       -8.6810   -11.3850     1.1950 H     1 <1>   0.3700 
 47 H       -5.6610   -12.8200    -0.3910 H     1 <1>   0.0800 
 48 H       -6.1360   -14.4390     0.0630 H     1 <1>   0.0800 
 49 H       -5.4860   -13.3570     1.2710 H     1 <1>   0.0800 
@<TRIPOS>BOND
  1   1   2  1   
  2   2   3  ar  
  3   2   4  ar  
  4   3   5  1   
  5   3   6  ar  
  6   4   7  ar  
  7   4  29  1   
  8   5   8  1   
  9   6   9  ar  
 10   6  30  1   
 11   7   9  ar  
 12   7  31  1   
 13   8  32  1   
 14   8  33  1   
 15   8  34  1   
 16   9  10  1   
 17  10  11  1   
 18  10  12  2   
 19  11  13  1   
 20  12  14  1   
 21  12  15  1   
 22  13  14  2   
 23  14  16  1   
 24  15  17  ar  
 25  15  18  ar  
 26  16  19  1   
 27  16  20  1   
 28  19  21  1   
 29  19  35  1   
 30  19  36  1   
 31  20  22  1   
 32  20  37  1   
 33  20  38  1   
 34  21  23  1   
 35  21  24  1   
 36  21  39  1   
 37  22  23  1   
 38  22  40  1   
 39  22  41  1   
 40  23  42  1   
 41  23  43  1   
 42  24  25  1   
 43  24  44  1   
 44  24  45  1   
 45  25  26  am  
 46  25  46  1   
 47  26  27  2   
 48  26  28  1   
 49  28  47  1   
 50  28  48  1   
 51  28  49  1   
@<TRIPOS>SUBSTRUCTURE
  1 ****  12 GROUP 4 **** **** 0

# MOE 2024.06 (io_trps.svl 2023.06)
