@<TRIPOS>MOLECULE
NONAME
58 60 1 0 0 
SMALL
USER_CHARGES


@<TRIPOS>ATOM
  1 O       -1.3630     0.3590     1.7550 O.2   1 <1>  -0.5700 
  2 C       -2.1670     1.0070     1.1260 C.2   1 <1>   0.5690 
  3 N       -3.5150     0.7130     1.1850 N.am  1 <1>  -0.6600 
  4 C       -1.5820     2.1610     0.2990 C.3   1 <1>  -0.0190 
  5 C       -4.6120     1.4000     0.4470 C.3   1 <1>   0.1400 
  6 C       -4.0110    -0.3770     2.0770 C.3   1 <1>   0.1400 
  7 C       -2.0110     3.5540     0.8110 C.3   1 <1>  -0.1600 
  8 C       -1.7450     1.9790    -1.2320 C.3   1 <1>  -0.1600 
  9 C       -5.3860     0.3820    -0.3980 C.3   1 <1>  -0.1600 
 10 C       -4.7790    -1.4150     1.2550 C.3   1 <1>  -0.1600 
 11 C       -1.2820     4.7030     0.0840 C.3   1 <1>   0.2000 
 12 C       -1.7930     3.3110    -2.0020 C.3   1 <1>  -0.1600 
 13 C       -5.9300    -0.7730     0.4590 C.3   1 <1>  -0.0800 
 14 O       -2.1520     5.8090     0.0490 O.3   1 <1>  -0.5600 
 15 C       -0.8570     4.3410    -1.3650 C.3   1 <1>   0.2000 
 16 C       -6.6530    -1.8010    -0.4220 C.3   1 <1>   0.1200 
 17 C       -2.1820     6.5750     1.2130 C.3   1 <1>   0.0400 
 18 O       -0.8830     5.4790    -2.1450 O.3   1 <1>  -0.6800 
 19 O       -7.2190    -2.8000     0.3990 O.3   1 <1>  -0.3630 
 20 C       -7.9140    -3.8370    -0.1370 C.ar  1 <1>   0.0820 
 21 C       -8.1180    -4.0110    -1.5040 C.ar  1 <1>  -0.1500 
 22 C       -8.4400    -4.7590     0.7530 C.ar  1 <1>  -0.1500 
 23 C       -8.8420    -5.1000    -1.9590 C.ar  1 <1>  -0.1500 
 24 C       -9.1640    -5.8480     0.2980 C.ar  1 <1>  -0.1500 
 25 C       -9.3680    -6.0220    -1.0680 C.ar  1 <1>   0.0820 
 26 O      -10.0650    -7.0590    -1.6030 O.3   1 <1>  -0.3630 
 27 C      -10.6390    -8.0500    -0.7810 C.3   1 <1>   0.0400 
 28 H       -0.5200     2.1210     0.4760 H     1 <1>   0.0800 
 29 H       -5.2750     1.8610     1.1590 H     1 <1>   0.0800 
 30 H       -4.2360     2.1690    -0.1990 H     1 <1>   0.0800 
 31 H       -3.1960    -0.8620     2.5870 H     1 <1>   0.0800 
 32 H       -4.6580     0.0490     2.8240 H     1 <1>   0.0800 
 33 H       -1.7990     3.6160     1.8640 H     1 <1>   0.0800 
 34 H       -3.0680     3.6810     0.6820 H     1 <1>   0.0800 
 35 H       -0.9090     1.4010    -1.5860 H     1 <1>   0.0800 
 36 H       -2.6250     1.4100    -1.4670 H     1 <1>   0.0800 
 37 H       -6.2020     0.8850    -0.8870 H     1 <1>   0.0800 
 38 H       -4.7310    -0.0030    -1.1600 H     1 <1>   0.0800 
 39 H       -4.0910    -1.9020     0.5850 H     1 <1>   0.0800 
 40 H       -5.1690    -2.1640     1.9210 H     1 <1>   0.0800 
 41 H       -0.3920     4.9780     0.6240 H     1 <1>   0.0800 
 42 H       -2.7970     3.6980    -1.9850 H     1 <1>   0.0800 
 43 H       -1.5100     3.1440    -3.0270 H     1 <1>   0.0800 
 44 H       -6.6480    -0.3680     1.1530 H     1 <1>   0.0800 
 45 H        0.1490     3.9590    -1.3740 H     1 <1>   0.0800 
 46 H       -5.9620    -2.2710    -1.1000 H     1 <1>   0.0800 
 47 H       -7.4500    -1.3320    -0.9720 H     1 <1>   0.0800 
 48 H       -2.8730     7.3860     1.0620 H     1 <1>   0.0800 
 49 H       -1.1990     6.9710     1.4030 H     1 <1>   0.0800 
 50 H       -2.5130     5.9680     2.0370 H     1 <1>   0.0800 
 51 H       -1.5550     6.0680    -1.7300 H     1 <1>   0.4000 
 52 H       -7.7260    -3.3190    -2.2230 H     1 <1>   0.1500 
 53 H       -8.2770    -4.6170     1.8060 H     1 <1>   0.1500 
 54 H       -9.0050    -5.2430    -3.0110 H     1 <1>   0.1500 
 55 H       -9.5560    -6.5410     1.0160 H     1 <1>   0.1500 
 56 H      -11.1360    -8.7620    -1.4150 H     1 <1>   0.0800 
 57 H      -11.3530    -7.5860    -0.1230 H     1 <1>   0.0800 
 58 H       -9.8590    -8.5370    -0.2240 H     1 <1>   0.0800 
@<TRIPOS>BOND
  1   1   2  2   
  2   2   3  am  
  3   2   4  1   
  4   3   5  1   
  5   3   6  1   
  6   4   7  1   
  7   4   8  1   
  8   4  28  1   
  9   5   9  1   
 10   5  29  1   
 11   5  30  1   
 12   6  10  1   
 13   6  31  1   
 14   6  32  1   
 15   7  11  1   
 16   7  33  1   
 17   7  34  1   
 18   8  12  1   
 19   8  35  1   
 20   8  36  1   
 21   9  13  1   
 22   9  37  1   
 23   9  38  1   
 24  10  13  1   
 25  10  39  1   
 26  10  40  1   
 27  11  14  1   
 28  11  15  1   
 29  11  41  1   
 30  12  15  1   
 31  12  42  1   
 32  12  43  1   
 33  13  16  1   
 34  13  44  1   
 35  14  17  1   
 36  15  18  1   
 37  15  45  1   
 38  16  19  1   
 39  16  46  1   
 40  16  47  1   
 41  17  48  1   
 42  17  49  1   
 43  17  50  1   
 44  18  51  1   
 45  19  20  1   
 46  20  21  ar  
 47  20  22  ar  
 48  21  23  ar  
 49  21  52  1   
 50  22  24  ar  
 51  22  53  1   
 52  23  25  ar  
 53  23  54  1   
 54  24  25  ar  
 55  24  55  1   
 56  25  26  1   
 57  26  27  1   
 58  27  56  1   
 59  27  57  1   
 60  27  58  1   
@<TRIPOS>SUBSTRUCTURE
  1 ****   9 GROUP 4 **** **** 0

# MOE 2024.06 (io_trps.svl 2023.06)
