@<TRIPOS>MOLECULE
NONAME
60 63 1 0 0 
SMALL
USER_CHARGES


@<TRIPOS>ATOM
  1 O       -1.2700     0.4610    -2.3800 O.2   1 <1>  -0.5700 
  2 C       -1.9750     1.0520    -1.5830 C.2   1 <1>   0.5440 
  3 N       -1.8440     2.4220    -1.4480 N.am  1 <1>  -0.6600 
  4 C       -2.9420     0.3040    -0.8040 C.ar  1 <1>   0.0860 
  5 C       -2.7280     3.2460    -0.5780 C.3   1 <1>   0.1400 
  6 C       -0.8290     3.1900    -2.2190 C.3   1 <1>   0.1400 
  7 C       -2.6370    -0.2270     0.4550 C.ar  1 <1>  -0.1440 
  8 C       -4.2290     0.1110    -1.3040 C.ar  1 <1>  -0.1500 
  9 C       -1.8780     4.0820     0.3830 C.3   1 <1>  -0.1600 
 10 C        0.0330     4.0150    -1.2590 C.3   1 <1>  -0.1600 
 11 C       -3.6030    -0.9080     1.1790 C.ar  1 <1>  -0.1500 
 12 C       -1.2380    -0.0660     1.0360 C.3   1 <1>  -0.0970 
 13 C       -5.1890    -0.5700    -0.5800 C.ar  1 <1>  -0.1500 
 14 C       -0.8280     4.9270    -0.3630 C.3   1 <1>  -0.0190 
 15 C       -4.8760    -1.0790     0.6660 C.ar  1 <1>  -0.1500 
 16 C        0.0300     5.7320     0.6170 C.2   1 <1>   0.5690 
 17 O        0.6290     5.1560     1.4950 O.2   1 <1>  -0.5700 
 18 N        0.1670     7.0890     0.4960 N.am  1 <1>  -0.6600 
 19 C        0.5180     7.8810     1.7360 C.3   1 <1>   0.2200 
 20 C        0.3400     7.7370    -0.8370 C.3   1 <1>   0.1400 
 21 C        0.0290     9.3380     1.6940 C.3   1 <1>   0.1200 
 22 C        2.0380     7.8250     2.0210 C.3   1 <1>   0.3430 
 23 C        1.4520     8.8050    -0.8730 C.3   1 <1>  -0.0800 
 24 O        0.9770    10.1560     1.0740 O.3   1 <1>  -0.5600 
 25 N        2.8230     7.3920     0.8150 N.4   1 <1>  -0.9590 
 26 C        0.9680    10.1530    -0.3130 C.3   1 <1>   0.1200 
 27 C        2.8340     8.3970    -0.3010 C.3   1 <1>   0.3430 
 28 C        4.1980     6.9680     1.2000 C.3   1 <1>   0.2630 
 29 H       -3.3210     3.8930    -1.2010 H     1 <1>   0.0800 
 30 H       -3.4010     2.6280    -0.0090 H     1 <1>   0.0800 
 31 H       -0.1970     2.5260    -2.7850 H     1 <1>   0.0800 
 32 H       -1.3370     3.8350    -2.9150 H     1 <1>   0.0800 
 33 H       -4.4690     0.5040    -2.2760 H     1 <1>   0.1500 
 34 H       -2.5240     4.7260     0.9540 H     1 <1>   0.0800 
 35 H       -1.3890     3.4190     1.0760 H     1 <1>   0.0800 
 36 H        0.6030     3.3370    -0.6470 H     1 <1>   0.0800 
 37 H        0.7270     4.6010    -1.8310 H     1 <1>   0.0800 
 38 H       -3.3690    -1.3150     2.1470 H     1 <1>   0.1500 
 39 H       -1.1500    -0.5680     1.9830 H     1 <1>   0.0800 
 40 H       -1.0130     0.9750     1.1800 H     1 <1>   0.0800 
 41 H       -0.5120    -0.4850     0.3620 H     1 <1>   0.0800 
 42 H       -6.1770    -0.7070    -0.9860 H     1 <1>   0.1500 
 43 H       -1.3630     5.6130    -0.9940 H     1 <1>   0.0800 
 44 H       -5.6190    -1.6110     1.2350 H     1 <1>   0.1500 
 45 H        0.0130     7.4200     2.5690 H     1 <1>   0.0800 
 46 H        0.5760     6.9810    -1.5660 H     1 <1>   0.0800 
 47 H       -0.5970     8.1810    -1.1310 H     1 <1>   0.0800 
 48 H       -0.0740     9.7030     2.7010 H     1 <1>   0.0800 
 49 H       -0.9250     9.4310     1.2040 H     1 <1>   0.0800 
 50 H        2.1910     7.1110     2.8140 H     1 <1>   0.0800 
 51 H        2.3820     8.7840     2.3720 H     1 <1>   0.0800 
 52 H        1.6200     9.0050    -1.9160 H     1 <1>   0.0800 
 53 H        2.2940     6.5620     0.4910 H     1 <1>   0.4500 
 54 H       -0.0230    10.3990    -0.6570 H     1 <1>   0.0800 
 55 H        1.6330    10.9400    -0.6280 H     1 <1>   0.0800 
 56 H        3.3420     9.2880     0.0310 H     1 <1>   0.0800 
 57 H        3.4120     7.9850    -1.1120 H     1 <1>   0.0800 
 58 H        4.7520     7.8060     1.5910 H     1 <1>   0.0800 
 59 H        4.7230     6.5750     0.3440 H     1 <1>   0.0800 
 60 H        4.1530     6.2000     1.9550 H     1 <1>   0.0800 
@<TRIPOS>BOND
  1   1   2  2   
  2   2   3  am  
  3   2   4  1   
  4   3   5  1   
  5   3   6  1   
  6   4   7  ar  
  7   4   8  ar  
  8   5   9  1   
  9   5  29  1   
 10   5  30  1   
 11   6  10  1   
 12   6  31  1   
 13   6  32  1   
 14   7  11  ar  
 15   7  12  1   
 16   8  13  ar  
 17   8  33  1   
 18   9  14  1   
 19   9  34  1   
 20   9  35  1   
 21  10  14  1   
 22  10  36  1   
 23  10  37  1   
 24  11  15  ar  
 25  11  38  1   
 26  12  39  1   
 27  12  40  1   
 28  12  41  1   
 29  13  15  ar  
 30  13  42  1   
 31  14  16  1   
 32  14  43  1   
 33  15  44  1   
 34  16  17  2   
 35  16  18  am  
 36  18  19  1   
 37  18  20  1   
 38  19  21  1   
 39  19  22  1   
 40  19  45  1   
 41  20  23  1   
 42  20  46  1   
 43  20  47  1   
 44  21  24  1   
 45  21  48  1   
 46  21  49  1   
 47  22  25  1   
 48  22  50  1   
 49  22  51  1   
 50  23  26  1   
 51  23  27  1   
 52  23  52  1   
 53  24  26  1   
 54  25  27  1   
 55  25  28  1   
 56  25  53  1   
 57  26  54  1   
 58  26  55  1   
 59  27  56  1   
 60  27  57  1   
 61  28  58  1   
 62  28  59  1   
 63  28  60  1   
@<TRIPOS>SUBSTRUCTURE
  1 ****  14 GROUP 4 **** **** 0

# MOE 2024.06 (io_trps.svl 2023.06)
