@<TRIPOS>MOLECULE
NONAME
47 50 1 0 0 
SMALL
USER_CHARGES


@<TRIPOS>ATOM
  1 O       -1.1740     0.2270    -0.9650 O.co2 1 <1>  -0.9000 
  2 C       -1.9850    -0.7030    -1.1800 C.2   1 <1>   0.9790 
  3 O       -2.9520    -0.4390    -1.9250 O.co2 1 <1>  -0.9000 
  4 C       -1.7560    -2.0380    -0.5840 C.ar  1 <1>   0.1310 
  5 N       -2.7150    -2.9910    -0.5680 N.ar  1 <1>  -0.6200 
  6 C       -0.5000    -2.2970    -0.0250 C.ar  1 <1>  -0.1500 
  7 C       -2.4270    -4.1640    -0.0260 C.ar  1 <1>   0.4100 
  8 C       -0.1970    -3.5160     0.5420 C.ar  1 <1>  -0.1500 
  9 N       -3.4190    -5.1290    -0.0170 N.pl3 1 <1>  -0.8380 
 10 C       -1.1900    -4.4620     0.5320 C.ar  1 <1>  -0.1500 
 11 C       -4.4070    -5.1000    -1.1270 C.3   1 <1>   0.2090 
 12 C       -4.0620    -5.3950     1.2900 C.3   1 <1>   0.2090 
 13 C       -5.0690    -6.4730    -1.2350 C.3   1 <1>  -0.1600 
 14 C       -4.7100    -6.7800     1.2500 C.3   1 <1>  -0.1600 
 15 C       -5.7200    -6.9040     0.0950 C.3   1 <1>   0.4240 
 16 O       -6.7030    -5.9410     0.4120 O.3   1 <1>  -0.5600 
 17 C       -6.3370    -8.3320     0.0180 C.ar  1 <1>  -0.1430 
 18 C       -7.9480    -6.0590    -0.1900 C.3   1 <1>   0.1200 
 19 C       -5.5540    -9.4740    -0.2020 C.ar  1 <1>   0.0830 
 20 C       -7.7150    -8.5020     0.1620 C.ar  1 <1>  -0.1430 
 21 C       -8.6190    -7.3030     0.3680 C.3   1 <1>  -0.0170 
 22 O       -4.2140    -9.3310    -0.3770 O.3   1 <1>  -0.3630 
 23 C       -6.1480   -10.7350    -0.2470 C.ar  1 <1>  -0.1500 
 24 C       -8.2920    -9.7590     0.1170 C.ar  1 <1>  -0.1500 
 25 C       -3.3540   -10.4140    -0.6510 C.3   1 <1>   0.0400 
 26 C       -7.5100   -10.8770    -0.0860 C.ar  1 <1>  -0.1500 
 27 H        0.2440    -1.5210    -0.0450 H     1 <1>   0.1500 
 28 H        0.7700    -3.7100     0.9660 H     1 <1>   0.1500 
 29 H       -1.0350    -5.4390     0.9440 H     1 <1>   0.1500 
 30 H       -3.9060    -4.8570    -2.0490 H     1 <1>   0.0800 
 31 H       -5.1410    -4.3350    -0.9330 H     1 <1>   0.0800 
 32 H       -4.8030    -4.6360     1.4820 H     1 <1>   0.0800 
 33 H       -3.3290    -5.3550     2.0760 H     1 <1>   0.0800 
 34 H       -4.3060    -7.1690    -1.5170 H     1 <1>   0.0800 
 35 H       -5.7940    -6.4690    -2.0250 H     1 <1>   0.0800 
 36 H       -5.2120    -6.9770     2.1780 H     1 <1>   0.0800 
 37 H       -3.9220    -7.4980     1.1520 H     1 <1>   0.0800 
 38 H       -7.8290    -6.1210    -1.2570 H     1 <1>   0.0800 
 39 H       -8.5170    -5.1780     0.0530 H     1 <1>   0.0800 
 40 H       -9.5580    -7.4520    -0.1330 H     1 <1>   0.0800 
 41 H       -8.8100    -7.1680     1.4180 H     1 <1>   0.0800 
 42 H       -5.5680   -11.6230    -0.4060 H     1 <1>   0.1500 
 43 H       -9.3550    -9.8740     0.2380 H     1 <1>   0.1500 
 44 H       -2.3580   -10.0250    -0.7650 H     1 <1>   0.0800 
 45 H       -3.6680   -10.8870    -1.5640 H     1 <1>   0.0800 
 46 H       -3.3850   -11.1020     0.1750 H     1 <1>   0.0800 
 47 H       -7.9620   -11.8530    -0.1190 H     1 <1>   0.1500 
@<TRIPOS>BOND
  1   1   2  ar  
  2   2   3  ar  
  3   2   4  1   
  4   4   5  ar  
  5   4   6  ar  
  6   5   7  ar  
  7   6   8  ar  
  8   6  27  1   
  9   7   9  1   
 10   7  10  ar  
 11   8  10  ar  
 12   8  28  1   
 13   9  11  1   
 14   9  12  1   
 15  10  29  1   
 16  11  13  1   
 17  11  30  1   
 18  11  31  1   
 19  12  14  1   
 20  12  32  1   
 21  12  33  1   
 22  13  15  1   
 23  13  34  1   
 24  13  35  1   
 25  14  15  1   
 26  14  36  1   
 27  14  37  1   
 28  15  16  1   
 29  15  17  1   
 30  16  18  1   
 31  17  19  ar  
 32  17  20  ar  
 33  18  21  1   
 34  18  38  1   
 35  18  39  1   
 36  19  22  1   
 37  19  23  ar  
 38  20  21  1   
 39  20  24  ar  
 40  21  40  1   
 41  21  41  1   
 42  22  25  1   
 43  23  26  ar  
 44  23  42  1   
 45  24  26  ar  
 46  24  43  1   
 47  25  44  1   
 48  25  45  1   
 49  25  46  1   
 50  26  47  1   
@<TRIPOS>SUBSTRUCTURE
  1 ****  11 GROUP 4 **** **** 0

# MOE 2024.06 (io_trps.svl 2023.06)
