@<TRIPOS>MOLECULE
NONAME
49 51 1 0 0 
SMALL
USER_CHARGES


@<TRIPOS>ATOM
  1 O        0.5200     0.1450    -1.2610 O.3   1 <1>  -0.0190 
  2 N        0.9450     1.2760    -0.7780 N.2   1 <1>  -0.4100 
  3 C        1.1270    -0.8760    -0.7140 C.2   1 <1>  -0.0400 
  4 C        1.8420     0.9790     0.0930 C.2   1 <1>   0.1080 
  5 C        2.0080    -0.4010     0.1790 C.2   1 <1>  -0.1500 
  6 C        0.7780    -2.2870    -1.1500 C.3   1 <1>   0.2900 
  7 C        2.6100     2.0010     0.9110 C.3   1 <1>   0.0210 
  8 N       -0.2740    -2.8910    -0.3000 N.3   1 <1>  -0.8100 
  9 C        4.0420     2.1660     0.3930 C.3   1 <1>  -0.2400 
 10 C       -0.4470    -4.3210    -0.5960 C.3   1 <1>   0.1100 
 11 C       -1.5460    -2.1480    -0.3970 C.3   1 <1>   0.1100 
 12 C       -1.4630    -4.9620     0.3820 C.3   1 <1>   0.4230 
 13 C       -2.5640    -2.7310     0.5880 C.3   1 <1>  -0.1600 
 14 N       -1.5590    -6.4790     0.2690 N.4   1 <1>  -0.9590 
 15 C       -2.8400    -4.2410     0.3620 C.3   1 <1>   0.0000 
 16 C       -2.7910    -7.0600     0.8970 C.3   1 <1>   0.3430 
 17 C       -1.3870    -7.0330    -1.1140 C.3   1 <1>   0.2630 
 18 C       -3.7180    -4.7750     1.5320 C.3   1 <1>  -0.1600 
 19 C       -3.5510    -4.4660    -1.0030 C.3   1 <1>   0.1200 
 20 C       -3.3010    -6.1730     2.0310 C.3   1 <1>  -0.1600 
 21 O       -4.6840    -3.6800    -1.1310 O.3   1 <1>  -0.6800 
 22 H        2.6880    -0.9250     0.8230 H     1 <1>   0.1500 
 23 H        1.6720    -2.8820    -1.0740 H     1 <1>   0.0800 
 24 H        0.4690    -2.2770    -2.1820 H     1 <1>   0.0800 
 25 H        2.0980     2.9470     0.8580 H     1 <1>   0.0800 
 26 H        2.6250     1.6900     1.9400 H     1 <1>   0.0800 
 27 H        4.0260     2.4810    -0.6360 H     1 <1>   0.0800 
 28 H        4.5750     1.2350     0.4620 H     1 <1>   0.0800 
 29 H        4.5620     2.9070     0.9730 H     1 <1>   0.0800 
 30 H       -0.7690    -4.4320    -1.6160 H     1 <1>   0.0800 
 31 H        0.5040    -4.8100    -0.4740 H     1 <1>   0.0800 
 32 H       -1.3890    -1.1140    -0.1350 H     1 <1>   0.0800 
 33 H       -1.9290    -2.1780    -1.4040 H     1 <1>   0.0800 
 34 H       -1.0620    -4.7590     1.3620 H     1 <1>   0.0800 
 35 H       -2.1740    -2.5700     1.5790 H     1 <1>   0.0800 
 36 H       -3.4750    -2.1630     0.5200 H     1 <1>   0.0800 
 37 H       -0.7680    -6.8260     0.8300 H     1 <1>   0.4500 
 38 H       -3.5710    -7.1470     0.1580 H     1 <1>   0.0800 
 39 H       -2.5790    -8.0480     1.2730 H     1 <1>   0.0800 
 40 H       -2.1640    -6.6700    -1.7660 H     1 <1>   0.0800 
 41 H       -1.4320    -8.1100    -1.0930 H     1 <1>   0.0800 
 42 H       -0.4310    -6.7440    -1.5220 H     1 <1>   0.0800 
 43 H       -3.6720    -4.1060     2.3760 H     1 <1>   0.0800 
 44 H       -4.7520    -4.8060     1.2350 H     1 <1>   0.0800 
 45 H       -3.8600    -5.4890    -1.1210 H     1 <1>   0.0800 
 46 H       -2.9100    -4.2080    -1.8270 H     1 <1>   0.0800 
 47 H       -4.1480    -6.6460     2.4990 H     1 <1>   0.0800 
 48 H       -2.5350    -6.0850     2.7830 H     1 <1>   0.0800 
 49 H       -5.3190    -3.8240    -0.4030 H     1 <1>   0.4000 
@<TRIPOS>BOND
  1   1   2  1   
  2   1   3  1   
  3   2   4  2   
  4   3   5  2   
  5   3   6  1   
  6   4   5  1   
  7   4   7  1   
  8   5  22  1   
  9   6   8  1   
 10   6  23  1   
 11   6  24  1   
 12   7   9  1   
 13   7  25  1   
 14   7  26  1   
 15   8  10  1   
 16   8  11  1   
 17   9  27  1   
 18   9  28  1   
 19   9  29  1   
 20  10  12  1   
 21  10  30  1   
 22  10  31  1   
 23  11  13  1   
 24  11  32  1   
 25  11  33  1   
 26  12  14  1   
 27  12  15  1   
 28  12  34  1   
 29  13  15  1   
 30  13  35  1   
 31  13  36  1   
 32  14  16  1   
 33  14  17  1   
 34  14  37  1   
 35  15  18  1   
 36  15  19  1   
 37  16  20  1   
 38  16  38  1   
 39  16  39  1   
 40  17  40  1   
 41  17  41  1   
 42  17  42  1   
 43  18  20  1   
 44  18  43  1   
 45  18  44  1   
 46  19  21  1   
 47  19  45  1   
 48  19  46  1   
 49  20  47  1   
 50  20  48  1   
 51  21  49  1   
@<TRIPOS>SUBSTRUCTURE
  1 ****   8 GROUP 4 **** **** 0

# MOE 2024.06 (io_trps.svl 2023.06)
