@<TRIPOS>MOLECULE
NONAME
26 25 1 0 0 
SMALL
USER_CHARGES


@<TRIPOS>ATOM
  1 S       -0.1010     0.0710     0.0190 S.3   1 <1>  -0.4100 
  2 C        1.6980     0.2370    -0.0860 C.3   1 <1>   0.0700 
  3 C        2.3080    -1.1630     0.0130 C.3   1 <1>  -0.1600 
  4 C        3.8420    -1.1190    -0.0850 C.3   1 <1>  -0.2400 
  5 SI       4.6490    -2.7380     0.0480 Si    1 <1>   0.5610 
  6 C        6.4760    -2.8050    -0.0990 C.3   1 <1>   0.4000 
  7 O        7.0080    -4.0350     0.2970 O.3   1 <1>  -0.5600 
  8 O        7.1400    -1.8630     0.7000 O.3   1 <1>  -0.5600 
  9 C        8.3550    -4.2390    -0.0030 C.3   1 <1>   0.0400 
 10 C        7.4890    -0.6800     0.0550 C.3   1 <1>   0.0400 
 11 H        4.0610    -3.5740    -0.9510 H     1 <1>  -0.2000 
 12 H        4.1960    -3.3310     1.2670 H     1 <1>  -0.2000 
 13 H       -0.5240     1.3670    -0.0670 H     1 <1>   0.1800 
 14 H        2.0110     0.8670     0.7280 H     1 <1>   0.0800 
 15 H        1.9210     0.7040    -1.0290 H     1 <1>   0.0800 
 16 H        1.9120    -1.7760    -0.7800 H     1 <1>   0.0800 
 17 H        2.0190    -1.6050     0.9520 H     1 <1>   0.0800 
 18 H        4.1960    -0.4650     0.6920 H     1 <1>   0.0800 
 19 H        4.0920    -0.6460    -1.0170 H     1 <1>   0.0800 
 20 H        6.8010    -2.6530    -1.1130 H     1 <1>   0.0800 
 21 H        8.6140    -5.2390     0.2970 H     1 <1>   0.0800 
 22 H        8.9540    -3.5340     0.5470 H     1 <1>   0.0800 
 23 H        8.5080    -4.1250    -1.0610 H     1 <1>   0.0800 
 24 H        7.9730    -0.0410     0.7730 H     1 <1>   0.0800 
 25 H        6.6040    -0.1970    -0.3200 H     1 <1>   0.0800 
 26 H        8.1720    -0.9020    -0.7470 H     1 <1>   0.0800 
@<TRIPOS>BOND
  1   1   2  1   
  2   1  13  1   
  3   2   3  1   
  4   2  14  1   
  5   2  15  1   
  6   3   4  1   
  7   3  16  1   
  8   3  17  1   
  9   4   5  1   
 10   4  18  1   
 11   4  19  1   
 12   5   6  1   
 13   5  11  1   
 14   5  12  1   
 15   6   7  1   
 16   6   8  1   
 17   6  20  1   
 18   7   9  1   
 19   8  10  1   
 20   9  21  1   
 21   9  22  1   
 22   9  23  1   
 23  10  24  1   
 24  10  25  1   
 25  10  26  1   
@<TRIPOS>SUBSTRUCTURE
  1 ****   5 GROUP 4 **** **** 0

# MOE 2024.06 (io_trps.svl 2023.06)
