@<TRIPOS>MOLECULE
NONAME
53 56 1 0 0 
SMALL
USER_CHARGES


@<TRIPOS>ATOM
  1 O       -0.2560     0.2880     0.6880 O.3   1 <1>  -0.5600 
  2 C        0.1910     1.1000    -0.3430 C.3   1 <1>   0.1200 
  3 C       -1.6520     0.3450     0.7440 C.3   1 <1>   0.1200 
  4 C       -0.7060     2.3280    -0.2220 C.3   1 <1>   0.4230 
  5 C       -2.0510     1.6580     0.0430 C.3   1 <1>  -0.0800 
  6 N       -0.3210     3.0940     1.0000 N.4   1 <1>  -0.9060 
  7 C       -2.8330     1.4000    -1.2630 C.3   1 <1>  -0.0170 
  8 C        0.4890     4.3240     0.8200 C.3   1 <1>   0.4230 
  9 C       -4.1990     0.7910    -0.9630 C.ar  1 <1>  -0.1440 
 10 C       -0.3570     5.3760     0.0860 C.3   1 <1>  -0.1600 
 11 C        1.8370     3.9930     0.1640 C.3   1 <1>  -0.1600 
 12 C       -5.2800     1.5590    -0.4670 C.ar  1 <1>   0.0000 
 13 C       -4.4110    -0.5420    -1.1620 C.ar  1 <1>  -0.1500 
 14 C        0.3430     6.7270    -0.1280 C.3   1 <1>  -0.1600 
 15 C        2.8600     5.1230     0.3550 C.3   1 <1>  -0.1600 
 16 C       -6.4850     0.8770    -0.1660 C.ar  1 <1>   0.3100 
 17 C       -5.2440     2.9580    -0.2570 C.ar  1 <1>  -0.1500 
 18 C       -5.6500    -1.1140    -0.8490 C.ar  1 <1>   0.1600 
 19 C        1.4290     6.6600    -1.2110 C.3   1 <1>  -0.1600 
 20 C        2.8160     6.2230    -0.7150 C.3   1 <1>  -0.1600 
 21 N       -6.6510    -0.4540    -0.3630 N.ar  1 <1>  -0.6200 
 22 C       -7.5660     1.6040     0.3580 C.ar  1 <1>  -0.1500 
 23 C       -6.3190     3.6380     0.2500 C.ar  1 <1>  -0.1500 
 24 C       -7.4940     2.9540     0.5670 C.ar  1 <1>  -0.1500 
 25 H        1.2390     1.3030    -0.2160 H     1 <1>   0.0800 
 26 H        0.0350     0.5830    -1.2750 H     1 <1>   0.0800 
 27 H       -2.0440    -0.5280     0.2500 H     1 <1>   0.0800 
 28 H       -1.9510     0.3300     1.7790 H     1 <1>   0.0800 
 29 H       -0.7070     2.9430    -1.1060 H     1 <1>   0.0800 
 30 H       -2.6680     2.2510     0.6940 H     1 <1>   0.0800 
 31 H       -1.1680     3.3390     1.5190 H     1 <1>   0.4500 
 32 H        0.1840     2.4220     1.5970 H     1 <1>   0.4500 
 33 H       -2.2800     0.7330    -1.9010 H     1 <1>   0.0800 
 34 H       -2.9680     2.3150    -1.8140 H     1 <1>   0.0800 
 35 H        0.7080     4.7200     1.8000 H     1 <1>   0.0800 
 36 H       -0.6730     5.0100    -0.8730 H     1 <1>   0.0800 
 37 H       -1.2390     5.5650     0.6720 H     1 <1>   0.0800 
 38 H        2.2480     3.1280     0.6530 H     1 <1>   0.0800 
 39 H        1.7270     3.7730    -0.8840 H     1 <1>   0.0800 
 40 H       -3.6490    -1.1910    -1.5530 H     1 <1>   0.1500 
 41 H       -0.4010     7.4320    -0.4600 H     1 <1>   0.0800 
 42 H        0.7490     7.1110     0.7930 H     1 <1>   0.0800 
 43 H        2.7350     5.5670     1.3290 H     1 <1>   0.0800 
 44 H        3.8510     4.7000     0.3400 H     1 <1>   0.0800 
 45 H       -4.3610     3.5110    -0.5060 H     1 <1>   0.1500 
 46 H       -5.7770    -2.1700    -1.0200 H     1 <1>   0.1500 
 47 H        1.1110     6.0110    -2.0090 H     1 <1>   0.0800 
 48 H        1.5380     7.6400    -1.6460 H     1 <1>   0.0800 
 49 H        3.3260     7.0860    -0.3190 H     1 <1>   0.0800 
 50 H        3.3850     5.9000    -1.5700 H     1 <1>   0.0800 
 51 H       -8.4630     1.0570     0.5880 H     1 <1>   0.1500 
 52 H       -6.2820     4.7030     0.4070 H     1 <1>   0.1500 
 53 H       -8.3330     3.4970     0.9680 H     1 <1>   0.1500 
@<TRIPOS>BOND
  1   1   2  1   
  2   1   3  1   
  3   2   4  1   
  4   2  25  1   
  5   2  26  1   
  6   3   5  1   
  7   3  27  1   
  8   3  28  1   
  9   4   5  1   
 10   4   6  1   
 11   4  29  1   
 12   5   7  1   
 13   5  30  1   
 14   6   8  1   
 15   6  31  1   
 16   6  32  1   
 17   7   9  1   
 18   7  33  1   
 19   7  34  1   
 20   8  10  1   
 21   8  11  1   
 22   8  35  1   
 23   9  12  ar  
 24   9  13  ar  
 25  10  14  1   
 26  10  36  1   
 27  10  37  1   
 28  11  15  1   
 29  11  38  1   
 30  11  39  1   
 31  12  16  ar  
 32  12  17  ar  
 33  13  18  ar  
 34  13  40  1   
 35  14  19  1   
 36  14  41  1   
 37  14  42  1   
 38  15  20  1   
 39  15  43  1   
 40  15  44  1   
 41  16  21  ar  
 42  16  22  ar  
 43  17  23  ar  
 44  17  45  1   
 45  18  21  ar  
 46  18  46  1   
 47  19  20  1   
 48  19  47  1   
 49  19  48  1   
 50  20  49  1   
 51  20  50  1   
 52  22  24  ar  
 53  22  51  1   
 54  23  24  ar  
 55  23  52  1   
 56  24  53  1   
@<TRIPOS>SUBSTRUCTURE
  1 ****   5 GROUP 4 **** **** 0

# MOE 2024.06 (io_trps.svl 2023.06)
