@<TRIPOS>MOLECULE
NONAME
45 48 1 0 0 
SMALL
USER_CHARGES


@<TRIPOS>ATOM
  1 N        0.8790     0.5130     1.1550 N.ar  1 <1>  -0.6200 
  2 C        0.0450     1.4490     1.5940 C.ar  1 <1>   0.4760 
  3 C        1.4160     0.7830    -0.0120 C.ar  1 <1>   0.1660 
  4 N       -0.2790     2.5920     1.0050 N.ar  1 <1>  -0.6200 
  5 C       -0.6150     1.1900     2.9270 C.3   1 <1>  -0.0960 
  6 C        1.1650     1.9230    -0.7110 C.ar  1 <1>  -0.1430 
  7 C        2.3920    -0.1170    -0.7300 C.3   1 <1>   0.1430 
  8 C        0.2910     2.8260    -0.1600 C.ar  1 <1>   0.1600 
  9 C        1.9360     1.9630    -2.0070 C.3   1 <1>  -0.0160 
 10 C        3.4660    -0.5620     0.2770 C.3   1 <1>   0.3430 
 11 C        1.6570    -1.3430    -1.3110 C.3   1 <1>  -0.1600 
 12 C        2.9510     0.8130    -1.8410 C.3   1 <1>  -0.1600 
 13 N        4.4050    -1.5830    -0.3080 N.4   1 <1>  -0.9590 
 14 C        2.6360    -2.4180    -1.8170 C.3   1 <1>  -0.1600 
 15 C        3.6700    -2.8000    -0.7540 C.3   1 <1>   0.3430 
 16 C        5.4960    -1.9150     0.6470 C.3   1 <1>   0.4860 
 17 C        6.3800    -0.6930     0.7970 C.ar  1 <1>  -0.1430 
 18 C        6.2940     0.1410     1.8970 C.ar  1 <1>  -0.1500 
 19 C        7.3150    -0.3480    -0.1620 C.ar  1 <1>  -0.1500 
 20 C        7.1110     1.2570     1.9730 C.ar  1 <1>   0.1600 
 21 C        8.0840     0.7900     0.0120 C.ar  1 <1>   0.1600 
 22 N        7.9940     1.6000     1.0520 N.ar  1 <1>  -0.6200 
 23 H       -0.5680     0.1460     3.1750 H     1 <1>   0.0800 
 24 H       -1.6460     1.4900     2.8860 H     1 <1>   0.0800 
 25 H       -0.1140     1.7580     3.6870 H     1 <1>   0.0800 
 26 H        0.0530     3.7450    -0.6700 H     1 <1>   0.1500 
 27 H        2.4260     2.9110    -2.1500 H     1 <1>   0.0800 
 28 H        1.2680     1.7710    -2.8300 H     1 <1>   0.0800 
 29 H        2.9690    -0.9790     1.1370 H     1 <1>   0.0800 
 30 H        4.0120     0.3080     0.6030 H     1 <1>   0.0800 
 31 H        0.9970    -1.0380    -2.1060 H     1 <1>   0.0800 
 32 H        1.0410    -1.7750    -0.5390 H     1 <1>   0.0800 
 33 H        3.1120     0.3060    -2.7760 H     1 <1>   0.0800 
 34 H        3.8840     1.2430    -1.5200 H     1 <1>   0.0800 
 35 H        4.8500    -1.1510    -1.1260 H     1 <1>   0.4500 
 36 H        3.1420    -2.0790    -2.7040 H     1 <1>   0.0800 
 37 H        2.0780    -3.2980    -2.0900 H     1 <1>   0.0800 
 38 H        3.1670    -3.2520     0.0870 H     1 <1>   0.0800 
 39 H        4.3580    -3.5220    -1.1660 H     1 <1>   0.0800 
 40 H        6.0860    -2.7340     0.2680 H     1 <1>   0.0800 
 41 H        5.0860    -2.2000     1.6020 H     1 <1>   0.0800 
 42 H        5.6070    -0.0540     2.7020 H     1 <1>   0.1500 
 43 H        7.4670    -0.9450    -1.0440 H     1 <1>   0.1500 
 44 H        7.0360     1.9020     2.8340 H     1 <1>   0.1500 
 45 H        8.8110     1.0500    -0.7400 H     1 <1>   0.1500 
@<TRIPOS>BOND
  1   1   2  ar  
  2   1   3  ar  
  3   2   4  ar  
  4   2   5  1   
  5   3   6  ar  
  6   3   7  1   
  7   4   8  ar  
  8   5  23  1   
  9   5  24  1   
 10   5  25  1   
 11   6   8  ar  
 12   6   9  1   
 13   7  10  1   
 14   7  11  1   
 15   7  12  1   
 16   8  26  1   
 17   9  12  1   
 18   9  27  1   
 19   9  28  1   
 20  10  13  1   
 21  10  29  1   
 22  10  30  1   
 23  11  14  1   
 24  11  31  1   
 25  11  32  1   
 26  12  33  1   
 27  12  34  1   
 28  13  15  1   
 29  13  16  1   
 30  13  35  1   
 31  14  15  1   
 32  14  36  1   
 33  14  37  1   
 34  15  38  1   
 35  15  39  1   
 36  16  17  1   
 37  16  40  1   
 38  16  41  1   
 39  17  18  ar  
 40  17  19  ar  
 41  18  20  ar  
 42  18  42  1   
 43  19  21  ar  
 44  19  43  1   
 45  20  22  ar  
 46  20  44  1   
 47  21  22  ar  
 48  21  45  1   
@<TRIPOS>SUBSTRUCTURE
  1 ****  10 GROUP 4 **** **** 0

# MOE 2024.06 (io_trps.svl 2023.06)
