@<TRIPOS>MOLECULE
NONAME
46 48 1 0 0 
SMALL
USER_CHARGES


@<TRIPOS>ATOM
  1 S       -0.8580     0.8690     0.4320 S.3   1 <1>  -0.0800 
  2 C       -0.6340    -0.7200    -0.2500 C.2   1 <1>  -0.1400 
  3 C        0.3690     0.5000     1.6200 C.2   1 <1>   0.2280 
  4 C        0.3160    -1.3610     0.4510 C.2   1 <1>   0.0460 
  5 C       -1.4930    -1.0930    -1.4360 C.3   1 <1>   0.5230 
  6 N        0.8690    -0.6650     1.5080 N.2   1 <1>  -0.5650 
  7 C        0.8570    -2.7590     0.2290 C.3   1 <1>  -0.0590 
  8 N       -2.9140    -1.0700    -1.0130 N.4   1 <1>  -0.9590 
  9 C       -3.2230    -2.0180     0.0980 C.3   1 <1>   0.3430 
 10 C       -3.8900    -1.1710    -2.1220 C.3   1 <1>   0.3430 
 11 C       -4.7190    -2.0000     0.4330 C.3   1 <1>  -0.1600 
 12 C       -5.2620    -0.6900    -1.6370 C.3   1 <1>  -0.1600 
 13 C       -5.4530    -0.7570    -0.1020 C.3   1 <1>   0.2800 
 14 O       -4.7590     0.3640     0.4170 O.3   1 <1>  -0.5600 
 15 C       -6.9480    -0.7770     0.3370 C.3   1 <1>   0.2000 
 16 C       -5.4590     1.3080     1.1840 C.3   1 <1>   0.1200 
 17 O       -7.6470    -1.8170    -0.2830 O.3   1 <1>  -0.6800 
 18 C       -7.6680     0.5940     0.1700 C.3   1 <1>   0.2800 
 19 C       -6.6970     1.7640     0.4100 C.3   1 <1>  -0.1600 
 20 O       -8.6310     0.6480     1.1570 O.3   1 <1>  -0.6800 
 21 C       -8.4300     0.7880    -1.1490 C.3   1 <1>  -0.2400 
 22 H        0.6070     1.2620     2.3420 H     1 <1>   0.1500 
 23 H       -1.2260    -2.0750    -1.7910 H     1 <1>   0.0800 
 24 H       -1.3300    -0.3820    -2.2280 H     1 <1>   0.0800 
 25 H        0.3860    -3.2360    -0.6090 H     1 <1>   0.0800 
 26 H        0.6920    -3.3530     1.1100 H     1 <1>   0.0800 
 27 H        1.9160    -2.7080     0.0490 H     1 <1>   0.0800 
 28 H       -3.0920    -0.1420    -0.5820 H     1 <1>   0.4500 
 29 H       -2.9240    -3.0190    -0.1660 H     1 <1>   0.0800 
 30 H       -2.6670    -1.7210     0.9740 H     1 <1>   0.0800 
 31 H       -3.5770    -0.5690    -2.9600 H     1 <1>   0.0800 
 32 H       -3.9610    -2.1970    -2.4450 H     1 <1>   0.0800 
 33 H       -4.8410    -2.0700     1.4990 H     1 <1>   0.0800 
 34 H       -5.1730    -2.8800     0.0140 H     1 <1>   0.0800 
 35 H       -5.9980    -1.3010    -2.1280 H     1 <1>   0.0800 
 36 H       -5.4240     0.3170    -1.9740 H     1 <1>   0.0800 
 37 H       -6.9520    -1.0120     1.3880 H     1 <1>   0.0800 
 38 H       -5.7250     0.8660     2.1300 H     1 <1>   0.0800 
 39 H       -4.7990     2.1390     1.3650 H     1 <1>   0.0800 
 40 H       -8.5720    -1.8020     0.0440 H     1 <1>   0.4000 
 41 H       -6.3590     2.1660    -0.5280 H     1 <1>   0.0800 
 42 H       -7.1850     2.5630     0.9390 H     1 <1>   0.0800 
 43 H       -9.1850     1.4420     1.0380 H     1 <1>   0.4000 
 44 H       -7.7650     0.6920    -1.9860 H     1 <1>   0.0800 
 45 H       -8.8750     1.7660    -1.1910 H     1 <1>   0.0800 
 46 H       -9.2050     0.0500    -1.2570 H     1 <1>   0.0800 
@<TRIPOS>BOND
  1   1   2  1   
  2   1   3  1   
  3   2   4  2   
  4   2   5  1   
  5   3   6  2   
  6   3  22  1   
  7   4   6  1   
  8   4   7  1   
  9   5   8  1   
 10   5  23  1   
 11   5  24  1   
 12   7  25  1   
 13   7  26  1   
 14   7  27  1   
 15   8   9  1   
 16   8  10  1   
 17   8  28  1   
 18   9  11  1   
 19   9  29  1   
 20   9  30  1   
 21  10  12  1   
 22  10  31  1   
 23  10  32  1   
 24  11  13  1   
 25  11  33  1   
 26  11  34  1   
 27  12  13  1   
 28  12  35  1   
 29  12  36  1   
 30  13  14  1   
 31  13  15  1   
 32  14  16  1   
 33  15  17  1   
 34  15  18  1   
 35  15  37  1   
 36  16  19  1   
 37  16  38  1   
 38  16  39  1   
 39  17  40  1   
 40  18  19  1   
 41  18  20  1   
 42  18  21  1   
 43  19  41  1   
 44  19  42  1   
 45  20  43  1   
 46  21  44  1   
 47  21  45  1   
 48  21  46  1   
@<TRIPOS>SUBSTRUCTURE
  1 ****  14 GROUP 4 **** **** 0

# MOE 2024.06 (io_trps.svl 2023.06)
