@<TRIPOS>MOLECULE
NONAME
46 47 1 0 0 
SMALL
USER_CHARGES


@<TRIPOS>ATOM
  1 O       -0.4580    -0.1980    -1.8990 O.2   1 <1>  -0.5700 
  2 C       -1.2260     0.4330    -1.2080 C.2   1 <1>   0.5690 
  3 N       -2.2030    -0.1970    -0.4690 N.am  1 <1>  -0.6600 
  4 C       -1.0780     1.9530    -1.2180 C.3   1 <1>   0.1810 
  5 C       -2.2870    -1.6860    -0.4870 C.3   1 <1>   0.3200 
  6 C       -3.0930     0.5260     0.4940 C.3   1 <1>   0.1400 
  7 O       -0.6070     2.4340     0.0300 O.3   1 <1>  -0.3630 
  8 C       -3.7330    -2.1470    -0.4920 C.2   1 <1>  -0.3320 
  9 C       -4.3370     1.0890    -0.2070 C.3   1 <1>   0.1200 
 10 C       -0.6390     3.7720     0.1970 C.ar  1 <1>   0.0830 
 11 N       -4.3790    -2.7190     0.5450 N.pl3 1 <1>   0.0480 
 12 C       -4.6210    -2.0810    -1.5090 C.2   1 <1>   0.0770 
 13 O       -4.9440     2.0250     0.6200 O.3   1 <1>  -0.6800 
 14 C        0.5410     4.5140     0.1770 C.ar  1 <1>  -0.1430 
 15 C       -1.8650     4.3900     0.3950 C.ar  1 <1>  -0.1500 
 16 C       -5.6290    -2.9470     0.0830 C.2   1 <1>   0.0360 
 17 C       -3.8530    -3.0720     1.8770 C.3   1 <1>   0.0160 
 18 N       -5.8170    -2.5740    -1.1410 N.2   1 <1>  -0.5650 
 19 C        0.4700     5.8960     0.3320 C.ar  1 <1>  -0.1430 
 20 C        1.8890     3.8200    -0.0170 C.3   1 <1>  -0.0970 
 21 C       -1.9260     5.7590     0.5540 C.ar  1 <1>  -0.1500 
 22 C       -0.7620     6.5060     0.5200 C.ar  1 <1>  -0.1500 
 23 C        1.7160     6.7710     0.3020 C.3   1 <1>  -0.0970 
 24 H       -2.0210     2.4130    -1.4390 H     1 <1>   0.0800 
 25 H       -0.3640     2.2410    -1.9680 H     1 <1>   0.0800 
 26 H       -1.7620    -2.0790     0.3650 H     1 <1>   0.0800 
 27 H       -1.8090    -2.0740    -1.3700 H     1 <1>   0.0800 
 28 H       -2.5500     1.3330     0.9510 H     1 <1>   0.0800 
 29 H       -3.3970    -0.1390     1.2810 H     1 <1>   0.0800 
 30 H       -5.0520     0.3160    -0.4260 H     1 <1>   0.0800 
 31 H       -4.0650     1.5930    -1.1160 H     1 <1>   0.0800 
 32 H       -4.4580    -1.6920    -2.5010 H     1 <1>   0.1500 
 33 H       -5.4780     1.5830     1.3080 H     1 <1>   0.4000 
 34 H       -2.7660     3.8050     0.4280 H     1 <1>   0.1500 
 35 H       -6.3890    -3.4050     0.6920 H     1 <1>   0.1500 
 36 H       -3.3910    -2.2110     2.3230 H     1 <1>   0.0800 
 37 H       -3.1270    -3.8580     1.7720 H     1 <1>   0.0800 
 38 H       -4.6570    -3.4110     2.5040 H     1 <1>   0.0800 
 39 H        1.8190     2.7600     0.1440 H     1 <1>   0.0800 
 40 H        2.6120     4.2010     0.6790 H     1 <1>   0.0800 
 41 H        2.2420     3.9880    -1.0180 H     1 <1>   0.0800 
 42 H       -2.8750     6.2430     0.7070 H     1 <1>   0.1500 
 43 H       -0.8250     7.5730     0.6440 H     1 <1>   0.1500 
 44 H        2.2960     6.5610    -0.5780 H     1 <1>   0.0800 
 45 H        2.3150     6.5830     1.1740 H     1 <1>   0.0800 
 46 H        1.4550     7.8140     0.2890 H     1 <1>   0.0800 
@<TRIPOS>BOND
  1   1   2  2   
  2   2   3  am  
  3   2   4  1   
  4   3   5  1   
  5   3   6  1   
  6   4   7  1   
  7   4  24  1   
  8   4  25  1   
  9   5   8  1   
 10   5  26  1   
 11   5  27  1   
 12   6   9  1   
 13   6  28  1   
 14   6  29  1   
 15   7  10  1   
 16   8  11  1   
 17   8  12  2   
 18   9  13  1   
 19   9  30  1   
 20   9  31  1   
 21  10  14  ar  
 22  10  15  ar  
 23  11  16  1   
 24  11  17  1   
 25  12  18  1   
 26  12  32  1   
 27  13  33  1   
 28  14  19  ar  
 29  14  20  1   
 30  15  21  ar  
 31  15  34  1   
 32  16  18  2   
 33  16  35  1   
 34  17  36  1   
 35  17  37  1   
 36  17  38  1   
 37  19  22  ar  
 38  19  23  1   
 39  20  39  1   
 40  20  40  1   
 41  20  41  1   
 42  21  22  ar  
 43  21  42  1   
 44  22  43  1   
 45  23  44  1   
 46  23  45  1   
 47  23  46  1   
@<TRIPOS>SUBSTRUCTURE
  1 ****   6 GROUP 4 **** **** 0

# MOE 2024.06 (io_trps.svl 2023.06)
