@<TRIPOS>MOLECULE
NONAME
53 55 1 0 0 
SMALL
USER_CHARGES


@<TRIPOS>ATOM
  1 CL      -0.4580     0.6170     0.8720 Cl    1 <1>  -0.1230 
  2 C        0.6550     1.9700     0.7800 C.2   1 <1>   0.1230 
  3 C        0.3480     3.2950     1.0450 C.2   1 <1>   0.1390 
  4 C        1.9580     1.9390     0.4450 C.2   1 <1>  -0.3020 
  5 N        1.3930     4.0580     0.8860 N.2   1 <1>  -0.7070 
  6 N        2.3850     3.2170     0.5170 N.pl3 1 <1>   0.3140 
  7 C        3.7460     3.7120     0.2520 C.3   1 <1>   0.0960 
  8 C        3.6590     5.1920    -0.1540 C.3   1 <1>   0.3430 
  9 N        4.9980     5.8530    -0.3870 N.4   1 <1>  -0.9590 
 10 C        5.7570     5.9990     0.8960 C.3   1 <1>   0.3430 
 11 C        4.7640     7.1660    -1.0630 C.3   1 <1>   0.3430 
 12 C        7.0940     6.6970     0.6450 C.3   1 <1>  -0.1600 
 13 C        6.0930     7.8770    -1.3310 C.3   1 <1>  -0.1600 
 14 C        6.8770     8.0540    -0.0270 C.3   1 <1>   0.4230 
 15 N        8.1790     8.7440    -0.2410 N.4   1 <1>  -0.9590 
 16 C        8.0680    10.2220    -0.5050 C.3   1 <1>   0.3430 
 17 C        9.1660     8.1370    -1.2070 C.3   1 <1>   0.3430 
 18 C        9.4530    10.9030    -0.3700 C.3   1 <1>   0.1100 
 19 C       10.5340     8.8580    -1.1150 C.3   1 <1>   0.1100 
 20 N       10.5340     9.9230    -0.0810 N.3   1 <1>  -0.8100 
 21 C       11.8640    10.5710    -0.0130 C.3   1 <1>   0.1100 
 22 C       12.0330    11.4130     1.2580 C.3   1 <1>   0.1200 
 23 O       13.3060    11.9590     1.2730 O.3   1 <1>  -0.6800 
 24 H       -0.6260     3.6450     1.3430 H     1 <1>   0.1500 
 25 H        2.5710     1.0990     0.1740 H     1 <1>   0.1500 
 26 H        4.1730     3.1240    -0.5390 H     1 <1>   0.0800 
 27 H        4.3160     3.5900     1.1530 H     1 <1>   0.0800 
 28 H        3.1270     5.7290     0.6170 H     1 <1>   0.0800 
 29 H        3.0670     5.2510    -1.0550 H     1 <1>   0.0800 
 30 H        5.5330     5.2520    -1.0320 H     1 <1>   0.4500 
 31 H        5.9380     5.0290     1.3330 H     1 <1>   0.0800 
 32 H        5.1730     6.5740     1.5990 H     1 <1>   0.0800 
 33 H        4.1390     7.7880    -0.4410 H     1 <1>   0.0800 
 34 H        4.2460     7.0100    -1.9980 H     1 <1>   0.0800 
 35 H        7.7110     6.0560     0.0410 H     1 <1>   0.0800 
 36 H        7.5840     6.8400     1.5930 H     1 <1>   0.0800 
 37 H        5.8780     8.8380    -1.7610 H     1 <1>   0.0800 
 38 H        6.6530     7.3040    -2.0470 H     1 <1>   0.0800 
 39 H        6.2840     8.6600     0.6420 H     1 <1>   0.0800 
 40 H        8.7230     8.7410     0.6410 H     1 <1>   0.4500 
 41 H        7.3920    10.6770     0.2000 H     1 <1>   0.0800 
 42 H        7.6820    10.3970    -1.4950 H     1 <1>   0.0800 
 43 H        8.7960     8.2100    -2.2160 H     1 <1>   0.0800 
 44 H        9.3150     7.0940    -0.9830 H     1 <1>   0.0800 
 45 H        9.3990    11.6280     0.4230 H     1 <1>   0.0800 
 46 H        9.6740    11.4390    -1.2790 H     1 <1>   0.0800 
 47 H       10.7800     9.2780    -2.0760 H     1 <1>   0.0800 
 48 H       11.2930     8.1300    -0.8800 H     1 <1>   0.0800 
 49 H       12.0160    11.1960    -0.8790 H     1 <1>   0.0800 
 50 H       12.6260     9.8100    -0.0060 H     1 <1>   0.0800 
 51 H       11.9110    10.8110     2.1420 H     1 <1>   0.0800 
 52 H       11.3370    12.2330     1.2750 H     1 <1>   0.0800 
 53 H       13.9810    11.2780     1.4650 H     1 <1>   0.4000 
@<TRIPOS>BOND
  1   1   2  1   
  2   2   3  1   
  3   2   4  2   
  4   3   5  2   
  5   3  24  1   
  6   4   6  1   
  7   4  25  1   
  8   5   6  1   
  9   6   7  1   
 10   7   8  1   
 11   7  26  1   
 12   7  27  1   
 13   8   9  1   
 14   8  28  1   
 15   8  29  1   
 16   9  10  1   
 17   9  11  1   
 18   9  30  1   
 19  10  12  1   
 20  10  31  1   
 21  10  32  1   
 22  11  13  1   
 23  11  33  1   
 24  11  34  1   
 25  12  14  1   
 26  12  35  1   
 27  12  36  1   
 28  13  14  1   
 29  13  37  1   
 30  13  38  1   
 31  14  15  1   
 32  14  39  1   
 33  15  16  1   
 34  15  17  1   
 35  15  40  1   
 36  16  18  1   
 37  16  41  1   
 38  16  42  1   
 39  17  19  1   
 40  17  43  1   
 41  17  44  1   
 42  18  20  1   
 43  18  45  1   
 44  18  46  1   
 45  19  20  1   
 46  19  47  1   
 47  19  48  1   
 48  20  21  1   
 49  21  22  1   
 50  21  49  1   
 51  21  50  1   
 52  22  23  1   
 53  22  51  1   
 54  22  52  1   
 55  23  53  1   
@<TRIPOS>SUBSTRUCTURE
  1 ****  12 GROUP 4 **** **** 0

# MOE 2024.06 (io_trps.svl 2023.06)
