@<TRIPOS>MOLECULE
NONAME
21 22 1 0 0 
SMALL
USER_CHARGES


@<TRIPOS>ATOM
  1 S        7.9290    -0.2060    -0.0890 S.o2  1 <1>   1.0900 
  2 O        9.2720    -0.0550    -0.6010 O.2   1 <1>  -0.6500 
  3 O        7.6820    -1.1970     0.9350 O.2   1 <1>  -0.6500 
  4 C        7.3960     1.3880     0.5200 C.3   1 <1>  -0.0550 
  5 C        6.8520    -0.5390    -1.4760 C.3   1 <1>  -0.0550 
  6 C        5.8930     1.6110     0.3590 C.3   1 <1>   0.1900 
  7 C        5.4450     0.0270    -1.2830 C.3   1 <1>   0.1900 
  8 N        5.5460     1.4520    -1.0400 N.3   1 <1>  -0.9000 
  9 C        5.0380     0.5510     1.0540 C.3   1 <1>  -0.1600 
 10 C        4.7430    -0.4940    -0.0290 C.3   1 <1>  -0.1600 
 11 H        7.9070     2.1660    -0.0130 H     1 <1>   0.0800 
 12 H        7.6630     1.4830     1.5550 H     1 <1>   0.0800 
 13 H        6.7920    -1.5980    -1.6370 H     1 <1>   0.0800 
 14 H        7.2660    -0.1050    -2.3650 H     1 <1>   0.0800 
 15 H        5.6290     2.6000     0.6980 H     1 <1>   0.0800 
 16 H        4.8490    -0.1610    -2.1620 H     1 <1>   0.0800 
 17 H        6.2170     1.9130    -1.6680 H     1 <1>   0.3600 
 18 H        4.1180     1.0000     1.3850 H     1 <1>   0.0800 
 19 H        5.5340     0.1250     1.9090 H     1 <1>   0.0800 
 20 H        5.0810    -1.4770     0.2490 H     1 <1>   0.0800 
 21 H        3.6830    -0.5390    -0.2090 H     1 <1>   0.0800 
@<TRIPOS>BOND
  1   1   2  2   
  2   1   3  2   
  3   1   4  1   
  4   1   5  1   
  5   4   6  1   
  6   4  11  1   
  7   4  12  1   
  8   5   7  1   
  9   5  13  1   
 10   5  14  1   
 11   6   8  1   
 12   6   9  1   
 13   6  15  1   
 14   7   8  1   
 15   7  10  1   
 16   7  16  1   
 17   8  17  1   
 18   9  10  1   
 19   9  18  1   
 20   9  19  1   
 21  10  20  1   
 22  10  21  1   
@<TRIPOS>SUBSTRUCTURE
  1 ****   1 GROUP 4 **** **** 0

# MOE 2024.06 (io_trps.svl 2023.06)
