@<TRIPOS>MOLECULE
NONAME
40 42 1 0 0 
SMALL
USER_CHARGES


@<TRIPOS>ATOM
  1 CL       0.6890     1.5750    -2.3760 Cl    1 <1>  -0.1770 
  2 C        1.8760     1.5840    -1.0800 C.ar  1 <1>   0.1770 
  3 C        2.4860     0.3840    -0.6670 C.ar  1 <1>  -0.1710 
  4 C        2.1930     2.7830    -0.4990 C.ar  1 <1>  -0.1500 
  5 O        2.2520    -0.7270    -1.1950 O.3   1 <1>  -0.8290 
  6 C        3.4020     0.4580     0.3890 C.ar  1 <1>  -0.1500 
  7 C        3.1470     2.8650     0.5260 C.ar  1 <1>   0.0860 
  8 C        3.7180     1.6630     0.9690 C.ar  1 <1>  -0.1500 
  9 C        3.5520     4.1310     1.0670 C.2   1 <1>   0.5440 
 10 O        3.5900     4.3090     2.2780 O.2   1 <1>  -0.5700 
 11 N        3.9330     5.1910     0.2490 N.am  1 <1>  -0.6600 
 12 C        4.1090     6.5480     0.8580 C.3   1 <1>   0.1400 
 13 C        4.4970     4.9210    -1.1150 C.3   1 <1>   0.1400 
 14 C        5.5830     6.9380     1.1400 C.3   1 <1>   0.4230 
 15 C        5.9050     5.4990    -1.3710 C.3   1 <1>  -0.0800 
 16 N        6.2550     7.6150    -0.0300 N.4   1 <1>  -0.9590 
 17 C        6.4760     5.7850     1.6730 C.3   1 <1>   0.1200 
 18 C        7.0360     4.8740    -0.5260 C.3   1 <1>   0.1200 
 19 C        5.9020     7.0280    -1.3570 C.3   1 <1>   0.3430 
 20 C        6.0160     9.0910    -0.0250 C.3   1 <1>   0.2630 
 21 O        6.6740     4.6970     0.8060 O.3   1 <1>  -0.5600 
 22 H        1.7040     3.6740    -0.8400 H     1 <1>   0.1500 
 23 H        3.8420    -0.4660     0.7170 H     1 <1>   0.1500 
 24 H        4.4280     1.6980     1.7760 H     1 <1>   0.1500 
 25 H        3.6410     7.2830     0.2290 H     1 <1>   0.0800 
 26 H        3.5790     6.5820     1.7940 H     1 <1>   0.0800 
 27 H        4.5570     3.8580    -1.2800 H     1 <1>   0.0800 
 28 H        3.8080     5.3100    -1.8460 H     1 <1>   0.0800 
 29 H        5.5440     7.6600     1.9380 H     1 <1>   0.0800 
 30 H        6.1280     5.2350    -2.3890 H     1 <1>   0.0800 
 31 H        7.2610     7.4500     0.1080 H     1 <1>   0.4500 
 32 H        6.0190     5.3800     2.5600 H     1 <1>   0.0800 
 33 H        7.4430     6.1620     1.9520 H     1 <1>   0.0800 
 34 H        7.9480     5.4440    -0.5710 H     1 <1>   0.0800 
 35 H        7.2460     3.8870    -0.9050 H     1 <1>   0.0800 
 36 H        4.9260     7.3720    -1.6620 H     1 <1>   0.0800 
 37 H        6.6120     7.3800    -2.0890 H     1 <1>   0.0800 
 38 H        4.9670     9.3030    -0.1580 H     1 <1>   0.0800 
 39 H        6.5660     9.5630    -0.8230 H     1 <1>   0.0800 
 40 H        6.3380     9.5210     0.9110 H     1 <1>   0.0800 
@<TRIPOS>BOND
  1   1   2  1   
  2   2   3  ar  
  3   2   4  ar  
  4   3   5  1   
  5   3   6  ar  
  6   4   7  ar  
  7   4  22  1   
  8   6   8  ar  
  9   6  23  1   
 10   7   8  ar  
 11   7   9  1   
 12   8  24  1   
 13   9  10  2   
 14   9  11  am  
 15  11  12  1   
 16  11  13  1   
 17  12  14  1   
 18  12  25  1   
 19  12  26  1   
 20  13  15  1   
 21  13  27  1   
 22  13  28  1   
 23  14  16  1   
 24  14  17  1   
 25  14  29  1   
 26  15  18  1   
 27  15  19  1   
 28  15  30  1   
 29  16  19  1   
 30  16  20  1   
 31  16  31  1   
 32  17  21  1   
 33  17  32  1   
 34  17  33  1   
 35  18  21  1   
 36  18  34  1   
 37  18  35  1   
 38  19  36  1   
 39  19  37  1   
 40  20  38  1   
 41  20  39  1   
 42  20  40  1   
@<TRIPOS>SUBSTRUCTURE
  1 ****  11 GROUP 4 **** **** 0

# MOE 2024.06 (io_trps.svl 2023.06)
