@<TRIPOS>MOLECULE
NONAME
50 52 1 0 0 
SMALL
USER_CHARGES


@<TRIPOS>ATOM
  1 S        0.0900    -0.0240    -1.0160 S.o2  1 <1>   1.3330 
  2 O        0.8990     0.1210    -2.2050 O.2   1 <1>  -0.6500 
  3 O       -0.8300    -1.1340    -0.9040 O.2   1 <1>  -0.6500 
  4 N        1.1280    -0.0850     0.3280 N.am  1 <1>  -0.8490 
  5 C       -0.8130     1.5080    -0.7790 C.3   1 <1>  -0.0550 
  6 C        0.5010    -0.6530     1.5260 C.3   1 <1>   0.1160 
  7 C        2.3810    -0.7880     0.0380 C.3   1 <1>   0.1160 
  8 C        0.0420     2.7840    -0.9530 C.3   1 <1>  -0.0800 
  9 C       -0.7660     4.0830    -0.9520 C.3   1 <1>   0.2000 
 10 C        1.1040     3.0010     0.1330 C.3   1 <1>   0.1400 
 11 O       -1.6760     4.0490     0.0950 O.3   1 <1>  -0.6800 
 12 C        0.2740     5.1560    -0.6400 C.3   1 <1>   0.1400 
 13 N        1.2400     4.4760     0.2620 N.am  1 <1>  -0.6600 
 14 C        2.3360     5.0670     0.8470 C.2   1 <1>   0.5440 
 15 O        3.1820     4.3550     1.3520 O.2   1 <1>  -0.5700 
 16 C        2.5060     6.5020     0.8560 C.ar  1 <1>   0.0860 
 17 C        1.5570     7.3320     1.4410 C.ar  1 <1>   0.1600 
 18 C        3.6100     7.1120     0.2850 C.ar  1 <1>  -0.1500 
 19 N        1.5980     8.6530     1.4710 N.ar  1 <1>  -0.6200 
 20 C        3.6880     8.4900     0.3090 C.ar  1 <1>  -0.1430 
 21 C        2.6580     9.2120     0.9070 C.ar  1 <1>   0.1670 
 22 C        4.8960     9.1670    -0.3290 C.3   1 <1>  -0.0170 
 23 C        2.6940    10.7330     0.9720 C.3   1 <1>  -0.0170 
 24 C        5.0650    10.6190     0.1300 C.3   1 <1>  -0.1600 
 25 C        3.7310    11.3650     0.0340 C.3   1 <1>  -0.1600 
 26 H       -1.6050     1.5420    -1.5020 H     1 <1>   0.0800 
 27 H       -1.2700     1.5060     0.1900 H     1 <1>   0.0800 
 28 H        1.1710    -0.5740     2.3660 H     1 <1>   0.0800 
 29 H        0.2580    -1.6910     1.3680 H     1 <1>   0.0800 
 30 H       -0.4030    -0.1200     1.7620 H     1 <1>   0.0800 
 31 H        3.0180    -0.7900     0.9060 H     1 <1>   0.0800 
 32 H        2.9070    -0.2930    -0.7610 H     1 <1>   0.0800 
 33 H        2.1800    -1.8050    -0.2580 H     1 <1>   0.0800 
 34 H        0.5560     2.7240    -1.8970 H     1 <1>   0.0800 
 35 H       -1.3020     4.2600    -1.8690 H     1 <1>   0.0800 
 36 H        2.0440     2.5510    -0.1420 H     1 <1>   0.0800 
 37 H        0.7850     2.5970     1.0790 H     1 <1>   0.0800 
 38 H       -1.1800     4.0780     0.9390 H     1 <1>   0.4000 
 39 H       -0.1780     6.0200    -0.1850 H     1 <1>   0.0800 
 40 H        0.7830     5.4480    -1.5430 H     1 <1>   0.0800 
 41 H        0.7090     6.8670     1.9120 H     1 <1>   0.1500 
 42 H        4.3820     6.5100    -0.1630 H     1 <1>   0.1500 
 43 H        5.7900     8.6170    -0.0930 H     1 <1>   0.0800 
 44 H        4.7690     9.1480    -1.3980 H     1 <1>   0.0800 
 45 H        1.7190    11.1200     0.7340 H     1 <1>   0.0800 
 46 H        2.9150    11.0100     1.9870 H     1 <1>   0.0800 
 47 H        5.4120    10.6350     1.1490 H     1 <1>   0.0800 
 48 H        5.8040    11.1070    -0.4820 H     1 <1>   0.0800 
 49 H        3.3680    11.3220    -0.9780 H     1 <1>   0.0800 
 50 H        3.8670    12.4000     0.2960 H     1 <1>   0.0800 
@<TRIPOS>BOND
  1   1   2  2   
  2   1   3  2   
  3   1   4  am  
  4   1   5  1   
  5   4   6  1   
  6   4   7  1   
  7   5   8  1   
  8   5  26  1   
  9   5  27  1   
 10   6  28  1   
 11   6  29  1   
 12   6  30  1   
 13   7  31  1   
 14   7  32  1   
 15   7  33  1   
 16   8   9  1   
 17   8  10  1   
 18   8  34  1   
 19   9  11  1   
 20   9  12  1   
 21   9  35  1   
 22  10  13  1   
 23  10  36  1   
 24  10  37  1   
 25  11  38  1   
 26  12  13  1   
 27  12  39  1   
 28  12  40  1   
 29  13  14  am  
 30  14  15  2   
 31  14  16  1   
 32  16  17  ar  
 33  16  18  ar  
 34  17  19  ar  
 35  17  41  1   
 36  18  20  ar  
 37  18  42  1   
 38  19  21  ar  
 39  20  21  ar  
 40  20  22  1   
 41  21  23  1   
 42  22  24  1   
 43  22  43  1   
 44  22  44  1   
 45  23  25  1   
 46  23  45  1   
 47  23  46  1   
 48  24  25  1   
 49  24  47  1   
 50  24  48  1   
 51  25  49  1   
 52  25  50  1   
@<TRIPOS>SUBSTRUCTURE
  1 ****  13 GROUP 4 **** **** 0

# MOE 2024.06 (io_trps.svl 2023.06)
