@<TRIPOS>MOLECULE
NONAME
52 54 1 0 0 
SMALL
USER_CHARGES


@<TRIPOS>ATOM
  1 O        3.3240    -1.2720     3.2290 O.2   1 <1>  -0.5700 
  2 C        2.3480    -1.1460     2.5270 C.2   1 <1>   0.5690 
  3 N        1.8850     0.0660     2.1420 N.am  1 <1>  -0.7300 
  4 C        1.6170    -2.3930     2.0160 C.3   1 <1>   0.1710 
  5 C        2.6510     1.3190     2.1880 C.3   1 <1>   0.2840 
  6 N        0.8850    -2.2030     0.7270 N.3   1 <1>  -0.8100 
  7 C        3.3200     1.5060     0.8360 C.ar  1 <1>  -0.1430 
  8 C        1.7760    -1.8870    -0.4030 C.3   1 <1>   0.1100 
  9 C        0.1200    -3.3990     0.3250 C.3   1 <1>   0.1100 
 10 C        2.5760     1.8620    -0.2860 C.ar  1 <1>   0.0820 
 11 C        4.6850     1.2970     0.7170 C.ar  1 <1>  -0.1500 
 12 C        0.9490    -2.2350    -1.6330 C.3   1 <1>   0.2000 
 13 C        0.2420    -3.5200    -1.2070 C.3   1 <1>  -0.0800 
 14 O        1.2350     2.0250    -0.1330 O.3   1 <1>  -0.3630 
 15 C        3.2180     2.0200    -1.5130 C.ar  1 <1>  -0.1500 
 16 C        5.3160     1.4530    -0.5040 C.ar  1 <1>  -0.1500 
 17 O       -0.0110    -1.2500    -1.7770 O.3   1 <1>  -0.6800 
 18 C        1.0550    -4.7600    -1.6230 C.3   1 <1>   0.0210 
 19 C        0.3790     2.1550    -1.2470 C.3   1 <1>   0.0400 
 20 C        4.5820     1.8170    -1.6190 C.ar  1 <1>  -0.1500 
 21 C        0.4040    -6.0500    -1.1600 C.2   1 <1>   0.1080 
 22 N       -0.7780    -6.4210    -1.5440 N.2   1 <1>  -0.7070 
 23 C        0.9840    -6.9680    -0.2900 C.2   1 <1>  -0.1500 
 24 N       -0.9850    -7.5980    -0.9260 N.pl3 1 <1>   0.3000 
 25 C        0.0680    -7.9500    -0.1580 C.2   1 <1>  -0.3320 
 26 C        0.1350    -9.2250     0.6620 C.3   1 <1>  -0.0600 
 27 H        1.1500     0.0570     1.4280 H     1 <1>   0.3700 
 28 H        0.9150    -2.6870     2.7750 H     1 <1>   0.0800 
 29 H        2.3380    -3.1840     1.9090 H     1 <1>   0.0800 
 30 H        1.9850     2.1400     2.3910 H     1 <1>   0.0800 
 31 H        3.3850     1.2720     2.9740 H     1 <1>   0.0800 
 32 H        2.0750    -0.8530    -0.4090 H     1 <1>   0.0800 
 33 H        2.6550    -2.5070    -0.3690 H     1 <1>   0.0800 
 34 H        0.5000    -4.2810     0.8120 H     1 <1>   0.0800 
 35 H       -0.9120    -3.2720     0.6070 H     1 <1>   0.0800 
 36 H        5.2620     1.0060     1.5790 H     1 <1>   0.1500 
 37 H        1.5160    -2.3110    -2.5450 H     1 <1>   0.0800 
 38 H       -0.7320    -3.5930    -1.6600 H     1 <1>   0.0800 
 39 H        2.6740     2.3020    -2.3940 H     1 <1>   0.1500 
 40 H        6.3770     1.2910    -0.5860 H     1 <1>   0.1500 
 41 H       -0.3880    -1.1140    -0.8820 H     1 <1>   0.4000 
 42 H        2.0510    -4.7060    -1.2230 H     1 <1>   0.0800 
 43 H        1.1290    -4.7920    -2.6960 H     1 <1>   0.0800 
 44 H       -0.6360     2.1450    -0.8940 H     1 <1>   0.0800 
 45 H        0.5410     1.3260    -1.9140 H     1 <1>   0.0800 
 46 H        0.5860     3.0890    -1.7390 H     1 <1>   0.0800 
 47 H        5.0730     1.9410    -2.5680 H     1 <1>   0.1500 
 48 H        1.9550    -6.8870     0.1630 H     1 <1>   0.1500 
 49 H       -1.8510    -8.1360    -1.0520 H     1 <1>   0.2700 
 50 H        1.0720    -9.2780     1.1880 H     1 <1>   0.0800 
 51 H        0.0540   -10.0850     0.0210 H     1 <1>   0.0800 
 52 H       -0.6630    -9.2470     1.3830 H     1 <1>   0.0800 
@<TRIPOS>BOND
  1   1   2  2   
  2   2   3  am  
  3   2   4  1   
  4   3   5  1   
  5   3  27  1   
  6   4   6  1   
  7   4  28  1   
  8   4  29  1   
  9   5   7  1   
 10   5  30  1   
 11   5  31  1   
 12   6   8  1   
 13   6   9  1   
 14   7  10  ar  
 15   7  11  ar  
 16   8  12  1   
 17   8  32  1   
 18   8  33  1   
 19   9  13  1   
 20   9  34  1   
 21   9  35  1   
 22  10  14  1   
 23  10  15  ar  
 24  11  16  ar  
 25  11  36  1   
 26  12  13  1   
 27  12  17  1   
 28  12  37  1   
 29  13  18  1   
 30  13  38  1   
 31  14  19  1   
 32  15  20  ar  
 33  15  39  1   
 34  16  20  ar  
 35  16  40  1   
 36  17  41  1   
 37  18  21  1   
 38  18  42  1   
 39  18  43  1   
 40  19  44  1   
 41  19  45  1   
 42  19  46  1   
 43  20  47  1   
 44  21  22  2   
 45  21  23  1   
 46  22  24  1   
 47  23  25  2   
 48  23  48  1   
 49  24  25  1   
 50  24  49  1   
 51  25  26  1   
 52  26  50  1   
 53  26  51  1   
 54  26  52  1   
@<TRIPOS>SUBSTRUCTURE
  1 ****   8 GROUP 4 **** **** 0

# MOE 2024.06 (io_trps.svl 2023.06)
