@<TRIPOS>MOLECULE
NONAME
52 55 1 0 0 
SMALL
USER_CHARGES


@<TRIPOS>ATOM
  1 O       -2.7130     0.7170    -2.0830 O.2   1 <1>  -0.5700 
  2 C       -2.4610     1.1750    -0.9850 C.2   1 <1>   0.5440 
  3 N       -2.5890     0.3200     0.0870 N.am  1 <1>  -0.6600 
  4 C       -2.1280     2.5780    -0.8140 C.ar  1 <1>   0.0860 
  5 C       -3.5480     0.6440     1.1840 C.3   1 <1>   0.1400 
  6 C       -2.4110    -1.1450    -0.1310 C.3   1 <1>   0.1400 
  7 C       -1.3300     3.0260     0.2390 C.ar  1 <1>  -0.1500 
  8 C       -2.6000     3.5450    -1.7010 C.ar  1 <1>  -0.1500 
  9 C       -4.9190    -0.0440     0.9550 C.3   1 <1>   0.4230 
 10 C       -3.7720    -1.8000    -0.4220 C.3   1 <1>   0.3430 
 11 C       -1.0360     4.3660     0.4060 C.ar  1 <1>  -0.1500 
 12 C       -2.3070     4.8840    -1.5340 C.ar  1 <1>  -0.1500 
 13 N       -4.7790    -1.5340     0.6800 N.4   1 <1>  -0.9590 
 14 C       -5.7080     0.6550    -0.1780 C.3   1 <1>   0.1200 
 15 C       -1.5200     5.3320    -0.4740 C.ar  1 <1>   0.0530 
 16 C       -6.1390    -2.1170     0.3960 C.3   1 <1>   0.4230 
 17 O       -6.9500     0.0360    -0.3500 O.3   1 <1>  -0.5600 
 18 C       -1.2150     6.7340    -0.2980 C.2   1 <1>   0.0870 
 19 C       -6.8840    -1.3170    -0.7000 C.3   1 <1>   0.1200 
 20 C       -6.0310    -3.6170     0.0730 C.3   1 <1>  -0.1600 
 21 O       -1.8100     7.6560    -1.0180 O.3   1 <1>  -0.2800 
 22 C       -0.3730     7.4000     0.5240 C.2   1 <1>   0.0770 
 23 C       -7.3870    -4.3340     0.1580 C.3   1 <1>  -0.1600 
 24 C       -1.3260     8.8060    -0.6210 C.2   1 <1>   0.3280 
 25 N       -0.4490     8.7260     0.3120 N.2   1 <1>  -0.5650 
 26 C       -7.2250    -5.8360    -0.0890 C.3   1 <1>  -0.2400 
 27 H       -3.1330     0.3170     2.1210 H     1 <1>   0.0800 
 28 H       -3.6900     1.7090     1.2500 H     1 <1>   0.0800 
 29 H       -1.7500    -1.3110    -0.9660 H     1 <1>   0.0800 
 30 H       -1.9570    -1.5900     0.7370 H     1 <1>   0.0800 
 31 H       -0.9270     2.3100     0.9340 H     1 <1>   0.1500 
 32 H       -3.2040     3.2370    -2.5390 H     1 <1>   0.1500 
 33 H       -5.4970     0.0890     1.8540 H     1 <1>   0.0800 
 34 H       -3.6270    -2.8600    -0.5440 H     1 <1>   0.0800 
 35 H       -4.1380    -1.4070    -1.3570 H     1 <1>   0.0800 
 36 H       -0.4180     4.6680     1.2320 H     1 <1>   0.1500 
 37 H       -2.6910     5.6000    -2.2410 H     1 <1>   0.1500 
 38 H       -4.4270    -1.9770     1.5360 H     1 <1>   0.4500 
 39 H       -5.1770     0.6250    -1.1140 H     1 <1>   0.0800 
 40 H       -5.8920     1.6840     0.0750 H     1 <1>   0.0800 
 41 H       -6.7300    -2.0310     1.2930 H     1 <1>   0.0800 
 42 H       -7.8960    -1.6680    -0.7980 H     1 <1>   0.0800 
 43 H       -6.3990    -1.4070    -1.6560 H     1 <1>   0.0800 
 44 H       -5.6330    -3.7580    -0.9180 H     1 <1>   0.0800 
 45 H       -5.3670    -4.0830     0.7800 H     1 <1>   0.0800 
 46 H        0.2940     6.9930     1.2640 H     1 <1>   0.1500 
 47 H       -7.8230    -4.1880     1.1320 H     1 <1>   0.0800 
 48 H       -8.0720    -3.9410    -0.5750 H     1 <1>   0.0800 
 49 H       -1.6830     9.7090    -1.0880 H     1 <1>   0.1500 
 50 H       -6.5760    -6.2780     0.6470 H     1 <1>   0.0800 
 51 H       -6.8170    -6.0220    -1.0680 H     1 <1>   0.0800 
 52 H       -8.1840    -6.3240    -0.0270 H     1 <1>   0.0800 
@<TRIPOS>BOND
  1   1   2  2   
  2   2   3  am  
  3   2   4  1   
  4   3   5  1   
  5   3   6  1   
  6   4   7  ar  
  7   4   8  ar  
  8   5   9  1   
  9   5  27  1   
 10   5  28  1   
 11   6  10  1   
 12   6  29  1   
 13   6  30  1   
 14   7  11  ar  
 15   7  31  1   
 16   8  12  ar  
 17   8  32  1   
 18   9  13  1   
 19   9  14  1   
 20   9  33  1   
 21  10  13  1   
 22  10  34  1   
 23  10  35  1   
 24  11  15  ar  
 25  11  36  1   
 26  12  15  ar  
 27  12  37  1   
 28  13  16  1   
 29  13  38  1   
 30  14  17  1   
 31  14  39  1   
 32  14  40  1   
 33  15  18  1   
 34  16  19  1   
 35  16  20  1   
 36  16  41  1   
 37  17  19  1   
 38  18  21  1   
 39  18  22  2   
 40  19  42  1   
 41  19  43  1   
 42  20  23  1   
 43  20  44  1   
 44  20  45  1   
 45  21  24  1   
 46  22  25  1   
 47  22  46  1   
 48  23  26  1   
 49  23  47  1   
 50  23  48  1   
 51  24  25  2   
 52  24  49  1   
 53  26  50  1   
 54  26  51  1   
 55  26  52  1   
@<TRIPOS>SUBSTRUCTURE
  1 ****   2 GROUP 4 **** **** 0

# MOE 2024.06 (io_trps.svl 2023.06)
