@<TRIPOS>MOLECULE
NONAME
50 53 1 0 0 
SMALL
USER_CHARGES


@<TRIPOS>ATOM
  1 S        1.1670    -0.9920     1.1380 S.o2  1 <1>   1.4470 
  2 O        1.8300    -2.1880     0.6690 O.2   1 <1>  -0.6500 
  3 O        1.1010    -0.7030     2.5500 O.2   1 <1>  -0.6500 
  4 N       -0.4350    -1.1060     0.6550 N.am  1 <1>  -0.9140 
  5 C        1.7780     0.4520     0.2290 C.ar  1 <1>  -0.0090 
  6 C       -1.0130    -2.4350     0.8200 C.3   1 <1>   0.2760 
  7 C        2.3440     1.5320     0.8970 C.ar  1 <1>  -0.1500 
  8 C        1.6970     0.5010    -1.1680 C.ar  1 <1>  -0.1500 
  9 C       -2.3640    -2.4500     0.1210 C.3   1 <1>  -0.0800 
 10 C       -1.4350    -2.6780     2.2700 C.3   1 <1>   0.1200 
 11 C        2.8080     2.6240     0.1800 C.ar  1 <1>   0.1170 
 12 C        2.1590     1.5890    -1.8900 C.ar  1 <1>  -0.1500 
 13 C       -3.3010    -1.8770     1.1920 C.3   1 <1>   0.1200 
 14 C       -2.7680    -3.8760    -0.3050 C.3   1 <1>  -0.0160 
 15 O       -2.6440    -2.0000     2.4210 O.3   1 <1>  -0.5600 
 16 N        3.4050     3.8080     0.5930 N.am  1 <1>  -0.4770 
 17 C        2.7170     2.6540    -1.2010 C.ar  1 <1>   0.1170 
 18 C       -4.1120    -3.8850    -1.0180 C.ar  1 <1>  -0.1430 
 19 C        3.6720     4.5440    -0.5300 C.2   1 <1>   0.6900 
 20 C        3.7080     4.2020     1.9860 C.3   1 <1>   0.0600 
 21 N        3.2570     3.8560    -1.6390 N.am  1 <1>  -0.4770 
 22 C       -4.2490    -3.4330    -2.3150 C.ar  1 <1>  -0.1500 
 23 C       -5.2620    -4.3460    -0.4090 C.ar  1 <1>  -0.1500 
 24 O        4.2010     5.6470    -0.5410 O.2   1 <1>  -0.5700 
 25 C        3.3770     4.3090    -3.0410 C.3   1 <1>   0.0600 
 26 C       -5.4950    -3.4570    -2.9210 C.ar  1 <1>   0.1600 
 27 C       -6.4600    -4.3270    -1.1040 C.ar  1 <1>   0.1600 
 28 N       -6.6040    -3.8910    -2.3450 N.ar  1 <1>  -0.6200 
 29 H       -0.9380    -0.5230     1.3270 H     1 <1>   0.4200 
 30 H       -0.3540    -3.2000     0.4420 H     1 <1>   0.0800 
 31 H        2.4250     1.5300     1.9700 H     1 <1>   0.1500 
 32 H        1.2620    -0.3350    -1.6910 H     1 <1>   0.1500 
 33 H       -2.3560    -1.8230    -0.7530 H     1 <1>   0.0800 
 34 H       -0.7280    -2.3220     2.9970 H     1 <1>   0.0800 
 35 H       -1.6220    -3.7230     2.4420 H     1 <1>   0.0800 
 36 H        2.0920     1.6160    -2.9620 H     1 <1>   0.1500 
 37 H       -4.2440    -2.3920     1.2500 H     1 <1>   0.0800 
 38 H       -3.4790    -0.8290     1.0240 H     1 <1>   0.0800 
 39 H       -2.8130    -4.5250     0.5510 H     1 <1>   0.0800 
 40 H       -2.0250    -4.2740    -0.9740 H     1 <1>   0.0800 
 41 H        4.3840     3.4890     2.4230 H     1 <1>   0.0800 
 42 H        2.7970     4.2330     2.5580 H     1 <1>   0.0800 
 43 H        4.1660     5.1760     2.0000 H     1 <1>   0.0800 
 44 H       -3.4010    -3.0630    -2.8620 H     1 <1>   0.1500 
 45 H       -5.2420    -4.7190     0.5980 H     1 <1>   0.1500 
 46 H        3.9810     3.6130    -3.5940 H     1 <1>   0.0800 
 47 H        3.8410     5.2800    -3.0730 H     1 <1>   0.0800 
 48 H        2.4000     4.3710    -3.4850 H     1 <1>   0.0800 
 49 H       -5.5840    -3.1010    -3.9330 H     1 <1>   0.1500 
 50 H       -7.3470    -4.6890    -0.6130 H     1 <1>   0.1500 
@<TRIPOS>BOND
  1   1   2  2   
  2   1   3  2   
  3   1   4  am  
  4   1   5  1   
  5   4   6  1   
  6   4  29  1   
  7   5   7  ar  
  8   5   8  ar  
  9   6   9  1   
 10   6  10  1   
 11   6  30  1   
 12   7  11  ar  
 13   7  31  1   
 14   8  12  ar  
 15   8  32  1   
 16   9  13  1   
 17   9  14  1   
 18   9  33  1   
 19  10  15  1   
 20  10  34  1   
 21  10  35  1   
 22  11  16  1   
 23  11  17  ar  
 24  12  17  ar  
 25  12  36  1   
 26  13  15  1   
 27  13  37  1   
 28  13  38  1   
 29  14  18  1   
 30  14  39  1   
 31  14  40  1   
 32  16  19  am  
 33  16  20  1   
 34  17  21  1   
 35  18  22  ar  
 36  18  23  ar  
 37  19  21  am  
 38  19  24  2   
 39  20  41  1   
 40  20  42  1   
 41  20  43  1   
 42  21  25  1   
 43  22  26  ar  
 44  22  44  1   
 45  23  27  ar  
 46  23  45  1   
 47  25  46  1   
 48  25  47  1   
 49  25  48  1   
 50  26  28  ar  
 51  26  49  1   
 52  27  28  ar  
 53  27  50  1   
@<TRIPOS>SUBSTRUCTURE
  1 ****   4 GROUP 4 **** **** 0

# MOE 2024.06 (io_trps.svl 2023.06)
