@<TRIPOS>MOLECULE
NONAME
44 46 1 0 0 
SMALL
USER_CHARGES


@<TRIPOS>ATOM
  1 CL       1.0870     0.8120    -2.2790 Cl    1 <1>  -0.1770 
  2 C        2.0610     1.3700    -0.9370 C.ar  1 <1>   0.1770 
  3 C        2.8290     0.4840    -0.1890 C.ar  1 <1>   0.0830 
  4 C        2.0590     2.7220    -0.6500 C.ar  1 <1>  -0.1500 
  5 O        2.8720    -0.8390    -0.4580 O.3   1 <1>  -0.3630 
  6 C        3.6020     0.9720     0.8510 C.ar  1 <1>  -0.1500 
  7 C        2.8380     3.2100     0.3910 C.ar  1 <1>  -0.1430 
  8 C        1.7750    -1.6120    -0.0250 C.3   1 <1>   0.0400 
  9 C        3.6040     2.3260     1.1430 C.ar  1 <1>  -0.1500 
 10 C        2.8690     4.6990     0.6870 C.3   1 <1>   0.4870 
 11 N        4.2310     5.2080     0.3800 N.4   1 <1>  -0.9590 
 12 C        4.4890     6.5790     0.9480 C.3   1 <1>   0.3430 
 13 C        4.6190     5.0110    -1.0560 C.3   1 <1>   0.3430 
 14 C        5.9770     7.0290     0.9380 C.3   1 <1>   0.2200 
 15 C        6.1250     5.1410    -1.3100 C.3   1 <1>  -0.0190 
 16 N        6.3930     7.4570    -0.4280 N.am  1 <1>  -0.6600 
 17 C        6.9610     5.9810     1.5140 C.3   1 <1>   0.1200 
 18 C        6.4570     6.6000    -1.4890 C.2   1 <1>   0.5690 
 19 C        7.0720     4.4430    -0.3100 C.3   1 <1>   0.1200 
 20 C        6.7940     8.8920    -0.5660 C.3   1 <1>   0.0600 
 21 O        6.7300     4.6840     1.0280 O.3   1 <1>  -0.5600 
 22 O        6.7370     6.9700    -2.6000 O.2   1 <1>  -0.5700 
 23 H        1.4470     3.3720    -1.2530 H     1 <1>   0.1500 
 24 H        4.2000     0.2840     1.4250 H     1 <1>   0.1500 
 25 H        1.9680    -2.6390    -0.2780 H     1 <1>   0.0800 
 26 H        0.8830    -1.2750    -0.5210 H     1 <1>   0.0800 
 27 H        1.6740    -1.5080     1.0410 H     1 <1>   0.0800 
 28 H        4.2130     2.6730     1.9620 H     1 <1>   0.1500 
 29 H        2.6380     4.8570     1.7280 H     1 <1>   0.0800 
 30 H        2.1350     5.2140     0.0900 H     1 <1>   0.0800 
 31 H        4.9010     4.5930     0.8840 H     1 <1>   0.4500 
 32 H        3.9050     7.3120     0.4170 H     1 <1>   0.0800 
 33 H        4.1610     6.5860     1.9740 H     1 <1>   0.0800 
 34 H        4.3280     4.0190    -1.3620 H     1 <1>   0.0800 
 35 H        4.0900     5.7120    -1.6820 H     1 <1>   0.0800 
 36 H        6.0430     7.8960     1.5740 H     1 <1>   0.0800 
 37 H        6.3110     4.6830    -2.2660 H     1 <1>   0.0800 
 38 H        6.8400     5.9340     2.5820 H     1 <1>   0.0800 
 39 H        7.9820     6.2600     1.3100 H     1 <1>   0.0800 
 40 H        8.0940     4.7490    -0.4700 H     1 <1>   0.0800 
 41 H        7.0200     3.3770    -0.4550 H     1 <1>   0.0800 
 42 H        7.6120     9.1120     0.0980 H     1 <1>   0.0800 
 43 H        5.9630     9.5340    -0.3300 H     1 <1>   0.0800 
 44 H        7.1120     9.1100    -1.5720 H     1 <1>   0.0800 
@<TRIPOS>BOND
  1   1   2  1   
  2   2   3  ar  
  3   2   4  ar  
  4   3   5  1   
  5   3   6  ar  
  6   4   7  ar  
  7   4  23  1   
  8   5   8  1   
  9   6   9  ar  
 10   6  24  1   
 11   7   9  ar  
 12   7  10  1   
 13   8  25  1   
 14   8  26  1   
 15   8  27  1   
 16   9  28  1   
 17  10  11  1   
 18  10  29  1   
 19  10  30  1   
 20  11  12  1   
 21  11  13  1   
 22  11  31  1   
 23  12  14  1   
 24  12  32  1   
 25  12  33  1   
 26  13  15  1   
 27  13  34  1   
 28  13  35  1   
 29  14  16  1   
 30  14  17  1   
 31  14  36  1   
 32  15  18  1   
 33  15  19  1   
 34  15  37  1   
 35  16  18  am  
 36  16  20  1   
 37  17  21  1   
 38  17  38  1   
 39  17  39  1   
 40  18  22  2   
 41  19  21  1   
 42  19  40  1   
 43  19  41  1   
 44  20  42  1   
 45  20  43  1   
 46  20  44  1   
@<TRIPOS>SUBSTRUCTURE
  1 ****  13 GROUP 4 **** **** 0

# MOE 2024.06 (io_trps.svl 2023.06)
