@<TRIPOS>MOLECULE
NONAME
50 51 1 0 0 
SMALL
USER_CHARGES


@<TRIPOS>ATOM
  1 CL       0.6340    -0.0080     2.3610 Cl    1 <1>  -0.1770 
  2 C        1.6610    -0.9030     1.2630 C.ar  1 <1>   0.1770 
  3 C        2.5200    -0.2370     0.3970 C.ar  1 <1>   0.0830 
  4 C        1.5850    -2.2820     1.2850 C.ar  1 <1>  -0.1500 
  5 O        2.5390     1.1210     0.4280 O.3   1 <1>  -0.3630 
  6 C        3.3170    -0.9950    -0.4590 C.ar  1 <1>  -0.1500 
  7 C        2.3720    -3.0320     0.4230 C.ar  1 <1>  -0.1430 
  8 C        3.4250     1.8760    -0.3660 C.3   1 <1>   0.1200 
  9 C        3.2410    -2.3790    -0.4420 C.ar  1 <1>  -0.1500 
 10 C        2.2760    -4.5470     0.4350 C.3   1 <1>   0.4870 
 11 C        3.1970     3.3510    -0.0510 C.3   1 <1>  -0.2400 
 12 N        1.5010    -4.9930    -0.7590 N.4   1 <1>  -0.9590 
 13 C        0.0730    -4.5440    -0.6790 C.3   1 <1>   0.3430 
 14 C        1.4750    -6.4860    -0.8230 C.3   1 <1>   0.3430 
 15 C       -0.6930    -5.7170    -0.0620 C.3   1 <1>   0.2000 
 16 C        0.0080    -6.9250    -0.6830 C.3   1 <1>  -0.0800 
 17 O       -0.4770    -5.7090     1.3130 O.3   1 <1>  -0.6800 
 18 C       -0.1640    -8.2610     0.0750 C.3   1 <1>  -0.0550 
 19 S        0.7470    -9.5980    -0.6950 S.o2  1 <1>   1.3330 
 20 O        0.2210    -9.7670    -2.0280 O.2   1 <1>  -0.6500 
 21 O        2.1440    -9.2660    -0.5180 O.2   1 <1>  -0.6500 
 22 N        0.3550   -10.9430     0.2560 N.am  1 <1>  -0.8490 
 23 C        1.4600   -11.9040     0.3540 C.3   1 <1>   0.1160 
 24 C       -0.8630   -11.6350    -0.1860 C.3   1 <1>   0.1160 
 25 H        0.9080    -2.7510     1.9800 H     1 <1>   0.1500 
 26 H        4.0000    -0.5240    -1.1410 H     1 <1>   0.1500 
 27 H        4.4330     1.5870    -0.1230 H     1 <1>   0.0800 
 28 H        3.2140     1.6730    -1.4020 H     1 <1>   0.0800 
 29 H        3.8750    -2.9380    -1.1100 H     1 <1>   0.1500 
 30 H        1.7890    -4.8760     1.3390 H     1 <1>   0.0800 
 31 H        3.2680    -4.9670     0.4110 H     1 <1>   0.0800 
 32 H        3.3930     3.5400     0.9900 H     1 <1>   0.0800 
 33 H        2.1830     3.6250    -0.2800 H     1 <1>   0.0800 
 34 H        3.8590     3.9570    -0.6410 H     1 <1>   0.0800 
 35 H        1.9490    -4.5900    -1.5910 H     1 <1>   0.4500 
 36 H       -0.0490    -3.6460    -0.0960 H     1 <1>   0.0800 
 37 H       -0.3010    -4.3680    -1.6740 H     1 <1>   0.0800 
 38 H        1.8890    -6.8450    -1.7530 H     1 <1>   0.0800 
 39 H        2.0550    -6.8990    -0.0120 H     1 <1>   0.0800 
 40 H       -1.7520    -5.6700    -0.2570 H     1 <1>   0.0800 
 41 H       -0.3780    -7.0580    -1.6810 H     1 <1>   0.0800 
 42 H       -1.1970    -6.1750     1.7920 H     1 <1>   0.4000 
 43 H       -1.2050    -8.5180     0.1040 H     1 <1>   0.0800 
 44 H        0.1780    -8.1590     1.0870 H     1 <1>   0.0800 
 45 H        1.1810   -12.7310     0.9840 H     1 <1>   0.0800 
 46 H        2.3250   -11.4310     0.7870 H     1 <1>   0.0800 
 47 H        1.7220   -12.2770    -0.6230 H     1 <1>   0.0800 
 48 H       -1.1100   -12.4260     0.5020 H     1 <1>   0.0800 
 49 H       -0.7220   -12.0570    -1.1680 H     1 <1>   0.0800 
 50 H       -1.6900   -10.9480    -0.2220 H     1 <1>   0.0800 
@<TRIPOS>BOND
  1   1   2  1   
  2   2   3  ar  
  3   2   4  ar  
  4   3   5  1   
  5   3   6  ar  
  6   4   7  ar  
  7   4  25  1   
  8   5   8  1   
  9   6   9  ar  
 10   6  26  1   
 11   7   9  ar  
 12   7  10  1   
 13   8  11  1   
 14   8  27  1   
 15   8  28  1   
 16   9  29  1   
 17  10  12  1   
 18  10  30  1   
 19  10  31  1   
 20  11  32  1   
 21  11  33  1   
 22  11  34  1   
 23  12  13  1   
 24  12  14  1   
 25  12  35  1   
 26  13  15  1   
 27  13  36  1   
 28  13  37  1   
 29  14  16  1   
 30  14  38  1   
 31  14  39  1   
 32  15  16  1   
 33  15  17  1   
 34  15  40  1   
 35  16  18  1   
 36  16  41  1   
 37  17  42  1   
 38  18  19  1   
 39  18  43  1   
 40  18  44  1   
 41  19  20  2   
 42  19  21  2   
 43  19  22  am  
 44  22  23  1   
 45  22  24  1   
 46  23  45  1   
 47  23  46  1   
 48  23  47  1   
 49  24  48  1   
 50  24  49  1   
 51  24  50  1   
@<TRIPOS>SUBSTRUCTURE
  1 ****  12 GROUP 4 **** **** 0

# MOE 2024.06 (io_trps.svl 2023.06)
