@<TRIPOS>MOLECULE
NONAME
53 56 1 0 0 
SMALL
USER_CHARGES


@<TRIPOS>ATOM
  1 O        0.7390    -0.4210    -1.5020 O.3   1 <1>  -0.6800 
  2 C        2.1230    -0.4910    -1.4240 C.3   1 <1>   0.2000 
  3 C        2.5530    -1.6010    -0.4710 C.3   1 <1>  -0.0800 
  4 C        2.7020     0.7800    -0.8090 C.3   1 <1>   0.2090 
  5 C        3.9390    -1.1490    -0.0040 C.3   1 <1>   0.2090 
  6 C        2.5420    -3.0000    -1.1120 C.3   1 <1>  -0.0170 
  7 N        3.9380     0.3420    -0.1000 N.pl3 1 <1>  -0.8380 
  8 C        3.0560    -4.0620    -0.1530 C.ar  1 <1>   0.1660 
  9 C        5.0770     1.0800    -0.0310 C.ar  1 <1>   0.4100 
 10 N        4.3650    -4.2620    -0.1400 N.ar  1 <1>  -0.6200 
 11 C        2.1620    -4.7650     0.6540 C.ar  1 <1>   0.1600 
 12 N        6.1820     0.4730    -0.4170 N.ar  1 <1>  -0.6200 
 13 C        5.0890     2.4230     0.4280 C.ar  1 <1>  -0.1430 
 14 C        4.7150    -5.2030     0.7220 C.ar  1 <1>   0.1600 
 15 N        2.5110    -5.7040     1.5170 N.ar  1 <1>  -0.6200 
 16 C        7.3160     1.1490    -0.4150 C.ar  1 <1>   0.7710 
 17 C        6.2700     3.0990     0.3980 C.ar  1 <1>   0.2180 
 18 C        3.8210     3.0870     0.9720 C.3   1 <1>  -0.0170 
 19 C        3.8180    -5.8990     1.5240 C.ar  1 <1>   0.1600 
 20 N        7.3630     2.4340    -0.0380 N.ar  1 <1>  -0.1790 
 21 N        8.4660     0.5310    -0.8090 N.pl3 1 <1>  -0.8380 
 22 C        6.4430     4.5470     0.8490 C.3   1 <1>  -0.0170 
 23 C        4.1170     4.3450     1.7970 C.3   1 <1>  -0.1600 
 24 C        8.4360    -0.8610    -1.3740 C.3   1 <1>   0.1290 
 25 C        9.8630     1.0550    -0.6830 C.3   1 <1>   0.1290 
 26 C        5.1000     5.2580     1.0600 C.3   1 <1>  -0.1600 
 27 H        0.3790    -1.1890    -1.9850 H     1 <1>   0.4000 
 28 H        2.5260    -0.6330    -2.4120 H     1 <1>   0.0800 
 29 H        1.9100    -1.5920     0.3930 H     1 <1>   0.0800 
 30 H        2.0060     1.1850    -0.0960 H     1 <1>   0.0800 
 31 H        2.9290     1.5060    -1.5700 H     1 <1>   0.0800 
 32 H        4.6960    -1.5560    -0.6540 H     1 <1>   0.0800 
 33 H        4.1350    -1.4670     1.0060 H     1 <1>   0.0800 
 34 H        3.1560    -3.0040    -1.9950 H     1 <1>   0.0800 
 35 H        1.5400    -3.2480    -1.4120 H     1 <1>   0.0800 
 36 H        1.1130    -4.5400     0.5840 H     1 <1>   0.1500 
 37 H        5.7620    -5.4360     0.7990 H     1 <1>   0.1500 
 38 H        3.1870     3.3560     0.1460 H     1 <1>   0.0800 
 39 H        3.2820     2.3900     1.5920 H     1 <1>   0.0800 
 40 H        4.2000    -6.6470     2.1960 H     1 <1>   0.1500 
 41 H        8.2720     2.8680    -0.1060 H     1 <1>   0.4570 
 42 H        6.9870     4.5540     1.7780 H     1 <1>   0.0800 
 43 H        7.0140     5.0990     0.1220 H     1 <1>   0.0800 
 44 H        3.1970     4.8740     1.9840 H     1 <1>   0.0800 
 45 H        4.5290     4.0620     2.7510 H     1 <1>   0.0800 
 46 H        9.1870    -0.9710    -2.1370 H     1 <1>   0.0800 
 47 H        7.4820    -1.0860    -1.8190 H     1 <1>   0.0800 
 48 H        8.6260    -1.5760    -0.5910 H     1 <1>   0.0800 
 49 H       10.5130     0.2710    -0.3280 H     1 <1>   0.0800 
 50 H        9.9260     1.8700     0.0150 H     1 <1>   0.0800 
 51 H       10.2200     1.3800    -1.6460 H     1 <1>   0.0800 
 52 H        5.2520     6.1640     1.6220 H     1 <1>   0.0800 
 53 H        4.6810     5.5320     0.1060 H     1 <1>   0.0800 
@<TRIPOS>BOND
  1   1   2  1   
  2   1  27  1   
  3   2   3  1   
  4   2   4  1   
  5   2  28  1   
  6   3   5  1   
  7   3   6  1   
  8   3  29  1   
  9   4   7  1   
 10   4  30  1   
 11   4  31  1   
 12   5   7  1   
 13   5  32  1   
 14   5  33  1   
 15   6   8  1   
 16   6  34  1   
 17   6  35  1   
 18   7   9  1   
 19   8  10  ar  
 20   8  11  ar  
 21   9  12  ar  
 22   9  13  ar  
 23  10  14  ar  
 24  11  15  ar  
 25  11  36  1   
 26  12  16  ar  
 27  13  17  ar  
 28  13  18  1   
 29  14  19  ar  
 30  14  37  1   
 31  15  19  ar  
 32  16  20  ar  
 33  16  21  1   
 34  17  20  ar  
 35  17  22  1   
 36  18  23  1   
 37  18  38  1   
 38  18  39  1   
 39  19  40  1   
 40  20  41  1   
 41  21  24  1   
 42  21  25  1   
 43  22  26  1   
 44  22  42  1   
 45  22  43  1   
 46  23  26  1   
 47  23  44  1   
 48  23  45  1   
 49  24  46  1   
 50  24  47  1   
 51  24  48  1   
 52  25  49  1   
 53  25  50  1   
 54  25  51  1   
 55  26  52  1   
 56  26  53  1   
@<TRIPOS>SUBSTRUCTURE
  1 ****   7 GROUP 4 **** **** 0

# MOE 2024.06 (io_trps.svl 2023.06)
