@<TRIPOS>MOLECULE
NONAME
44 45 1 0 0 
SMALL
USER_CHARGES


@<TRIPOS>ATOM
  1 O        1.3100    -1.2040    -1.6520 O.2   1 <1>  -0.5700 
  2 C        1.8570    -1.2740    -0.5770 C.2   1 <1>   0.5690 
  3 N        2.3430    -0.1920     0.0890 N.am  1 <1>  -0.4930 
  4 C        1.9380    -2.6610     0.0820 C.3   1 <1>   0.4040 
  5 C        2.2600     1.1540    -0.2350 C.2   1 <1>   0.3520 
  6 N        0.5970    -3.2630     0.4560 N.4   1 <1>  -0.9590 
  7 N        2.6230     2.0090     0.6600 N.2   1 <1>  -0.7070 
  8 C        1.8330     1.7590    -1.4130 C.2   1 <1>  -0.1500 
  9 C       -0.2340    -3.5100    -0.7600 C.3   1 <1>   0.5240 
 10 C       -0.1540    -2.4170     1.4420 C.3   1 <1>   0.2630 
 11 N        2.4410     3.2120     0.0740 N.pl3 1 <1>   0.3140 
 12 C        1.9620     3.0810    -1.1790 C.2   1 <1>  -0.3020 
 13 C       -1.4170    -4.3420    -0.3280 C.2   1 <1>  -0.1810 
 14 C        2.7520     4.4640     0.7740 C.3   1 <1>   0.0160 
 15 C       -2.7210    -3.8790    -0.1820 C.2   1 <1>   0.1080 
 16 C       -1.4700    -5.6510     0.0160 C.2   1 <1>  -0.3320 
 17 N       -3.5120    -4.8050     0.2430 N.2   1 <1>  -0.7070 
 18 C       -3.2390    -2.4830    -0.4610 C.3   1 <1>  -0.0590 
 19 N       -2.7550    -5.9050     0.3560 N.pl3 1 <1>   0.3140 
 20 C       -0.3760    -6.7100     0.0360 C.3   1 <1>  -0.0600 
 21 C       -3.3400    -7.1830     0.7870 C.3   1 <1>   0.0160 
 22 H        2.8130    -0.2880     0.9870 H     1 <1>   0.3700 
 23 H        2.5520    -2.5840     0.9620 H     1 <1>   0.0800 
 24 H        2.4410    -3.3180    -0.6080 H     1 <1>   0.0800 
 25 H        0.7210    -4.1940     0.8740 H     1 <1>   0.4500 
 26 H        1.4850     1.2600    -2.3000 H     1 <1>   0.1500 
 27 H        0.3310    -4.0520    -1.4990 H     1 <1>   0.0800 
 28 H       -0.5650    -2.5800    -1.1950 H     1 <1>   0.0800 
 29 H       -0.3870    -1.4550     1.0140 H     1 <1>   0.0800 
 30 H        0.4310    -2.2680     2.3350 H     1 <1>   0.0800 
 31 H       -1.0780    -2.9010     1.7200 H     1 <1>   0.0800 
 32 H        1.7460     3.9160    -1.8210 H     1 <1>   0.1500 
 33 H        3.7660     4.4250     1.1240 H     1 <1>   0.0800 
 34 H        2.0860     4.5720     1.6100 H     1 <1>   0.0800 
 35 H        2.6310     5.2940     0.1020 H     1 <1>   0.0800 
 36 H       -2.6440    -1.9860    -1.2040 H     1 <1>   0.0800 
 37 H       -3.2430    -1.9070     0.4450 H     1 <1>   0.0800 
 38 H       -4.2490    -2.5480    -0.8250 H     1 <1>   0.0800 
 39 H        0.5590    -6.3100    -0.3130 H     1 <1>   0.0800 
 40 H       -0.6480    -7.5290    -0.6060 H     1 <1>   0.0800 
 41 H       -0.2410    -7.0890     1.0340 H     1 <1>   0.0800 
 42 H       -2.8320    -7.5290     1.6660 H     1 <1>   0.0800 
 43 H       -3.2420    -7.9010    -0.0050 H     1 <1>   0.0800 
 44 H       -4.3810    -7.0350     1.0090 H     1 <1>   0.0800 
@<TRIPOS>BOND
  1   1   2  2   
  2   2   3  am  
  3   2   4  1   
  4   3   5  1   
  5   3  22  1   
  6   4   6  1   
  7   4  23  1   
  8   4  24  1   
  9   5   7  2   
 10   5   8  1   
 11   6   9  1   
 12   6  10  1   
 13   6  25  1   
 14   7  11  1   
 15   8  12  2   
 16   8  26  1   
 17   9  13  1   
 18   9  27  1   
 19   9  28  1   
 20  10  29  1   
 21  10  30  1   
 22  10  31  1   
 23  11  12  1   
 24  11  14  1   
 25  12  32  1   
 26  13  15  1   
 27  13  16  2   
 28  14  33  1   
 29  14  34  1   
 30  14  35  1   
 31  15  17  2   
 32  15  18  1   
 33  16  19  1   
 34  16  20  1   
 35  17  19  1   
 36  18  36  1   
 37  18  37  1   
 38  18  38  1   
 39  19  21  1   
 40  20  39  1   
 41  20  40  1   
 42  20  41  1   
 43  21  42  1   
 44  21  43  1   
 45  21  44  1   
@<TRIPOS>SUBSTRUCTURE
  1 ****   6 GROUP 4 **** **** 0

# MOE 2024.06 (io_trps.svl 2023.06)
