@<TRIPOS>MOLECULE
NONAME
54 56 1 0 0 
SMALL
USER_CHARGES


@<TRIPOS>ATOM
  1 O       -1.1430    -0.0420     1.3700 O.2   1 <1>  -0.5700 
  2 C       -1.6230     0.7650     0.5820 C.2   1 <1>   0.5440 
  3 N       -2.6940     0.3360    -0.1880 N.am  1 <1>  -0.6600 
  4 C       -1.1630     2.1240     0.5300 C.ar  1 <1>   0.0860 
  5 C       -3.0400    -1.1040    -0.2540 C.3   1 <1>   0.1400 
  6 C       -3.8850     1.2360    -0.2860 C.3   1 <1>   0.1400 
  7 C       -0.7790     2.8080     1.6860 C.ar  1 <1>  -0.1500 
  8 C       -1.1130     2.8420    -0.6680 C.ar  1 <1>  -0.1500 
  9 C       -4.3550    -1.2280     0.5400 C.3   1 <1>   0.4230 
 10 C       -5.1730     0.4680    -0.7300 C.3   1 <1>  -0.1600 
 11 C       -0.4410     4.1380     1.6820 C.ar  1 <1>   0.0820 
 12 C       -0.7830     4.1720    -0.7240 C.ar  1 <1>   0.0820 
 13 N       -4.2610    -2.1790     1.7050 N.4   1 <1>  -0.9590 
 14 C       -5.5790    -1.0950    -0.4730 C.3   1 <1>   0.0000 
 15 O       -0.0950     4.6270     2.9200 O.3   1 <1>  -0.3620 
 16 C       -0.4750     4.8890     0.4700 C.ar  1 <1>  -0.1710 
 17 O       -0.7920     4.6950    -1.9960 O.3   1 <1>  -0.3630 
 18 C       -4.2760    -3.5590     1.2610 C.3   1 <1>   0.3430 
 19 C       -3.1000    -1.8760     2.6080 C.3   1 <1>   0.2630 
 20 C       -6.0260    -2.6510    -0.3390 C.3   1 <1>  -0.1600 
 21 C       -6.8300    -0.8680    -1.4640 C.3   1 <1>   0.1200 
 22 C        0.6500     5.8200     3.0100 C.3   1 <1>   0.0400 
 23 O       -0.2780     6.1400     0.4570 O.3   1 <1>  -0.8290 
 24 C       -0.0830     5.8840    -2.2590 C.3   1 <1>   0.0400 
 25 C       -5.6740    -3.6950     0.7420 C.3   1 <1>  -0.1600 
 26 O       -7.9340    -0.5140    -0.6900 O.3   1 <1>  -0.6800 
 27 H       -3.1880    -1.3800    -1.2830 H     1 <1>   0.0800 
 28 H       -2.2500    -1.7180     0.1380 H     1 <1>   0.0800 
 29 H       -4.0530     1.6940     0.6760 H     1 <1>   0.0800 
 30 H       -3.6800     2.0340    -0.9820 H     1 <1>   0.0800 
 31 H       -0.7540     2.2760     2.6170 H     1 <1>   0.1500 
 32 H       -1.3440     2.3370    -1.5860 H     1 <1>   0.1500 
 33 H       -4.4200    -0.3210     1.1110 H     1 <1>   0.0800 
 34 H       -5.9840     1.1120    -0.4240 H     1 <1>   0.0800 
 35 H       -5.0420     0.6020    -1.7920 H     1 <1>   0.0800 
 36 H       -5.1250    -2.0310     2.2440 H     1 <1>   0.4500 
 37 H       -3.5450    -3.7300     0.4870 H     1 <1>   0.0800 
 38 H       -4.1080    -4.2360     2.0840 H     1 <1>   0.0800 
 39 H       -2.1650    -2.0900     2.1160 H     1 <1>   0.0800 
 40 H       -3.1570    -2.4670     3.5070 H     1 <1>   0.0800 
 41 H       -3.0980    -0.8320     2.8800 H     1 <1>   0.0800 
 42 H       -7.1010    -2.7740    -0.3240 H     1 <1>   0.0800 
 43 H       -5.6890    -3.1130    -1.2540 H     1 <1>   0.0800 
 44 H       -7.1110    -1.7240    -2.0610 H     1 <1>   0.0800 
 45 H       -6.7590    -0.1060    -2.2230 H     1 <1>   0.0800 
 46 H        1.0410     5.9040     4.0050 H     1 <1>   0.0800 
 47 H       -0.0050     6.6450     2.7940 H     1 <1>   0.0800 
 48 H        1.4480     5.7840     2.2900 H     1 <1>   0.0800 
 49 H        0.0210     5.9920    -3.3210 H     1 <1>   0.0800 
 50 H        0.8820     5.8240    -1.7870 H     1 <1>   0.0800 
 51 H       -0.6410     6.7080    -1.8520 H     1 <1>   0.0800 
 52 H       -5.8020    -4.6850     0.3390 H     1 <1>   0.0800 
 53 H       -6.3630    -3.6090     1.5670 H     1 <1>   0.0800 
 54 H       -8.7280    -0.3770    -1.2470 H     1 <1>   0.4000 
@<TRIPOS>BOND
  1   1   2  2   
  2   2   3  am  
  3   2   4  1   
  4   3   5  1   
  5   3   6  1   
  6   4   7  ar  
  7   4   8  ar  
  8   5   9  1   
  9   5  27  1   
 10   5  28  1   
 11   6  10  1   
 12   6  29  1   
 13   6  30  1   
 14   7  11  ar  
 15   7  31  1   
 16   8  12  ar  
 17   8  32  1   
 18   9  13  1   
 19   9  14  1   
 20   9  33  1   
 21  10  14  1   
 22  10  34  1   
 23  10  35  1   
 24  11  15  1   
 25  11  16  ar  
 26  12  16  ar  
 27  12  17  1   
 28  13  18  1   
 29  13  19  1   
 30  13  36  1   
 31  14  20  1   
 32  14  21  1   
 33  15  22  1   
 34  16  23  1   
 35  17  24  1   
 36  18  25  1   
 37  18  37  1   
 38  18  38  1   
 39  19  39  1   
 40  19  40  1   
 41  19  41  1   
 42  20  25  1   
 43  20  42  1   
 44  20  43  1   
 45  21  26  1   
 46  21  44  1   
 47  21  45  1   
 48  22  46  1   
 49  22  47  1   
 50  22  48  1   
 51  24  49  1   
 52  24  50  1   
 53  24  51  1   
 54  25  52  1   
 55  25  53  1   
 56  26  54  1   
@<TRIPOS>SUBSTRUCTURE
  1 ****   3 GROUP 4 **** **** 0

# MOE 2024.06 (io_trps.svl 2023.06)
