@<TRIPOS>MOLECULE
NONAME
61 63 1 0 0 
SMALL
USER_CHARGES


@<TRIPOS>ATOM
  1 O       -1.4620     0.5270    -1.9270 O.2   1 <1>  -0.5700 
  2 C       -2.0920     0.6200    -0.8990 C.2   1 <1>   0.5690 
  3 N       -3.1130    -0.2600    -0.6160 N.am  1 <1>  -0.6600 
  4 C       -1.7270     1.7580     0.0690 C.3   1 <1>  -0.0190 
  5 C       -4.0860    -0.1560     0.5110 C.3   1 <1>   0.1400 
  6 C       -3.3540    -1.4510    -1.4780 C.3   1 <1>   0.1400 
  7 C       -2.5840     3.0120    -0.1920 C.3   1 <1>  -0.1600 
  8 C       -0.2210     2.1310     0.0480 C.3   1 <1>  -0.1600 
  9 C       -5.5100    -0.0870    -0.0490 C.3   1 <1>  -0.1600 
 10 C       -4.7700    -1.3820    -2.0540 C.3   1 <1>  -0.1600 
 11 C       -2.3820     4.0960     0.8910 C.3   1 <1>   0.2000 
 12 C        0.0920     3.5020     0.6830 C.3   1 <1>  -0.1600 
 13 C       -5.8380    -1.2930    -0.9460 C.3   1 <1>   0.2800 
 14 O       -2.4570     5.3600     0.2790 O.3   1 <1>  -0.5600 
 15 C       -1.0210     3.9670     1.6250 C.3   1 <1>   0.2000 
 16 O       -5.7530    -2.4100    -0.0970 O.3   1 <1>  -0.5600 
 17 C       -7.2590    -1.1440    -1.5450 C.3   1 <1>  -0.0220 
 18 C       -3.7460     5.8070    -0.0080 C.3   1 <1>   0.0400 
 19 O       -0.6650     5.1980     2.1370 O.3   1 <1>  -0.6800 
 20 C       -6.0540    -3.6870    -0.5830 C.3   1 <1>   0.2630 
 21 C       -8.3690    -1.0870    -0.5020 C.2   1 <1>  -0.2880 
 22 C       -5.8040    -4.6900     0.5310 C.ar  1 <1>  -0.1440 
 23 C       -9.2650    -0.1010    -0.3930 C.2   1 <1>  -0.3000 
 24 C       -4.5310    -4.8370     1.0620 C.ar  1 <1>  -0.1500 
 25 C       -6.8380    -5.4720     1.0240 C.ar  1 <1>  -0.1500 
 26 C       -4.2920    -5.7560     2.0690 C.ar  1 <1>  -0.1500 
 27 C       -6.6010    -6.3910     2.0310 C.ar  1 <1>  -0.1500 
 28 C       -5.3270    -6.5350     2.5530 C.ar  1 <1>  -0.1500 
 29 H       -1.9290     1.4080     1.0640 H     1 <1>   0.0800 
 30 H       -3.9850    -1.0230     1.1430 H     1 <1>   0.0800 
 31 H       -3.9100     0.7150     1.1120 H     1 <1>   0.0800 
 32 H       -2.6400    -1.4960    -2.2820 H     1 <1>   0.0800 
 33 H       -3.2390    -2.3420    -0.8850 H     1 <1>   0.0800 
 34 H       -3.6230     2.7430    -0.2310 H     1 <1>   0.0800 
 35 H       -2.3050     3.4070    -1.1540 H     1 <1>   0.0800 
 36 H        0.3280     1.3610     0.5610 H     1 <1>   0.0800 
 37 H        0.1420     2.1530    -0.9660 H     1 <1>   0.0800 
 38 H       -5.6170     0.8240    -0.6090 H     1 <1>   0.0800 
 39 H       -6.2070    -0.0480     0.7690 H     1 <1>   0.0800 
 40 H       -4.9470    -2.2250    -2.6950 H     1 <1>   0.0800 
 41 H       -4.8290    -0.5070    -2.6760 H     1 <1>   0.0800 
 42 H       -3.1590     4.0260     1.6330 H     1 <1>   0.0800 
 43 H        0.1940     4.2300    -0.1040 H     1 <1>   0.0800 
 44 H        1.0250     3.4490     1.2160 H     1 <1>   0.0800 
 45 H       -1.1030     3.2790     2.4480 H     1 <1>   0.0800 
 46 H       -7.2890    -0.2420    -2.1300 H     1 <1>   0.0800 
 47 H       -7.4540    -1.9510    -2.2280 H     1 <1>   0.0800 
 48 H       -3.6700     6.7860    -0.4470 H     1 <1>   0.0800 
 49 H       -4.3140     5.8630     0.9040 H     1 <1>   0.0800 
 50 H       -4.2140     5.1360    -0.7070 H     1 <1>   0.0800 
 51 H       -1.0050     5.8630     1.4970 H     1 <1>   0.4000 
 52 H       -7.0840    -3.7180    -0.8860 H     1 <1>   0.0800 
 53 H       -5.4180    -3.9160    -1.4170 H     1 <1>   0.0800 
 54 H       -8.3660    -1.9360     0.1620 H     1 <1>   0.1500 
 55 H      -10.0410    -0.0800     0.3540 H     1 <1>   0.1500 
 56 H       -9.3030     0.7630    -1.0330 H     1 <1>   0.1500 
 57 H       -3.7240    -4.2280     0.6930 H     1 <1>   0.1500 
 58 H       -7.8330    -5.3690     0.6290 H     1 <1>   0.1500 
 59 H       -3.3020    -5.8620     2.4750 H     1 <1>   0.1500 
 60 H       -7.4070    -6.9940     2.4100 H     1 <1>   0.1500 
 61 H       -5.1430    -7.2480     3.3370 H     1 <1>   0.1500 
@<TRIPOS>BOND
  1   1   2  2   
  2   2   3  am  
  3   2   4  1   
  4   3   5  1   
  5   3   6  1   
  6   4   7  1   
  7   4   8  1   
  8   4  29  1   
  9   5   9  1   
 10   5  30  1   
 11   5  31  1   
 12   6  10  1   
 13   6  32  1   
 14   6  33  1   
 15   7  11  1   
 16   7  34  1   
 17   7  35  1   
 18   8  12  1   
 19   8  36  1   
 20   8  37  1   
 21   9  13  1   
 22   9  38  1   
 23   9  39  1   
 24  10  13  1   
 25  10  40  1   
 26  10  41  1   
 27  11  14  1   
 28  11  15  1   
 29  11  42  1   
 30  12  15  1   
 31  12  43  1   
 32  12  44  1   
 33  13  16  1   
 34  13  17  1   
 35  14  18  1   
 36  15  19  1   
 37  15  45  1   
 38  16  20  1   
 39  17  21  1   
 40  17  46  1   
 41  17  47  1   
 42  18  48  1   
 43  18  49  1   
 44  18  50  1   
 45  19  51  1   
 46  20  22  1   
 47  20  52  1   
 48  20  53  1   
 49  21  23  2   
 50  21  54  1   
 51  22  24  ar  
 52  22  25  ar  
 53  23  55  1   
 54  23  56  1   
 55  24  26  ar  
 56  24  57  1   
 57  25  27  ar  
 58  25  58  1   
 59  26  28  ar  
 60  26  59  1   
 61  27  28  ar  
 62  27  60  1   
 63  28  61  1   
@<TRIPOS>SUBSTRUCTURE
  1 ****   5 GROUP 4 **** **** 0

# MOE 2024.06 (io_trps.svl 2023.06)
