@<TRIPOS>MOLECULE
NONAME
43 45 1 0 0 
SMALL
USER_CHARGES


@<TRIPOS>ATOM
  1 S       -0.7540    -0.8330    -0.7980 S.3   1 <1>  -0.0800 
  2 C       -1.4060    -2.4200    -0.4180 C.2   1 <1>  -0.1400 
  3 C       -1.5360    -0.8330    -2.3680 C.2   1 <1>  -0.1100 
  4 C       -2.1550    -2.8730    -1.4430 C.2   1 <1>  -0.1500 
  5 C       -1.0310    -2.9880     0.9400 C.3   1 <1>   0.3200 
  6 C       -2.2290    -1.9710    -2.5510 C.2   1 <1>  -0.1500 
  7 N       -1.7230    -4.2690     1.1460 N.am  1 <1>  -0.7300 
  8 C       -1.1730    -5.3950     1.6590 C.2   1 <1>   0.5690 
  9 O       -0.0590    -5.4120     2.1250 O.2   1 <1>  -0.5700 
 10 C       -2.0050    -6.6810     1.6290 C.3   1 <1>   0.1710 
 11 N       -2.9520    -6.7590     0.4770 N.3   1 <1>  -0.8100 
 12 C       -2.2550    -6.9060    -0.8070 C.3   1 <1>   0.1100 
 13 C       -3.8340    -7.9300     0.5620 C.3   1 <1>   0.1100 
 14 C       -3.3500    -7.3740    -1.7560 C.3   1 <1>   0.2000 
 15 C       -4.1820    -8.3220    -0.8880 C.3   1 <1>  -0.0800 
 16 O       -4.1380    -6.2790    -2.0530 O.3   1 <1>  -0.6800 
 17 C       -3.8490    -9.7950    -1.1920 C.3   1 <1>  -0.0170 
 18 C       -4.6550   -10.7460    -0.3220 C.ar  1 <1>   0.1670 
 19 N       -4.0530   -11.2200     0.7570 N.ar  1 <1>  -0.6200 
 20 C       -5.9630   -11.0700    -0.6800 C.ar  1 <1>   0.1600 
 21 C       -4.8370   -12.0330     1.4450 C.ar  1 <1>   0.1600 
 22 N       -6.7490   -11.8780     0.0110 N.ar  1 <1>  -0.6200 
 23 C       -6.1410   -12.3510     1.0850 C.ar  1 <1>   0.1600 
 24 H       -1.3910     0.0290    -2.9950 H     1 <1>   0.1500 
 25 H       -2.6710    -3.8170    -1.4830 H     1 <1>   0.1500 
 26 H       -1.3250    -2.3000     1.7130 H     1 <1>   0.0800 
 27 H        0.0350    -3.1310     0.9940 H     1 <1>   0.0800 
 28 H       -2.7990    -2.2240    -3.4290 H     1 <1>   0.1500 
 29 H       -2.6450    -4.3590     0.7140 H     1 <1>   0.3700 
 30 H       -2.5640    -6.7230     2.5460 H     1 <1>   0.0800 
 31 H       -1.3340    -7.5220     1.6110 H     1 <1>   0.0800 
 32 H       -1.8050    -5.9840    -1.1340 H     1 <1>   0.0800 
 33 H       -1.4950    -7.6660    -0.7320 H     1 <1>   0.0800 
 34 H       -3.3210    -8.7380     1.0580 H     1 <1>   0.0800 
 35 H       -4.7210    -7.6880     1.1230 H     1 <1>   0.0800 
 36 H       -2.9820    -7.8000    -2.6730 H     1 <1>   0.0800 
 37 H       -5.2320    -8.1700    -1.0670 H     1 <1>   0.0800 
 38 H       -4.3590    -5.8580    -1.1960 H     1 <1>   0.4000 
 39 H       -2.7990    -9.9770    -1.0370 H     1 <1>   0.0800 
 40 H       -4.0630   -10.0020    -2.2260 H     1 <1>   0.0800 
 41 H       -6.3780   -10.6390    -1.5740 H     1 <1>   0.1500 
 42 H       -4.4280   -12.4700     2.3390 H     1 <1>   0.1500 
 43 H       -6.7010   -13.0230     1.7110 H     1 <1>   0.1500 
@<TRIPOS>BOND
  1   1   2  1   
  2   1   3  1   
  3   2   4  2   
  4   2   5  1   
  5   3   6  2   
  6   3  24  1   
  7   4   6  1   
  8   4  25  1   
  9   5   7  1   
 10   5  26  1   
 11   5  27  1   
 12   6  28  1   
 13   7   8  am  
 14   7  29  1   
 15   8   9  2   
 16   8  10  1   
 17  10  11  1   
 18  10  30  1   
 19  10  31  1   
 20  11  12  1   
 21  11  13  1   
 22  12  14  1   
 23  12  32  1   
 24  12  33  1   
 25  13  15  1   
 26  13  34  1   
 27  13  35  1   
 28  14  15  1   
 29  14  16  1   
 30  14  36  1   
 31  15  17  1   
 32  15  37  1   
 33  16  38  1   
 34  17  18  1   
 35  17  39  1   
 36  17  40  1   
 37  18  19  ar  
 38  18  20  ar  
 39  19  21  ar  
 40  20  22  ar  
 41  20  41  1   
 42  21  23  ar  
 43  21  42  1   
 44  22  23  ar  
 45  23  43  1   
@<TRIPOS>SUBSTRUCTURE
  1 ****  11 GROUP 4 **** **** 0

# MOE 2024.06 (io_trps.svl 2023.06)
