@<TRIPOS>MOLECULE
NONAME
46 48 1 0 0 
SMALL
USER_CHARGES


@<TRIPOS>ATOM
  1 O       -2.3920    -1.7390     1.9470 O.2   1 <1>  -0.5700 
  2 C       -2.6340    -0.8270     1.1940 C.2   1 <1>   0.5690 
  3 N       -3.1000    -0.9500    -0.0680 N.am  1 <1>  -0.6600 
  4 C       -2.4580     0.6200     1.5580 C.3   1 <1>  -0.0990 
  5 C       -3.3100     0.3430    -0.7360 C.3   1 <1>   0.1400 
  6 C       -3.3240    -2.2320    -0.7700 C.3   1 <1>   0.1400 
  7 C       -3.1140     1.3740     0.3860 C.3   1 <1>  -0.1600 
  8 C       -4.7320    -2.7360    -0.4720 C.3   1 <1>  -0.0990 
  9 C       -4.9330    -4.0820    -1.1200 C.2   1 <1>   0.5690 
 10 O       -5.2710    -4.1320    -2.2760 O.2   1 <1>  -0.5700 
 11 N       -4.7220    -5.1990    -0.3850 N.am  1 <1>  -0.7300 
 12 C       -4.8220    -6.5840    -0.9010 C.3   1 <1>   0.2200 
 13 C       -6.0960    -7.2670    -0.4210 C.3   1 <1>  -0.0800 
 14 C       -3.7690    -7.4450    -0.2170 C.3   1 <1>   0.1200 
 15 C       -5.7050    -7.7930     0.9640 C.3   1 <1>   0.1200 
 16 C       -7.3710    -6.4040    -0.4350 C.3   1 <1>  -0.0170 
 17 O       -4.3080    -7.7630     1.0300 O.3   1 <1>  -0.5600 
 18 C       -8.5860    -7.2270    -0.0380 C.ar  1 <1>  -0.1440 
 19 C       -9.0930    -7.2150     1.2460 C.ar  1 <1>  -0.1500 
 20 C       -9.2450    -8.0310    -0.9450 C.ar  1 <1>  -0.1500 
 21 C      -10.1990    -7.9910     1.5520 C.ar  1 <1>   0.1600 
 22 C      -10.3440    -8.7680    -0.5360 C.ar  1 <1>   0.1600 
 23 N      -10.8350    -8.7700     0.6920 N.ar  1 <1>  -0.6200 
 24 H       -2.9380     0.8350     2.4950 H     1 <1>   0.0800 
 25 H       -1.4080     0.8370     1.6220 H     1 <1>   0.0800 
 26 H       -2.5720     0.4710    -1.5110 H     1 <1>   0.0800 
 27 H       -4.3000     0.4000    -1.1560 H     1 <1>   0.0800 
 28 H       -3.1890    -2.1000    -1.8300 H     1 <1>   0.0800 
 29 H       -2.6020    -2.9520    -0.4220 H     1 <1>   0.0800 
 30 H       -2.5140     2.2030     0.0550 H     1 <1>   0.0800 
 31 H       -4.0780     1.7450     0.6890 H     1 <1>   0.0800 
 32 H       -5.4580    -2.0500    -0.8660 H     1 <1>   0.0800 
 33 H       -4.8710    -2.8230     0.5890 H     1 <1>   0.0800 
 34 H       -4.4350    -5.1370     0.5970 H     1 <1>   0.3700 
 35 H       -4.7240    -6.5960    -1.9740 H     1 <1>   0.0800 
 36 H       -6.2640    -8.1220    -1.0520 H     1 <1>   0.0800 
 37 H       -2.8300    -6.9350    -0.0890 H     1 <1>   0.0800 
 38 H       -3.6190    -8.3640    -0.7560 H     1 <1>   0.0800 
 39 H       -6.0430    -8.8040     1.1170 H     1 <1>   0.0800 
 40 H       -6.0790    -7.1610     1.7500 H     1 <1>   0.0800 
 41 H       -7.5190    -6.0030    -1.4240 H     1 <1>   0.0800 
 42 H       -7.2690    -5.5710     0.2370 H     1 <1>   0.0800 
 43 H       -8.6410    -6.6120     2.0110 H     1 <1>   0.1500 
 44 H       -8.9150    -8.0900    -1.9660 H     1 <1>   0.1500 
 45 H      -10.5800    -7.9710     2.5590 H     1 <1>   0.1500 
 46 H      -10.8450    -9.3900    -1.2580 H     1 <1>   0.1500 
@<TRIPOS>BOND
  1   1   2  2   
  2   2   3  am  
  3   2   4  1   
  4   3   5  1   
  5   3   6  1   
  6   4   7  1   
  7   4  24  1   
  8   4  25  1   
  9   5   7  1   
 10   5  26  1   
 11   5  27  1   
 12   6   8  1   
 13   6  28  1   
 14   6  29  1   
 15   7  30  1   
 16   7  31  1   
 17   8   9  1   
 18   8  32  1   
 19   8  33  1   
 20   9  10  2   
 21   9  11  am  
 22  11  12  1   
 23  11  34  1   
 24  12  13  1   
 25  12  14  1   
 26  12  35  1   
 27  13  15  1   
 28  13  16  1   
 29  13  36  1   
 30  14  17  1   
 31  14  37  1   
 32  14  38  1   
 33  15  17  1   
 34  15  39  1   
 35  15  40  1   
 36  16  18  1   
 37  16  41  1   
 38  16  42  1   
 39  18  19  ar  
 40  18  20  ar  
 41  19  21  ar  
 42  19  43  1   
 43  20  22  ar  
 44  20  44  1   
 45  21  23  ar  
 46  21  45  1   
 47  22  23  ar  
 48  22  46  1   
@<TRIPOS>SUBSTRUCTURE
  1 ****  11 GROUP 4 **** **** 0

# MOE 2024.06 (io_trps.svl 2023.06)
