@<TRIPOS>MOLECULE
NONAME
46 48 1 0 0 
SMALL
USER_CHARGES


@<TRIPOS>ATOM
  1 S       -0.8580     0.4250     0.1790 S.3   1 <1>  -0.2860 
  2 C        0.7390     1.2230     0.1410 C.2   1 <1>   0.5340 
  3 C       -1.5540     0.8360    -1.4910 C.3   1 <1>   0.1310 
  4 O        1.5240     1.1040     1.1570 O.3   1 <1>  -0.2800 
  5 N        1.2110     1.9310    -0.8110 N.2   1 <1>  -0.3380 
  6 C       -2.9550     0.2610    -1.6420 C.2   1 <1>   0.5690 
  7 C        2.5560     1.7940     0.7870 C.2   1 <1>   0.2980 
  8 N        2.4180     2.3100    -0.3790 N.2   1 <1>  -0.3380 
  9 O       -3.0600    -0.7750    -2.2570 O.2   1 <1>  -0.5700 
 10 N       -4.0550     0.9050    -1.1240 N.am  1 <1>  -0.6600 
 11 C        3.7450     1.9160     1.7110 C.3   1 <1>  -0.0600 
 12 C       -3.9810     2.1590    -0.3100 C.3   1 <1>   0.1400 
 13 C       -5.4180     0.3340    -1.3480 C.3   1 <1>   0.1400 
 14 C       -5.1510     2.2080     0.6710 C.3   1 <1>  -0.1600 
 15 C       -6.4620     1.4530    -1.3790 C.3   1 <1>  -0.1600 
 16 C       -6.5070     2.2640    -0.0580 C.3   1 <1>   0.2800 
 17 O       -6.6960     3.6160    -0.3860 O.3   1 <1>  -0.5600 
 18 C       -7.6340     1.8000     0.9050 C.3   1 <1>  -0.1600 
 19 C       -7.8860     3.9890    -1.0360 C.3   1 <1>   0.1200 
 20 C       -8.8220     2.7640     0.9850 C.3   1 <1>   0.2800 
 21 C       -9.1210     3.3300    -0.4000 C.3   1 <1>  -0.1600 
 22 O       -8.4460     3.8140     1.7810 O.3   1 <1>  -0.6800 
 23 C      -10.0470     2.1300     1.6380 C.3   1 <1>  -0.2400 
 24 H       -0.8940     0.4020    -2.2200 H     1 <1>   0.0800 
 25 H       -1.5550     1.9040    -1.5950 H     1 <1>   0.0800 
 26 H        3.4420     2.3760     2.6330 H     1 <1>   0.0800 
 27 H        4.5060     2.5190     1.2500 H     1 <1>   0.0800 
 28 H        4.1460     0.9410     1.9150 H     1 <1>   0.0800 
 29 H       -4.0230     3.0140    -0.9650 H     1 <1>   0.0800 
 30 H       -3.0600     2.1950     0.2440 H     1 <1>   0.0800 
 31 H       -5.6410    -0.3630    -0.5590 H     1 <1>   0.0800 
 32 H       -5.4420    -0.2000    -2.2830 H     1 <1>   0.0800 
 33 H       -5.0540     3.0590     1.3200 H     1 <1>   0.0800 
 34 H       -5.0900     1.3280     1.2860 H     1 <1>   0.0800 
 35 H       -7.4240     1.0290    -1.5980 H     1 <1>   0.0800 
 36 H       -6.1970     2.0970    -2.1980 H     1 <1>   0.0800 
 37 H       -7.2560     1.6490     1.9010 H     1 <1>   0.0800 
 38 H       -7.9860     0.8370     0.5850 H     1 <1>   0.0800 
 39 H       -7.8090     3.7380    -2.0800 H     1 <1>   0.0800 
 40 H       -7.9610     5.0590    -0.9520 H     1 <1>   0.0800 
 41 H       -9.4510     2.5320    -1.0400 H     1 <1>   0.0800 
 42 H       -9.9270     4.0400    -0.3480 H     1 <1>   0.0800 
 43 H       -7.6490     4.2060     1.3650 H     1 <1>   0.4000 
 44 H      -10.3990     1.3030     1.0490 H     1 <1>   0.0800 
 45 H      -10.8390     2.8520     1.7210 H     1 <1>   0.0800 
 46 H       -9.7980     1.7690     2.6200 H     1 <1>   0.0800 
@<TRIPOS>BOND
  1   1   2  1   
  2   1   3  1   
  3   2   4  1   
  4   2   5  2   
  5   3   6  1   
  6   3  24  1   
  7   3  25  1   
  8   4   7  1   
  9   5   8  1   
 10   6   9  2   
 11   6  10  am  
 12   7   8  2   
 13   7  11  1   
 14  10  12  1   
 15  10  13  1   
 16  11  26  1   
 17  11  27  1   
 18  11  28  1   
 19  12  14  1   
 20  12  29  1   
 21  12  30  1   
 22  13  15  1   
 23  13  31  1   
 24  13  32  1   
 25  14  16  1   
 26  14  33  1   
 27  14  34  1   
 28  15  16  1   
 29  15  35  1   
 30  15  36  1   
 31  16  17  1   
 32  16  18  1   
 33  17  19  1   
 34  18  20  1   
 35  18  37  1   
 36  18  38  1   
 37  19  21  1   
 38  19  39  1   
 39  19  40  1   
 40  20  21  1   
 41  20  22  1   
 42  20  23  1   
 43  21  41  1   
 44  21  42  1   
 45  22  43  1   
 46  23  44  1   
 47  23  45  1   
 48  23  46  1   
@<TRIPOS>SUBSTRUCTURE
  1 ****  12 GROUP 4 **** **** 0

# MOE 2024.06 (io_trps.svl 2023.06)
