@<TRIPOS>MOLECULE
NONAME
44 45 1 0 0 
SMALL
USER_CHARGES


@<TRIPOS>ATOM
  1 CL      -2.7970     2.7410     2.0960 Cl    1 <1>  -0.1770 
  2 C       -1.6220     2.0290     1.0170 C.ar  1 <1>   0.1770 
  3 C       -1.8820     1.9240    -0.3440 C.ar  1 <1>  -0.1440 
  4 C       -0.4360     1.5740     1.5710 C.ar  1 <1>  -0.1500 
  5 C       -0.8960     1.3290    -1.1180 C.ar  1 <1>   0.1900 
  6 C       -3.1910     2.4190    -0.9640 C.3   1 <1>   0.0440 
  7 C        0.5290     0.9890     0.7650 C.ar  1 <1>  -0.1500 
  8 F       -1.0910     1.1830    -2.4020 F     1 <1>  -0.1900 
  9 C        0.2970     0.8640    -0.5940 C.ar  1 <1>  -0.1500 
 10 C       -4.2370     1.3210    -1.0050 C.2   1 <1>   0.5690 
 11 O       -5.3090     1.5010    -0.4800 O.2   1 <1>  -0.5700 
 12 N       -3.9350     0.1500    -1.6190 N.am  1 <1>  -0.7300 
 13 C       -4.8220    -1.0320    -1.6390 C.3   1 <1>   0.2200 
 14 C       -4.6540    -1.8050    -0.3280 C.3   1 <1>  -0.0800 
 15 C       -4.3640    -2.0340    -2.6970 C.3   1 <1>   0.1200 
 16 C       -4.0720    -3.1530    -0.7680 C.3   1 <1>   0.1200 
 17 C       -5.9360    -1.8370     0.5330 C.3   1 <1>  -0.0550 
 18 O       -3.5240    -2.9140    -2.0220 O.3   1 <1>  -0.5600 
 19 S       -7.3380    -2.7750    -0.0960 S.o2  1 <1>   1.3330 
 20 O       -7.3700    -2.6760    -1.5380 O.2   1 <1>  -0.6500 
 21 O       -8.5160    -2.4280     0.6660 O.2   1 <1>  -0.6500 
 22 N       -6.9510    -4.3800     0.3070 N.am  1 <1>  -0.8490 
 23 C       -7.5590    -5.3450    -0.6150 C.3   1 <1>   0.1160 
 24 C       -7.2940    -4.7350     1.6890 C.3   1 <1>   0.1160 
 25 H       -0.2720     1.6790     2.6290 H     1 <1>   0.1500 
 26 H       -3.0240     2.7640    -1.9670 H     1 <1>   0.0800 
 27 H       -3.5820     3.2520    -0.4100 H     1 <1>   0.0800 
 28 H        1.4510     0.6350     1.1940 H     1 <1>   0.1500 
 29 H        1.0290     0.4110    -1.2400 H     1 <1>   0.1500 
 30 H       -2.9880    -0.0150    -1.9710 H     1 <1>   0.3700 
 31 H       -5.8350    -0.7160    -1.8250 H     1 <1>   0.0800 
 32 H       -3.8970    -1.3250     0.2670 H     1 <1>   0.0800 
 33 H       -3.8340    -1.5760    -3.5120 H     1 <1>   0.0800 
 34 H       -5.2020    -2.5980    -3.0710 H     1 <1>   0.0800 
 35 H       -4.8200    -3.9140    -0.8910 H     1 <1>   0.0800 
 36 H       -3.2990    -3.5040    -0.1080 H     1 <1>   0.0800 
 37 H       -6.2520    -0.8190     0.6650 H     1 <1>   0.0800 
 38 H       -5.6840    -2.2070     1.5070 H     1 <1>   0.0800 
 39 H       -7.2890    -6.3500    -0.3370 H     1 <1>   0.0800 
 40 H       -7.2080    -5.1700    -1.6180 H     1 <1>   0.0800 
 41 H       -8.6320    -5.2490    -0.6030 H     1 <1>   0.0800 
 42 H       -6.9400    -5.7260     1.9160 H     1 <1>   0.0800 
 43 H       -8.3620    -4.7030     1.8330 H     1 <1>   0.0800 
 44 H       -6.8350    -4.0450     2.3770 H     1 <1>   0.0800 
@<TRIPOS>BOND
  1   1   2  1   
  2   2   3  ar  
  3   2   4  ar  
  4   3   5  ar  
  5   3   6  1   
  6   4   7  ar  
  7   4  25  1   
  8   5   8  1   
  9   5   9  ar  
 10   6  10  1   
 11   6  26  1   
 12   6  27  1   
 13   7   9  ar  
 14   7  28  1   
 15   9  29  1   
 16  10  11  2   
 17  10  12  am  
 18  12  13  1   
 19  12  30  1   
 20  13  14  1   
 21  13  15  1   
 22  13  31  1   
 23  14  16  1   
 24  14  17  1   
 25  14  32  1   
 26  15  18  1   
 27  15  33  1   
 28  15  34  1   
 29  16  18  1   
 30  16  35  1   
 31  16  36  1   
 32  17  19  1   
 33  17  37  1   
 34  17  38  1   
 35  19  20  2   
 36  19  21  2   
 37  19  22  am  
 38  22  23  1   
 39  22  24  1   
 40  23  39  1   
 41  23  40  1   
 42  23  41  1   
 43  24  42  1   
 44  24  43  1   
 45  24  44  1   
@<TRIPOS>SUBSTRUCTURE
  1 ****  14 GROUP 4 **** **** 0

# MOE 2024.06 (io_trps.svl 2023.06)
