@<TRIPOS>MOLECULE
NONAME
55 58 1 0 0 
SMALL
USER_CHARGES


@<TRIPOS>ATOM
  1 O       -0.3270    -1.1800    -0.6760 O.3   1 <1>  -0.6800 
  2 C       -1.5340    -1.6410    -0.1770 C.3   1 <1>   0.2000 
  3 C       -1.6780    -3.1460    -0.4700 C.3   1 <1>   0.2090 
  4 C       -2.6530    -0.8380    -0.8490 C.3   1 <1>  -0.1600 
  5 N       -3.0360    -3.6370    -0.0570 N.pl3 1 <1>  -0.8380 
  6 C       -4.0300    -1.4050    -0.4660 C.3   1 <1>  -0.1600 
  7 C       -3.2640    -4.7170     0.7370 C.ar  1 <1>   0.4100 
  8 C       -4.1410    -2.9070    -0.7550 C.3   1 <1>   0.2090 
  9 N       -4.3630    -5.4180     0.5230 N.ar  1 <1>  -0.6200 
 10 C       -2.3620    -5.0780     1.7560 C.ar  1 <1>  -0.1500 
 11 C       -4.5920    -6.4950     1.2590 C.ar  1 <1>   0.7710 
 12 C       -2.6200    -6.1730     2.5080 C.ar  1 <1>   0.2110 
 13 N       -3.7480    -6.8720     2.2350 N.ar  1 <1>  -0.1790 
 14 N       -5.7060    -7.2380     1.0280 N.pl3 1 <1>  -0.8380 
 15 C       -6.8040    -6.7660     0.1030 C.3   1 <1>   0.2090 
 16 C       -6.0100    -8.6350     1.5140 C.3   1 <1>   0.2090 
 17 C       -6.9840    -7.7150    -1.0970 C.3   1 <1>   0.2090 
 18 C       -6.2160    -9.6210     0.3410 C.3   1 <1>   0.2090 
 19 N       -7.2130    -9.1240    -0.6540 N.pl3 1 <1>  -0.8380 
 20 C       -8.5370    -9.5200    -0.5080 C.ar  1 <1>   0.4100 
 21 N       -9.0230    -9.4150     0.7240 N.ar  1 <1>  -0.6200 
 22 C       -9.3140    -9.9780    -1.5980 C.ar  1 <1>   0.1670 
 23 C      -10.2920    -9.7710     0.8080 C.ar  1 <1>   0.1670 
 24 N      -10.5830   -10.3230    -1.5080 N.ar  1 <1>  -0.6200 
 25 C       -8.7150   -10.1020    -2.9900 C.3   1 <1>  -0.0970 
 26 C      -11.0460   -10.2080    -0.2740 C.ar  1 <1>   0.1600 
 27 C      -10.9130    -9.6770     2.1870 C.3   1 <1>  -0.0970 
 28 H        0.4210    -1.4820    -0.1270 H     1 <1>   0.4000 
 29 H       -1.5440    -1.4700     0.8850 H     1 <1>   0.0800 
 30 H       -0.9000    -3.6920     0.0280 H     1 <1>   0.0800 
 31 H       -1.5690    -3.3030    -1.5300 H     1 <1>   0.0800 
 32 H       -2.5360    -0.8910    -1.9170 H     1 <1>   0.0800 
 33 H       -2.5880     0.1920    -0.5470 H     1 <1>   0.0800 
 34 H       -4.7950    -0.8840    -1.0130 H     1 <1>   0.0800 
 35 H       -4.2120    -1.2410     0.5820 H     1 <1>   0.0800 
 36 H       -5.1040    -3.2550    -0.4240 H     1 <1>   0.0800 
 37 H       -4.0680    -3.0840    -1.8150 H     1 <1>   0.0800 
 38 H       -1.4960    -4.4710     1.9330 H     1 <1>   0.1500 
 39 H       -1.9750    -6.5000     3.3080 H     1 <1>   0.1500 
 40 H       -4.0360    -7.6790     2.7720 H     1 <1>   0.4570 
 41 H       -6.6200    -5.7730    -0.2670 H     1 <1>   0.0800 
 42 H       -7.7330    -6.7330     0.6480 H     1 <1>   0.0800 
 43 H       -6.9140    -8.6130     2.1010 H     1 <1>   0.0800 
 44 H       -5.2270    -9.0180     2.1400 H     1 <1>   0.0800 
 45 H       -6.1070    -7.6750    -1.7190 H     1 <1>   0.0800 
 46 H       -7.8220    -7.3830    -1.6850 H     1 <1>   0.0800 
 47 H       -6.5460   -10.5700     0.7300 H     1 <1>   0.0800 
 48 H       -5.2780    -9.7840    -0.1600 H     1 <1>   0.0800 
 49 H       -7.6530   -10.2520    -2.9450 H     1 <1>   0.0800 
 50 H       -8.9240    -9.2100    -3.5500 H     1 <1>   0.0800 
 51 H       -9.1510   -10.9410    -3.5010 H     1 <1>   0.0800 
 52 H      -12.0760   -10.4770    -0.1200 H     1 <1>   0.1500 
 53 H      -10.3720   -10.3070     2.8690 H     1 <1>   0.0800 
 54 H      -11.9420    -9.9850     2.1730 H     1 <1>   0.0800 
 55 H      -10.8600    -8.6620     2.5370 H     1 <1>   0.0800 
@<TRIPOS>BOND
  1   1   2  1   
  2   1  28  1   
  3   2   3  1   
  4   2   4  1   
  5   2  29  1   
  6   3   5  1   
  7   3  30  1   
  8   3  31  1   
  9   4   6  1   
 10   4  32  1   
 11   4  33  1   
 12   5   7  1   
 13   5   8  1   
 14   6   8  1   
 15   6  34  1   
 16   6  35  1   
 17   7   9  ar  
 18   7  10  ar  
 19   8  36  1   
 20   8  37  1   
 21   9  11  ar  
 22  10  12  ar  
 23  10  38  1   
 24  11  13  ar  
 25  11  14  1   
 26  12  13  ar  
 27  12  39  1   
 28  13  40  1   
 29  14  15  1   
 30  14  16  1   
 31  15  17  1   
 32  15  41  1   
 33  15  42  1   
 34  16  18  1   
 35  16  43  1   
 36  16  44  1   
 37  17  19  1   
 38  17  45  1   
 39  17  46  1   
 40  18  19  1   
 41  18  47  1   
 42  18  48  1   
 43  19  20  1   
 44  20  21  ar  
 45  20  22  ar  
 46  21  23  ar  
 47  22  24  ar  
 48  22  25  1   
 49  23  26  ar  
 50  23  27  1   
 51  24  26  ar  
 52  25  49  1   
 53  25  50  1   
 54  25  51  1   
 55  26  52  1   
 56  27  53  1   
 57  27  54  1   
 58  27  55  1   
@<TRIPOS>SUBSTRUCTURE
  1 ****  15 GROUP 4 **** **** 0

# MOE 2024.06 (io_trps.svl 2023.06)
