@<TRIPOS>MOLECULE
NONAME
54 57 1 0 0 
SMALL
USER_CHARGES


@<TRIPOS>ATOM
  1 O        0.9140     0.9050     0.8740 O.3   1 <1>  -0.0190 
  2 N        2.0100     0.2100     0.9690 N.2   1 <1>  -0.4100 
  3 C        1.1190     2.0690     0.3150 C.2   1 <1>  -0.0400 
  4 C        2.9390     0.9380     0.4620 C.2   1 <1>   0.1080 
  5 C        2.4260     2.1530     0.0180 C.2   1 <1>  -0.1500 
  6 C       -0.0590     3.0100     0.1230 C.3   1 <1>   0.0200 
  7 C        4.3890     0.5200     0.3630 C.3   1 <1>  -0.0590 
  8 C        0.3660     4.4050    -0.3670 C.3   1 <1>  -0.0800 
  9 C       -0.7840     5.3380    -0.7400 C.3   1 <1>   0.2000 
 10 C        1.1450     5.2070     0.6740 C.3   1 <1>   0.2090 
 11 O       -1.8130     5.1870     0.2010 O.3   1 <1>  -0.5600 
 12 C       -0.1610     6.7400    -0.6390 C.3   1 <1>   0.2090 
 13 N        1.0410     6.6200     0.2340 N.pl3 1 <1>  -0.8380 
 14 C       -3.0610     5.6540    -0.2040 C.3   1 <1>   0.0400 
 15 C        2.1940     7.2390    -0.1910 C.ar  1 <1>   0.4100 
 16 N        2.7980     6.7080    -1.2370 N.ar  1 <1>  -0.6200 
 17 C        2.6860     8.3670     0.4440 C.ar  1 <1>  -0.1440 
 18 C        3.8910     7.3230    -1.6340 C.ar  1 <1>   0.4700 
 19 C        3.8420     8.9110    -0.0730 C.ar  1 <1>   0.3930 
 20 C        1.9540     8.9510     1.6540 C.3   1 <1>  -0.0970 
 21 N        4.4610     8.3930    -1.1230 N.ar  1 <1>  -0.6200 
 22 O        4.3560    10.0260     0.4990 O.3   1 <1>  -0.1650 
 23 C        5.6250    10.4810     0.3110 C.ar  1 <1>   0.0820 
 24 C        5.8570    11.8300     0.0300 C.ar  1 <1>   0.1670 
 25 C        6.7060     9.6250     0.4380 C.ar  1 <1>  -0.1500 
 26 N        7.0630    12.3570    -0.1270 N.ar  1 <1>  -0.6200 
 27 C        4.7130    12.8170    -0.1180 C.3   1 <1>  -0.0970 
 28 C        7.9600    10.1680     0.2680 C.ar  1 <1>  -0.1500 
 29 C        8.0810    11.5190    -0.0080 C.ar  1 <1>   0.1600 
 30 H        2.9830     2.9430    -0.4500 H     1 <1>   0.1500 
 31 H       -0.7320     2.5700    -0.5900 H     1 <1>   0.0800 
 32 H       -0.5860     3.0970     1.0580 H     1 <1>   0.0800 
 33 H        5.0200     1.2930     0.7600 H     1 <1>   0.0800 
 34 H        4.6460     0.3430    -0.6650 H     1 <1>   0.0800 
 35 H        4.5480    -0.3830     0.9230 H     1 <1>   0.0800 
 36 H        0.9930     4.2980    -1.2340 H     1 <1>   0.0800 
 37 H       -1.1680     5.1260    -1.7240 H     1 <1>   0.0800 
 38 H        2.1720     4.8900     0.7370 H     1 <1>   0.0800 
 39 H        0.6840     5.1120     1.6430 H     1 <1>   0.0800 
 40 H       -0.8540     7.4490    -0.2220 H     1 <1>   0.0800 
 41 H        0.1400     7.0710    -1.6180 H     1 <1>   0.0800 
 42 H       -3.7550     5.4880     0.6010 H     1 <1>   0.0800 
 43 H       -3.3800     5.1080    -1.0740 H     1 <1>   0.0800 
 44 H       -3.0020     6.7070    -0.4160 H     1 <1>   0.0800 
 45 H        4.3840     6.8950    -2.4900 H     1 <1>   0.1500 
 46 H        1.7950     8.1800     2.3870 H     1 <1>   0.0800 
 47 H        0.9960     9.3290     1.3470 H     1 <1>   0.0800 
 48 H        2.5040     9.7480     2.1200 H     1 <1>   0.0800 
 49 H        6.5680     8.5820     0.6580 H     1 <1>   0.1500 
 50 H        3.7640    12.3240    -0.2150 H     1 <1>   0.0800 
 51 H        4.8710    13.4170    -0.9950 H     1 <1>   0.0800 
 52 H        4.6870    13.4620     0.7400 H     1 <1>   0.0800 
 53 H        8.8370     9.5520     0.3490 H     1 <1>   0.1500 
 54 H        9.0660    11.9320    -0.1390 H     1 <1>   0.1500 
@<TRIPOS>BOND
  1   1   2  1   
  2   1   3  1   
  3   2   4  2   
  4   3   5  2   
  5   3   6  1   
  6   4   5  1   
  7   4   7  1   
  8   5  30  1   
  9   6   8  1   
 10   6  31  1   
 11   6  32  1   
 12   7  33  1   
 13   7  34  1   
 14   7  35  1   
 15   8   9  1   
 16   8  10  1   
 17   8  36  1   
 18   9  11  1   
 19   9  12  1   
 20   9  37  1   
 21  10  13  1   
 22  10  38  1   
 23  10  39  1   
 24  11  14  1   
 25  12  13  1   
 26  12  40  1   
 27  12  41  1   
 28  13  15  1   
 29  14  42  1   
 30  14  43  1   
 31  14  44  1   
 32  15  16  ar  
 33  15  17  ar  
 34  16  18  ar  
 35  17  19  ar  
 36  17  20  1   
 37  18  21  ar  
 38  18  45  1   
 39  19  21  ar  
 40  19  22  1   
 41  20  46  1   
 42  20  47  1   
 43  20  48  1   
 44  22  23  1   
 45  23  24  ar  
 46  23  25  ar  
 47  24  26  ar  
 48  24  27  1   
 49  25  28  ar  
 50  25  49  1   
 51  26  29  ar  
 52  27  50  1   
 53  27  51  1   
 54  27  52  1   
 55  28  29  ar  
 56  28  53  1   
 57  29  54  1   
@<TRIPOS>SUBSTRUCTURE
  1 ****  15 GROUP 4 **** **** 0

# MOE 2024.06 (io_trps.svl 2023.06)
