@<TRIPOS>MOLECULE
NONAME
27 29 1 0 0 
SMALL
USER_CHARGES


@<TRIPOS>ATOM
  1 BR       0.1640     1.0030    -0.5440 Br    1 <1>  -0.1110 
  2 C       -1.7450     0.9400    -0.3160 C.ar  1 <1>   0.1110 
  3 C       -2.3450     1.8790     0.5010 C.ar  1 <1>  -0.1500 
  4 C       -2.4590    -0.0480    -0.9800 C.ar  1 <1>  -0.1500 
  5 C       -3.7200     1.8070     0.6430 C.ar  1 <1>   0.1170 
  6 C       -3.8370    -0.1070    -0.8260 C.ar  1 <1>  -0.1500 
  7 N       -4.5610     2.6180     1.3870 N.am  1 <1>  -0.5470 
  8 C       -4.4540     0.8290    -0.0100 C.ar  1 <1>  -0.1430 
  9 C       -5.8480     2.2290     1.2540 C.2   1 <1>   0.5690 
 10 C       -5.9260     1.0070     0.3440 C.3   1 <1>   0.2050 
 11 O       -6.8160     2.7690     1.7300 O.2   1 <1>  -0.5700 
 12 C       -6.8570     1.3360    -0.8100 C.3   1 <1>   0.3430 
 13 C       -6.5970    -0.1940     1.0130 C.3   1 <1>  -0.1600 
 14 N       -8.2220     1.0600    -0.2710 N.4   1 <1>  -0.9060 
 15 C       -8.0960    -0.0030     0.7690 C.3   1 <1>   0.3430 
 16 H       -1.7630     2.6310     1.0010 H     1 <1>   0.1500 
 17 H       -1.9380    -0.7550    -1.6030 H     1 <1>   0.1500 
 18 H       -4.3960    -0.8740    -1.3340 H     1 <1>   0.1500 
 19 H       -4.2740     3.4150     1.9610 H     1 <1>   0.3700 
 20 H       -6.6450     0.6780    -1.6370 H     1 <1>   0.0800 
 21 H       -6.7490     2.3620    -1.1260 H     1 <1>   0.0800 
 22 H       -6.3710    -0.2510     2.0640 H     1 <1>   0.0800 
 23 H       -6.2780    -1.1090     0.5450 H     1 <1>   0.0800 
 24 H       -8.9080     0.8300    -1.0010 H     1 <1>   0.4500 
 25 H       -8.5440     1.9180     0.2110 H     1 <1>   0.4500 
 26 H       -8.5840     0.3140     1.6780 H     1 <1>   0.0800 
 27 H       -8.5410    -0.9270     0.4340 H     1 <1>   0.0800 
@<TRIPOS>BOND
  1   1   2  1   
  2   2   3  ar  
  3   2   4  ar  
  4   3   5  ar  
  5   3  16  1   
  6   4   6  ar  
  7   4  17  1   
  8   5   7  1   
  9   5   8  ar  
 10   6   8  ar  
 11   6  18  1   
 12   7   9  am  
 13   7  19  1   
 14   8  10  1   
 15   9  10  1   
 16   9  11  2   
 17  10  12  1   
 18  10  13  1   
 19  12  14  1   
 20  12  20  1   
 21  12  21  1   
 22  13  15  1   
 23  13  22  1   
 24  13  23  1   
 25  14  15  1   
 26  14  24  1   
 27  14  25  1   
 28  15  26  1   
 29  15  27  1   
@<TRIPOS>SUBSTRUCTURE
  1 ****   8 GROUP 4 **** **** 0

# MOE 2024.06 (io_trps.svl 2023.06)
