@<TRIPOS>MOLECULE
NONAME
33 34 1 0 0 
SMALL
USER_CHARGES


@<TRIPOS>ATOM
  1 O        4.1710     2.0320     3.2490 O.co2 1 <1>  -0.9000 
  2 C        4.5010     2.3900     2.1130 C.2   1 <1>   0.9060 
  3 O        4.3990     3.5630     1.7360 O.co2 1 <1>  -0.9000 
  4 C        5.0590     1.3250     1.1410 C.3   1 <1>  -0.1060 
  5 C        6.3290     0.6640     1.7270 C.3   1 <1>  -0.1600 
  6 C        5.4310     1.9130    -0.2470 C.3   1 <1>  -0.1600 
  7 C        4.0210     0.2010     0.9120 C.3   1 <1>  -0.1600 
  8 C        6.8850    -0.4180     0.7770 C.3   1 <1>  -0.1600 
  9 C        5.9850     0.8290    -1.1990 C.3   1 <1>  -0.1600 
 10 C        4.5730    -0.8830    -0.0400 C.3   1 <1>  -0.1600 
 11 C        6.0110    -0.5440    -0.4930 C.3   1 <1>   0.5030 
 12 N        6.5430    -1.6360    -1.3760 N.4   1 <1>  -0.9590 
 13 C        7.9680    -1.4370    -1.7950 C.3   1 <1>   0.2630 
 14 C        5.7070    -1.8910    -2.5940 C.3   1 <1>   0.2630 
 15 H        6.0910     0.2300     2.6840 H     1 <1>   0.0800 
 16 H        7.0700     1.4260     1.9030 H     1 <1>   0.0800 
 17 H        6.1590     2.6960    -0.1110 H     1 <1>   0.0800 
 18 H        4.5570     2.3740    -0.6770 H     1 <1>   0.0800 
 19 H        3.1210     0.6320     0.5080 H     1 <1>   0.0800 
 20 H        3.7610    -0.2380     1.8620 H     1 <1>   0.0800 
 21 H        6.9110    -1.3560     1.3020 H     1 <1>   0.0800 
 22 H        7.8900    -0.1340     0.5270 H     1 <1>   0.0800 
 23 H        6.9740     1.1220    -1.4980 H     1 <1>   0.0800 
 24 H        5.3560     0.7970    -2.0700 H     1 <1>   0.0800 
 25 H        3.9060    -0.9350    -0.8800 H     1 <1>   0.0800 
 26 H        4.5580    -1.8290     0.4710 H     1 <1>   0.0800 
 27 H        6.5040    -2.4780    -0.7880 H     1 <1>   0.4500 
 28 H        8.0680    -0.5290    -2.3660 H     1 <1>   0.0800 
 29 H        8.2970    -2.2640    -2.4030 H     1 <1>   0.0800 
 30 H        8.6120    -1.3760    -0.9340 H     1 <1>   0.0800 
 31 H        5.6690    -1.0110    -3.2140 H     1 <1>   0.0800 
 32 H        4.7020    -2.1620    -2.3150 H     1 <1>   0.0800 
 33 H        6.1260    -2.7000    -3.1700 H     1 <1>   0.0800 
@<TRIPOS>BOND
  1   1   2  ar  
  2   2   3  ar  
  3   2   4  1   
  4   4   5  1   
  5   4   6  1   
  6   4   7  1   
  7   5   8  1   
  8   5  15  1   
  9   5  16  1   
 10   6   9  1   
 11   6  17  1   
 12   6  18  1   
 13   7  10  1   
 14   7  19  1   
 15   7  20  1   
 16   8  11  1   
 17   8  21  1   
 18   8  22  1   
 19   9  11  1   
 20   9  23  1   
 21   9  24  1   
 22  10  11  1   
 23  10  25  1   
 24  10  26  1   
 25  11  12  1   
 26  12  13  1   
 27  12  14  1   
 28  12  27  1   
 29  13  28  1   
 30  13  29  1   
 31  13  30  1   
 32  14  31  1   
 33  14  32  1   
 34  14  33  1   
@<TRIPOS>SUBSTRUCTURE
  1 ****   4 GROUP 4 **** **** 0

# MOE 2024.06 (io_trps.svl 2023.06)
