@<TRIPOS>MOLECULE
NONAME
47 48 1 0 0 
SMALL
USER_CHARGES


@<TRIPOS>ATOM
  1 O        1.7440    -1.1540    -3.5570 O.2   1 <1>  -0.5700 
  2 C        2.0190    -1.5210    -2.4290 C.2   1 <1>   0.7670 
  3 N        2.0080    -0.6190    -1.4050 N.2   1 <1>  -0.6610 
  4 C        2.3160    -2.8850    -2.1790 C.2   1 <1>  -0.1360 
  5 C        2.2750    -1.0390    -0.2280 C.2   1 <1>   0.4390 
  6 C        2.5640    -3.3110    -0.9180 C.2   1 <1>  -0.0380 
  7 N        2.5520    -2.3450     0.0670 N.pl3 1 <1>  -0.5500 
  8 C        2.2940    -0.0650     0.9250 C.3   1 <1>  -0.1790 
  9 C        2.8290    -4.7790    -0.5780 C.3   1 <1>   0.4810 
 10 N        1.5570    -5.4680    -0.1990 N.4   1 <1>  -0.9590 
 11 C        0.5680    -5.4800    -1.3220 C.3   1 <1>   0.3430 
 12 C        0.9320    -4.9190     1.0370 C.3   1 <1>   0.3430 
 13 C       -0.5980    -6.4280    -0.9850 C.3   1 <1>   0.2000 
 14 C       -0.2730    -5.7650     1.4450 C.3   1 <1>  -0.1600 
 15 O       -0.0100    -7.6890    -0.8460 O.3   1 <1>  -0.6800 
 16 C       -1.3280    -6.0240     0.3320 C.3   1 <1>   0.0000 
 17 C       -2.2330    -7.2010     0.8020 C.3   1 <1>   0.1200 
 18 C       -2.2730    -4.7930     0.1340 C.3   1 <1>  -0.1600 
 19 O       -2.8570    -6.8880     2.0010 O.3   1 <1>  -0.6800 
 20 C       -1.7730    -3.5270    -0.5880 C.3   1 <1>  -0.1600 
 21 C       -2.8230    -2.4160    -0.5140 C.3   1 <1>  -0.2400 
 22 H        2.3160    -3.5240    -3.0410 H     1 <1>   0.1500 
 23 H        2.8140    -2.5370     1.0380 H     1 <1>   0.4000 
 24 H        1.5570    -0.3400     1.6560 H     1 <1>   0.0800 
 25 H        2.0700     0.9260     0.5710 H     1 <1>   0.0800 
 26 H        3.2670    -0.0500     1.3800 H     1 <1>   0.0800 
 27 H        3.5450    -4.8450     0.2260 H     1 <1>   0.0800 
 28 H        3.2540    -5.2680    -1.4390 H     1 <1>   0.0800 
 29 H        1.7400    -6.4710    -0.0270 H     1 <1>   0.4500 
 30 H        0.2140    -4.4840    -1.5080 H     1 <1>   0.0800 
 31 H        1.0380    -5.8340    -2.2240 H     1 <1>   0.0800 
 32 H        1.6480    -4.9220     1.8430 H     1 <1>   0.0800 
 33 H        0.6230    -3.9010     0.8720 H     1 <1>   0.0800 
 34 H       -1.2910    -6.4710    -1.8090 H     1 <1>   0.0800 
 35 H        0.1040    -6.7090     1.8000 H     1 <1>   0.0800 
 36 H       -0.7480    -5.2970     2.2900 H     1 <1>   0.0800 
 37 H       -0.6820    -8.4010    -0.9060 H     1 <1>   0.4000 
 38 H       -1.6600    -8.0960     0.9730 H     1 <1>   0.0800 
 39 H       -2.9990    -7.4100     0.0740 H     1 <1>   0.0800 
 40 H       -3.1450    -5.1260    -0.4050 H     1 <1>   0.0800 
 41 H       -2.6320    -4.4900     1.1040 H     1 <1>   0.0800 
 42 H       -3.4620    -7.6030     2.2860 H     1 <1>   0.4000 
 43 H       -0.8710    -3.1520    -0.1450 H     1 <1>   0.0800 
 44 H       -1.6000    -3.7360    -1.6290 H     1 <1>   0.0800 
 45 H       -3.0210    -2.1450     0.5080 H     1 <1>   0.0800 
 46 H       -3.7450    -2.7330    -0.9700 H     1 <1>   0.0800 
 47 H       -2.4720    -1.5410    -1.0340 H     1 <1>   0.0800 
@<TRIPOS>BOND
  1   1   2  2   
  2   2   3  1   
  3   2   4  1   
  4   3   5  2   
  5   4   6  2   
  6   4  22  1   
  7   5   7  1   
  8   5   8  1   
  9   6   7  1   
 10   6   9  1   
 11   7  23  1   
 12   8  24  1   
 13   8  25  1   
 14   8  26  1   
 15   9  10  1   
 16   9  27  1   
 17   9  28  1   
 18  10  11  1   
 19  10  12  1   
 20  10  29  1   
 21  11  13  1   
 22  11  30  1   
 23  11  31  1   
 24  12  14  1   
 25  12  32  1   
 26  12  33  1   
 27  13  15  1   
 28  13  16  1   
 29  13  34  1   
 30  14  16  1   
 31  14  35  1   
 32  14  36  1   
 33  15  37  1   
 34  16  17  1   
 35  16  18  1   
 36  17  19  1   
 37  17  38  1   
 38  17  39  1   
 39  18  20  1   
 40  18  40  1   
 41  18  41  1   
 42  19  42  1   
 43  20  21  1   
 44  20  43  1   
 45  20  44  1   
 46  21  45  1   
 47  21  46  1   
 48  21  47  1   
@<TRIPOS>SUBSTRUCTURE
  1 ****  11 GROUP 4 **** **** 0

# MOE 2024.06 (io_trps.svl 2023.06)
