@<TRIPOS>MOLECULE
NONAME
43 45 1 0 0 
SMALL
USER_CHARGES


@<TRIPOS>ATOM
  1 O        2.1440     0.4850     1.8270 O.2   1 <1>  -0.5700 
  2 C        2.2130    -0.0790     0.7510 C.2   1 <1>   0.5440 
  3 N        2.1870     0.6690    -0.4090 N.am  1 <1>  -0.6600 
  4 C        2.3220    -1.5210     0.7230 C.ar  1 <1>   0.0860 
  5 C        2.4800     0.0870    -1.7610 C.3   1 <1>   0.1400 
  6 C        2.0560     2.1520    -0.3600 C.3   1 <1>   0.1400 
  7 C        1.2110    -2.3430     0.7290 C.ar  1 <1>  -0.1500 
  8 C        3.5430    -2.1790     0.6760 C.ar  1 <1>  -0.1500 
  9 C        3.6310     0.8080    -2.4850 C.3   1 <1>   0.1400 
 10 C        3.3990     2.8130    -0.0090 C.3   1 <1>  -0.1600 
 11 C        1.3550    -3.7170     0.6770 C.ar  1 <1>   0.3920 
 12 C        3.5880    -3.5580     0.6240 C.ar  1 <1>   0.1600 
 13 N        4.6800     1.2490    -1.5210 N.am  1 <1>  -0.6600 
 14 C        4.5360     2.6470    -1.0320 C.3   1 <1>   0.1400 
 15 O        0.2210    -4.4500     0.6820 O.3   1 <1>  -0.3630 
 16 N        2.5250    -4.3450     0.6200 N.ar  1 <1>  -0.6200 
 17 C        5.5880     0.3440    -1.0180 C.2   1 <1>   0.7160 
 18 C        0.2700    -5.8630     0.6450 C.3   1 <1>   0.0400 
 19 O        5.7420    -0.7170    -1.5960 O.2   1 <1>  -0.5700 
 20 C        6.3400     0.5990     0.1840 C.2   1 <1>  -0.0860 
 21 C        7.7330     0.6240     0.2730 C.2   1 <1>   0.1390 
 22 C        5.9410     0.8320     1.4670 C.2   1 <1>  -0.3020 
 23 N        8.1600     0.8660     1.4730 N.2   1 <1>  -0.7070 
 24 N        7.0430     0.9920     2.2120 N.pl3 1 <1>   0.3000 
 25 H        1.5930     0.1340    -2.3680 H     1 <1>   0.0800 
 26 H        2.7490    -0.9500    -1.6750 H     1 <1>   0.0800 
 27 H        1.3320     2.4100     0.3960 H     1 <1>   0.0800 
 28 H        1.6900     2.5220    -1.3010 H     1 <1>   0.0800 
 29 H        0.2260    -1.9180     0.7760 H     1 <1>   0.1500 
 30 H        4.4560    -1.6150     0.6770 H     1 <1>   0.1500 
 31 H        3.2430     1.6600    -3.0130 H     1 <1>   0.0800 
 32 H        4.0600     0.1470    -3.2190 H     1 <1>   0.0800 
 33 H        3.7200     2.4510     0.9480 H     1 <1>   0.0800 
 34 H        3.2260     3.8660     0.1160 H     1 <1>   0.0800 
 35 H        4.5500    -4.0400     0.5800 H     1 <1>   0.1500 
 36 H        5.4610     2.9740    -0.5880 H     1 <1>   0.0800 
 37 H        4.3480     3.2870    -1.8770 H     1 <1>   0.0800 
 38 H       -0.7370    -6.2370     0.6580 H     1 <1>   0.0800 
 39 H        0.8070    -6.2140     1.5080 H     1 <1>   0.0800 
 40 H        0.7690    -6.1700    -0.2570 H     1 <1>   0.0800 
 41 H        8.3850     0.4570    -0.5690 H     1 <1>   0.1500 
 42 H        4.9450     0.8750     1.8710 H     1 <1>   0.1500 
 43 H        7.0760     1.1770     3.2230 H     1 <1>   0.2700 
@<TRIPOS>BOND
  1   1   2  2   
  2   2   3  am  
  3   2   4  1   
  4   3   5  1   
  5   3   6  1   
  6   4   7  ar  
  7   4   8  ar  
  8   5   9  1   
  9   5  25  1   
 10   5  26  1   
 11   6  10  1   
 12   6  27  1   
 13   6  28  1   
 14   7  11  ar  
 15   7  29  1   
 16   8  12  ar  
 17   8  30  1   
 18   9  13  1   
 19   9  31  1   
 20   9  32  1   
 21  10  14  1   
 22  10  33  1   
 23  10  34  1   
 24  11  15  1   
 25  11  16  ar  
 26  12  16  ar  
 27  12  35  1   
 28  13  14  1   
 29  13  17  am  
 30  14  36  1   
 31  14  37  1   
 32  15  18  1   
 33  17  19  2   
 34  17  20  1   
 35  18  38  1   
 36  18  39  1   
 37  18  40  1   
 38  20  21  1   
 39  20  22  2   
 40  21  23  2   
 41  21  41  1   
 42  22  24  1   
 43  22  42  1   
 44  23  24  1   
 45  24  43  1   
@<TRIPOS>SUBSTRUCTURE
  1 ****   2 GROUP 4 **** **** 0

# MOE 2024.06 (io_trps.svl 2023.06)
