@<TRIPOS>MOLECULE
NONAME
46 47 1 0 0 
SMALL
USER_CHARGES


@<TRIPOS>ATOM
  1 S       -2.8810    -1.7260     1.3450 S.3   1 <1>  -0.0800 
  2 C       -2.0610    -2.3440    -0.0510 C.2   1 <1>   0.4420 
  3 C       -2.5910    -0.1380     0.7260 C.2   1 <1>   0.1980 
  4 N       -1.6470    -1.4060    -0.8230 N.2   1 <1>  -0.3380 
  5 N       -1.9510    -3.7130    -0.1510 N.am  1 <1>  -0.4940 
  6 N       -1.9560    -0.1510    -0.3750 N.2   1 <1>  -0.3380 
  7 C       -3.1120     1.0340     1.5430 C.3   1 <1>   0.0200 
  8 C       -1.3360    -4.4760    -1.0990 C.2   1 <1>   0.5690 
  9 C       -2.8120     2.3940     0.8940 C.3   1 <1>  -0.1600 
 10 O       -0.8420    -4.0200    -2.0990 O.2   1 <1>  -0.5700 
 11 C       -1.2560    -5.9940    -0.8930 C.3   1 <1>   0.1710 
 12 C       -3.3480     3.5560     1.7370 C.3   1 <1>  -0.2400 
 13 N       -2.3160    -6.6640    -0.0820 N.3   1 <1>  -0.8100 
 14 C       -3.6770    -6.6370    -0.6750 C.3   1 <1>   0.3710 
 15 C       -2.1900    -6.5200     1.3800 C.3   1 <1>   0.0300 
 16 C       -4.4580    -5.3330    -0.4340 C.2   1 <1>   0.0460 
 17 C       -4.4670    -7.8580    -0.2010 C.3   1 <1>  -0.2400 
 18 N       -4.9000    -5.0330     0.8550 N.2   1 <1>  -0.5650 
 19 C       -4.7690    -4.4280    -1.3820 C.2   1 <1>  -0.1400 
 20 C       -5.5650    -3.9500     0.8840 C.2   1 <1>   0.1980 
 21 S       -5.6970    -3.1460    -0.6590 S.3   1 <1>  -0.0800 
 22 C       -4.4860    -4.2920    -2.8670 C.3   1 <1>  -0.0600 
 23 C       -6.2350    -3.2960     2.0690 C.3   1 <1>  -0.0600 
 24 H       -2.5400    -4.2520     0.4880 H     1 <1>   0.3700 
 25 H       -2.6600     0.9970     2.5180 H     1 <1>   0.0800 
 26 H       -4.1740     0.9210     1.6610 H     1 <1>   0.0800 
 27 H       -3.2600     2.4270    -0.0850 H     1 <1>   0.0800 
 28 H       -1.7480     2.5030     0.7710 H     1 <1>   0.0800 
 29 H       -0.3000    -6.2080    -0.4510 H     1 <1>   0.0800 
 30 H       -1.2460    -6.4460    -1.8690 H     1 <1>   0.0800 
 31 H       -4.4160     3.4800     1.8510 H     1 <1>   0.0800 
 32 H       -3.1230     4.4910     1.2560 H     1 <1>   0.0800 
 33 H       -2.8930     3.5580     2.7120 H     1 <1>   0.0800 
 34 H       -3.5610    -6.7540    -1.7380 H     1 <1>   0.0800 
 35 H       -1.1700    -6.6910     1.6790 H     1 <1>   0.0800 
 36 H       -2.8050    -7.2470     1.8790 H     1 <1>   0.0800 
 37 H       -2.4890    -5.5420     1.7090 H     1 <1>   0.0800 
 38 H       -4.7030    -7.7820     0.8430 H     1 <1>   0.0800 
 39 H       -3.9030    -8.7550    -0.3800 H     1 <1>   0.0800 
 40 H       -5.3910    -7.9170    -0.7450 H     1 <1>   0.0800 
 41 H       -3.9030    -5.1170    -3.2300 H     1 <1>   0.0800 
 42 H       -3.9360    -3.3850    -3.0470 H     1 <1>   0.0800 
 43 H       -5.4100    -4.2510    -3.4150 H     1 <1>   0.0800 
 44 H       -6.0430    -3.8700     2.9570 H     1 <1>   0.0800 
 45 H       -7.2960    -3.2520     1.9040 H     1 <1>   0.0800 
 46 H       -5.8550    -2.3010     2.2030 H     1 <1>   0.0800 
@<TRIPOS>BOND
  1   1   2  1   
  2   1   3  1   
  3   2   4  2   
  4   2   5  1   
  5   3   6  2   
  6   3   7  1   
  7   4   6  1   
  8   5   8  am  
  9   5  24  1   
 10   7   9  1   
 11   7  25  1   
 12   7  26  1   
 13   8  10  2   
 14   8  11  1   
 15   9  12  1   
 16   9  27  1   
 17   9  28  1   
 18  11  13  1   
 19  11  29  1   
 20  11  30  1   
 21  12  31  1   
 22  12  32  1   
 23  12  33  1   
 24  13  14  1   
 25  13  15  1   
 26  14  16  1   
 27  14  17  1   
 28  14  34  1   
 29  15  35  1   
 30  15  36  1   
 31  15  37  1   
 32  16  18  1   
 33  16  19  2   
 34  17  38  1   
 35  17  39  1   
 36  17  40  1   
 37  18  20  2   
 38  19  21  1   
 39  19  22  1   
 40  20  21  1   
 41  20  23  1   
 42  22  41  1   
 43  22  42  1   
 44  22  43  1   
 45  23  44  1   
 46  23  45  1   
 47  23  46  1   
@<TRIPOS>SUBSTRUCTURE
  1 ****   5 GROUP 4 **** **** 0

# MOE 2024.06 (io_trps.svl 2023.06)
