@<TRIPOS>MOLECULE
NONAME
47 49 1 0 0 
SMALL
USER_CHARGES


@<TRIPOS>ATOM
  1 S       -2.5310    -0.4590     1.5260 S.3   1 <1>  -0.0800 
  2 C       -2.0840     0.3730     0.0430 C.2   1 <1>  -0.1400 
  3 C       -1.0760     0.1000     2.3340 C.2   1 <1>  -0.1400 
  4 C       -0.9100     1.0140     0.2010 C.2   1 <1>  -0.1500 
  5 C       -3.0280     0.2580    -1.1350 C.3   1 <1>   0.3200 
  6 C       -0.3380     0.8580     1.5040 C.2   1 <1>  -0.1500 
  7 C       -0.8740    -0.3280     3.7720 C.3   1 <1>  -0.0600 
  8 N       -3.0740    -1.1500    -1.5560 N.am  1 <1>  -0.7300 
  9 C       -4.1810    -1.8040    -1.9900 C.2   1 <1>   0.5690 
 10 O       -5.2180    -1.2150    -2.1840 O.2   1 <1>  -0.5700 
 11 C       -4.1080    -3.3140    -2.2150 C.3   1 <1>   0.2610 
 12 O       -2.8290    -3.6740    -2.7090 O.3   1 <1>  -0.5600 
 13 C       -4.4240    -4.0440    -0.8850 C.3   1 <1>   0.3640 
 14 C       -2.7080    -5.0440    -3.0050 C.3   1 <1>   0.1810 
 15 N       -3.8740    -5.4400    -0.8230 N.am  1 <1>  -0.6600 
 16 C       -5.9390    -4.0770    -0.6380 C.ar  1 <1>  -0.1430 
 17 C       -3.0710    -5.9360    -1.8160 C.2   1 <1>   0.5690 
 18 C       -4.1820    -6.2180     0.4120 C.3   1 <1>   0.0600 
 19 C       -6.5590    -3.2890     0.3330 C.ar  1 <1>  -0.1430 
 20 C       -6.7200    -4.9270    -1.4140 C.ar  1 <1>  -0.1500 
 21 O       -2.6410    -7.0660    -1.8000 O.2   1 <1>  -0.5700 
 22 C       -7.9330    -3.3670     0.5010 C.ar  1 <1>  -0.1500 
 23 C       -5.7840    -2.3260     1.2250 C.3   1 <1>  -0.0970 
 24 C       -8.0890    -4.9980    -1.2390 C.ar  1 <1>  -0.1500 
 25 C       -8.6970    -4.2150    -0.2780 C.ar  1 <1>  -0.1500 
 26 H       -0.4090     1.6000    -0.5490 H     1 <1>   0.1500 
 27 H       -2.6750     0.8610    -1.9530 H     1 <1>   0.0800 
 28 H       -4.0120     0.5960    -0.8550 H     1 <1>   0.0800 
 29 H        0.6000     1.3240     1.7510 H     1 <1>   0.1500 
 30 H        0.0490     0.0720     4.1510 H     1 <1>   0.0800 
 31 H       -0.8400    -1.4010     3.8330 H     1 <1>   0.0800 
 32 H       -1.6850     0.0330     4.3790 H     1 <1>   0.0800 
 33 H       -2.1880    -1.6590    -1.4950 H     1 <1>   0.3700 
 34 H       -4.8360    -3.5760    -2.9620 H     1 <1>   0.0800 
 35 H       -3.9420    -3.4920    -0.0990 H     1 <1>   0.0800 
 36 H       -3.3470    -5.2740    -3.8380 H     1 <1>   0.0800 
 37 H       -1.6880    -5.2290    -3.2880 H     1 <1>   0.0800 
 38 H       -3.9690    -5.6230     1.2830 H     1 <1>   0.0800 
 39 H       -3.5880    -7.1150     0.4560 H     1 <1>   0.0800 
 40 H       -5.2210    -6.4950     0.4220 H     1 <1>   0.0800 
 41 H       -6.2620    -5.5490    -2.1630 H     1 <1>   0.1500 
 42 H       -8.4240    -2.7610     1.2420 H     1 <1>   0.1500 
 43 H       -6.4370    -1.8410     1.9270 H     1 <1>   0.0800 
 44 H       -5.3190    -1.5620     0.6290 H     1 <1>   0.0800 
 45 H       -5.0310    -2.8520     1.7820 H     1 <1>   0.0800 
 46 H       -8.6790    -5.6610    -1.8470 H     1 <1>   0.1500 
 47 H       -9.7630    -4.2640    -0.1370 H     1 <1>   0.1500 
@<TRIPOS>BOND
  1   1   2  1   
  2   1   3  1   
  3   2   4  2   
  4   2   5  1   
  5   3   6  2   
  6   3   7  1   
  7   4   6  1   
  8   4  26  1   
  9   5   8  1   
 10   5  27  1   
 11   5  28  1   
 12   6  29  1   
 13   7  30  1   
 14   7  31  1   
 15   7  32  1   
 16   8   9  am  
 17   8  33  1   
 18   9  10  2   
 19   9  11  1   
 20  11  12  1   
 21  11  13  1   
 22  11  34  1   
 23  12  14  1   
 24  13  15  1   
 25  13  16  1   
 26  13  35  1   
 27  14  17  1   
 28  14  36  1   
 29  14  37  1   
 30  15  17  am  
 31  15  18  1   
 32  16  19  ar  
 33  16  20  ar  
 34  17  21  2   
 35  18  38  1   
 36  18  39  1   
 37  18  40  1   
 38  19  22  ar  
 39  19  23  1   
 40  20  24  ar  
 41  20  41  1   
 42  22  25  ar  
 43  22  42  1   
 44  23  43  1   
 45  23  44  1   
 46  23  45  1   
 47  24  25  ar  
 48  24  46  1   
 49  25  47  1   
@<TRIPOS>SUBSTRUCTURE
  1 ****  13 GROUP 4 **** **** 0

# MOE 2024.06 (io_trps.svl 2023.06)
