@<TRIPOS>MOLECULE
NONAME
55 59 1 0 0 
SMALL
USER_CHARGES


@<TRIPOS>ATOM
  1 S        0.9150     0.9660     2.3580 S.3   1 <1>  -0.0800 
  2 C        1.4840    -0.3830     1.3760 C.ar  1 <1>   0.2970 
  3 C        1.7890     2.1120     1.3480 C.2   1 <1>  -0.1400 
  4 N        1.1440    -1.6310     1.6250 N.ar  1 <1>  -0.5670 
  5 C        2.2900     0.0560     0.3510 C.ar  1 <1>   0.0000 
  6 C        2.4620     1.4930     0.3660 C.2   1 <1>  -0.1810 
  7 C        1.7150     3.5930     1.6510 C.3   1 <1>   0.0200 
  8 C        1.6650    -2.4810     0.7660 C.ar  1 <1>   0.4770 
  9 C        2.7580    -0.9640    -0.4810 C.ar  1 <1>   0.4100 
 10 C        3.3090     2.2870    -0.6190 C.3   1 <1>   0.0210 
 11 C        2.2670     4.3770     0.4470 C.3   1 <1>  -0.1600 
 12 N        2.4510    -2.2280    -0.2780 N.ar  1 <1>  -0.6200 
 13 C        1.2810    -3.9510     0.9630 C.3   1 <1>   0.4870 
 14 N        3.5520    -0.7510    -1.5590 N.pl3 1 <1>  -0.9000 
 15 C        3.5450     3.7290    -0.1230 C.3   1 <1>  -0.1600 
 16 N        1.1380    -4.6790    -0.3580 N.4   1 <1>  -0.9590 
 17 C       -0.2160    -4.6680    -0.9860 C.3   1 <1>   0.4230 
 18 C        1.7100    -6.0570    -0.2870 C.3   1 <1>   0.2630 
 19 C       -1.3040    -5.3450    -0.1550 C.3   1 <1>  -0.1600 
 20 C       -0.7750    -3.2760    -1.2600 C.3   1 <1>  -0.1600 
 21 C       -2.6180    -4.8420    -0.7720 C.3   1 <1>  -0.0800 
 22 C       -2.2730    -3.5110    -1.4880 C.3   1 <1>  -0.0800 
 23 C       -3.7800    -4.7700     0.2430 C.3   1 <1>   0.1400 
 24 C       -3.1450    -2.3100    -1.0660 C.3   1 <1>  -0.0990 
 25 N       -4.8400    -3.8950    -0.2910 N.am  1 <1>  -0.7300 
 26 C       -4.5920    -2.7280    -0.9210 C.2   1 <1>   0.5690 
 27 O       -5.4810    -2.0390    -1.3470 O.2   1 <1>  -0.5700 
 28 H        0.6970     3.8830     1.8420 H     1 <1>   0.0800 
 29 H        2.3020     3.7990     2.5290 H     1 <1>   0.0800 
 30 H        4.2650     1.8140    -0.7480 H     1 <1>   0.0800 
 31 H        2.8040     2.3100    -1.5700 H     1 <1>   0.0800 
 32 H        1.5170     4.4010    -0.3250 H     1 <1>   0.0800 
 33 H        2.4680     5.3910     0.7430 H     1 <1>   0.0800 
 34 H        0.3680    -4.0000     1.5290 H     1 <1>   0.0800 
 35 H        2.0610    -4.4070     1.5470 H     1 <1>   0.0800 
 36 H        4.0250    -1.5420    -1.9970 H     1 <1>   0.4000 
 37 H        3.9860     0.1580    -1.7230 H     1 <1>   0.4000 
 38 H        4.2940     3.7110     0.6510 H     1 <1>   0.0800 
 39 H        3.9260     4.3280    -0.9320 H     1 <1>   0.0800 
 40 H        1.7440    -4.1100    -0.9820 H     1 <1>   0.4500 
 41 H       -0.1640    -5.1810    -1.9340 H     1 <1>   0.0800 
 42 H        1.1350    -6.6680     0.3910 H     1 <1>   0.0800 
 43 H        2.7310    -6.0220     0.0590 H     1 <1>   0.0800 
 44 H        1.6970    -6.5170    -1.2620 H     1 <1>   0.0800 
 45 H       -1.2420    -6.4180    -0.2100 H     1 <1>   0.0800 
 46 H       -1.2520    -5.0310     0.8710 H     1 <1>   0.0800 
 47 H       -0.6600    -2.6350    -0.4080 H     1 <1>   0.0800 
 48 H       -0.3150    -2.8190    -2.1190 H     1 <1>   0.0800 
 49 H       -2.9160    -5.5440    -1.5340 H     1 <1>   0.0800 
 50 H       -2.4370    -3.6680    -2.5430 H     1 <1>   0.0800 
 51 H       -3.4420    -4.3570     1.1790 H     1 <1>   0.0800 
 52 H       -4.1770    -5.7540     0.4250 H     1 <1>   0.0800 
 53 H       -3.0730    -1.5220    -1.7940 H     1 <1>   0.0800 
 54 H       -2.8300    -1.9190    -0.1170 H     1 <1>   0.0800 
 55 H       -5.8200    -4.1580    -0.1570 H     1 <1>   0.3700 
@<TRIPOS>BOND
  1   1   2  1   
  2   1   3  1   
  3   2   4  ar  
  4   2   5  ar  
  5   3   6  2   
  6   3   7  1   
  7   4   8  ar  
  8   5   6  1   
  9   5   9  ar  
 10   6  10  1   
 11   7  11  1   
 12   7  28  1   
 13   7  29  1   
 14   8  12  ar  
 15   8  13  1   
 16   9  12  ar  
 17   9  14  1   
 18  10  15  1   
 19  10  30  1   
 20  10  31  1   
 21  11  15  1   
 22  11  32  1   
 23  11  33  1   
 24  13  16  1   
 25  13  34  1   
 26  13  35  1   
 27  14  36  1   
 28  14  37  1   
 29  15  38  1   
 30  15  39  1   
 31  16  17  1   
 32  16  18  1   
 33  16  40  1   
 34  17  19  1   
 35  17  20  1   
 36  17  41  1   
 37  18  42  1   
 38  18  43  1   
 39  18  44  1   
 40  19  21  1   
 41  19  45  1   
 42  19  46  1   
 43  20  22  1   
 44  20  47  1   
 45  20  48  1   
 46  21  22  1   
 47  21  23  1   
 48  21  49  1   
 49  22  24  1   
 50  22  50  1   
 51  23  25  1   
 52  23  51  1   
 53  23  52  1   
 54  24  26  1   
 55  24  53  1   
 56  24  54  1   
 57  25  26  am  
 58  25  55  1   
 59  26  27  2   
@<TRIPOS>SUBSTRUCTURE
  1 ****   8 GROUP 4 **** **** 0

# MOE 2024.06 (io_trps.svl 2023.06)
