@<TRIPOS>MOLECULE
NONAME
57 59 1 0 0 
SMALL
USER_CHARGES


@<TRIPOS>ATOM
  1 O        0.0100     1.4650    -1.4510 O.2   1 <1>  -0.5700 
  2 C       -0.3150     2.5900    -1.1510 C.2   1 <1>   0.5690 
  3 N       -1.1630     2.8880    -0.1140 N.am  1 <1>  -0.6600 
  4 C        0.2530     3.7310    -1.9910 C.3   1 <1>   0.1810 
  5 C       -1.5370     4.3150     0.1810 C.3   1 <1>   0.3640 
  6 C       -1.6810     1.8950     0.8680 C.3   1 <1>   0.2200 
  7 O        0.4130     4.9020    -1.2360 O.3   1 <1>  -0.5600 
  8 C       -3.0480     4.4890     0.0110 C.ar  1 <1>  -0.1440 
  9 C       -0.7920     5.3840    -0.6640 C.3   1 <1>   0.2610 
 10 C       -0.5250     1.2970     1.6680 C.3   1 <1>  -0.2400 
 11 C       -2.5230     0.8150     0.1860 C.3   1 <1>  -0.2400 
 12 C       -3.7130     3.9730    -1.0950 C.ar  1 <1>  -0.1500 
 13 C       -3.7760     5.1820     0.9680 C.ar  1 <1>  -0.1500 
 14 C       -0.5130     6.6040     0.2190 C.2   1 <1>   0.5690 
 15 C       -5.0800     4.1410    -1.2360 C.ar  1 <1>  -0.1500 
 16 C       -5.1420     5.3500     0.8280 C.ar  1 <1>  -0.1500 
 17 O       -1.4250     7.3270     0.5430 O.2   1 <1>  -0.5700 
 18 N        0.7580     6.8450     0.6330 N.am  1 <1>  -0.7300 
 19 C       -5.7960     4.8290    -0.2730 C.ar  1 <1>  -0.1500 
 20 C        1.2350     8.0370     1.3810 C.3   1 <1>   0.1400 
 21 C        2.3260     8.7990     0.5960 C.3   1 <1>   0.2800 
 22 O        3.3530     7.9130     0.3210 O.3   1 <1>  -0.6800 
 23 C        1.7970     9.3300    -0.7570 C.3   1 <1>  -0.1600 
 24 C        2.9360     9.9390     1.4270 C.3   1 <1>  -0.1600 
 25 C        2.4930    10.6080    -1.2720 C.3   1 <1>  -0.1600 
 26 C        4.0880    10.6790     0.7120 C.3   1 <1>  -0.1600 
 27 C        3.9550    10.7030    -0.8230 C.3   1 <1>  -0.1600 
 28 H       -0.3990     3.9370    -2.8200 H     1 <1>   0.0800 
 29 H        1.2200     3.4490    -2.3660 H     1 <1>   0.0800 
 30 H       -1.2920     4.4950     1.2140 H     1 <1>   0.0800 
 31 H       -2.3270     2.4050     1.5650 H     1 <1>   0.0800 
 32 H       -1.4230     5.7050    -1.4730 H     1 <1>   0.0800 
 33 H        0.1160     0.7100     1.0350 H     1 <1>   0.0800 
 34 H       -0.9090     0.6570     2.4410 H     1 <1>   0.0800 
 35 H        0.0520     2.0780     2.1290 H     1 <1>   0.0800 
 36 H       -1.9230     0.2040    -0.4630 H     1 <1>   0.0800 
 37 H       -3.3160     1.2650    -0.3810 H     1 <1>   0.0800 
 38 H       -2.9630     0.1770     0.9300 H     1 <1>   0.0800 
 39 H       -3.1720     3.4310    -1.8510 H     1 <1>   0.1500 
 40 H       -3.2830     5.6060     1.8270 H     1 <1>   0.1500 
 41 H       -5.5860     3.7340    -2.0940 H     1 <1>   0.1500 
 42 H       -5.6960     5.8910     1.5760 H     1 <1>   0.1500 
 43 H        1.5150     6.2840     0.2210 H     1 <1>   0.3700 
 44 H       -6.8580     4.9600    -0.3820 H     1 <1>   0.1500 
 45 H        0.4090     8.6960     1.5810 H     1 <1>   0.0800 
 46 H        1.6370     7.7170     2.3260 H     1 <1>   0.0800 
 47 H        4.0520     8.4080    -0.1450 H     1 <1>   0.4000 
 48 H        1.8680     8.5490    -1.4940 H     1 <1>   0.0800 
 49 H        0.7500     9.5580    -0.6560 H     1 <1>   0.0800 
 50 H        2.1530    10.6480     1.6340 H     1 <1>   0.0800 
 51 H        3.2780     9.5630     2.3750 H     1 <1>   0.0800 
 52 H        2.4340    10.6420    -2.3460 H     1 <1>   0.0800 
 53 H        1.9670    11.4690    -0.8940 H     1 <1>   0.0800 
 54 H        4.1210    11.6900     1.0810 H     1 <1>   0.0800 
 55 H        5.0270    10.2180     0.9700 H     1 <1>   0.0800 
 56 H        4.3940    11.6090    -1.2060 H     1 <1>   0.0800 
 57 H        4.5030     9.8810    -1.2500 H     1 <1>   0.0800 
@<TRIPOS>BOND
  1   1   2  2   
  2   2   3  am  
  3   2   4  1   
  4   3   5  1   
  5   3   6  1   
  6   4   7  1   
  7   4  28  1   
  8   4  29  1   
  9   5   8  1   
 10   5   9  1   
 11   5  30  1   
 12   6  10  1   
 13   6  11  1   
 14   6  31  1   
 15   7   9  1   
 16   8  12  ar  
 17   8  13  ar  
 18   9  14  1   
 19   9  32  1   
 20  10  33  1   
 21  10  34  1   
 22  10  35  1   
 23  11  36  1   
 24  11  37  1   
 25  11  38  1   
 26  12  15  ar  
 27  12  39  1   
 28  13  16  ar  
 29  13  40  1   
 30  14  17  2   
 31  14  18  am  
 32  15  19  ar  
 33  15  41  1   
 34  16  19  ar  
 35  16  42  1   
 36  18  20  1   
 37  18  43  1   
 38  19  44  1   
 39  20  21  1   
 40  20  45  1   
 41  20  46  1   
 42  21  22  1   
 43  21  23  1   
 44  21  24  1   
 45  22  47  1   
 46  23  25  1   
 47  23  48  1   
 48  23  49  1   
 49  24  26  1   
 50  24  50  1   
 51  24  51  1   
 52  25  27  1   
 53  25  52  1   
 54  25  53  1   
 55  26  27  1   
 56  26  54  1   
 57  26  55  1   
 58  27  56  1   
 59  27  57  1   
@<TRIPOS>SUBSTRUCTURE
  1 ****   9 GROUP 4 **** **** 0

# MOE 2024.06 (io_trps.svl 2023.06)
