@<TRIPOS>MOLECULE
NONAME
52 54 1 0 0 
SMALL
USER_CHARGES


@<TRIPOS>ATOM
  1 F        0.9960     0.6900     1.5330 F     1 <1>  -0.1900 
  2 C        1.9660     1.2560     0.8440 C.ar  1 <1>   0.1900 
  3 C        2.6150     0.5940    -0.1970 C.ar  1 <1>   0.4100 
  4 C        2.3450     2.5320     1.1530 C.ar  1 <1>   0.1600 
  5 N        3.5730     1.1940    -0.8660 N.ar  1 <1>  -0.6200 
  6 N        2.3570    -0.6830    -0.6360 N.pl3 1 <1>  -0.8690 
  7 N        3.3080     3.1460     0.4890 N.ar  1 <1>  -0.6200 
  8 C        3.8620     2.4250    -0.4840 C.ar  1 <1>   0.7200 
  9 C        1.9450    -1.7880     0.2630 C.3   1 <1>   0.1290 
 10 N        4.8580     2.9960    -1.2040 N.pl3 1 <1>  -0.8690 
 11 C        4.9820     4.4530    -1.3960 C.3   1 <1>   0.2090 
 12 C        5.9440     5.0260    -0.3440 C.3   1 <1>  -0.0800 
 13 C        5.8540     6.5620    -0.3310 C.3   1 <1>   0.3430 
 14 C        7.3920     4.5350    -0.5400 C.3   1 <1>  -0.1600 
 15 N        7.1430     7.2190     0.0870 N.4   1 <1>  -0.9590 
 16 C        8.3160     5.1030     0.5540 C.3   1 <1>  -0.1600 
 17 C        7.8310     6.4320     1.1480 C.3   1 <1>   0.3430 
 18 C        6.9550     8.6380     0.5210 C.3   1 <1>   0.3430 
 19 C        6.5240     9.5420    -0.6360 C.3   1 <1>  -0.0170 
 20 C        6.5000    10.9760    -0.1430 C.ar  1 <1>  -0.1430 
 21 C        7.6360    11.7650    -0.2380 C.ar  1 <1>  -0.1500 
 22 C        5.3460    11.5060     0.4150 C.ar  1 <1>  -0.1500 
 23 C        7.6210    13.0680     0.2280 C.ar  1 <1>  -0.1500 
 24 C        5.3320    12.8090     0.8800 C.ar  1 <1>  -0.1500 
 25 C        6.4690    13.5910     0.7880 C.ar  1 <1>  -0.1500 
 26 H        1.8520     3.0570     1.9520 H     1 <1>   0.1500 
 27 H        3.0000    -0.9610    -1.3840 H     1 <1>   0.4000 
 28 H        2.4270    -1.6880     1.2210 H     1 <1>   0.0800 
 29 H        2.2210    -2.7340    -0.1700 H     1 <1>   0.0800 
 30 H        0.8770    -1.7650     0.4000 H     1 <1>   0.0800 
 31 H        5.0890     2.4100    -2.0080 H     1 <1>   0.4000 
 32 H        4.0080     4.9050    -1.3000 H     1 <1>   0.0800 
 33 H        5.3460     4.6500    -2.3900 H     1 <1>   0.0800 
 34 H        5.5990     4.6850     0.6170 H     1 <1>   0.0800 
 35 H        5.0610     6.8500     0.3410 H     1 <1>   0.0800 
 36 H        5.5910     6.9100    -1.3170 H     1 <1>   0.0800 
 37 H        7.7450     4.8440    -1.5090 H     1 <1>   0.0800 
 38 H        7.4290     3.4580    -0.5120 H     1 <1>   0.0800 
 39 H        7.7770     7.2060    -0.7230 H     1 <1>   0.4500 
 40 H        9.3090     5.2240     0.1570 H     1 <1>   0.0800 
 41 H        8.3880     4.3920     1.3600 H     1 <1>   0.0800 
 42 H        7.1410     6.2350     1.9530 H     1 <1>   0.0800 
 43 H        8.6720     6.9770     1.5470 H     1 <1>   0.0800 
 44 H        7.8840     9.0190     0.9150 H     1 <1>   0.0800 
 45 H        6.2200     8.6910     1.3080 H     1 <1>   0.0800 
 46 H        5.5440     9.2730    -0.9870 H     1 <1>   0.0800 
 47 H        7.2190     9.4610    -1.4520 H     1 <1>   0.0800 
 48 H        8.5420    11.3820    -0.6740 H     1 <1>   0.1500 
 49 H        4.4480    10.9190     0.4930 H     1 <1>   0.1500 
 50 H        8.5040    13.6800     0.1530 H     1 <1>   0.1500 
 51 H        4.4350    13.2200     1.3120 H     1 <1>   0.1500 
 52 H        6.4570    14.6050     1.1490 H     1 <1>   0.1500 
@<TRIPOS>BOND
  1   1   2  1   
  2   2   3  ar  
  3   2   4  ar  
  4   3   5  ar  
  5   3   6  1   
  6   4   7  ar  
  7   4  26  1   
  8   5   8  ar  
  9   6   9  1   
 10   6  27  1   
 11   7   8  ar  
 12   8  10  1   
 13   9  28  1   
 14   9  29  1   
 15   9  30  1   
 16  10  11  1   
 17  10  31  1   
 18  11  12  1   
 19  11  32  1   
 20  11  33  1   
 21  12  13  1   
 22  12  14  1   
 23  12  34  1   
 24  13  15  1   
 25  13  35  1   
 26  13  36  1   
 27  14  16  1   
 28  14  37  1   
 29  14  38  1   
 30  15  17  1   
 31  15  18  1   
 32  15  39  1   
 33  16  17  1   
 34  16  40  1   
 35  16  41  1   
 36  17  42  1   
 37  17  43  1   
 38  18  19  1   
 39  18  44  1   
 40  18  45  1   
 41  19  20  1   
 42  19  46  1   
 43  19  47  1   
 44  20  21  ar  
 45  20  22  ar  
 46  21  23  ar  
 47  21  48  1   
 48  22  24  ar  
 49  22  49  1   
 50  23  25  ar  
 51  23  50  1   
 52  24  25  ar  
 53  24  51  1   
 54  25  52  1   
@<TRIPOS>SUBSTRUCTURE
  1 ****  12 GROUP 4 **** **** 0

# MOE 2024.06 (io_trps.svl 2023.06)
