@<TRIPOS>MOLECULE
NONAME
57 61 1 0 0 
SMALL
USER_CHARGES


@<TRIPOS>ATOM
  1 O       -1.5110     0.4060     1.5960 O.2   1 <1>  -0.5700 
  2 C       -1.5030     0.9040     0.5000 C.2   1 <1>   0.5690 
  3 N       -1.6520     0.1810    -0.6430 N.am  1 <1>  -0.7300 
  4 C       -1.3690     2.4110     0.3850 C.3   1 <1>  -0.0990 
  5 C       -1.7150    -1.2990    -0.8320 C.3   1 <1>   0.2200 
  6 C        0.0750     2.9310     0.1940 C.3   1 <1>   0.0000 
  7 C       -3.1060    -1.9060    -0.7040 C.3   1 <1>  -0.0800 
  8 C       -0.8910    -2.1640     0.1200 C.3   1 <1>   0.1200 
  9 C        0.9810     2.5190     1.3800 C.3   1 <1>  -0.1600 
 10 C        0.0400     4.4770     0.1230 C.3   1 <1>  -0.1600 
 11 C        0.7100     2.4010    -1.1150 C.3   1 <1>  -0.1600 
 12 C       -2.7520    -3.3840    -0.5020 C.3   1 <1>   0.1200 
 13 C       -3.9390    -1.3610     0.4770 C.3   1 <1>  -0.0170 
 14 O       -1.4730    -3.4340     0.0620 O.3   1 <1>  -0.5600 
 15 C        2.3900     3.0940     1.1830 C.3   1 <1>   0.2800 
 16 C        1.4560     5.0570    -0.0600 C.3   1 <1>  -0.0800 
 17 C        2.1310     2.9670    -1.3070 C.3   1 <1>  -0.0800 
 18 C       -5.2930    -2.0480     0.5780 C.ar  1 <1>  -0.1440 
 19 O        3.1760     2.7150     2.2440 O.3   1 <1>  -0.6800 
 20 C        2.3340     4.6270     1.1300 C.3   1 <1>  -0.1600 
 21 C        3.0060     2.5440    -0.1110 C.3   1 <1>  -0.1600 
 22 C        2.0600     4.5050    -1.3650 C.3   1 <1>  -0.1600 
 23 C       -5.5740    -2.9620     1.5740 C.ar  1 <1>  -0.1500 
 24 C       -6.3120    -1.7910    -0.3170 C.ar  1 <1>  -0.1500 
 25 C       -6.8210    -3.5630     1.6210 C.ar  1 <1>   0.1600 
 26 C       -7.5240    -2.4470    -0.1810 C.ar  1 <1>   0.1600 
 27 N       -7.8030    -3.3290     0.7650 N.ar  1 <1>  -0.6200 
 28 H       -1.6680     0.7030    -1.5190 H     1 <1>   0.3700 
 29 H       -1.9840     2.7470    -0.4290 H     1 <1>   0.0800 
 30 H       -1.7770     2.8380     1.2830 H     1 <1>   0.0800 
 31 H       -1.3480    -1.5110    -1.8220 H     1 <1>   0.0800 
 32 H       -3.6570    -1.7850    -1.6190 H     1 <1>   0.0800 
 33 H       -0.9590    -1.8370     1.1410 H     1 <1>   0.0800 
 34 H        0.1380    -2.2360    -0.1810 H     1 <1>   0.0800 
 35 H        1.0440     1.4480     1.4460 H     1 <1>   0.0800 
 36 H        0.5680     2.8870     2.3020 H     1 <1>   0.0800 
 37 H       -0.5800     4.7940    -0.6970 H     1 <1>   0.0800 
 38 H       -0.3890     4.8750     1.0260 H     1 <1>   0.0800 
 39 H        0.7730     1.3270    -1.0890 H     1 <1>   0.0800 
 40 H        0.1010     2.6760    -1.9580 H     1 <1>   0.0800 
 41 H       -2.7040    -3.8950    -1.4480 H     1 <1>   0.0800 
 42 H       -3.4360    -3.9040     0.1440 H     1 <1>   0.0800 
 43 H       -4.1060    -0.3070     0.3500 H     1 <1>   0.0800 
 44 H       -3.3970    -1.4910     1.3980 H     1 <1>   0.0800 
 45 H        1.4070     6.1320    -0.1060 H     1 <1>   0.0800 
 46 H        2.5550     2.5870    -2.2200 H     1 <1>   0.0800 
 47 H        4.0740     3.0700     2.1230 H     1 <1>   0.4000 
 48 H        1.9150     5.0070     2.0450 H     1 <1>   0.0800 
 49 H        3.3230     5.0320     1.0120 H     1 <1>   0.0800 
 50 H        4.0020     2.9290    -0.2420 H     1 <1>   0.0800 
 51 H        3.0580     1.4700    -0.0620 H     1 <1>   0.0800 
 52 H        3.0470     4.9110    -1.5100 H     1 <1>   0.0800 
 53 H        1.4580     4.8110    -2.2030 H     1 <1>   0.0800 
 54 H       -4.8340    -3.2120     2.3130 H     1 <1>   0.1500 
 55 H       -6.1750    -1.0870    -1.1160 H     1 <1>   0.1500 
 56 H       -7.0200    -4.2730     2.4050 H     1 <1>   0.1500 
 57 H       -8.3080    -2.2340    -0.8880 H     1 <1>   0.1500 
@<TRIPOS>BOND
  1   1   2  2   
  2   2   3  am  
  3   2   4  1   
  4   3   5  1   
  5   3  28  1   
  6   4   6  1   
  7   4  29  1   
  8   4  30  1   
  9   5   7  1   
 10   5   8  1   
 11   5  31  1   
 12   6   9  1   
 13   6  10  1   
 14   6  11  1   
 15   7  12  1   
 16   7  13  1   
 17   7  32  1   
 18   8  14  1   
 19   8  33  1   
 20   8  34  1   
 21   9  15  1   
 22   9  35  1   
 23   9  36  1   
 24  10  16  1   
 25  10  37  1   
 26  10  38  1   
 27  11  17  1   
 28  11  39  1   
 29  11  40  1   
 30  12  14  1   
 31  12  41  1   
 32  12  42  1   
 33  13  18  1   
 34  13  43  1   
 35  13  44  1   
 36  15  19  1   
 37  15  20  1   
 38  15  21  1   
 39  16  20  1   
 40  16  22  1   
 41  16  45  1   
 42  17  21  1   
 43  17  22  1   
 44  17  46  1   
 45  18  23  ar  
 46  18  24  ar  
 47  19  47  1   
 48  20  48  1   
 49  20  49  1   
 50  21  50  1   
 51  21  51  1   
 52  22  52  1   
 53  22  53  1   
 54  23  25  ar  
 55  23  54  1   
 56  24  26  ar  
 57  24  55  1   
 58  25  27  ar  
 59  25  56  1   
 60  26  27  ar  
 61  26  57  1   
@<TRIPOS>SUBSTRUCTURE
  1 ****   2 GROUP 4 **** **** 0

# MOE 2024.06 (io_trps.svl 2023.06)
