@<TRIPOS>MOLECULE
NONAME
48 51 1 0 0 
SMALL
USER_CHARGES


@<TRIPOS>ATOM
  1 O       -0.5780    -0.7080    -0.0800 O.3   1 <1>  -0.2800 
  2 C       -0.6740     0.5700     0.2160 C.2   1 <1>   0.4250 
  3 C       -1.7640    -1.1170     0.2640 C.2   1 <1>   0.2980 
  4 N       -1.8270     0.8890     0.6980 N.2   1 <1>  -0.3380 
  5 C        0.4460     1.4550    -0.0090 C.ar  1 <1>   0.0530 
  6 N       -2.5330    -0.2140     0.7300 N.2   1 <1>  -0.3380 
  7 C       -2.1320    -2.5900     0.0940 C.3   1 <1>   0.5230 
  8 C        1.6490     0.9920    -0.5470 C.ar  1 <1>   0.1600 
  9 C        0.3820     2.8090     0.2990 C.ar  1 <1>  -0.1500 
 10 N       -3.6170    -2.8320     0.2120 N.4   1 <1>  -0.9590 
 11 N        2.7250     1.7220    -0.7900 N.ar  1 <1>  -0.6200 
 12 C        1.4910     3.5880     0.0540 C.ar  1 <1>  -0.1500 
 13 C       -4.0050    -4.2640     0.4500 C.3   1 <1>   0.4230 
 14 C       -4.2560    -2.2670    -1.0170 C.3   1 <1>   0.3430 
 15 C        2.6240     3.0050    -0.4850 C.ar  1 <1>   0.1600 
 16 C       -5.5410    -4.3590     0.5270 C.3   1 <1>  -0.1600 
 17 C       -3.4290    -4.8540     1.7620 C.3   1 <1>  -0.1600 
 18 C       -5.7760    -2.3280    -0.9130 C.3   1 <1>  -0.1600 
 19 C       -6.2460    -3.7650    -0.6960 C.3   1 <1>  -0.1600 
 20 C       -1.9830    -5.3970     1.7450 C.3   1 <1>   0.0960 
 21 N       -1.6340    -6.0260     0.4550 N.pl3 1 <1>   0.3140 
 22 N       -1.3080    -5.2860    -0.6230 N.2   1 <1>  -0.7070 
 23 C       -1.6070    -7.3410     0.1730 C.2   1 <1>  -0.3020 
 24 C       -1.0630    -6.1560    -1.5590 C.2   1 <1>   0.1390 
 25 C       -1.2390    -7.4610    -1.1190 C.2   1 <1>  -0.1500 
 26 H       -1.6020    -3.1370     0.8460 H     1 <1>   0.0800 
 27 H       -1.7830    -2.9320    -0.8660 H     1 <1>   0.0800 
 28 H        1.7300    -0.0520    -0.7950 H     1 <1>   0.1500 
 29 H       -0.5120     3.2410     0.7180 H     1 <1>   0.1500 
 30 H       -3.9500    -2.2640     1.0030 H     1 <1>   0.4500 
 31 H        1.4830     4.6400     0.2770 H     1 <1>   0.1500 
 32 H       -3.6810    -4.8640    -0.3870 H     1 <1>   0.0800 
 33 H       -3.9370    -2.8280    -1.8820 H     1 <1>   0.0800 
 34 H       -3.9590    -1.2390    -1.1530 H     1 <1>   0.0800 
 35 H        3.4870     3.6210    -0.6740 H     1 <1>   0.1500 
 36 H       -5.8900    -3.8600     1.4150 H     1 <1>   0.0800 
 37 H       -5.8290    -5.3930     0.6070 H     1 <1>   0.0800 
 38 H       -4.0360    -5.7030     2.0270 H     1 <1>   0.0800 
 39 H       -3.5430    -4.1500     2.5670 H     1 <1>   0.0800 
 40 H       -6.2080    -1.9450    -1.8220 H     1 <1>   0.0800 
 41 H       -6.1100    -1.6970    -0.1070 H     1 <1>   0.0800 
 42 H       -7.3130    -3.7840    -0.5490 H     1 <1>   0.0800 
 43 H       -6.0220    -4.3580    -1.5680 H     1 <1>   0.0800 
 44 H       -1.8640    -6.1320     2.5220 H     1 <1>   0.0800 
 45 H       -1.2710    -4.6180     1.9390 H     1 <1>   0.0800 
 46 H       -1.8390    -8.1100     0.8890 H     1 <1>   0.1500 
 47 H       -0.7580    -5.8940    -2.5600 H     1 <1>   0.1500 
 48 H       -1.1000    -8.3540    -1.7050 H     1 <1>   0.1500 
@<TRIPOS>BOND
  1   1   2  1   
  2   1   3  1   
  3   2   4  2   
  4   2   5  1   
  5   3   6  2   
  6   3   7  1   
  7   4   6  1   
  8   5   8  ar  
  9   5   9  ar  
 10   7  10  1   
 11   7  26  1   
 12   7  27  1   
 13   8  11  ar  
 14   8  28  1   
 15   9  12  ar  
 16   9  29  1   
 17  10  13  1   
 18  10  14  1   
 19  10  30  1   
 20  11  15  ar  
 21  12  15  ar  
 22  12  31  1   
 23  13  16  1   
 24  13  17  1   
 25  13  32  1   
 26  14  18  1   
 27  14  33  1   
 28  14  34  1   
 29  15  35  1   
 30  16  19  1   
 31  16  36  1   
 32  16  37  1   
 33  17  20  1   
 34  17  38  1   
 35  17  39  1   
 36  18  19  1   
 37  18  40  1   
 38  18  41  1   
 39  19  42  1   
 40  19  43  1   
 41  20  21  1   
 42  20  44  1   
 43  20  45  1   
 44  21  22  1   
 45  21  23  1   
 46  22  24  2   
 47  23  25  2   
 48  23  46  1   
 49  24  25  1   
 50  24  47  1   
 51  25  48  1   
@<TRIPOS>SUBSTRUCTURE
  1 ****   7 GROUP 4 **** **** 0

# MOE 2024.06 (io_trps.svl 2023.06)
