@<TRIPOS>MOLECULE
NONAME
51 53 1 0 0 
SMALL
USER_CHARGES


@<TRIPOS>ATOM
  1 O       -1.9690     1.1790    -1.4370 O.2   1 <1>  -0.5700 
  2 C       -1.7580     0.9230    -0.2780 C.2   1 <1>   0.5690 
  3 N       -1.7120    -0.3590     0.1590 N.am  1 <1>  -0.7300 
  4 C       -1.6060     2.0460     0.7290 C.3   1 <1>  -0.0990 
  5 C       -1.8030    -1.5560    -0.7080 C.3   1 <1>   0.2200 
  6 C       -0.1610     2.4150     1.1480 C.3   1 <1>   0.1430 
  7 C       -3.1530    -2.2440    -0.5600 C.3   1 <1>  -0.0800 
  8 C       -0.8810    -2.6310    -0.1520 C.3   1 <1>   0.1200 
  9 C        0.6050     3.0550    -0.0360 C.ar  1 <1>  -0.1440 
 10 C        0.6200     1.1950     1.6780 C.3   1 <1>  -0.2400 
 11 C       -0.2810     3.3810     2.3450 C.3   1 <1>  -0.2400 
 12 C       -2.9570    -3.1310     0.6760 C.3   1 <1>   0.1200 
 13 C       -4.3780    -1.3140    -0.4880 C.3   1 <1>  -0.0170 
 14 O       -1.5800    -3.1820     0.9220 O.3   1 <1>  -0.5600 
 15 C        1.0140     2.2690    -1.1100 C.ar  1 <1>  -0.1500 
 16 C        0.9130     4.4140    -0.0870 C.ar  1 <1>  -0.1500 
 17 C       -5.6680    -2.1190    -0.4510 C.ar  1 <1>  -0.1440 
 18 C        1.7040     2.8080    -2.1820 C.ar  1 <1>  -0.1500 
 19 C        1.6040     4.9580    -1.1570 C.ar  1 <1>  -0.1500 
 20 C       -6.2410    -2.6210    -1.6010 C.ar  1 <1>  -0.1500 
 21 C       -6.3310    -2.3900     0.7290 C.ar  1 <1>  -0.1500 
 22 C        2.0030     4.1550    -2.2070 C.ar  1 <1>  -0.1500 
 23 C       -7.4130    -3.3550    -1.5190 C.ar  1 <1>   0.1600 
 24 C       -7.4990    -3.1350     0.7020 C.ar  1 <1>   0.1600 
 25 N       -8.0540    -3.6270    -0.3940 N.ar  1 <1>  -0.6200 
 26 H       -1.5620    -0.5740     1.1470 H     1 <1>   0.3700 
 27 H       -2.0700     2.9200     0.3100 H     1 <1>   0.0800 
 28 H       -2.1740     1.7740     1.5980 H     1 <1>   0.0800 
 29 H       -1.5730    -1.3050    -1.7300 H     1 <1>   0.0800 
 30 H       -3.2800    -2.8980    -1.4060 H     1 <1>   0.0800 
 31 H        0.0620    -2.2400     0.1880 H     1 <1>   0.0800 
 32 H       -0.7180    -3.4090    -0.8770 H     1 <1>   0.0800 
 33 H        0.1140     0.7510     2.5170 H     1 <1>   0.0800 
 34 H        1.6000     1.5030     1.9970 H     1 <1>   0.0800 
 35 H        0.7480     0.4390     0.9270 H     1 <1>   0.0800 
 36 H       -0.7400     2.8930     3.1870 H     1 <1>   0.0800 
 37 H       -0.8870     4.2320     2.0920 H     1 <1>   0.0800 
 38 H        0.6920     3.7240     2.6510 H     1 <1>   0.0800 
 39 H       -3.3210    -4.1300     0.5110 H     1 <1>   0.0800 
 40 H       -3.4270    -2.7110     1.5480 H     1 <1>   0.0800 
 41 H       -4.3850    -0.6680    -1.3500 H     1 <1>   0.0800 
 42 H       -4.3240    -0.6860     0.3830 H     1 <1>   0.0800 
 43 H        0.7930     1.2190    -1.1380 H     1 <1>   0.1500 
 44 H        0.6250     5.0880     0.6960 H     1 <1>   0.1500 
 45 H        2.0030     2.1750    -2.9990 H     1 <1>   0.1500 
 46 H        1.8300     6.0100    -1.1710 H     1 <1>   0.1500 
 47 H       -5.7880    -2.4480    -2.5600 H     1 <1>   0.1500 
 48 H       -5.9540    -2.0310     1.6680 H     1 <1>   0.1500 
 49 H        2.5380     4.5760    -3.0400 H     1 <1>   0.1500 
 50 H       -7.8450    -3.7380    -2.4270 H     1 <1>   0.1500 
 51 H       -8.0020    -3.3380     1.6310 H     1 <1>   0.1500 
@<TRIPOS>BOND
  1   1   2  2   
  2   2   3  am  
  3   2   4  1   
  4   3   5  1   
  5   3  26  1   
  6   4   6  1   
  7   4  27  1   
  8   4  28  1   
  9   5   7  1   
 10   5   8  1   
 11   5  29  1   
 12   6   9  1   
 13   6  10  1   
 14   6  11  1   
 15   7  12  1   
 16   7  13  1   
 17   7  30  1   
 18   8  14  1   
 19   8  31  1   
 20   8  32  1   
 21   9  15  ar  
 22   9  16  ar  
 23  10  33  1   
 24  10  34  1   
 25  10  35  1   
 26  11  36  1   
 27  11  37  1   
 28  11  38  1   
 29  12  14  1   
 30  12  39  1   
 31  12  40  1   
 32  13  17  1   
 33  13  41  1   
 34  13  42  1   
 35  15  18  ar  
 36  15  43  1   
 37  16  19  ar  
 38  16  44  1   
 39  17  20  ar  
 40  17  21  ar  
 41  18  22  ar  
 42  18  45  1   
 43  19  22  ar  
 44  19  46  1   
 45  20  23  ar  
 46  20  47  1   
 47  21  24  ar  
 48  21  48  1   
 49  22  49  1   
 50  23  25  ar  
 51  23  50  1   
 52  24  25  ar  
 53  24  51  1   
@<TRIPOS>SUBSTRUCTURE
  1 ****   3 GROUP 4 **** **** 0

# MOE 2024.06 (io_trps.svl 2023.06)
