@<TRIPOS>MOLECULE
NONAME
53 56 1 0 0 
SMALL
USER_CHARGES


@<TRIPOS>ATOM
  1 O       -1.2560     0.2450     2.0530 O.2   1 <1>  -0.5700 
  2 C       -1.5680     0.5850     0.9350 C.2   1 <1>   0.5690 
  3 N       -1.9650    -0.3460     0.0030 N.am  1 <1>  -0.6600 
  4 C       -1.5380     2.0830     0.6440 C.3   1 <1>  -0.0990 
  5 C       -1.9710    -1.7870     0.3690 C.3   1 <1>   0.3200 
  6 C       -2.4570    -0.0240    -1.3770 C.3   1 <1>   0.1400 
  7 C       -0.1520     2.6650     0.2700 C.3   1 <1>   0.0000 
  8 C       -3.3680    -2.1760     0.8120 C.2   1 <1>  -0.3320 
  9 C       -3.9900     0.0580    -1.4790 C.3   1 <1>   0.1200 
 10 C       -0.3040     4.1830     0.0090 C.3   1 <1>  -0.1600 
 11 C        0.8650     2.4730     1.4220 C.3   1 <1>  -0.1600 
 12 C        0.4280     2.0130    -1.0070 C.3   1 <1>  -0.1600 
 13 N       -4.1600    -3.0990     0.2300 N.pl3 1 <1>   0.0480 
 14 C       -4.0610    -1.6780     1.8590 C.2   1 <1>   0.0770 
 15 O       -4.5120     0.7990    -0.4340 O.3   1 <1>  -0.6800 
 16 C        1.0500     4.8200    -0.3550 C.3   1 <1>  -0.0800 
 17 C        2.2250     3.1030     1.0680 C.3   1 <1>  -0.0800 
 18 C        1.7900     2.6350    -1.3720 C.3   1 <1>  -0.0800 
 19 C       -5.2960    -3.0820     0.9640 C.2   1 <1>   0.0360 
 20 C       -3.8720    -3.9610    -0.9300 C.3   1 <1>   0.0160 
 21 N       -5.2790    -2.2420     1.9460 N.2   1 <1>  -0.5650 
 22 C        2.0360     4.6080     0.8080 C.3   1 <1>  -0.1600 
 23 C        1.6060     4.1430    -1.6210 C.3   1 <1>  -0.1600 
 24 C        2.7730     2.4310    -0.2040 C.3   1 <1>  -0.1600 
 25 H       -1.8790     2.5760     1.5360 H     1 <1>   0.0800 
 26 H       -2.2540     2.3270    -0.1140 H     1 <1>   0.0800 
 27 H       -1.2800    -1.9730     1.1740 H     1 <1>   0.0800 
 28 H       -1.6510    -2.3760    -0.4720 H     1 <1>   0.0800 
 29 H       -2.0990    -0.7690    -2.0660 H     1 <1>   0.0800 
 30 H       -2.0510     0.9110    -1.7080 H     1 <1>   0.0800 
 31 H       -4.4320    -0.9210    -1.4450 H     1 <1>   0.0800 
 32 H       -4.2770     0.5340    -2.4000 H     1 <1>   0.0800 
 33 H       -0.6980     4.6660     0.8860 H     1 <1>   0.0800 
 34 H       -1.0010     4.3490    -0.7930 H     1 <1>   0.0800 
 35 H        1.0120     1.4260     1.6180 H     1 <1>   0.0800 
 36 H        0.4860     2.9200     2.3240 H     1 <1>   0.0800 
 37 H       -0.2460     2.1570    -1.8310 H     1 <1>   0.0800 
 38 H        0.5530     0.9550    -0.8580 H     1 <1>   0.0800 
 39 H       -3.7360    -0.9270     2.5630 H     1 <1>   0.1500 
 40 H       -4.3710     0.3050     0.4050 H     1 <1>   0.4000 
 41 H        0.9210     5.8740    -0.5330 H     1 <1>   0.0800 
 42 H        2.9150     2.9580     1.8820 H     1 <1>   0.0800 
 43 H        2.1790     2.1650    -2.2590 H     1 <1>   0.0800 
 44 H       -6.1320    -3.7200     0.7380 H     1 <1>   0.1500 
 45 H       -3.0510    -4.6120    -0.6920 H     1 <1>   0.0800 
 46 H       -3.6180    -3.3490    -1.7760 H     1 <1>   0.0800 
 47 H       -4.7390    -4.5520    -1.1640 H     1 <1>   0.0800 
 48 H        1.6620     5.0860     1.6960 H     1 <1>   0.0800 
 49 H        2.9840     5.0580     0.5690 H     1 <1>   0.0800 
 50 H        2.5500     4.5860    -1.8870 H     1 <1>   0.0800 
 51 H        0.9300     4.2980    -2.4440 H     1 <1>   0.0800 
 52 H        2.9150     1.3790    -0.0270 H     1 <1>   0.0800 
 53 H        3.7300     2.8530    -0.4560 H     1 <1>   0.0800 
@<TRIPOS>BOND
  1   1   2  2   
  2   2   3  am  
  3   2   4  1   
  4   3   5  1   
  5   3   6  1   
  6   4   7  1   
  7   4  25  1   
  8   4  26  1   
  9   5   8  1   
 10   5  27  1   
 11   5  28  1   
 12   6   9  1   
 13   6  29  1   
 14   6  30  1   
 15   7  10  1   
 16   7  11  1   
 17   7  12  1   
 18   8  13  1   
 19   8  14  2   
 20   9  15  1   
 21   9  31  1   
 22   9  32  1   
 23  10  16  1   
 24  10  33  1   
 25  10  34  1   
 26  11  17  1   
 27  11  35  1   
 28  11  36  1   
 29  12  18  1   
 30  12  37  1   
 31  12  38  1   
 32  13  19  1   
 33  13  20  1   
 34  14  21  1   
 35  14  39  1   
 36  15  40  1   
 37  16  22  1   
 38  16  23  1   
 39  16  41  1   
 40  17  22  1   
 41  17  24  1   
 42  17  42  1   
 43  18  23  1   
 44  18  24  1   
 45  18  43  1   
 46  19  21  2   
 47  19  44  1   
 48  20  45  1   
 49  20  46  1   
 50  20  47  1   
 51  22  48  1   
 52  22  49  1   
 53  23  50  1   
 54  23  51  1   
 55  24  52  1   
 56  24  53  1   
@<TRIPOS>SUBSTRUCTURE
  1 ****   2 GROUP 4 **** **** 0

# MOE 2024.06 (io_trps.svl 2023.06)
