@<TRIPOS>MOLECULE
NONAME
57 61 1 0 0 
SMALL
USER_CHARGES


@<TRIPOS>ATOM
  1 O       -3.2330     3.4980     0.3050 O.2   1 <1>  -0.5700 
  2 C       -2.9150     2.4810     0.8970 C.2   1 <1>   0.5440 
  3 N       -3.8200     1.4410     0.9540 N.am  1 <1>  -0.6600 
  4 C       -1.6190     2.4030     1.5310 C.ar  1 <1>   0.0860 
  5 C       -3.5080     0.1160     1.5700 C.3   1 <1>   0.1400 
  6 C       -5.0190     1.3800     0.0660 C.3   1 <1>   0.1400 
  7 C       -0.5360     1.7040     0.9580 C.ar  1 <1>   0.1000 
  8 C       -1.4410     3.0290     2.7640 C.ar  1 <1>  -0.1500 
  9 C       -3.4350    -0.9770     0.4870 C.3   1 <1>   0.3440 
 10 C       -4.8810     0.2170    -0.9370 C.3   1 <1>   0.2950 
 11 N       -0.6380     1.0710    -0.2880 N.pl3 1 <1>  -0.8380 
 12 C        0.6710     1.6620     1.6580 C.ar  1 <1>  -0.1500 
 13 C       -0.2400     2.9700     3.4400 C.ar  1 <1>  -0.1500 
 14 O       -4.6200    -0.9850    -0.2680 O.3   1 <1>  -0.5600 
 15 C       -3.1940    -2.3460     1.1230 C.ar  1 <1>  -0.1430 
 16 C       -6.1610     0.0190    -1.7550 C.3   1 <1>  -0.1950 
 17 C       -0.9460     1.9110    -1.4930 C.3   1 <1>   0.2090 
 18 C        0.1220    -0.1740    -0.6360 C.3   1 <1>   0.2090 
 19 C        0.8210     2.2800     2.8820 C.ar  1 <1>  -0.1500 
 20 C       -1.9300    -2.6440     1.6160 C.ar  1 <1>  -0.1500 
 21 C       -4.1970    -3.3000     1.2340 C.ar  1 <1>  -0.1500 
 22 C       -6.1340    -0.6750    -3.0800 C.3   1 <1>  -0.2000 
 23 C       -6.4050     0.8010    -3.0080 C.3   1 <1>  -0.2000 
 24 C        0.2870     2.0720    -2.4010 C.3   1 <1>   0.1200 
 25 C        1.2930     0.1220    -1.5920 C.3   1 <1>   0.1200 
 26 C       -1.6730    -3.8690     2.2070 C.ar  1 <1>  -0.1500 
 27 C       -3.9420    -4.5260     1.8240 C.ar  1 <1>  -0.1500 
 28 O        0.8540     0.8310    -2.7150 O.3   1 <1>  -0.5600 
 29 C       -2.6790    -4.8120     2.3110 C.ar  1 <1>  -0.1500 
 30 H       -2.5770     0.1470     2.1050 H     1 <1>   0.0800 
 31 H       -4.2800    -0.1410     2.2740 H     1 <1>   0.0800 
 32 H       -5.8980     1.2330     0.6670 H     1 <1>   0.0800 
 33 H       -5.1420     2.3010    -0.4760 H     1 <1>   0.0800 
 34 H       -2.2680     3.5700     3.1910 H     1 <1>   0.1500 
 35 H       -2.6250    -0.7600    -0.1840 H     1 <1>   0.0800 
 36 H       -4.0580     0.4140    -1.6030 H     1 <1>   0.0800 
 37 H        1.5130     1.1500     1.2360 H     1 <1>   0.1500 
 38 H       -0.1260     3.4590     4.3920 H     1 <1>   0.1500 
 39 H       -7.0130    -0.1670    -1.1240 H     1 <1>   0.1000 
 40 H       -1.7430     1.4540    -2.0510 H     1 <1>   0.0800 
 41 H       -1.2730     2.8900    -1.1920 H     1 <1>   0.0800 
 42 H        0.4920    -0.6460     0.2570 H     1 <1>   0.0800 
 43 H       -0.5430    -0.8690    -1.1180 H     1 <1>   0.0800 
 44 H        1.7620     2.2330     3.4030 H     1 <1>   0.1500 
 45 H       -1.1390    -1.9190     1.5470 H     1 <1>   0.1500 
 46 H       -5.1850    -3.0930     0.8600 H     1 <1>   0.1500 
 47 H       -5.1870    -1.0180    -3.4610 H     1 <1>   0.1000 
 48 H       -6.9400    -1.3460    -3.3200 H     1 <1>   0.1000 
 49 H       -7.4020     1.1520    -3.2140 H     1 <1>   0.1000 
 50 H       -5.6480     1.4780    -3.3660 H     1 <1>   0.1000 
 51 H        1.0300     2.6780    -1.9140 H     1 <1>   0.0800 
 52 H        0.0050     2.5490    -3.3230 H     1 <1>   0.0800 
 53 H        1.7310    -0.7980    -1.9350 H     1 <1>   0.0800 
 54 H        2.0500     0.7020    -1.0950 H     1 <1>   0.0800 
 55 H       -0.6910    -4.0890     2.5860 H     1 <1>   0.1500 
 56 H       -4.7280    -5.2570     1.9030 H     1 <1>   0.1500 
 57 H       -2.4820    -5.7650     2.7700 H     1 <1>   0.1500 
@<TRIPOS>BOND
  1   1   2  2   
  2   2   3  am  
  3   2   4  1   
  4   3   5  1   
  5   3   6  1   
  6   4   7  ar  
  7   4   8  ar  
  8   5   9  1   
  9   5  30  1   
 10   5  31  1   
 11   6  10  1   
 12   6  32  1   
 13   6  33  1   
 14   7  11  1   
 15   7  12  ar  
 16   8  13  ar  
 17   8  34  1   
 18   9  14  1   
 19   9  15  1   
 20   9  35  1   
 21  10  14  1   
 22  10  16  1   
 23  10  36  1   
 24  11  17  1   
 25  11  18  1   
 26  12  19  ar  
 27  12  37  1   
 28  13  19  ar  
 29  13  38  1   
 30  15  20  ar  
 31  15  21  ar  
 32  16  22  1   
 33  16  23  1   
 34  16  39  1   
 35  17  24  1   
 36  17  40  1   
 37  17  41  1   
 38  18  25  1   
 39  18  42  1   
 40  18  43  1   
 41  19  44  1   
 42  20  26  ar  
 43  20  45  1   
 44  21  27  ar  
 45  21  46  1   
 46  22  23  1   
 47  22  47  1   
 48  22  48  1   
 49  23  49  1   
 50  23  50  1   
 51  24  28  1   
 52  24  51  1   
 53  24  52  1   
 54  25  28  1   
 55  25  53  1   
 56  25  54  1   
 57  26  29  ar  
 58  26  55  1   
 59  27  29  ar  
 60  27  56  1   
 61  29  57  1   
@<TRIPOS>SUBSTRUCTURE
  1 ****   9 GROUP 4 **** **** 0

# MOE 2024.06 (io_trps.svl 2023.06)
