@<TRIPOS>MOLECULE
NONAME
48 50 1 0 0 
SMALL
USER_CHARGES


@<TRIPOS>ATOM
  1 O       -0.0580     0.4810     1.0780 O.2   1 <1>  -0.5700 
  2 C       -0.1200     1.6490     0.7720 C.2   1 <1>   0.5690 
  3 N       -1.2880     2.3630     0.8830 N.am  1 <1>  -0.6600 
  4 C        1.1390     2.3210     0.2500 C.3   1 <1>  -0.0990 
  5 C       -1.4650     3.7990     0.5250 C.3   1 <1>   0.1400 
  6 C       -2.5390     1.7310     1.3920 C.3   1 <1>   0.1400 
  7 C        2.3340     1.3700     0.1940 C.3   1 <1>   0.1200 
  8 C       -2.5330     3.9130    -0.5640 C.3   1 <1>  -0.1600 
  9 C       -3.6290     1.8320     0.3230 C.3   1 <1>  -0.1600 
 10 O        3.4440     2.0820    -0.3070 O.3   1 <1>  -0.3630 
 11 C       -3.8600     3.2800    -0.1200 C.3   1 <1>   0.4180 
 12 C        4.6500     1.4800    -0.4620 C.ar  1 <1>   0.0830 
 13 O       -4.3470     3.9640     1.0090 O.3   1 <1>  -0.5600 
 14 C       -4.8870     3.3130    -1.2490 C.2   1 <1>  -0.2880 
 15 C        4.8960     0.1450    -0.1500 C.ar  1 <1>  -0.1500 
 16 C        5.6790     2.2630    -0.9610 C.ar  1 <1>  -0.1500 
 17 C       -5.0410     5.1610     0.7910 C.3   1 <1>   0.1200 
 18 C       -6.0120     4.0300    -1.2180 C.2   1 <1>  -0.2760 
 19 C        6.1600    -0.3890    -0.3390 C.ar  1 <1>  -0.1500 
 20 C        6.9410     1.7280    -1.1500 C.ar  1 <1>  -0.1500 
 21 C       -6.3200     4.9060    -0.0180 C.3   1 <1>  -0.0220 
 22 C       -7.0590     4.0380    -2.3180 C.3   1 <1>  -0.1020 
 23 C        7.1820     0.4010    -0.8380 C.ar  1 <1>  -0.1500 
 24 H        1.3820     3.1420     0.8980 H     1 <1>   0.0800 
 25 H        0.9440     2.6880    -0.7400 H     1 <1>   0.0800 
 26 H       -0.5480     4.2370     0.1760 H     1 <1>   0.0800 
 27 H       -1.7790     4.3410     1.4010 H     1 <1>   0.0800 
 28 H       -2.8530     2.2420     2.2870 H     1 <1>   0.0800 
 29 H       -2.3730     0.6970     1.6420 H     1 <1>   0.0800 
 30 H        2.1300     0.5440    -0.4670 H     1 <1>   0.0800 
 31 H        2.5740     1.0060     1.1780 H     1 <1>   0.0800 
 32 H       -2.1800     3.4090    -1.4450 H     1 <1>   0.0800 
 33 H       -2.6850     4.9420    -0.8280 H     1 <1>   0.0800 
 34 H       -4.5500     1.4290     0.7030 H     1 <1>   0.0800 
 35 H       -3.3350     1.2360    -0.5210 H     1 <1>   0.0800 
 36 H       -4.6130     2.6850    -2.0780 H     1 <1>   0.1500 
 37 H        4.1240    -0.4900     0.2390 H     1 <1>   0.1500 
 38 H        5.4840     3.2920    -1.2000 H     1 <1>   0.1500 
 39 H       -4.3950     5.8440     0.2700 H     1 <1>   0.0800 
 40 H       -5.2850     5.5790     1.7520 H     1 <1>   0.0800 
 41 H        6.3480    -1.4200    -0.0970 H     1 <1>   0.1500 
 42 H        7.7340     2.3430    -1.5380 H     1 <1>   0.1500 
 43 H       -6.7150     5.8530    -0.3380 H     1 <1>   0.0800 
 44 H       -7.0550     4.4270     0.6040 H     1 <1>   0.0800 
 45 H       -8.0050     3.7060    -1.9300 H     1 <1>   0.0800 
 46 H       -6.7690     3.3810    -3.1190 H     1 <1>   0.0800 
 47 H       -7.1740     5.0310    -2.7160 H     1 <1>   0.0800 
 48 H        8.1630    -0.0170    -0.9850 H     1 <1>   0.1500 
@<TRIPOS>BOND
  1   1   2  2   
  2   2   3  am  
  3   2   4  1   
  4   3   5  1   
  5   3   6  1   
  6   4   7  1   
  7   4  24  1   
  8   4  25  1   
  9   5   8  1   
 10   5  26  1   
 11   5  27  1   
 12   6   9  1   
 13   6  28  1   
 14   6  29  1   
 15   7  10  1   
 16   7  30  1   
 17   7  31  1   
 18   8  11  1   
 19   8  32  1   
 20   8  33  1   
 21   9  11  1   
 22   9  34  1   
 23   9  35  1   
 24  10  12  1   
 25  11  13  1   
 26  11  14  1   
 27  12  15  ar  
 28  12  16  ar  
 29  13  17  1   
 30  14  18  2   
 31  14  36  1   
 32  15  19  ar  
 33  15  37  1   
 34  16  20  ar  
 35  16  38  1   
 36  17  21  1   
 37  17  39  1   
 38  17  40  1   
 39  18  21  1   
 40  18  22  1   
 41  19  23  ar  
 42  19  41  1   
 43  20  23  ar  
 44  20  42  1   
 45  21  43  1   
 46  21  44  1   
 47  22  45  1   
 48  22  46  1   
 49  22  47  1   
 50  23  48  1   
@<TRIPOS>SUBSTRUCTURE
  1 ****   2 GROUP 4 **** **** 0

# MOE 2024.06 (io_trps.svl 2023.06)
