@<TRIPOS>MOLECULE
NONAME
44 46 1 0 0 
SMALL
USER_CHARGES


@<TRIPOS>ATOM
  1 CL      -1.2030     0.0890    -0.4180 Cl    1 <1>  -0.1770 
  2 C       -1.6500    -1.5850    -0.2170 C.ar  1 <1>   0.1770 
  3 C       -0.7720    -2.4540     0.3990 C.ar  1 <1>  -0.1500 
  4 C       -2.8760    -2.0240    -0.6780 C.ar  1 <1>  -0.1500 
  5 C       -1.1330    -3.7810     0.5560 C.ar  1 <1>  -0.1500 
  6 C       -3.2230    -3.3530    -0.5180 C.ar  1 <1>  -0.1500 
  7 C       -2.3650    -4.2620     0.1050 C.ar  1 <1>   0.0530 
  8 C       -2.7020    -5.6530     0.2860 C.2   1 <1>   0.0870 
  9 O       -1.7660    -6.5620     0.1180 O.3   1 <1>  -0.0190 
 10 C       -3.8350    -6.3220     0.6300 C.2   1 <1>  -0.2330 
 11 N       -2.1910    -7.7800     0.3370 N.2   1 <1>  -0.4100 
 12 C       -3.4210    -7.6490     0.6670 C.2   1 <1>   0.3720 
 13 C       -5.1910    -5.9440     0.8650 C.2   1 <1>   1.0330 
 14 N       -4.2510    -8.6950     1.0290 N.pl3 1 <1>  -0.8520 
 15 O       -5.7600    -5.1170     0.1400 O.co2 1 <1>  -0.9000 
 16 O       -5.9140    -6.6090     1.6350 O.co2 1 <1>  -0.9000 
 17 C       -5.0820    -9.2180    -0.0830 C.3   1 <1>   0.2890 
 18 C       -6.5870    -9.2510     0.3330 C.3   1 <1>   0.4230 
 19 C       -4.6850   -10.6710    -0.3220 C.3   1 <1>  -0.1600 
 20 N       -7.5650    -8.7100    -0.6840 N.4   1 <1>  -0.9590 
 21 C       -6.9000   -10.7310     0.6270 C.3   1 <1>  -0.1600 
 22 C       -5.5620   -11.4730     0.6330 C.3   1 <1>  -0.1600 
 23 C       -7.2780    -7.2720    -1.0000 C.3   1 <1>   0.2630 
 24 C       -8.9600    -8.7630    -0.1510 C.3   1 <1>   0.2630 
 25 H        0.1780    -2.0950     0.7510 H     1 <1>   0.1500 
 26 H       -3.5490    -1.3350    -1.1560 H     1 <1>   0.1500 
 27 H       -0.4540    -4.4620     1.0380 H     1 <1>   0.1500 
 28 H       -4.1750    -3.6900    -0.8880 H     1 <1>   0.1500 
 29 H       -4.9030    -8.2550     1.7080 H     1 <1>   0.4000 
 30 H       -4.9180    -8.6330    -0.9710 H     1 <1>   0.0800 
 31 H       -6.6870    -8.6820     1.2440 H     1 <1>   0.0800 
 32 H       -4.9180   -10.9410    -1.3370 H     1 <1>   0.0800 
 33 H       -3.6330   -10.8330    -0.1520 H     1 <1>   0.0800 
 34 H       -7.4830    -9.2680    -1.5420 H     1 <1>   0.4500 
 35 H       -7.3910   -10.8380     1.5780 H     1 <1>   0.0800 
 36 H       -7.5140   -11.1570    -0.1450 H     1 <1>   0.0800 
 37 H       -5.1300   -11.4350     1.6200 H     1 <1>   0.0800 
 38 H       -5.6580   -12.5020     0.3310 H     1 <1>   0.0800 
 39 H       -7.4380    -6.6610    -0.1250 H     1 <1>   0.0800 
 40 H       -7.9270    -6.9150    -1.7810 H     1 <1>   0.0800 
 41 H       -6.2570    -7.1350    -1.3160 H     1 <1>   0.0800 
 42 H       -9.0260    -8.1830     0.7560 H     1 <1>   0.0800 
 43 H       -9.2470    -9.7780     0.0660 H     1 <1>   0.0800 
 44 H       -9.6500    -8.3550    -0.8710 H     1 <1>   0.0800 
@<TRIPOS>BOND
  1   1   2  1   
  2   2   3  ar  
  3   2   4  ar  
  4   3   5  ar  
  5   3  25  1   
  6   4   6  ar  
  7   4  26  1   
  8   5   7  ar  
  9   5  27  1   
 10   6   7  ar  
 11   6  28  1   
 12   7   8  1   
 13   8   9  1   
 14   8  10  2   
 15   9  11  1   
 16  10  12  1   
 17  10  13  1   
 18  11  12  2   
 19  12  14  1   
 20  13  15  ar  
 21  13  16  ar  
 22  14  17  1   
 23  14  29  1   
 24  17  18  1   
 25  17  19  1   
 26  17  30  1   
 27  18  20  1   
 28  18  21  1   
 29  18  31  1   
 30  19  22  1   
 31  19  32  1   
 32  19  33  1   
 33  20  23  1   
 34  20  24  1   
 35  20  34  1   
 36  21  22  1   
 37  21  35  1   
 38  21  36  1   
 39  22  37  1   
 40  22  38  1   
 41  23  39  1   
 42  23  40  1   
 43  23  41  1   
 44  24  42  1   
 45  24  43  1   
 46  24  44  1   
@<TRIPOS>SUBSTRUCTURE
  1 ****  10 GROUP 4 **** **** 0

# MOE 2024.06 (io_trps.svl 2023.06)
