@<TRIPOS>MOLECULE
NONAME
52 55 1 0 0 
SMALL
USER_CHARGES


@<TRIPOS>ATOM
  1 O       -0.7370    -0.2800    -2.1390 O.2   1 <1>  -0.5700 
  2 C       -1.5800     0.2990    -1.4160 C.2   1 <1>   0.5410 
  3 C       -2.6520    -0.3740    -0.7550 C.2   1 <1>   0.0140 
  4 C       -1.4310     1.6940    -1.2660 C.2   1 <1>  -0.1360 
  5 C       -2.8800    -1.7820    -0.8530 C.2   1 <1>   0.2710 
  6 C       -3.5060     0.4370     0.0250 C.2   1 <1>  -0.1500 
  7 C       -2.2870     2.4340    -0.5000 C.2   1 <1>  -0.1500 
  8 N       -3.9180    -2.3400    -0.2260 N.2   1 <1>  -0.6210 
  9 N       -2.0390    -2.5660    -1.5870 N.pl3 1 <1>  -0.6000 
 10 C       -3.3390     1.7930     0.1550 C.2   1 <1>  -0.1500 
 11 C       -4.1020    -3.6510    -0.3190 C.2   1 <1>   0.4860 
 12 C       -2.1910    -3.8970    -1.7310 C.2   1 <1>  -0.0380 
 13 N       -5.1580    -4.1890     0.3600 N.pl3 1 <1>  -0.7880 
 14 C       -3.2430    -4.4590    -1.0900 C.2   1 <1>  -0.1360 
 15 C       -1.1950    -4.6440    -2.5900 C.3   1 <1>  -0.1020 
 16 C       -6.3920    -3.4100     0.6450 C.3   1 <1>   0.2090 
 17 C       -5.1550    -5.5440     0.9620 C.3   1 <1>   0.2090 
 18 C       -7.6020    -4.1790     0.1070 C.3   1 <1>  -0.1600 
 19 C       -6.3400    -6.3420     0.4120 C.3   1 <1>  -0.1600 
 20 C       -7.6790    -5.6160     0.6560 C.3   1 <1>  -0.0800 
 21 C       -8.8630    -6.3540     0.0050 C.3   1 <1>  -0.1600 
 22 C       -9.1120    -7.7480     0.6020 C.3   1 <1>   0.0960 
 23 N      -10.2710    -8.3880    -0.0450 N.pl3 1 <1>   0.3140 
 24 N      -10.1340    -9.1710    -1.1300 N.2   1 <1>  -0.7070 
 25 C      -11.5630    -8.2910     0.3270 C.2   1 <1>  -0.3020 
 26 C      -11.3400    -9.5510    -1.4210 C.2   1 <1>   0.1390 
 27 C      -12.2820    -9.0310    -0.5420 C.2   1 <1>  -0.1500 
 28 H       -0.6100     2.1520    -1.7840 H     1 <1>   0.1500 
 29 H       -4.3260    -0.0280     0.5440 H     1 <1>   0.1500 
 30 H       -2.1640     3.4990    -0.3920 H     1 <1>   0.1500 
 31 H       -1.2610    -2.0690    -2.0500 H     1 <1>   0.4000 
 32 H       -4.0150     2.3730     0.7610 H     1 <1>   0.1500 
 33 H       -3.4440    -5.5060    -1.1710 H     1 <1>   0.1500 
 34 H       -1.2140    -4.2540    -3.5920 H     1 <1>   0.0800 
 35 H       -1.4330    -5.6910    -2.6220 H     1 <1>   0.0800 
 36 H       -0.2050    -4.5250    -2.1870 H     1 <1>   0.0800 
 37 H       -6.3510    -2.4430     0.1730 H     1 <1>   0.0800 
 38 H       -6.4810    -3.2620     1.7070 H     1 <1>   0.0800 
 39 H       -5.2460    -5.4470     2.0300 H     1 <1>   0.0800 
 40 H       -4.2310    -6.0550     0.7600 H     1 <1>   0.0800 
 41 H       -7.5310    -4.2010    -0.9670 H     1 <1>   0.0800 
 42 H       -8.4960    -3.6400     0.3630 H     1 <1>   0.0800 
 43 H       -6.3430    -7.3050     0.8880 H     1 <1>   0.0800 
 44 H       -6.1910    -6.4940    -0.6430 H     1 <1>   0.0800 
 45 H       -7.8480    -5.5570     1.7190 H     1 <1>   0.0800 
 46 H       -8.6830    -6.4560    -1.0520 H     1 <1>   0.0800 
 47 H       -9.7550    -5.7650     0.1350 H     1 <1>   0.0800 
 48 H       -9.3030    -7.6790     1.6560 H     1 <1>   0.0800 
 49 H       -8.2610    -8.3840     0.4430 H     1 <1>   0.0800 
 50 H      -11.8930    -7.7120     1.1710 H     1 <1>   0.1500 
 51 H      -11.5730   -10.1970    -2.2520 H     1 <1>   0.1500 
 52 H      -13.3430    -9.2010    -0.5750 H     1 <1>   0.1500 
@<TRIPOS>BOND
  1   1   2  2   
  2   2   3  1   
  3   2   4  1   
  4   3   5  2   
  5   3   6  1   
  6   4   7  2   
  7   4  28  1   
  8   5   8  1   
  9   5   9  1   
 10   6  10  2   
 11   6  29  1   
 12   7  10  1   
 13   7  30  1   
 14   8  11  2   
 15   9  12  1   
 16   9  31  1   
 17  10  32  1   
 18  11  13  1   
 19  11  14  1   
 20  12  14  2   
 21  12  15  1   
 22  13  16  1   
 23  13  17  1   
 24  14  33  1   
 25  15  34  1   
 26  15  35  1   
 27  15  36  1   
 28  16  18  1   
 29  16  37  1   
 30  16  38  1   
 31  17  19  1   
 32  17  39  1   
 33  17  40  1   
 34  18  20  1   
 35  18  41  1   
 36  18  42  1   
 37  19  20  1   
 38  19  43  1   
 39  19  44  1   
 40  20  21  1   
 41  20  45  1   
 42  21  22  1   
 43  21  46  1   
 44  21  47  1   
 45  22  23  1   
 46  22  48  1   
 47  22  49  1   
 48  23  24  1   
 49  23  25  1   
 50  24  26  2   
 51  25  27  2   
 52  25  50  1   
 53  26  27  1   
 54  26  51  1   
 55  27  52  1   
@<TRIPOS>SUBSTRUCTURE
  1 ****  13 GROUP 4 **** **** 0

# MOE 2024.06 (io_trps.svl 2023.06)
