@<TRIPOS>MOLECULE
NONAME
51 52 1 0 0 
SMALL
USER_CHARGES


@<TRIPOS>ATOM
  1 S        1.2100    -0.4850     0.7470 S.o2  1 <1>   1.3330 
  2 O        1.9250    -1.0720    -0.3640 O.2   1 <1>  -0.6500 
  3 O        1.3980    -1.0070     2.0810 O.2   1 <1>  -0.6500 
  4 N       -0.4510    -0.5800     0.3970 N.am  1 <1>  -0.8490 
  5 C        1.5230     1.2730     0.7480 C.3   1 <1>  -0.0550 
  6 C       -1.3040    -0.3730     1.5730 C.3   1 <1>   0.1160 
  7 C       -0.8050    -1.8480    -0.2500 C.3   1 <1>   0.1160 
  8 C        1.2620     1.8770    -0.6280 C.3   1 <1>   0.1400 
  9 N        1.4120     3.3490    -0.5660 N.am  1 <1>  -0.7300 
 10 C        2.5800     4.0490    -0.5600 C.2   1 <1>   0.7160 
 11 O        3.6170     3.4200    -0.4880 O.2   1 <1>  -0.5700 
 12 C        2.5660     5.4810    -0.6270 C.2   1 <1>  -0.0860 
 13 C        1.4300     6.2930    -0.7570 C.2   1 <1>   0.3720 
 14 C        3.5820     6.3870    -0.5570 C.2   1 <1>   0.0870 
 15 N        1.7410     7.5410    -0.7500 N.2   1 <1>  -0.4100 
 16 N        0.1060     5.8460    -0.8960 N.pl3 1 <1>  -0.8210 
 17 O        3.0390     7.5760    -0.6240 O.3   1 <1>  -0.0190 
 18 C        5.0130     6.2800    -0.4290 C.ar  1 <1>   0.0530 
 19 C       -0.8350     6.4930     0.0630 C.3   1 <1>   0.1290 
 20 C       -0.3890     5.9740    -2.2950 C.3   1 <1>   0.1290 
 21 C        5.7020     7.0900     0.4750 C.ar  1 <1>  -0.1500 
 22 C        5.7580     5.3920    -1.2070 C.ar  1 <1>  -0.1500 
 23 C        7.0780     7.0310     0.6260 C.ar  1 <1>   0.0820 
 24 C        7.1330     5.3070    -1.0820 C.ar  1 <1>  -0.1500 
 25 O        7.6010     7.8840     1.5540 O.3   1 <1>  -0.3620 
 26 C        7.7800     6.1210    -0.1720 C.ar  1 <1>   0.1900 
 27 C        8.9760     7.9360     1.8630 C.3   1 <1>   0.0400 
 28 F        9.0810     5.9950    -0.1020 F     1 <1>  -0.1900 
 29 H        2.5470     1.4470     1.0130 H     1 <1>   0.0800 
 30 H        0.8940     1.7490     1.4720 H     1 <1>   0.0800 
 31 H       -1.0710     0.5660     2.0430 H     1 <1>   0.0800 
 32 H       -1.1540    -1.1640     2.2910 H     1 <1>   0.0800 
 33 H       -2.3400    -0.3590     1.2810 H     1 <1>   0.0800 
 34 H       -0.2700    -1.9510    -1.1790 H     1 <1>   0.0800 
 35 H       -1.8590    -1.8770    -0.4650 H     1 <1>   0.0800 
 36 H       -0.5490    -2.6770     0.3890 H     1 <1>   0.0800 
 37 H        0.2660     1.6360    -0.9600 H     1 <1>   0.0800 
 38 H        1.9650     1.4730    -1.3390 H     1 <1>   0.0800 
 39 H        0.5640     3.9300    -0.6530 H     1 <1>   0.3700 
 40 H       -0.4240     6.4570     1.0580 H     1 <1>   0.0800 
 41 H       -1.7790     5.9770     0.0590 H     1 <1>   0.0800 
 42 H       -0.9920     7.5240    -0.2060 H     1 <1>   0.0800 
 43 H        0.3000     5.4970    -2.9720 H     1 <1>   0.0800 
 44 H       -0.4740     7.0140    -2.5640 H     1 <1>   0.0800 
 45 H       -1.3510     5.5020    -2.3920 H     1 <1>   0.0800 
 46 H        5.1510     7.7870     1.0800 H     1 <1>   0.1500 
 47 H        5.2540     4.7600    -1.9160 H     1 <1>   0.1500 
 48 H        7.6980     4.6170    -1.6810 H     1 <1>   0.1500 
 49 H        9.1180     8.6720     2.6330 H     1 <1>   0.0800 
 50 H        9.5230     8.2210     0.9820 H     1 <1>   0.0800 
 51 H        9.2920     6.9710     2.2190 H     1 <1>   0.0800 
@<TRIPOS>BOND
  1   1   2  2   
  2   1   3  2   
  3   1   4  am  
  4   1   5  1   
  5   4   6  1   
  6   4   7  1   
  7   5   8  1   
  8   5  29  1   
  9   5  30  1   
 10   6  31  1   
 11   6  32  1   
 12   6  33  1   
 13   7  34  1   
 14   7  35  1   
 15   7  36  1   
 16   8   9  1   
 17   8  37  1   
 18   8  38  1   
 19   9  10  am  
 20   9  39  1   
 21  10  11  2   
 22  10  12  1   
 23  12  13  1   
 24  12  14  2   
 25  13  15  2   
 26  13  16  1   
 27  14  17  1   
 28  14  18  1   
 29  15  17  1   
 30  16  19  1   
 31  16  20  1   
 32  18  21  ar  
 33  18  22  ar  
 34  19  40  1   
 35  19  41  1   
 36  19  42  1   
 37  20  43  1   
 38  20  44  1   
 39  20  45  1   
 40  21  23  ar  
 41  21  46  1   
 42  22  24  ar  
 43  22  47  1   
 44  23  25  1   
 45  23  26  ar  
 46  24  26  ar  
 47  24  48  1   
 48  25  27  1   
 49  26  28  1   
 50  27  49  1   
 51  27  50  1   
 52  27  51  1   
@<TRIPOS>SUBSTRUCTURE
  1 ****  10 GROUP 4 **** **** 0

# MOE 2024.06 (io_trps.svl 2023.06)
