@<TRIPOS>MOLECULE
NONAME
53 55 1 0 0 
SMALL
USER_CHARGES


@<TRIPOS>ATOM
  1 CL      -1.9340     0.4540     1.9300 Cl    1 <1>  -0.1770 
  2 C       -2.9480    -0.1300     0.6330 C.ar  1 <1>   0.1770 
  3 C       -3.2090     0.6470    -0.4820 C.ar  1 <1>   0.1900 
  4 C       -3.4990    -1.3960     0.7340 C.ar  1 <1>  -0.1500 
  5 F       -2.6940     1.8440    -0.5810 F     1 <1>  -0.1900 
  6 C       -4.0120     0.1840    -1.5070 C.ar  1 <1>  -0.1500 
  7 C       -4.3190    -1.8760    -0.2840 C.ar  1 <1>  -0.1440 
  8 C       -4.5650    -1.0840    -1.4020 C.ar  1 <1>  -0.1500 
  9 C       -4.9400    -3.2590    -0.1770 C.3   1 <1>   0.4870 
 10 N       -6.0160    -3.2340     0.8540 N.4   1 <1>  -0.9590 
 11 C       -6.4040    -4.6430     1.2270 C.3   1 <1>   0.3430 
 12 C       -7.1550    -2.3670     0.3990 C.3   1 <1>   0.3430 
 13 C       -7.5430    -4.7650     2.2630 C.3   1 <1>   0.1400 
 14 C       -7.9360    -1.8470     1.6060 C.3   1 <1>  -0.1600 
 15 N       -8.8050    -4.1930     1.7180 N.am  1 <1>  -0.6600 
 16 C       -9.0760    -2.7690     2.0520 C.3   1 <1>   0.1400 
 17 C       -9.5100    -4.7990     0.7090 C.2   1 <1>   0.5690 
 18 O       -9.8830    -4.1500    -0.2370 O.2   1 <1>  -0.5700 
 19 C       -9.7700    -6.3010     0.7320 C.3   1 <1>  -0.0190 
 20 C      -10.7690    -6.7720    -0.3410 C.3   1 <1>   0.1400 
 21 C      -10.3540    -6.8150     2.0650 C.3   1 <1>  -0.0990 
 22 N      -11.4470    -7.9100     0.3010 N.am  1 <1>  -0.6600 
 23 C      -11.2490    -7.9410     1.6350 C.2   1 <1>   0.5690 
 24 C      -12.3340    -8.8320    -0.4390 C.3   1 <1>   0.2780 
 25 O      -11.7130    -8.7380     2.4100 O.2   1 <1>  -0.5700 
 26 C      -11.5500    -9.5210    -1.5420 C.2   1 <1>  -0.2880 
 27 C      -11.2260   -10.8170    -1.5580 C.2   1 <1>  -0.3000 
 28 H       -3.2700    -1.9820     1.6060 H     1 <1>   0.1500 
 29 H       -4.1950     0.8070    -2.3660 H     1 <1>   0.1500 
 30 H       -5.1870    -1.4410    -2.2080 H     1 <1>   0.1500 
 31 H       -4.1740    -3.9650     0.1030 H     1 <1>   0.0800 
 32 H       -5.3450    -3.5580    -1.1310 H     1 <1>   0.0800 
 33 H       -5.6150    -2.7710     1.6780 H     1 <1>   0.4500 
 34 H       -5.5390    -5.1510     1.6220 H     1 <1>   0.0800 
 35 H       -6.7080    -5.1730     0.3390 H     1 <1>   0.0800 
 36 H       -7.8090    -2.9040    -0.2710 H     1 <1>   0.0800 
 37 H       -6.7660    -1.5130    -0.1320 H     1 <1>   0.0800 
 38 H       -7.2730    -4.2650     3.1770 H     1 <1>   0.0800 
 39 H       -7.6920    -5.8040     2.4980 H     1 <1>   0.0800 
 40 H       -8.3820    -0.9060     1.3360 H     1 <1>   0.0800 
 41 H       -7.2760    -1.6440     2.4300 H     1 <1>   0.0800 
 42 H       -9.9870    -2.4610     1.5630 H     1 <1>   0.0800 
 43 H       -9.2390    -2.6710     3.1120 H     1 <1>   0.0800 
 44 H       -8.8450    -6.8120     0.5420 H     1 <1>   0.0800 
 45 H      -10.2610    -7.0700    -1.2410 H     1 <1>   0.0800 
 46 H      -11.5000    -6.0130    -0.5670 H     1 <1>   0.0800 
 47 H      -10.9570    -6.0680     2.5470 H     1 <1>   0.0800 
 48 H       -9.5980    -7.1730     2.7370 H     1 <1>   0.0800 
 49 H      -13.1590    -8.2820    -0.8570 H     1 <1>   0.0800 
 50 H      -12.7290    -9.5680     0.2400 H     1 <1>   0.0800 
 51 H      -11.2740    -8.8490    -2.3340 H     1 <1>   0.1500 
 52 H      -10.6710   -11.2900    -2.3500 H     1 <1>   0.1500 
 53 H      -11.4850   -11.5140    -0.7790 H     1 <1>   0.1500 
@<TRIPOS>BOND
  1   1   2  1   
  2   2   3  ar  
  3   2   4  ar  
  4   3   5  1   
  5   3   6  ar  
  6   4   7  ar  
  7   4  28  1   
  8   6   8  ar  
  9   6  29  1   
 10   7   8  ar  
 11   7   9  1   
 12   8  30  1   
 13   9  10  1   
 14   9  31  1   
 15   9  32  1   
 16  10  11  1   
 17  10  12  1   
 18  10  33  1   
 19  11  13  1   
 20  11  34  1   
 21  11  35  1   
 22  12  14  1   
 23  12  36  1   
 24  12  37  1   
 25  13  15  1   
 26  13  38  1   
 27  13  39  1   
 28  14  16  1   
 29  14  40  1   
 30  14  41  1   
 31  15  16  1   
 32  15  17  am  
 33  16  42  1   
 34  16  43  1   
 35  17  18  2   
 36  17  19  1   
 37  19  20  1   
 38  19  21  1   
 39  19  44  1   
 40  20  22  1   
 41  20  45  1   
 42  20  46  1   
 43  21  23  1   
 44  21  47  1   
 45  21  48  1   
 46  22  23  am  
 47  22  24  1   
 48  23  25  2   
 49  24  26  1   
 50  24  49  1   
 51  24  50  1   
 52  26  27  2   
 53  26  51  1   
 54  27  52  1   
 55  27  53  1   
@<TRIPOS>SUBSTRUCTURE
  1 ****  11 GROUP 4 **** **** 0

# MOE 2024.06 (io_trps.svl 2023.06)
