@<TRIPOS>MOLECULE
NONAME
45 47 1 0 0 
SMALL
USER_CHARGES


@<TRIPOS>ATOM
  1 O        0.7800    -0.3750    -1.9420 O.3   1 <1>  -0.6800 
  2 C        2.1090    -0.3240    -1.5410 C.3   1 <1>   0.2000 
  3 C        2.3780    -1.3510    -0.4450 C.3   1 <1>  -0.0800 
  4 C        2.4470     1.0200    -0.9090 C.3   1 <1>   0.2090 
  5 C        3.4380    -0.7050     0.4550 C.3   1 <1>   0.2090 
  6 C        2.8280    -2.7070    -1.0110 C.3   1 <1>   0.0210 
  7 N        3.5400     0.7240     0.0540 N.pl3 1 <1>  -0.8380 
  8 C        3.1100    -3.6970     0.1010 C.2   1 <1>   0.1080 
  9 C        4.7920     1.1900    -0.2760 C.ar  1 <1>   0.4100 
 10 N        2.1720    -4.2100     0.8350 N.2   1 <1>  -0.7070 
 11 C        4.3720    -4.1560     0.4620 C.2   1 <1>  -0.1500 
 12 N        5.3500     0.6680    -1.3510 N.ar  1 <1>  -0.6200 
 13 C        5.4320     2.1610     0.4830 C.ar  1 <1>  -0.1430 
 14 N        2.8180    -5.0220     1.6930 N.pl3 1 <1>   0.3000 
 15 C        4.1520    -5.0050     1.4880 C.2   1 <1>  -0.3320 
 16 C        6.5460     1.1250    -1.6550 C.ar  1 <1>   0.4770 
 17 C        6.6780     2.5470     0.0530 C.ar  1 <1>   0.1600 
 18 C        4.7370     2.7340     1.7210 C.3   1 <1>  -0.0170 
 19 C        5.1500    -5.8140     2.2960 C.3   1 <1>  -0.0600 
 20 N        7.2530     2.0380    -1.0180 N.ar  1 <1>  -0.6200 
 21 C        7.1960     0.5380    -2.8840 C.3   1 <1>  -0.0970 
 22 C        5.5260     3.8130     2.4740 C.3   1 <1>  -0.2400 
 23 H        0.5380    -1.2850    -2.2000 H     1 <1>   0.4000 
 24 H        2.7420    -0.4830    -2.3970 H     1 <1>   0.0800 
 25 H        1.4910    -1.4860     0.1500 H     1 <1>   0.0800 
 26 H        1.6000     1.4050    -0.3700 H     1 <1>   0.0800 
 27 H        2.7650     1.7270    -1.6550 H     1 <1>   0.0800 
 28 H        4.3940    -1.1870     0.3360 H     1 <1>   0.0800 
 29 H        3.1460    -0.7750     1.4890 H     1 <1>   0.0800 
 30 H        3.7140    -2.5800    -1.6070 H     1 <1>   0.0800 
 31 H        2.0560    -3.1130    -1.6380 H     1 <1>   0.0800 
 32 H        5.3040    -3.8760     0.0050 H     1 <1>   0.1500 
 33 H        2.3210    -5.5730     2.4030 H     1 <1>   0.2700 
 34 H        7.2380     3.2930     0.5870 H     1 <1>   0.1500 
 35 H        3.7910     3.1480     1.4170 H     1 <1>   0.0800 
 36 H        4.5270     1.9230     2.3970 H     1 <1>   0.0800 
 37 H        6.1490    -5.6270     1.9440 H     1 <1>   0.0800 
 38 H        4.9440    -6.8650     2.1980 H     1 <1>   0.0800 
 39 H        5.0970    -5.5400     3.3350 H     1 <1>   0.0800 
 40 H        8.1270     0.0790    -2.6090 H     1 <1>   0.0800 
 41 H        7.3840     1.3190    -3.5950 H     1 <1>   0.0800 
 42 H        6.5590    -0.2010    -3.3330 H     1 <1>   0.0800 
 43 H        5.7180     4.6560     1.8340 H     1 <1>   0.0800 
 44 H        6.4590     3.4150     2.8330 H     1 <1>   0.0800 
 45 H        4.9560     4.1530     3.3210 H     1 <1>   0.0800 
@<TRIPOS>BOND
  1   1   2  1   
  2   1  23  1   
  3   2   3  1   
  4   2   4  1   
  5   2  24  1   
  6   3   5  1   
  7   3   6  1   
  8   3  25  1   
  9   4   7  1   
 10   4  26  1   
 11   4  27  1   
 12   5   7  1   
 13   5  28  1   
 14   5  29  1   
 15   6   8  1   
 16   6  30  1   
 17   6  31  1   
 18   7   9  1   
 19   8  10  2   
 20   8  11  1   
 21   9  12  ar  
 22   9  13  ar  
 23  10  14  1   
 24  11  15  2   
 25  11  32  1   
 26  12  16  ar  
 27  13  17  ar  
 28  13  18  1   
 29  14  15  1   
 30  14  33  1   
 31  15  19  1   
 32  16  20  ar  
 33  16  21  1   
 34  17  20  ar  
 35  17  34  1   
 36  18  22  1   
 37  18  35  1   
 38  18  36  1   
 39  19  37  1   
 40  19  38  1   
 41  19  39  1   
 42  21  40  1   
 43  21  41  1   
 44  21  42  1   
 45  22  43  1   
 46  22  44  1   
 47  22  45  1   
@<TRIPOS>SUBSTRUCTURE
  1 ****   5 GROUP 4 **** **** 0

# MOE 2024.06 (io_trps.svl 2023.06)
