@<TRIPOS>MOLECULE
NONAME
44 46 1 0 0 
SMALL
USER_CHARGES


@<TRIPOS>ATOM
  1 O       -0.3410     0.9440    -0.0850 O.2   1 <1>  -0.5700 
  2 C       -0.3190     2.1520    -0.0550 C.2   1 <1>   0.5690 
  3 N       -1.2770     2.8910     0.5860 N.am  1 <1>  -0.6600 
  4 C        0.8170     2.8710    -0.7830 C.3   1 <1>   0.1810 
  5 C       -1.2450     4.3910     0.5720 C.3   1 <1>   0.3640 
  6 C       -2.3720     2.2610     1.3810 C.3   1 <1>   0.0600 
  7 O        1.0640     4.1530    -0.2610 O.3   1 <1>  -0.5600 
  8 C       -2.5990     4.9670     0.1250 C.ar  1 <1>  -0.1440 
  9 C       -0.0750     5.0030    -0.2440 C.3   1 <1>   0.2610 
 10 C       -3.2750     4.6020    -1.0450 C.ar  1 <1>  -0.1440 
 11 C       -3.1740     5.9200     0.9590 C.ar  1 <1>  -0.1500 
 12 C        0.3080     6.3650     0.3480 C.2   1 <1>   0.5690 
 13 C       -4.4960     5.1930    -1.3390 C.ar  1 <1>  -0.1500 
 14 C       -2.7560     3.5670    -2.0370 C.3   1 <1>  -0.0960 
 15 C       -4.3900     6.5020     0.6540 C.ar  1 <1>  -0.1500 
 16 O       -0.4030     7.3270     0.1750 O.2   1 <1>  -0.5700 
 17 N        1.4650     6.4780     1.0530 N.am  1 <1>  -0.7300 
 18 C       -5.0540     6.1370    -0.4980 C.ar  1 <1>  -0.1500 
 19 C        1.9820     7.7250     1.6940 C.3   1 <1>   0.2010 
 20 C        2.4720     8.7600     0.6820 C.2   1 <1>   0.4490 
 21 N        3.6480     9.2620     0.6240 N.2   1 <1>  -0.5120 
 22 N        1.6390     9.2590    -0.2880 N.am  1 <1>  -0.4900 
 23 N        3.5880    10.1340    -0.4450 N.am  1 <1>  -0.3680 
 24 C        2.3620    10.1220    -1.0020 C.2   1 <1>   0.6900 
 25 O        1.9860    10.7640    -1.9720 O.2   1 <1>  -0.5700 
 26 H        0.5800     2.9610    -1.8270 H     1 <1>   0.0800 
 27 H        1.7200     2.2970    -0.6820 H     1 <1>   0.0800 
 28 H       -1.0870     4.6880     1.5940 H     1 <1>   0.0800 
 29 H       -2.3720     2.6560     2.3810 H     1 <1>   0.0800 
 30 H       -2.2400     1.1940     1.4330 H     1 <1>   0.0800 
 31 H       -3.3240     2.4650     0.9220 H     1 <1>   0.0800 
 32 H       -0.3800     5.1640    -1.2610 H     1 <1>   0.0800 
 33 H       -2.6760     6.2300     1.8610 H     1 <1>   0.1500 
 34 H       -5.0310     4.9200    -2.2320 H     1 <1>   0.1500 
 35 H       -3.3170     3.5980    -2.9540 H     1 <1>   0.0800 
 36 H       -2.8560     2.5790    -1.6250 H     1 <1>   0.0800 
 37 H       -1.7280     3.7440    -2.2820 H     1 <1>   0.0800 
 38 H       -4.8150     7.2400     1.3110 H     1 <1>   0.1500 
 39 H        2.0990     5.6690     1.0350 H     1 <1>   0.3700 
 40 H       -6.0010     6.5860    -0.7420 H     1 <1>   0.1500 
 41 H        1.1960     8.1690     2.2780 H     1 <1>   0.0800 
 42 H        2.7910     7.4750     2.3560 H     1 <1>   0.0800 
 43 H        0.6820     8.9510    -0.4730 H     1 <1>   0.3700 
 44 H        4.3590    10.7120    -0.7900 H     1 <1>   0.3700 
@<TRIPOS>BOND
  1   1   2  2   
  2   2   3  am  
  3   2   4  1   
  4   3   5  1   
  5   3   6  1   
  6   4   7  1   
  7   4  26  1   
  8   4  27  1   
  9   5   8  1   
 10   5   9  1   
 11   5  28  1   
 12   6  29  1   
 13   6  30  1   
 14   6  31  1   
 15   7   9  1   
 16   8  10  ar  
 17   8  11  ar  
 18   9  12  1   
 19   9  32  1   
 20  10  13  ar  
 21  10  14  1   
 22  11  15  ar  
 23  11  33  1   
 24  12  16  2   
 25  12  17  am  
 26  13  18  ar  
 27  13  34  1   
 28  14  35  1   
 29  14  36  1   
 30  14  37  1   
 31  15  18  ar  
 32  15  38  1   
 33  17  19  1   
 34  17  39  1   
 35  18  40  1   
 36  19  20  1   
 37  19  41  1   
 38  19  42  1   
 39  20  21  2   
 40  20  22  1   
 41  21  23  1   
 42  22  24  am  
 43  22  43  1   
 44  23  24  am  
 45  23  44  1   
 46  24  25  2   
@<TRIPOS>SUBSTRUCTURE
  1 ****  12 GROUP 4 **** **** 0

# MOE 2024.06 (io_trps.svl 2023.06)
