@<TRIPOS>MOLECULE
NONAME
49 52 1 0 0 
SMALL
USER_CHARGES


@<TRIPOS>ATOM
  1 CL      -1.7380     2.3880    -1.4390 Cl    1 <1>  -0.1230 
  2 C       -2.2290     2.7000     0.2180 C.2   1 <1>   0.1230 
  3 C       -3.0940     1.9070     0.9750 C.2   1 <1>   0.2030 
  4 C       -1.8660     3.7520     0.9750 C.2   1 <1>  -0.3320 
  5 N       -3.2680     2.4700     2.1630 N.2   1 <1>  -0.7070 
  6 C       -3.6910     0.6780     0.4780 C.2   1 <1>   0.7160 
  7 N       -2.5080     3.5800     2.1510 N.pl3 1 <1>   0.3000 
  8 C       -0.9460     4.9200     0.6630 C.3   1 <1>  -0.0600 
  9 O       -2.9710    -0.2080     0.0440 O.2   1 <1>  -0.5700 
 10 N       -5.0630     0.4840     0.4410 N.am  1 <1>  -0.6600 
 11 C       -6.0540     1.5620     0.7540 C.3   1 <1>   0.1400 
 12 C       -5.6850    -0.7710    -0.0650 C.3   1 <1>   0.1400 
 13 C       -6.8710     1.9240    -0.5000 C.3   1 <1>   0.1430 
 14 C       -6.5200    -0.4670    -1.3170 C.3   1 <1>  -0.1600 
 15 C       -7.8680     3.0020    -0.1190 C.ar  1 <1>   0.1670 
 16 C       -7.5450     0.6550    -1.0650 C.3   1 <1>  -0.1600 
 17 C       -6.0000     2.6450    -1.5670 C.3   1 <1>  -0.1600 
 18 N       -8.9520     2.8140     0.5910 N.ar  1 <1>  -0.6200 
 19 C       -7.4890     4.2230    -0.5880 C.ar  1 <1>  -0.1430 
 20 C       -6.1910     4.1560    -1.3520 C.3   1 <1>  -0.0170 
 21 C       -9.6780     3.9110     0.8230 C.ar  1 <1>   0.7200 
 22 C       -8.2980     5.2930    -0.3040 C.ar  1 <1>   0.1600 
 23 N       -9.3960     5.1480     0.4010 N.ar  1 <1>  -0.6200 
 24 N      -10.8260     3.7510     1.5740 N.pl3 1 <1>  -0.8380 
 25 C      -11.5510     4.9100     2.1650 C.3   1 <1>   0.1290 
 26 C      -11.4240     2.4130     1.8320 C.3   1 <1>   0.1290 
 27 H       -2.4470     4.2080     2.9630 H     1 <1>   0.2700 
 28 H       -0.5610     4.8340    -0.3380 H     1 <1>   0.0800 
 29 H       -0.1140     4.9320     1.3450 H     1 <1>   0.0800 
 30 H       -1.4800     5.8500     0.7440 H     1 <1>   0.0800 
 31 H       -5.5750     2.4460     1.1310 H     1 <1>   0.0800 
 32 H       -6.7210     1.2070     1.5210 H     1 <1>   0.0800 
 33 H       -6.3170    -1.1790     0.7050 H     1 <1>   0.0800 
 34 H       -4.9340    -1.5070    -0.2990 H     1 <1>   0.0800 
 35 H       -7.0340    -1.3610    -1.6220 H     1 <1>   0.0800 
 36 H       -5.8550    -0.1880    -2.1150 H     1 <1>   0.0800 
 37 H       -8.0740     0.8880    -1.9720 H     1 <1>   0.0800 
 38 H       -8.2720     0.3040    -0.3520 H     1 <1>   0.0800 
 39 H       -6.3680     2.4020    -2.5480 H     1 <1>   0.0800 
 40 H       -4.9630     2.3650    -1.5230 H     1 <1>   0.0800 
 41 H       -6.2480     4.6850    -2.2870 H     1 <1>   0.0800 
 42 H       -5.3930     4.5560    -0.7500 H     1 <1>   0.0800 
 43 H       -8.0440     6.2770    -0.6550 H     1 <1>   0.1500 
 44 H      -10.8720     5.7210     2.3620 H     1 <1>   0.0800 
 45 H      -12.0120     4.6230     3.0930 H     1 <1>   0.0800 
 46 H      -12.3080     5.2470     1.4790 H     1 <1>   0.0800 
 47 H      -11.1820     1.7300     1.0360 H     1 <1>   0.0800 
 48 H      -12.4950     2.4920     1.8940 H     1 <1>   0.0800 
 49 H      -11.0410     2.0210     2.7580 H     1 <1>   0.0800 
@<TRIPOS>BOND
  1   1   2  1   
  2   2   3  1   
  3   2   4  2   
  4   3   5  2   
  5   3   6  1   
  6   4   7  1   
  7   4   8  1   
  8   5   7  1   
  9   6   9  2   
 10   6  10  am  
 11   7  27  1   
 12   8  28  1   
 13   8  29  1   
 14   8  30  1   
 15  10  11  1   
 16  10  12  1   
 17  11  13  1   
 18  11  31  1   
 19  11  32  1   
 20  12  14  1   
 21  12  33  1   
 22  12  34  1   
 23  13  15  1   
 24  13  16  1   
 25  13  17  1   
 26  14  16  1   
 27  14  35  1   
 28  14  36  1   
 29  15  18  ar  
 30  15  19  ar  
 31  16  37  1   
 32  16  38  1   
 33  17  20  1   
 34  17  39  1   
 35  17  40  1   
 36  18  21  ar  
 37  19  20  1   
 38  19  22  ar  
 39  20  41  1   
 40  20  42  1   
 41  21  23  ar  
 42  21  24  1   
 43  22  23  ar  
 44  22  43  1   
 45  24  25  1   
 46  24  26  1   
 47  25  44  1   
 48  25  45  1   
 49  25  46  1   
 50  26  47  1   
 51  26  48  1   
 52  26  49  1   
@<TRIPOS>SUBSTRUCTURE
  1 ****  11 GROUP 4 **** **** 0

# MOE 2024.06 (io_trps.svl 2023.06)
