@<TRIPOS>MOLECULE
NONAME
52 54 1 0 0 
SMALL
USER_CHARGES


@<TRIPOS>ATOM
  1 O       -0.2640     1.2840     1.3880 O.co2 1 <1>  -0.9000 
  2 C       -1.0050     0.7600     0.5340 C.2   1 <1>   0.9790 
  3 O       -0.5420    -0.1620    -0.1650 O.co2 1 <1>  -0.9000 
  4 C       -2.3880     1.1390     0.4350 C.ar  1 <1>  -0.1790 
  5 C       -2.8500     2.0940    -0.4850 C.ar  1 <1>   0.4100 
  6 C       -3.3120     0.5690     1.2950 C.ar  1 <1>  -0.1500 
  7 N       -4.1150     2.4950    -0.5590 N.ar  1 <1>  -0.6200 
  8 N       -2.0180     2.7190    -1.3950 N.pl3 1 <1>  -0.8380 
  9 C       -4.6200     0.9750     1.2040 C.ar  1 <1>  -0.1500 
 10 C       -4.9920     1.9340     0.2680 C.ar  1 <1>   0.3100 
 11 C       -1.7180     4.1600    -1.2180 C.3   1 <1>   0.2090 
 12 C       -1.1080     1.9310    -2.2680 C.3   1 <1>   0.1290 
 13 C       -6.3770     2.3570     0.1830 C.ar  1 <1>   0.0000 
 14 C       -0.4620     4.3320    -0.3630 C.3   1 <1>  -0.1600 
 15 C       -7.4280     1.4380     0.2060 C.ar  1 <1>  -0.1500 
 16 C       -6.7100     3.7070     0.0780 C.ar  1 <1>  -0.1500 
 17 C       -0.2850     5.7760     0.1040 C.3   1 <1>   0.2000 
 18 C       -8.7460     1.8510     0.1470 C.ar  1 <1>  -0.1500 
 19 C       -8.0260     4.1300     0.0170 C.ar  1 <1>  -0.1500 
 20 O       -0.2420     6.6110    -1.0170 O.3   1 <1>  -0.5600 
 21 C        1.0080     5.9530     0.9140 C.3   1 <1>  -0.1600 
 22 C       -9.0590     3.1980     0.0550 C.ar  1 <1>   0.0820 
 23 C       -0.1980     7.9740    -0.7260 C.3   1 <1>   0.1200 
 24 C        1.2250     7.4250     1.2870 C.3   1 <1>  -0.1600 
 25 O      -10.3730     3.5220     0.0050 O.3   1 <1>  -0.3630 
 26 C        1.0960     8.2960     0.0310 C.3   1 <1>  -0.1600 
 27 C      -10.7960     4.8610    -0.1200 C.3   1 <1>   0.0400 
 28 H       -2.9900    -0.1650     2.0130 H     1 <1>   0.1500 
 29 H       -5.3550     0.5580     1.8630 H     1 <1>   0.1500 
 30 H       -2.5530     4.6330    -0.7300 H     1 <1>   0.0800 
 31 H       -1.5850     4.6250    -2.1790 H     1 <1>   0.0800 
 32 H       -1.4740     0.9220    -2.3600 H     1 <1>   0.0800 
 33 H       -0.1210     1.8950    -1.8400 H     1 <1>   0.0800 
 34 H       -1.0610     2.3760    -3.2450 H     1 <1>   0.0800 
 35 H        0.4040     4.0200    -0.9160 H     1 <1>   0.0800 
 36 H       -0.5470     3.7080     0.5080 H     1 <1>   0.0800 
 37 H       -7.2070     0.3880     0.2640 H     1 <1>   0.1500 
 38 H       -5.9120     4.4290     0.0420 H     1 <1>   0.1500 
 39 H       -1.1360     6.0600     0.7000 H     1 <1>   0.0800 
 40 H       -9.5450     1.1330     0.1670 H     1 <1>   0.1500 
 41 H       -8.2260     5.1810    -0.0610 H     1 <1>   0.1500 
 42 H        1.8390     5.5990     0.3290 H     1 <1>   0.0800 
 43 H        0.9570     5.3520     1.8050 H     1 <1>   0.0800 
 44 H       -1.0670     8.2290    -0.1430 H     1 <1>   0.0800 
 45 H       -0.2320     8.5090    -1.6590 H     1 <1>   0.0800 
 46 H        2.1950     7.5540     1.7330 H     1 <1>   0.0800 
 47 H        0.4800     7.7210     2.0050 H     1 <1>   0.0800 
 48 H        1.1070     9.3360     0.3030 H     1 <1>   0.0800 
 49 H        1.9300     8.1150    -0.6240 H     1 <1>   0.0800 
 50 H      -11.8700     4.8700    -0.1510 H     1 <1>   0.0800 
 51 H      -10.3990     5.2680    -1.0330 H     1 <1>   0.0800 
 52 H      -10.4490     5.4170     0.7330 H     1 <1>   0.0800 
@<TRIPOS>BOND
  1   1   2  ar  
  2   2   3  ar  
  3   2   4  1   
  4   4   5  ar  
  5   4   6  ar  
  6   5   7  ar  
  7   5   8  1   
  8   6   9  ar  
  9   6  28  1   
 10   7  10  ar  
 11   8  11  1   
 12   8  12  1   
 13   9  10  ar  
 14   9  29  1   
 15  10  13  1   
 16  11  14  1   
 17  11  30  1   
 18  11  31  1   
 19  12  32  1   
 20  12  33  1   
 21  12  34  1   
 22  13  15  ar  
 23  13  16  ar  
 24  14  17  1   
 25  14  35  1   
 26  14  36  1   
 27  15  18  ar  
 28  15  37  1   
 29  16  19  ar  
 30  16  38  1   
 31  17  20  1   
 32  17  21  1   
 33  17  39  1   
 34  18  22  ar  
 35  18  40  1   
 36  19  22  ar  
 37  19  41  1   
 38  20  23  1   
 39  21  24  1   
 40  21  42  1   
 41  21  43  1   
 42  22  25  1   
 43  23  26  1   
 44  23  44  1   
 45  23  45  1   
 46  24  26  1   
 47  24  46  1   
 48  24  47  1   
 49  25  27  1   
 50  26  48  1   
 51  26  49  1   
 52  27  50  1   
 53  27  51  1   
 54  27  52  1   
@<TRIPOS>SUBSTRUCTURE
  1 ****   7 GROUP 4 **** **** 0

# MOE 2024.06 (io_trps.svl 2023.06)
