@<TRIPOS>MOLECULE
NONAME
49 52 1 0 0 
SMALL
USER_CHARGES


@<TRIPOS>ATOM
  1 CL      -0.4850     2.7300     1.9020 Cl    1 <1>  -0.1770 
  2 C       -2.1290     2.6180     1.3160 C.ar  1 <1>   0.1770 
  3 C       -2.7210     3.7010     0.6920 C.ar  1 <1>   0.1600 
  4 C       -2.8310     1.4440     1.4800 C.ar  1 <1>  -0.1500 
  5 N       -3.9600     3.7080     0.2200 N.ar  1 <1>  -0.6200 
  6 C       -4.1180     1.4410     0.9910 C.ar  1 <1>  -0.1500 
  7 C       -4.6460     2.5770     0.3760 C.ar  1 <1>   0.4100 
  8 N       -5.9450     2.5500    -0.0940 N.pl3 1 <1>  -0.8380 
  9 C       -6.3140     3.2680    -1.3440 C.3   1 <1>   0.2090 
 10 C       -7.0610     2.4110     0.8700 C.3   1 <1>   0.2090 
 11 C       -6.8610     4.6570    -1.0110 C.3   1 <1>  -0.1600 
 12 C       -7.5740     3.8010     1.2470 C.3   1 <1>  -0.1600 
 13 C       -8.0060     4.6120     0.0130 C.3   1 <1>   0.2800 
 14 O       -9.0600     3.9230    -0.6120 O.3   1 <1>  -0.5600 
 15 C       -8.3950     6.0570     0.4300 C.3   1 <1>   0.1400 
 16 C      -10.3590     4.1700    -0.1820 C.3   1 <1>   0.1200 
 17 N       -9.0230     6.8690    -0.6600 N.am  1 <1>  -0.6600 
 18 C      -10.9790     5.2670    -1.0480 C.3   1 <1>  -0.0990 
 19 C      -10.1530     6.5090    -1.3490 C.2   1 <1>   0.5690 
 20 C       -8.3390     8.1700    -0.9710 C.3   1 <1>   0.3200 
 21 O      -10.5720     7.1990    -2.2460 O.2   1 <1>  -0.5700 
 22 C       -8.5710     9.2300     0.1020 C.2   1 <1>   0.2980 
 23 O       -8.1370     8.9970     1.3170 O.3   1 <1>  -0.0190 
 24 N       -9.1420    10.3580    -0.0630 N.2   1 <1>  -0.5650 
 25 N       -8.4680    10.0600     1.9810 N.2   1 <1>  -0.4100 
 26 C       -9.0540    10.8410     1.1650 C.2   1 <1>   0.3350 
 27 C       -9.6160    12.1990     1.5080 C.3   1 <1>  -0.0590 
 28 H       -2.1440     4.6010     0.5780 H     1 <1>   0.1500 
 29 H       -2.3890     0.5890     1.9590 H     1 <1>   0.1500 
 30 H       -4.7330     0.5640     1.0670 H     1 <1>   0.1500 
 31 H       -7.0610     2.6980    -1.8680 H     1 <1>   0.0800 
 32 H       -5.4500     3.3570    -1.9810 H     1 <1>   0.0800 
 33 H       -6.7260     1.8950     1.7530 H     1 <1>   0.0800 
 34 H       -7.8500     1.8340     0.4170 H     1 <1>   0.0800 
 35 H       -7.2020     5.1290    -1.9150 H     1 <1>   0.0800 
 36 H       -6.0530     5.2490    -0.6240 H     1 <1>   0.0800 
 37 H       -6.7810     4.3200     1.7550 H     1 <1>   0.0800 
 38 H       -8.3920     3.7060     1.9360 H     1 <1>   0.0800 
 39 H       -7.4980     6.5460     0.7670 H     1 <1>   0.0800 
 40 H       -9.0580     6.0380     1.2760 H     1 <1>   0.0800 
 41 H      -10.3710     4.4200     0.8640 H     1 <1>   0.0800 
 42 H      -10.9170     3.2590    -0.3110 H     1 <1>   0.0800 
 43 H      -11.8970     5.5850    -0.5940 H     1 <1>   0.0800 
 44 H      -11.2380     4.8240    -1.9920 H     1 <1>   0.0800 
 45 H       -8.6840     8.5630    -1.9110 H     1 <1>   0.0800 
 46 H       -7.2830     7.9990    -1.0690 H     1 <1>   0.0800 
 47 H       -9.1330    12.9490     0.9100 H     1 <1>   0.0800 
 48 H       -9.4530    12.4150     2.5470 H     1 <1>   0.0800 
 49 H      -10.6710    12.2120     1.3050 H     1 <1>   0.0800 
@<TRIPOS>BOND
  1   1   2  1   
  2   2   3  ar  
  3   2   4  ar  
  4   3   5  ar  
  5   3  28  1   
  6   4   6  ar  
  7   4  29  1   
  8   5   7  ar  
  9   6   7  ar  
 10   6  30  1   
 11   7   8  1   
 12   8   9  1   
 13   8  10  1   
 14   9  11  1   
 15   9  31  1   
 16   9  32  1   
 17  10  12  1   
 18  10  33  1   
 19  10  34  1   
 20  11  13  1   
 21  11  35  1   
 22  11  36  1   
 23  12  13  1   
 24  12  37  1   
 25  12  38  1   
 26  13  14  1   
 27  13  15  1   
 28  14  16  1   
 29  15  17  1   
 30  15  39  1   
 31  15  40  1   
 32  16  18  1   
 33  16  41  1   
 34  16  42  1   
 35  17  19  am  
 36  17  20  1   
 37  18  19  1   
 38  18  43  1   
 39  18  44  1   
 40  19  21  2   
 41  20  22  1   
 42  20  45  1   
 43  20  46  1   
 44  22  23  1   
 45  22  24  2   
 46  23  25  1   
 47  24  26  1   
 48  25  26  2   
 49  26  27  1   
 50  27  47  1   
 51  27  48  1   
 52  27  49  1   
@<TRIPOS>SUBSTRUCTURE
  1 ****  13 GROUP 4 **** **** 0

# MOE 2024.06 (io_trps.svl 2023.06)
