@<TRIPOS>MOLECULE
NONAME
45 48 1 0 0 
SMALL
USER_CHARGES


@<TRIPOS>ATOM
  1 O       -4.5010     2.8870    -1.6840 O.2   1 <1>  -0.5700 
  2 C       -3.3440     2.5450    -1.6640 C.2   1 <1>   0.5690 
  3 N       -2.9310     1.3790    -2.2190 N.am  1 <1>  -0.7300 
  4 C       -2.3140     3.4130    -0.9630 C.3   1 <1>   0.0440 
  5 C       -3.8090     0.2950    -2.7090 C.3   1 <1>   0.2200 
  6 C       -1.5300     2.5900     0.0540 C.ar  1 <1>  -0.1440 
  7 C       -3.8070    -0.8770    -1.7340 C.3   1 <1>  -0.0800 
  8 C       -3.1500    -0.3530    -3.9180 C.3   1 <1>   0.1200 
  9 C       -0.3080     2.0230    -0.2950 C.ar  1 <1>  -0.1500 
 10 C       -2.0630     2.3740     1.3250 C.ar  1 <1>  -0.1500 
 11 C       -2.5300    -1.6340    -2.1150 C.3   1 <1>   0.1200 
 12 C       -3.9010    -0.5160    -0.2380 C.3   1 <1>  -0.0160 
 13 O       -2.1690    -1.1980    -3.3940 O.3   1 <1>  -0.5600 
 14 C        0.3350     1.2370     0.6400 C.ar  1 <1>   0.0820 
 15 C       -1.3980     1.5820     2.2540 C.ar  1 <1>  -0.1500 
 16 C       -3.8240    -1.7520     0.6420 C.ar  1 <1>  -0.1440 
 17 O        1.4970     0.5880     0.5170 O.3   1 <1>  -0.3630 
 18 C       -0.1960     1.0190     1.8780 C.ar  1 <1>   0.0820 
 19 C       -2.7000    -2.0380     1.3900 C.ar  1 <1>  -0.1500 
 20 C       -4.8680    -2.6480     0.7430 C.ar  1 <1>  -0.1500 
 21 C        1.7330    -0.0680     1.7620 C.3   1 <1>   0.4000 
 22 O        0.6050     0.2180     2.5880 O.3   1 <1>  -0.3630 
 23 C       -2.6730    -3.1780     2.1770 C.ar  1 <1>   0.1600 
 24 C       -4.7390    -3.7600     1.5590 C.ar  1 <1>   0.1600 
 25 N       -3.6650    -4.0480     2.2770 N.ar  1 <1>  -0.6200 
 26 H       -1.9520     1.0960    -2.1300 H     1 <1>   0.3700 
 27 H       -1.6540     3.8330    -1.6980 H     1 <1>   0.0800 
 28 H       -2.8160     4.2250    -0.4680 H     1 <1>   0.0800 
 29 H       -4.7970     0.6680    -2.9230 H     1 <1>   0.0800 
 30 H       -4.6400    -1.5120    -1.9790 H     1 <1>   0.0800 
 31 H       -2.6980     0.3630    -4.5810 H     1 <1>   0.0800 
 32 H       -3.8550    -0.9610    -4.4580 H     1 <1>   0.0800 
 33 H        0.1400     2.1720    -1.2610 H     1 <1>   0.1500 
 34 H       -3.0080     2.8150     1.5950 H     1 <1>   0.1500 
 35 H       -2.6860    -2.6990    -2.1360 H     1 <1>   0.0800 
 36 H       -1.7170    -1.3990    -1.4500 H     1 <1>   0.0800 
 37 H       -4.8250     0.0040    -0.0510 H     1 <1>   0.0800 
 38 H       -3.1000     0.1440     0.0360 H     1 <1>   0.0800 
 39 H       -1.8000     1.4040     3.2350 H     1 <1>   0.1500 
 40 H       -1.8450    -1.3860     1.3730 H     1 <1>   0.1500 
 41 H       -5.7800    -2.4920     0.1970 H     1 <1>   0.1500 
 42 H        1.8060    -1.1290     1.6030 H     1 <1>   0.0800 
 43 H        2.6220     0.3300     2.2160 H     1 <1>   0.0800 
 44 H       -1.7880    -3.3830     2.7540 H     1 <1>   0.1500 
 45 H       -5.5630    -4.4490     1.6250 H     1 <1>   0.1500 
@<TRIPOS>BOND
  1   1   2  2   
  2   2   3  am  
  3   2   4  1   
  4   3   5  1   
  5   3  26  1   
  6   4   6  1   
  7   4  27  1   
  8   4  28  1   
  9   5   7  1   
 10   5   8  1   
 11   5  29  1   
 12   6   9  ar  
 13   6  10  ar  
 14   7  11  1   
 15   7  12  1   
 16   7  30  1   
 17   8  13  1   
 18   8  31  1   
 19   8  32  1   
 20   9  14  ar  
 21   9  33  1   
 22  10  15  ar  
 23  10  34  1   
 24  11  13  1   
 25  11  35  1   
 26  11  36  1   
 27  12  16  1   
 28  12  37  1   
 29  12  38  1   
 30  14  17  1   
 31  14  18  ar  
 32  15  18  ar  
 33  15  39  1   
 34  16  19  ar  
 35  16  20  ar  
 36  17  21  1   
 37  18  22  1   
 38  19  23  ar  
 39  19  40  1   
 40  20  24  ar  
 41  20  41  1   
 42  21  22  1   
 43  21  42  1   
 44  21  43  1   
 45  23  25  ar  
 46  23  44  1   
 47  24  25  ar  
 48  24  45  1   
@<TRIPOS>SUBSTRUCTURE
  1 ****  12 GROUP 4 **** **** 0

# MOE 2024.06 (io_trps.svl 2023.06)
