@<TRIPOS>MOLECULE
NONAME
52 56 1 0 0 
SMALL
USER_CHARGES


@<TRIPOS>ATOM
  1 O       -1.1860     0.8930     1.9600 O.2   1 <1>  -0.5700 
  2 C       -1.7540     1.2160     0.9400 C.2   1 <1>   0.5690 
  3 N       -2.6950     0.3540     0.4170 N.am  1 <1>  -0.6600 
  4 C       -1.3840     2.5940     0.3110 C.3   1 <1>   0.0610 
  5 C       -3.6790     0.5540    -0.6770 C.3   1 <1>   0.1400 
  6 C       -2.9500    -0.9660     1.0610 C.3   1 <1>   0.1400 
  7 C       -0.0720     3.1430     0.9470 C.3   1 <1>  -0.1600 
  8 C       -1.1300     2.5110    -1.2210 C.3   1 <1>  -0.1600 
  9 C       -2.4910     3.6450     0.5910 C.3   1 <1>  -0.1600 
 10 C       -4.8430    -0.3630    -0.3150 C.3   1 <1>   0.2000 
 11 C       -4.1810    -1.5650     0.3610 C.3   1 <1>  -0.0800 
 12 C        0.3180     4.5190     0.3760 C.3   1 <1>  -0.0800 
 13 C       -0.7610     3.8860    -1.8060 C.3   1 <1>  -0.0800 
 14 C       -2.1210     5.0180    -0.0020 C.3   1 <1>  -0.0800 
 15 O       -5.6250     0.2800     0.6290 O.3   1 <1>  -0.6800 
 16 C       -3.8000    -2.6390    -0.6780 C.3   1 <1>  -0.0170 
 17 C        0.5310     4.3910    -1.1410 C.3   1 <1>  -0.1600 
 18 C       -0.8200     5.5170     0.6500 C.3   1 <1>  -0.1600 
 19 C       -1.9040     4.8790    -1.5210 C.3   1 <1>  -0.1600 
 20 C       -3.2500    -3.8970    -0.0240 C.ar  1 <1>   0.1670 
 21 N       -1.9340    -4.0170     0.0190 N.ar  1 <1>  -0.6200 
 22 C       -4.1260    -4.8530     0.4900 C.ar  1 <1>   0.1600 
 23 C       -1.5550    -5.1390     0.6080 C.ar  1 <1>   0.1600 
 24 N       -3.7500    -5.9760     1.0780 N.ar  1 <1>  -0.6200 
 25 C       -2.4330    -6.0860     1.1200 C.ar  1 <1>   0.1600 
 26 H       -4.0070     1.5700    -0.7730 H     1 <1>   0.0800 
 27 H       -3.2390     0.2280    -1.6030 H     1 <1>   0.0800 
 28 H       -2.0780    -1.5920     0.9740 H     1 <1>   0.0800 
 29 H       -3.1560    -0.8130     2.1080 H     1 <1>   0.0800 
 30 H       -0.1950     3.2350     2.0130 H     1 <1>   0.0800 
 31 H        0.7290     2.4440     0.7800 H     1 <1>   0.0800 
 32 H       -0.3370     1.8090    -1.4140 H     1 <1>   0.0800 
 33 H       -1.9990     2.1650    -1.7400 H     1 <1>   0.0800 
 34 H       -3.4290     3.3330     0.1780 H     1 <1>   0.0800 
 35 H       -2.6280     3.7390     1.6540 H     1 <1>   0.0800 
 36 H       -5.4660    -0.6160    -1.1560 H     1 <1>   0.0800 
 37 H       -4.8470    -2.0090     1.0810 H     1 <1>   0.0800 
 38 H        1.2250     4.8630     0.8430 H     1 <1>   0.0800 
 39 H       -0.6100     3.8010    -2.8680 H     1 <1>   0.0800 
 40 H       -2.9130     5.7220     0.1890 H     1 <1>   0.0800 
 41 H       -5.0410     0.6130     1.3420 H     1 <1>   0.4000 
 42 H       -3.0680    -2.2500    -1.3650 H     1 <1>   0.0800 
 43 H       -4.6700    -2.9070    -1.2510 H     1 <1>   0.0800 
 44 H        1.3360     3.7050    -1.3400 H     1 <1>   0.0800 
 45 H        0.8050     5.3470    -1.5530 H     1 <1>   0.0800 
 46 H       -0.5600     6.4840     0.2550 H     1 <1>   0.0800 
 47 H       -0.9610     5.6250     1.7110 H     1 <1>   0.0800 
 48 H       -2.8110     4.5370    -1.9890 H     1 <1>   0.0800 
 49 H       -1.6630     5.8390    -1.9420 H     1 <1>   0.0800 
 50 H       -5.1850    -4.6800     0.4130 H     1 <1>   0.1500 
 51 H       -0.4970    -5.3180     0.6890 H     1 <1>   0.1500 
 52 H       -2.0290    -6.9690     1.5820 H     1 <1>   0.1500 
@<TRIPOS>BOND
  1   1   2  2   
  2   2   3  am  
  3   2   4  1   
  4   3   5  1   
  5   3   6  1   
  6   4   7  1   
  7   4   8  1   
  8   4   9  1   
  9   5  10  1   
 10   5  26  1   
 11   5  27  1   
 12   6  11  1   
 13   6  28  1   
 14   6  29  1   
 15   7  12  1   
 16   7  30  1   
 17   7  31  1   
 18   8  13  1   
 19   8  32  1   
 20   8  33  1   
 21   9  14  1   
 22   9  34  1   
 23   9  35  1   
 24  10  11  1   
 25  10  15  1   
 26  10  36  1   
 27  11  16  1   
 28  11  37  1   
 29  12  17  1   
 30  12  18  1   
 31  12  38  1   
 32  13  17  1   
 33  13  19  1   
 34  13  39  1   
 35  14  18  1   
 36  14  19  1   
 37  14  40  1   
 38  15  41  1   
 39  16  20  1   
 40  16  42  1   
 41  16  43  1   
 42  17  44  1   
 43  17  45  1   
 44  18  46  1   
 45  18  47  1   
 46  19  48  1   
 47  19  49  1   
 48  20  21  ar  
 49  20  22  ar  
 50  21  23  ar  
 51  22  24  ar  
 52  22  50  1   
 53  23  25  ar  
 54  23  51  1   
 55  24  25  ar  
 56  25  52  1   
@<TRIPOS>SUBSTRUCTURE
  1 ****   3 GROUP 4 **** **** 0

# MOE 2024.06 (io_trps.svl 2023.06)
