@<TRIPOS>MOLECULE
NONAME
56 58 1 0 0 
SMALL
USER_CHARGES


@<TRIPOS>ATOM
  1 O        1.0850     0.2320     1.9330 O.2   1 <1>  -0.5700 
  2 C        1.5480    -0.2540     0.9300 C.2   1 <1>   0.5690 
  3 N        2.2420     0.4860     0.0210 N.am  1 <1>  -0.7300 
  4 C        1.2880    -1.7490     0.6830 C.3   1 <1>   0.4040 
  5 C        2.4910     1.9470     0.1450 C.3   1 <1>   0.1400 
  6 N       -0.0670    -2.1080     0.0870 N.4   1 <1>  -0.9590 
  7 C        3.9420     2.2000     0.5510 C.3   1 <1>  -0.0170 
  8 C       -1.1800    -1.4970     0.8980 C.3   1 <1>   0.4230 
  9 C       -0.1330    -3.5920    -0.1030 C.3   1 <1>   0.2630 
 10 C        4.2330     3.6950     0.5310 C.ar  1 <1>  -0.1430 
 11 C       -2.4890    -2.2980     0.8920 C.3   1 <1>  -0.1600 
 12 C       -1.6140    -0.2000     0.2090 C.3   1 <1>  -0.1600 
 13 C        4.4630     4.3630    -0.6700 C.ar  1 <1>   0.0830 
 14 C        4.2630     4.3990     1.7250 C.ar  1 <1>  -0.1500 
 15 C       -3.1600    -1.9870    -0.4530 C.3   1 <1>  -0.0800 
 16 C       -2.6120    -0.6210    -0.8810 C.3   1 <1>  -0.0800 
 17 O        4.4150     3.6350    -1.8190 O.3   1 <1>  -0.3630 
 18 C        4.7250     5.7310    -0.6560 C.ar  1 <1>  -0.1500 
 19 C        4.5240     5.7580     1.7320 C.ar  1 <1>  -0.1500 
 20 C       -4.6890    -1.8610    -0.4110 C.3   1 <1>  -0.1600 
 21 C       -3.8230     0.3050    -1.0540 C.3   1 <1>  -0.1600 
 22 C        4.7120     4.2130    -3.0720 C.3   1 <1>   0.0400 
 23 C        4.7550     6.4230     0.5420 C.ar  1 <1>  -0.1500 
 24 C       -4.9930    -0.6450    -1.2770 C.3   1 <1>   0.2000 
 25 O       -6.1690    -0.0550    -0.8760 O.3   1 <1>  -0.6800 
 26 H        2.6940     0.0680    -0.7970 H     1 <1>   0.3700 
 27 H        1.3900    -2.2430     1.6350 H     1 <1>   0.0800 
 28 H        2.0690    -2.1180     0.0430 H     1 <1>   0.0800 
 29 H        2.2900     2.4220    -0.8010 H     1 <1>   0.0800 
 30 H        1.8340     2.3800     0.8810 H     1 <1>   0.0800 
 31 H       -0.1400    -1.6590    -0.8360 H     1 <1>   0.4500 
 32 H        4.1110     1.8060     1.5370 H     1 <1>   0.0800 
 33 H        4.6100     1.7030    -0.1290 H     1 <1>   0.0800 
 34 H       -0.8510    -1.3110     1.9100 H     1 <1>   0.0800 
 35 H       -0.1140    -4.0930     0.8520 H     1 <1>   0.0800 
 36 H        0.7040    -3.9350    -0.6900 H     1 <1>   0.0800 
 37 H       -1.0400    -3.8660    -0.6170 H     1 <1>   0.0800 
 38 H       -2.3850    -3.3490     1.0860 H     1 <1>   0.0800 
 39 H       -3.0950    -1.8980     1.6870 H     1 <1>   0.0800 
 40 H       -2.1110     0.4040     0.9480 H     1 <1>   0.0800 
 41 H       -0.8030     0.3810    -0.1900 H     1 <1>   0.0800 
 42 H        4.0840     3.8950     2.6590 H     1 <1>   0.1500 
 43 H       -2.8820    -2.7200    -1.1930 H     1 <1>   0.0800 
 44 H       -2.1100    -0.7300    -1.8290 H     1 <1>   0.0800 
 45 H        4.9060     6.2760    -1.5620 H     1 <1>   0.1500 
 46 H        4.5460     6.2970     2.6630 H     1 <1>   0.1500 
 47 H       -5.0320    -1.6840     0.5930 H     1 <1>   0.0800 
 48 H       -5.1690    -2.7410    -0.8020 H     1 <1>   0.0800 
 49 H       -3.6980     0.9690    -1.8920 H     1 <1>   0.0800 
 50 H       -3.9920     0.8830    -0.1620 H     1 <1>   0.0800 
 51 H        4.6440     3.4440    -3.8200 H     1 <1>   0.0800 
 52 H        5.7120     4.6090    -3.0450 H     1 <1>   0.0800 
 53 H        3.9950     4.9880    -3.2780 H     1 <1>   0.0800 
 54 H        4.9570     7.4800     0.5490 H     1 <1>   0.1500 
 55 H       -5.0770    -0.9200    -2.3160 H     1 <1>   0.0800 
 56 H       -6.1140     0.2170     0.0580 H     1 <1>   0.4000 
@<TRIPOS>BOND
  1   1   2  2   
  2   2   3  am  
  3   2   4  1   
  4   3   5  1   
  5   3  26  1   
  6   4   6  1   
  7   4  27  1   
  8   4  28  1   
  9   5   7  1   
 10   5  29  1   
 11   5  30  1   
 12   6   8  1   
 13   6   9  1   
 14   6  31  1   
 15   7  10  1   
 16   7  32  1   
 17   7  33  1   
 18   8  11  1   
 19   8  12  1   
 20   8  34  1   
 21   9  35  1   
 22   9  36  1   
 23   9  37  1   
 24  10  13  ar  
 25  10  14  ar  
 26  11  15  1   
 27  11  38  1   
 28  11  39  1   
 29  12  16  1   
 30  12  40  1   
 31  12  41  1   
 32  13  17  1   
 33  13  18  ar  
 34  14  19  ar  
 35  14  42  1   
 36  15  16  1   
 37  15  20  1   
 38  15  43  1   
 39  16  21  1   
 40  16  44  1   
 41  17  22  1   
 42  18  23  ar  
 43  18  45  1   
 44  19  23  ar  
 45  19  46  1   
 46  20  24  1   
 47  20  47  1   
 48  20  48  1   
 49  21  24  1   
 50  21  49  1   
 51  21  50  1   
 52  22  51  1   
 53  22  52  1   
 54  22  53  1   
 55  23  54  1   
 56  24  25  1   
 57  24  55  1   
 58  25  56  1   
@<TRIPOS>SUBSTRUCTURE
  1 ****   3 GROUP 4 **** **** 0

# MOE 2024.06 (io_trps.svl 2023.06)
