@<TRIPOS>MOLECULE
NONAME
60 63 1 0 0 
SMALL
USER_CHARGES


@<TRIPOS>ATOM
  1 O       -1.6090     0.9380     0.4060 O.2   1 <1>  -0.5700 
  2 C       -1.2390     2.0600     0.7090 C.2   1 <1>   0.5440 
  3 N       -2.2340     2.9790     0.9490 N.am  1 <1>  -0.6600 
  4 C        0.1650     2.4390     0.7560 C.ar  1 <1>   0.0860 
  5 C       -3.5060     2.5730     1.6450 C.3   1 <1>   0.1400 
  6 C       -2.2620     4.2780     0.2210 C.3   1 <1>   0.1400 
  7 C        1.1250     2.0250    -0.1840 C.ar  1 <1>  -0.1440 
  8 C        0.5960     3.2790     1.7860 C.ar  1 <1>  -0.1500 
  9 C       -4.6500     2.2250     0.6600 C.3   1 <1>   0.4230 
 10 C       -3.3090     4.3110    -0.9200 C.3   1 <1>  -0.0800 
 11 C        2.4410     2.4470    -0.0790 C.ar  1 <1>  -0.1500 
 12 C        0.7620     1.1040    -1.3440 C.3   1 <1>  -0.0960 
 13 C        1.9070     3.6990     1.8840 C.ar  1 <1>  -0.1500 
 14 N       -4.0520     1.8500    -0.6740 N.4   1 <1>  -0.9590 
 15 C       -5.7210     3.3330     0.5830 C.3   1 <1>   0.1200 
 16 C       -4.5840     5.0870    -0.5490 C.3   1 <1>   0.1200 
 17 C       -3.6540     2.9640    -1.5890 C.3   1 <1>   0.3430 
 18 C        2.8420     3.2890     0.9530 C.ar  1 <1>   0.0830 
 19 C       -4.7890     0.7550    -1.3740 C.3   1 <1>   0.5240 
 20 O       -5.1570     4.6110     0.6200 O.3   1 <1>  -0.5600 
 21 O        4.1060     3.7420     1.1140 O.3   1 <1>  -0.3630 
 22 C       -5.0560    -0.4200    -0.4430 C.2   1 <1>   0.1080 
 23 C        5.1520     3.3570     0.2510 C.3   1 <1>   0.0400 
 24 N       -6.1650    -0.5490     0.2220 N.2   1 <1>  -0.7070 
 25 C       -4.1650    -1.4550    -0.1830 C.2   1 <1>  -0.1500 
 26 N       -6.0240    -1.6990     0.9150 N.pl3 1 <1>   0.3140 
 27 C       -4.8180    -2.2530     0.6860 C.2   1 <1>  -0.3020 
 28 C       -7.0890    -2.2380     1.7870 C.3   1 <1>   0.0960 
 29 C       -7.8990    -3.3220     1.0660 C.3   1 <1>  -0.2400 
 30 H       -3.3060     1.7010     2.2430 H     1 <1>   0.0800 
 31 H       -3.8120     3.3500     2.3250 H     1 <1>   0.0800 
 32 H       -2.4530     5.0720     0.9250 H     1 <1>   0.0800 
 33 H       -1.2880     4.4590    -0.2010 H     1 <1>   0.0800 
 34 H       -0.1100     3.6080     2.5270 H     1 <1>   0.1500 
 35 H       -5.1460     1.3660     1.0750 H     1 <1>   0.0800 
 36 H       -2.8640     4.9050    -1.6990 H     1 <1>   0.0800 
 37 H        3.1570     2.1150    -0.8060 H     1 <1>   0.1500 
 38 H        1.5730     1.0200    -2.0450 H     1 <1>   0.0800 
 39 H       -0.0960     1.4820    -1.8690 H     1 <1>   0.0800 
 40 H        0.5380     0.1200    -0.9710 H     1 <1>   0.0800 
 41 H        2.2190     4.3460     2.6850 H     1 <1>   0.1500 
 42 H       -3.1540     1.4240    -0.3600 H     1 <1>   0.4500 
 43 H       -6.3480     3.2570     1.4540 H     1 <1>   0.0800 
 44 H       -6.3460     3.2300    -0.2860 H     1 <1>   0.0800 
 45 H       -5.3190     5.0530    -1.3360 H     1 <1>   0.0800 
 46 H       -4.3370     6.1200    -0.3710 H     1 <1>   0.0800 
 47 H       -2.7950     2.6420    -2.1560 H     1 <1>   0.0800 
 48 H       -4.4520     3.1420    -2.2910 H     1 <1>   0.0800 
 49 H       -5.7340     1.1230    -1.7340 H     1 <1>   0.0800 
 50 H       -4.2150     0.4070    -2.2160 H     1 <1>   0.0800 
 51 H        6.0560     3.8310     0.5890 H     1 <1>   0.0800 
 52 H        4.9200     3.6840    -0.7470 H     1 <1>   0.0800 
 53 H        5.2630     2.2880     0.2920 H     1 <1>   0.0800 
 54 H       -3.1750    -1.5790    -0.5880 H     1 <1>   0.1500 
 55 H       -4.4960    -3.1710     1.1450 H     1 <1>   0.1500 
 56 H       -6.6340    -2.6420     2.6730 H     1 <1>   0.0800 
 57 H       -7.7350    -1.4280     2.0730 H     1 <1>   0.0800 
 58 H       -7.2640    -4.1460     0.7890 H     1 <1>   0.0800 
 59 H       -8.3580    -2.9140     0.1820 H     1 <1>   0.0800 
 60 H       -8.6740    -3.6900     1.7130 H     1 <1>   0.0800 
@<TRIPOS>BOND
  1   1   2  2   
  2   2   3  am  
  3   2   4  1   
  4   3   5  1   
  5   3   6  1   
  6   4   7  ar  
  7   4   8  ar  
  8   5   9  1   
  9   5  30  1   
 10   5  31  1   
 11   6  10  1   
 12   6  32  1   
 13   6  33  1   
 14   7  11  ar  
 15   7  12  1   
 16   8  13  ar  
 17   8  34  1   
 18   9  14  1   
 19   9  15  1   
 20   9  35  1   
 21  10  16  1   
 22  10  17  1   
 23  10  36  1   
 24  11  18  ar  
 25  11  37  1   
 26  12  38  1   
 27  12  39  1   
 28  12  40  1   
 29  13  18  ar  
 30  13  41  1   
 31  14  17  1   
 32  14  19  1   
 33  14  42  1   
 34  15  20  1   
 35  15  43  1   
 36  15  44  1   
 37  16  20  1   
 38  16  45  1   
 39  16  46  1   
 40  17  47  1   
 41  17  48  1   
 42  18  21  1   
 43  19  22  1   
 44  19  49  1   
 45  19  50  1   
 46  21  23  1   
 47  22  24  2   
 48  22  25  1   
 49  23  51  1   
 50  23  52  1   
 51  23  53  1   
 52  24  26  1   
 53  25  27  2   
 54  25  54  1   
 55  26  27  1   
 56  26  28  1   
 57  27  55  1   
 58  28  29  1   
 59  28  56  1   
 60  28  57  1   
 61  29  58  1   
 62  29  59  1   
 63  29  60  1   
@<TRIPOS>SUBSTRUCTURE
  1 ****   1 GROUP 4 **** **** 0

# MOE 2024.06 (io_trps.svl 2023.06)
