@<TRIPOS>MOLECULE
NONAME
58 60 1 0 0 
SMALL
USER_CHARGES


@<TRIPOS>ATOM
  1 O        0.8160    -0.2700     1.2710 O.3   1 <1>  -0.5600 
  2 C        1.4620     0.5810     0.3820 C.3   1 <1>   0.1200 
  3 C        0.7170    -1.5840     0.8040 C.3   1 <1>   0.1200 
  4 C        2.9030     0.0910     0.1710 C.3   1 <1>   0.1900 
  5 C        2.1120    -2.2010     0.5150 C.3   1 <1>   0.1900 
  6 N        2.9200    -1.3000    -0.3620 N.3   1 <1>  -0.8100 
  7 C        3.6460     1.0570    -0.7760 C.3   1 <1>   0.3430 
  8 C        1.9570    -3.5920    -0.1390 C.3   1 <1>  -0.1600 
  9 C        4.3190    -1.7510    -0.5540 C.3   1 <1>   0.1100 
 10 N        5.0600     0.6130    -1.0410 N.4   1 <1>  -0.9590 
 11 C        1.0630    -4.5650     0.6510 C.3   1 <1>  -0.1600 
 12 C        5.0960    -0.8140    -1.5030 C.3   1 <1>   0.3430 
 13 C        5.7540     1.5230    -1.9890 C.3   1 <1>   0.4860 
 14 C        1.0920    -5.9630     0.0280 C.3   1 <1>  -0.2400 
 15 C        5.8340     2.8990    -1.3600 C.ar  1 <1>  -0.1440 
 16 C        6.6200     3.1010    -0.2360 C.ar  1 <1>  -0.1500 
 17 C        5.1250     3.9650    -1.8930 C.ar  1 <1>  -0.1500 
 18 C        6.6990     4.3470     0.3670 C.ar  1 <1>  -0.1440 
 19 C        5.1960     5.2130    -1.3000 C.ar  1 <1>  -0.1500 
 20 C        5.9790     5.4120    -0.1660 C.ar  1 <1>   0.0820 
 21 C        7.5630     4.5390     1.6130 C.3   1 <1>   0.2630 
 22 O        6.0770     6.6150     0.4570 O.3   1 <1>  -0.3630 
 23 O        8.7110     3.7430     1.5360 O.3   1 <1>  -0.5600 
 24 C        5.4530     7.7750    -0.0490 C.3   1 <1>   0.0400 
 25 C        9.7210     4.2780     0.7370 C.3   1 <1>   0.0400 
 26 H        0.9120     0.5980    -0.5430 H     1 <1>   0.0800 
 27 H        1.4520     1.5650     0.8160 H     1 <1>   0.0800 
 28 H        0.2090    -2.1480     1.5650 H     1 <1>   0.0800 
 29 H        0.1120    -1.5870    -0.0850 H     1 <1>   0.0800 
 30 H        3.3920     0.1140     1.1300 H     1 <1>   0.0800 
 31 H        2.6150    -2.3210     1.4610 H     1 <1>   0.0800 
 32 H        3.6490     2.0420    -0.3380 H     1 <1>   0.0800 
 33 H        3.1000     1.1060    -1.7030 H     1 <1>   0.0800 
 34 H        1.5530    -3.4710    -1.1290 H     1 <1>   0.0800 
 35 H        2.9200    -4.0570    -0.2210 H     1 <1>   0.0800 
 36 H        4.8220    -1.8120     0.3960 H     1 <1>   0.0800 
 37 H        4.3330    -2.7290    -0.9990 H     1 <1>   0.0800 
 38 H        5.5620     0.6790    -0.1460 H     1 <1>   0.4500 
 39 H        1.4040    -4.6280     1.6710 H     1 <1>   0.0800 
 40 H        0.0440    -4.2200     0.6570 H     1 <1>   0.0800 
 41 H        4.6510    -0.8890    -2.4810 H     1 <1>   0.0800 
 42 H        6.1170    -1.1530    -1.5740 H     1 <1>   0.0800 
 43 H        6.7520     1.1650    -2.1860 H     1 <1>   0.0800 
 44 H        5.2170     1.5720    -2.9220 H     1 <1>   0.0800 
 45 H        2.0900    -6.3640     0.0390 H     1 <1>   0.0800 
 46 H        0.7420    -5.9310    -0.9900 H     1 <1>   0.0800 
 47 H        0.4540    -6.6270     0.5850 H     1 <1>   0.0800 
 48 H        7.1910     2.2920     0.1870 H     1 <1>   0.1500 
 49 H        4.5140     3.8410    -2.7710 H     1 <1>   0.1500 
 50 H        4.6350     6.0190    -1.7350 H     1 <1>   0.1500 
 51 H        7.0130     4.2280     2.4820 H     1 <1>   0.0800 
 52 H        7.8610     5.5650     1.7490 H     1 <1>   0.0800 
 53 H        5.7010     8.5970     0.5970 H     1 <1>   0.0800 
 54 H        4.3870     7.6260    -0.0550 H     1 <1>   0.0800 
 55 H        5.8220     7.9670    -1.0410 H     1 <1>   0.0800 
 56 H       10.5440     3.5850     0.7270 H     1 <1>   0.0800 
 57 H       10.0450     5.2160     1.1540 H     1 <1>   0.0800 
 58 H        9.3520     4.4190    -0.2640 H     1 <1>   0.0800 
@<TRIPOS>BOND
  1   1   2  1   
  2   1   3  1   
  3   2   4  1   
  4   2  26  1   
  5   2  27  1   
  6   3   5  1   
  7   3  28  1   
  8   3  29  1   
  9   4   6  1   
 10   4   7  1   
 11   4  30  1   
 12   5   6  1   
 13   5   8  1   
 14   5  31  1   
 15   6   9  1   
 16   7  10  1   
 17   7  32  1   
 18   7  33  1   
 19   8  11  1   
 20   8  34  1   
 21   8  35  1   
 22   9  12  1   
 23   9  36  1   
 24   9  37  1   
 25  10  12  1   
 26  10  13  1   
 27  10  38  1   
 28  11  14  1   
 29  11  39  1   
 30  11  40  1   
 31  12  41  1   
 32  12  42  1   
 33  13  15  1   
 34  13  43  1   
 35  13  44  1   
 36  14  45  1   
 37  14  46  1   
 38  14  47  1   
 39  15  16  ar  
 40  15  17  ar  
 41  16  18  ar  
 42  16  48  1   
 43  17  19  ar  
 44  17  49  1   
 45  18  20  ar  
 46  18  21  1   
 47  19  20  ar  
 48  19  50  1   
 49  20  22  1   
 50  21  23  1   
 51  21  51  1   
 52  21  52  1   
 53  22  24  1   
 54  23  25  1   
 55  24  53  1   
 56  24  54  1   
 57  24  55  1   
 58  25  56  1   
 59  25  57  1   
 60  25  58  1   
@<TRIPOS>SUBSTRUCTURE
  1 ****   7 GROUP 4 **** **** 0

# MOE 2024.06 (io_trps.svl 2023.06)
