@<TRIPOS>MOLECULE
NONAME
56 59 1 0 0 
SMALL
USER_CHARGES


@<TRIPOS>ATOM
  1 O        0.8080    -2.9100    -2.4360 O.2   1 <1>  -0.5700 
  2 C        0.9140    -2.7420    -1.2340 C.2   1 <1>   0.5440 
  3 N       -0.2190    -2.8300    -0.4450 N.am  1 <1>  -0.6600 
  4 C        2.2070    -2.4080    -0.6750 C.ar  1 <1>   0.0860 
  5 C       -1.5510    -3.0200    -1.1150 C.3   1 <1>   0.1400 
  6 C       -0.1560    -2.7730     1.0460 C.3   1 <1>   0.1400 
  7 C        3.1870    -3.3790    -0.4490 C.ar  1 <1>   0.0830 
  8 C        2.4940    -1.0890    -0.3250 C.ar  1 <1>  -0.1500 
  9 C       -2.7700    -3.1460    -0.1850 C.3   1 <1>   0.1400 
 10 C       -0.4920    -4.1330     1.6610 C.3   1 <1>  -0.1600 
 11 O        2.9070    -4.6470    -0.8260 O.3   1 <1>  -0.3620 
 12 C        4.3970    -3.0300     0.1430 C.ar  1 <1>  -0.1500 
 13 C        3.7000    -0.7360     0.2520 C.ar  1 <1>  -0.1440 
 14 N       -2.7390    -4.4230     0.5900 N.am  1 <1>  -0.6600 
 15 C       -1.9930    -4.3600     1.8750 C.3   1 <1>   0.1400 
 16 C        3.8870    -5.6560    -0.9410 C.3   1 <1>   0.1200 
 17 C        4.6500    -1.7160     0.4900 C.ar  1 <1>  -0.1500 
 18 C        3.9940     0.7050     0.6270 C.3   1 <1>  -0.0970 
 19 C       -3.3780    -5.5340     0.0920 C.2   1 <1>   0.5690 
 20 C        3.3770    -6.7400    -1.8920 C.3   1 <1>   0.0960 
 21 O       -4.0540    -5.4760    -0.9090 O.2   1 <1>  -0.5700 
 22 C       -3.2520    -6.9080     0.7420 C.3   1 <1>  -0.0990 
 23 N        2.1130    -7.3240    -1.4190 N.pl3 1 <1>   0.3140 
 24 C       -1.8540    -7.5340     0.5730 C.3   1 <1>  -0.1600 
 25 N        2.0450    -8.4990    -0.7810 N.2   1 <1>  -0.4180 
 26 C        0.8850    -6.8330    -1.5760 C.2   1 <1>  -0.3020 
 27 C       -1.4300    -7.6710    -0.9000 C.3   1 <1>   0.0210 
 28 N        0.8070    -8.7550    -0.5330 N.2   1 <1>  -0.2270 
 29 C        0.0780    -7.7420    -1.0150 C.2   1 <1>   0.0460 
 30 H       -1.5050    -3.9000    -1.7350 H     1 <1>   0.0800 
 31 H       -1.7120    -2.1820    -1.7690 H     1 <1>   0.0800 
 32 H       -0.8200    -2.0100     1.4130 H     1 <1>   0.0800 
 33 H        0.8340    -2.5040     1.3650 H     1 <1>   0.0800 
 34 H        1.7470    -0.3390    -0.5160 H     1 <1>   0.1500 
 35 H       -3.6570    -3.1210    -0.7940 H     1 <1>   0.0800 
 36 H       -2.8270    -2.3020     0.4770 H     1 <1>   0.0800 
 37 H       -0.0250    -4.1770     2.6280 H     1 <1>   0.0800 
 38 H       -0.0620    -4.9180     1.0660 H     1 <1>   0.0800 
 39 H        5.1510    -3.7660     0.3460 H     1 <1>   0.1500 
 40 H       -2.3980    -3.5610     2.4710 H     1 <1>   0.0800 
 41 H       -2.1290    -5.2680     2.4340 H     1 <1>   0.0800 
 42 H        4.0800    -6.0590     0.0380 H     1 <1>   0.0800 
 43 H        4.7840    -5.2220    -1.3460 H     1 <1>   0.0800 
 44 H        5.5900    -1.4540     0.9450 H     1 <1>   0.1500 
 45 H        3.2100     1.3590     0.2900 H     1 <1>   0.0800 
 46 H        4.9170     1.0220     0.1760 H     1 <1>   0.0800 
 47 H        4.0810     0.7960     1.6950 H     1 <1>   0.0800 
 48 H        4.1050    -7.5260    -1.9700 H     1 <1>   0.0800 
 49 H        3.2200    -6.3220    -2.8690 H     1 <1>   0.0800 
 50 H       -3.9770    -7.5610     0.2900 H     1 <1>   0.0800 
 51 H       -3.5040    -6.8350     1.7820 H     1 <1>   0.0800 
 52 H       -1.8320    -8.5070     1.0330 H     1 <1>   0.0800 
 53 H       -1.1310    -6.9290     1.0850 H     1 <1>   0.0800 
 54 H        0.6720    -5.8920    -2.0530 H     1 <1>   0.1500 
 55 H       -1.7550    -6.8240    -1.4750 H     1 <1>   0.0800 
 56 H       -1.8690    -8.5520    -1.3330 H     1 <1>   0.0800 
@<TRIPOS>BOND
  1   1   2  2   
  2   2   3  am  
  3   2   4  1   
  4   3   5  1   
  5   3   6  1   
  6   4   7  ar  
  7   4   8  ar  
  8   5   9  1   
  9   5  30  1   
 10   5  31  1   
 11   6  10  1   
 12   6  32  1   
 13   6  33  1   
 14   7  11  1   
 15   7  12  ar  
 16   8  13  ar  
 17   8  34  1   
 18   9  14  1   
 19   9  35  1   
 20   9  36  1   
 21  10  15  1   
 22  10  37  1   
 23  10  38  1   
 24  11  16  1   
 25  12  17  ar  
 26  12  39  1   
 27  13  17  ar  
 28  13  18  1   
 29  14  15  1   
 30  14  19  am  
 31  15  40  1   
 32  15  41  1   
 33  16  20  1   
 34  16  42  1   
 35  16  43  1   
 36  17  44  1   
 37  18  45  1   
 38  18  46  1   
 39  18  47  1   
 40  19  21  2   
 41  19  22  1   
 42  20  23  1   
 43  20  48  1   
 44  20  49  1   
 45  22  24  1   
 46  22  50  1   
 47  22  51  1   
 48  23  25  1   
 49  23  26  1   
 50  24  27  1   
 51  24  52  1   
 52  24  53  1   
 53  25  28  2   
 54  26  29  2   
 55  26  54  1   
 56  27  29  1   
 57  27  55  1   
 58  27  56  1   
 59  28  29  1   
@<TRIPOS>SUBSTRUCTURE
  1 ****   3 GROUP 4 **** **** 0

# MOE 2024.06 (io_trps.svl 2023.06)
