@<TRIPOS>MOLECULE
NONAME
48 50 1 0 0 
SMALL
USER_CHARGES


@<TRIPOS>ATOM
  1 S        0.6710     1.0630    -1.1570 S.o2  1 <1>   1.3330 
  2 O        0.7780    -0.3410    -1.4830 O.2   1 <1>  -0.6500 
  3 O        0.5250     2.0180    -2.2320 O.2   1 <1>  -0.6500 
  4 N        2.0680     1.4690    -0.2830 N.am  1 <1>  -0.8490 
  5 C       -0.7110     1.2590    -0.0170 C.3   1 <1>  -0.0550 
  6 C        2.4980     0.4230     0.6510 C.3   1 <1>   0.1160 
  7 C        3.1810     1.8020    -1.1780 C.3   1 <1>   0.1160 
  8 C       -1.0110     2.6440     0.6060 C.3   1 <1>  -0.0800 
  9 C       -1.0770     3.8060    -0.3970 C.3   1 <1>   0.2000 
 10 C       -0.0010     3.0880     1.6770 C.3   1 <1>   0.1400 
 11 O       -2.0710     4.6680     0.0370 O.3   1 <1>  -0.6800 
 12 C        0.2610     4.5300    -0.2570 C.3   1 <1>   0.1400 
 13 N        0.6300     4.3250     1.1640 N.am  1 <1>  -0.6600 
 14 C        1.1700     5.2940     1.9790 C.2   1 <1>   0.5440 
 15 O        1.0390     5.1740     3.1840 O.2   1 <1>  -0.5700 
 16 C        1.8440     6.4500     1.4340 C.ar  1 <1>   0.0860 
 17 C        2.9130     6.3060     0.5280 C.ar  1 <1>   0.0000 
 18 C        1.4670     7.7420     1.7670 C.ar  1 <1>  -0.1500 
 19 C        3.5280     7.4200    -0.0380 C.ar  1 <1>  -0.1520 
 20 C        3.5840     5.1810     0.0070 C.2   1 <1>  -0.1500 
 21 C        2.0890     8.8600     1.2060 C.ar  1 <1>  -0.1500 
 22 N        4.5190     6.9870    -0.8880 N.pl3 1 <1>   0.0480 
 23 C        3.1140     8.7090     0.3010 C.ar  1 <1>  -0.1500 
 24 C        4.5400     5.6230    -0.8440 C.2   1 <1>  -0.3020 
 25 C        5.4180     7.8440    -1.6780 C.3   1 <1>   0.0160 
 26 H       -1.5940     0.9620    -0.5490 H     1 <1>   0.0800 
 27 H       -0.5940     0.5540     0.7830 H     1 <1>   0.0800 
 28 H        3.3340     0.7710     1.2340 H     1 <1>   0.0800 
 29 H        2.7910    -0.4660     0.1150 H     1 <1>   0.0800 
 30 H        1.6990     0.1710     1.3260 H     1 <1>   0.0800 
 31 H        4.0600     2.0510    -0.6070 H     1 <1>   0.0800 
 32 H        2.9240     2.6530    -1.7860 H     1 <1>   0.0800 
 33 H        3.4040     0.9700    -1.8250 H     1 <1>   0.0800 
 34 H       -1.9690     2.5410     1.0860 H     1 <1>   0.0800 
 35 H       -1.3060     3.5140    -1.4080 H     1 <1>   0.0800 
 36 H        0.7560     2.3460     1.8580 H     1 <1>   0.0800 
 37 H       -0.5070     3.2980     2.6040 H     1 <1>   0.0800 
 38 H       -1.7890     5.0590     0.8900 H     1 <1>   0.4000 
 39 H        0.1760     5.5720    -0.5140 H     1 <1>   0.0800 
 40 H        1.0070     4.0730    -0.8820 H     1 <1>   0.0800 
 41 H        0.6700     7.8850     2.4760 H     1 <1>   0.1500 
 42 H        3.3390     4.1700     0.2800 H     1 <1>   0.1500 
 43 H        1.7570     9.8430     1.4910 H     1 <1>   0.1500 
 44 H        3.5950     9.5650    -0.1370 H     1 <1>   0.1500 
 45 H        5.2410     5.0450    -1.4190 H     1 <1>   0.1500 
 46 H        6.0670     7.2320    -2.2770 H     1 <1>   0.0800 
 47 H        6.0060     8.4470    -1.0120 H     1 <1>   0.0800 
 48 H        4.8310     8.4770    -2.3170 H     1 <1>   0.0800 
@<TRIPOS>BOND
  1   1   2  2   
  2   1   3  2   
  3   1   4  am  
  4   1   5  1   
  5   4   6  1   
  6   4   7  1   
  7   5   8  1   
  8   5  26  1   
  9   5  27  1   
 10   6  28  1   
 11   6  29  1   
 12   6  30  1   
 13   7  31  1   
 14   7  32  1   
 15   7  33  1   
 16   8   9  1   
 17   8  10  1   
 18   8  34  1   
 19   9  11  1   
 20   9  12  1   
 21   9  35  1   
 22  10  13  1   
 23  10  36  1   
 24  10  37  1   
 25  11  38  1   
 26  12  13  1   
 27  12  39  1   
 28  12  40  1   
 29  13  14  am  
 30  14  15  2   
 31  14  16  1   
 32  16  17  ar  
 33  16  18  ar  
 34  17  19  ar  
 35  17  20  1   
 36  18  21  ar  
 37  18  41  1   
 38  19  22  1   
 39  19  23  ar  
 40  20  24  2   
 41  20  42  1   
 42  21  23  ar  
 43  21  43  1   
 44  22  24  1   
 45  22  25  1   
 46  23  44  1   
 47  24  45  1   
 48  25  46  1   
 49  25  47  1   
 50  25  48  1   
@<TRIPOS>SUBSTRUCTURE
  1 ****  13 GROUP 4 **** **** 0

# MOE 2024.06 (io_trps.svl 2023.06)
