@<TRIPOS>MOLECULE
NONAME
47 50 1 0 0 
SMALL
USER_CHARGES


@<TRIPOS>ATOM
  1 O        0.0730    -2.0240    -0.3270 O.3   1 <1>  -0.3630 
  2 C       -1.0930    -2.5620     0.1270 C.ar  1 <1>   0.0820 
  3 C        0.1000    -1.2940    -1.5330 C.3   1 <1>   0.0400 
  4 C       -2.3050    -2.4500    -0.5270 C.ar  1 <1>  -0.1500 
  5 C       -1.0090    -3.2660     1.3360 C.ar  1 <1>  -0.1500 
  6 C       -3.4420    -3.0430     0.0300 C.ar  1 <1>   0.0000 
  7 C       -2.1210    -3.8540     1.8930 C.ar  1 <1>  -0.1500 
  8 C       -3.3440    -3.7370     1.2300 C.ar  1 <1>  -0.1520 
  9 C       -4.7940    -3.1210    -0.3660 C.2   1 <1>  -0.1500 
 10 N       -4.5860    -4.2180     1.5540 N.pl3 1 <1>   0.0330 
 11 C       -5.4630    -3.8380     0.5710 C.2   1 <1>  -0.3320 
 12 C       -6.9250    -4.2010     0.5930 C.3   1 <1>   0.3890 
 13 N       -6.9770    -5.6590     0.4270 N.pl3 1 <1>  -0.8690 
 14 C       -7.9270    -6.5820     0.5820 C.ar  1 <1>   0.7710 
 15 N       -7.5640    -7.8250     0.3450 N.ar  1 <1>  -0.6200 
 16 N       -9.1740    -6.2420     0.9560 N.ar  1 <1>  -0.1790 
 17 C       -8.4690    -8.7770     0.4820 C.ar  1 <1>   0.4100 
 18 C      -10.1320    -7.1880     1.1110 C.ar  1 <1>   0.2110 
 19 N       -8.0800   -10.0540     0.2350 N.pl3 1 <1>  -0.8380 
 20 C       -9.7890    -8.4760     0.8750 C.ar  1 <1>  -0.1500 
 21 C       -8.9160   -11.2820     0.3710 C.3   1 <1>   0.2090 
 22 C       -6.7110   -10.4310    -0.2030 C.3   1 <1>   0.2090 
 23 C       -8.0390   -12.4480    -0.0960 C.3   1 <1>   0.2000 
 24 C       -6.8470   -11.8220    -0.8090 C.3   1 <1>  -0.1600 
 25 O       -8.7250   -13.2640    -0.9800 O.3   1 <1>  -0.6800 
 26 H        1.1080    -0.9600    -1.6990 H     1 <1>   0.0800 
 27 H       -0.5550    -0.4460    -1.4430 H     1 <1>   0.0800 
 28 H       -0.2090    -1.9370    -2.3380 H     1 <1>   0.0800 
 29 H       -2.4160    -1.9220    -1.4540 H     1 <1>   0.1500 
 30 H       -0.0510    -3.3340     1.8190 H     1 <1>   0.1500 
 31 H       -2.0540    -4.3930     2.8210 H     1 <1>   0.1500 
 32 H       -5.1700    -2.6720    -1.2700 H     1 <1>   0.1500 
 33 H       -4.7870    -4.7770     2.3900 H     1 <1>   0.2700 
 34 H       -7.4310    -3.7170    -0.2260 H     1 <1>   0.0800 
 35 H       -7.3690    -3.8980     1.5270 H     1 <1>   0.0800 
 36 H       -6.0800    -6.0220     0.0790 H     1 <1>   0.4000 
 37 H       -9.3550    -5.2560     1.1040 H     1 <1>   0.4570 
 38 H      -11.1260    -6.8930     1.4120 H     1 <1>   0.1500 
 39 H      -10.5020    -9.2710     0.9800 H     1 <1>   0.1500 
 40 H       -9.7930   -11.1970    -0.2470 H     1 <1>   0.0800 
 41 H       -9.2000   -11.4240     1.3990 H     1 <1>   0.0800 
 42 H       -6.0620   -10.4580     0.6560 H     1 <1>   0.0800 
 43 H       -6.3210    -9.7320    -0.9240 H     1 <1>   0.0800 
 44 H       -7.7290   -13.0420     0.7470 H     1 <1>   0.0800 
 45 H       -5.9500   -12.3960    -0.6660 H     1 <1>   0.0800 
 46 H       -7.0390   -11.7140    -1.8610 H     1 <1>   0.0800 
 47 H       -8.8770   -12.7960    -1.8240 H     1 <1>   0.4000 
@<TRIPOS>BOND
  1   1   2  1   
  2   1   3  1   
  3   2   4  ar  
  4   2   5  ar  
  5   3  26  1   
  6   3  27  1   
  7   3  28  1   
  8   4   6  ar  
  9   4  29  1   
 10   5   7  ar  
 11   5  30  1   
 12   6   8  ar  
 13   6   9  1   
 14   7   8  ar  
 15   7  31  1   
 16   8  10  1   
 17   9  11  2   
 18   9  32  1   
 19  10  11  1   
 20  10  33  1   
 21  11  12  1   
 22  12  13  1   
 23  12  34  1   
 24  12  35  1   
 25  13  14  1   
 26  13  36  1   
 27  14  15  ar  
 28  14  16  ar  
 29  15  17  ar  
 30  16  18  ar  
 31  16  37  1   
 32  17  19  1   
 33  17  20  ar  
 34  18  20  ar  
 35  18  38  1   
 36  19  21  1   
 37  19  22  1   
 38  20  39  1   
 39  21  23  1   
 40  21  40  1   
 41  21  41  1   
 42  22  24  1   
 43  22  42  1   
 44  22  43  1   
 45  23  24  1   
 46  23  25  1   
 47  23  44  1   
 48  24  45  1   
 49  24  46  1   
 50  25  47  1   
@<TRIPOS>SUBSTRUCTURE
  1 ****  13 GROUP 4 **** **** 0

# MOE 2024.06 (io_trps.svl 2023.06)
