@<TRIPOS>MOLECULE
NONAME
43 44 1 0 0 
SMALL
USER_CHARGES


@<TRIPOS>ATOM
  1 O       -0.5430     2.1650    -2.2870 O.3   1 <1>  -0.6800 
  2 C       -0.5110     3.1740    -1.3300 C.3   1 <1>   0.2000 
  3 C       -1.5530     2.8950    -0.2100 C.3   1 <1>   0.0000 
  4 C        0.9240     3.3180    -0.7950 C.3   1 <1>   0.2090 
  5 C       -1.3990     4.0180     0.8500 C.3   1 <1>  -0.1600 
  6 C       -1.2640     1.5040     0.4260 C.3   1 <1>   0.1200 
  7 C       -3.0070     2.8800    -0.7700 C.3   1 <1>  -0.1600 
  8 N        0.9820     4.3510     0.2800 N.pl3 1 <1>  -0.8380 
  9 C        0.0280     4.1350     1.3990 C.3   1 <1>   0.2090 
 10 O       -2.1360     1.2290     1.4740 O.3   1 <1>  -0.6800 
 11 C       -3.4470     4.1020    -1.6000 C.3   1 <1>  -0.1600 
 12 C        2.2410     4.8260     0.5960 C.ar  1 <1>   0.4100 
 13 C       -4.9060     3.9590    -2.0410 C.3   1 <1>  -0.2400 
 14 N        2.7740     4.4260     1.7450 N.ar  1 <1>  -0.6200 
 15 C        2.8930     5.6780    -0.2930 C.ar  1 <1>  -0.1500 
 16 C        3.9850     4.8860     2.0060 C.ar  1 <1>   0.1600 
 17 C        4.1550     6.1500    -0.0110 C.ar  1 <1>  -0.1440 
 18 C        4.7070     5.7310     1.1830 C.ar  1 <1>  -0.1500 
 19 C        4.9050     7.0790    -0.9480 C.3   1 <1>  -0.0970 
 20 H       -1.4450     2.0930    -2.6560 H     1 <1>   0.4000 
 21 H       -0.7480     4.0950    -1.8310 H     1 <1>   0.0800 
 22 H        1.5710     3.6070    -1.6050 H     1 <1>   0.0800 
 23 H        1.2760     2.3810    -0.4020 H     1 <1>   0.0800 
 24 H       -2.0790     3.8620     1.6670 H     1 <1>   0.0800 
 25 H       -1.6440     4.9700     0.4170 H     1 <1>   0.0800 
 26 H       -0.2630     1.4360     0.8110 H     1 <1>   0.0800 
 27 H       -1.3900     0.7240    -0.3060 H     1 <1>   0.0800 
 28 H       -3.1360     1.9990    -1.3750 H     1 <1>   0.0800 
 29 H       -3.6890     2.7780     0.0580 H     1 <1>   0.0800 
 30 H        0.3080     3.2500     1.9440 H     1 <1>   0.0800 
 31 H        0.0870     4.9710     2.0770 H     1 <1>   0.0800 
 32 H       -2.0080     1.8670     2.2000 H     1 <1>   0.4000 
 33 H       -3.3530     5.0030    -1.0210 H     1 <1>   0.0800 
 34 H       -2.8370     4.2020    -2.4800 H     1 <1>   0.0800 
 35 H       -5.5530     3.8870    -1.1840 H     1 <1>   0.0800 
 36 H       -5.0340     3.0780    -2.6460 H     1 <1>   0.0800 
 37 H       -5.2020     4.8160    -2.6200 H     1 <1>   0.0800 
 38 H        2.3850     5.9560    -1.1950 H     1 <1>   0.1500 
 39 H        4.4300     4.5710     2.9340 H     1 <1>   0.1500 
 40 H        5.6890     6.0570     1.4740 H     1 <1>   0.1500 
 41 H        5.8420     6.6360    -1.2310 H     1 <1>   0.0800 
 42 H        5.0960     8.0170    -0.4570 H     1 <1>   0.0800 
 43 H        4.3310     7.2680    -1.8370 H     1 <1>   0.0800 
@<TRIPOS>BOND
  1   1   2  1   
  2   1  20  1   
  3   2   3  1   
  4   2   4  1   
  5   2  21  1   
  6   3   5  1   
  7   3   6  1   
  8   3   7  1   
  9   4   8  1   
 10   4  22  1   
 11   4  23  1   
 12   5   9  1   
 13   5  24  1   
 14   5  25  1   
 15   6  10  1   
 16   6  26  1   
 17   6  27  1   
 18   7  11  1   
 19   7  28  1   
 20   7  29  1   
 21   8   9  1   
 22   8  12  1   
 23   9  30  1   
 24   9  31  1   
 25  10  32  1   
 26  11  13  1   
 27  11  33  1   
 28  11  34  1   
 29  12  14  ar  
 30  12  15  ar  
 31  13  35  1   
 32  13  36  1   
 33  13  37  1   
 34  14  16  ar  
 35  15  17  ar  
 36  15  38  1   
 37  16  18  ar  
 38  16  39  1   
 39  17  18  ar  
 40  17  19  1   
 41  18  40  1   
 42  19  41  1   
 43  19  42  1   
 44  19  43  1   
@<TRIPOS>SUBSTRUCTURE
  1 ****   8 GROUP 4 **** **** 0

# MOE 2024.06 (io_trps.svl 2023.06)
