@<TRIPOS>MOLECULE
NONAME
59 62 1 0 0 
SMALL
USER_CHARGES


@<TRIPOS>ATOM
  1 O       -1.2500    -0.4190    -0.7760 O.2   1 <1>  -0.5700 
  2 C       -2.1480     0.2820    -0.3480 C.2   1 <1>   0.5440 
  3 N       -2.1030     1.6390    -0.5970 N.am  1 <1>  -0.6600 
  4 C       -3.2290    -0.3290     0.3890 C.ar  1 <1>   0.0860 
  5 C       -0.8630     2.3110    -1.0920 C.3   1 <1>   0.1400 
  6 C       -3.3190     2.5010    -0.7110 C.3   1 <1>   0.1400 
  7 C       -3.7720    -1.5420    -0.0280 C.ar  1 <1>   0.1600 
  8 C       -3.7730     0.2340     1.5400 C.ar  1 <1>  -0.1500 
  9 C       -1.1020     2.9380    -2.4740 C.3   1 <1>   0.1200 
 10 C       -3.4100     3.1290    -2.1130 C.3   1 <1>   0.1200 
 11 N       -4.7730    -2.1860     0.5460 N.ar  1 <1>  -0.6200 
 12 C       -4.8090    -0.4270     2.1550 C.ar  1 <1>  -0.1500 
 13 O       -2.2180     3.7830    -2.4440 O.3   1 <1>  -0.5600 
 14 C       -5.2930    -1.6260     1.6340 C.ar  1 <1>   0.4100 
 15 N       -6.3420    -2.2790     2.2460 N.pl3 1 <1>  -0.8380 
 16 C       -7.6090    -1.5730     2.5600 C.3   1 <1>   0.2090 
 17 C       -6.4360    -3.7650     2.2240 C.3   1 <1>   0.2090 
 18 C       -8.6960    -2.0040     1.5710 C.3   1 <1>  -0.1600 
 19 C       -7.5280    -4.2060     1.2460 C.3   1 <1>  -0.1600 
 20 C       -8.8790    -3.5310     1.5500 C.3   1 <1>  -0.0800 
 21 C       -9.9530    -3.9300     0.5290 C.3   1 <1>   0.1200 
 22 O      -10.1830    -5.3200     0.6140 O.3   1 <1>  -0.3630 
 23 C      -11.1070    -5.9260    -0.1760 C.ar  1 <1>   0.0830 
 24 C      -11.8640    -5.2610    -1.1380 C.ar  1 <1>  -0.1500 
 25 C      -11.2870    -7.2880     0.0090 C.ar  1 <1>  -0.1500 
 26 C      -12.7860    -5.9620    -1.8960 C.ar  1 <1>  -0.1500 
 27 C      -12.2090    -7.9890    -0.7490 C.ar  1 <1>  -0.1500 
 28 C      -12.9660    -7.3240    -1.7090 C.ar  1 <1>   0.0830 
 29 O      -13.8930    -7.9300    -2.4970 O.3   1 <1>  -0.3620 
 30 C      -14.1500    -9.3120    -2.3840 C.3   1 <1>   0.0400 
 31 H       -0.0470     1.6120    -1.1540 H     1 <1>   0.0800 
 32 H       -0.5800     3.0830    -0.3990 H     1 <1>   0.0800 
 33 H       -3.2670     3.2850     0.0250 H     1 <1>   0.0800 
 34 H       -4.2110     1.9290    -0.5310 H     1 <1>   0.0800 
 35 H       -3.3410    -2.0010    -0.9020 H     1 <1>   0.1500 
 36 H       -3.3810     1.1550     1.9340 H     1 <1>   0.1500 
 37 H       -1.2640     2.1710    -3.2120 H     1 <1>   0.0800 
 38 H       -0.2510     3.5270    -2.7670 H     1 <1>   0.0800 
 39 H       -4.2020     3.8560    -2.1440 H     1 <1>   0.0800 
 40 H       -3.6050     2.3730    -2.8540 H     1 <1>   0.0800 
 41 H       -5.2510    -0.0380     3.0520 H     1 <1>   0.1500 
 42 H       -7.4700    -0.5080     2.4960 H     1 <1>   0.0800 
 43 H       -7.9060    -1.8170     3.5660 H     1 <1>   0.0800 
 44 H       -6.6710    -4.1140     3.2140 H     1 <1>   0.0800 
 45 H       -5.4920    -4.1950     1.9370 H     1 <1>   0.0800 
 46 H       -8.4180    -1.6550     0.5910 H     1 <1>   0.0800 
 47 H       -9.6210    -1.5280     1.8430 H     1 <1>   0.0800 
 48 H       -7.6300    -5.2750     1.3000 H     1 <1>   0.0800 
 49 H       -7.2080    -3.9580     0.2490 H     1 <1>   0.0800 
 50 H       -9.2140    -3.8430     2.5250 H     1 <1>   0.0800 
 51 H       -9.6280    -3.7000    -0.4710 H     1 <1>   0.0800 
 52 H      -10.8790    -3.4250     0.7420 H     1 <1>   0.0800 
 53 H      -11.7510    -4.2090    -1.3120 H     1 <1>   0.1500 
 54 H      -10.6980    -7.7930     0.7530 H     1 <1>   0.1500 
 55 H      -13.3750    -5.4580    -2.6400 H     1 <1>   0.1500 
 56 H      -12.3220    -9.0420    -0.5780 H     1 <1>   0.1500 
 57 H      -14.9110    -9.5690    -3.0980 H     1 <1>   0.0800 
 58 H      -14.4960    -9.5220    -1.3880 H     1 <1>   0.0800 
 59 H      -13.2470    -9.8540    -2.6020 H     1 <1>   0.0800 
@<TRIPOS>BOND
  1   1   2  2   
  2   2   3  am  
  3   2   4  1   
  4   3   5  1   
  5   3   6  1   
  6   4   7  ar  
  7   4   8  ar  
  8   5   9  1   
  9   5  31  1   
 10   5  32  1   
 11   6  10  1   
 12   6  33  1   
 13   6  34  1   
 14   7  11  ar  
 15   7  35  1   
 16   8  12  ar  
 17   8  36  1   
 18   9  13  1   
 19   9  37  1   
 20   9  38  1   
 21  10  13  1   
 22  10  39  1   
 23  10  40  1   
 24  11  14  ar  
 25  12  14  ar  
 26  12  41  1   
 27  14  15  1   
 28  15  16  1   
 29  15  17  1   
 30  16  18  1   
 31  16  42  1   
 32  16  43  1   
 33  17  19  1   
 34  17  44  1   
 35  17  45  1   
 36  18  20  1   
 37  18  46  1   
 38  18  47  1   
 39  19  20  1   
 40  19  48  1   
 41  19  49  1   
 42  20  21  1   
 43  20  50  1   
 44  21  22  1   
 45  21  51  1   
 46  21  52  1   
 47  22  23  1   
 48  23  24  ar  
 49  23  25  ar  
 50  24  26  ar  
 51  24  53  1   
 52  25  27  ar  
 53  25  54  1   
 54  26  28  ar  
 55  26  55  1   
 56  27  28  ar  
 57  27  56  1   
 58  28  29  1   
 59  29  30  1   
 60  30  57  1   
 61  30  58  1   
 62  30  59  1   
@<TRIPOS>SUBSTRUCTURE
  1 ****  11 GROUP 4 **** **** 0

# MOE 2024.06 (io_trps.svl 2023.06)
