@<TRIPOS>MOLECULE
NONAME
46 48 1 0 0 
SMALL
USER_CHARGES


@<TRIPOS>ATOM
  1 CL       1.7710     0.6800     2.8960 Cl    1 <1>  -0.1770 
  2 C        2.2240    -0.4330     1.6290 C.ar  1 <1>   0.1770 
  3 C        2.2030    -1.7890     1.8780 C.ar  1 <1>  -0.1500 
  4 C        2.5900     0.0660     0.3940 C.ar  1 <1>  -0.1500 
  5 C        2.5500    -2.7010     0.8830 C.ar  1 <1>   0.0860 
  6 C        2.9540    -0.8210    -0.6010 C.ar  1 <1>  -0.1500 
  7 C        2.9530    -2.1890    -0.3630 C.ar  1 <1>   0.0830 
  8 C        2.4520    -4.1140     1.1710 C.2   1 <1>   0.5440 
  9 O        3.3540    -2.9680    -1.3940 O.3   1 <1>  -0.3630 
 10 O        3.2290    -4.6270     1.9550 O.2   1 <1>  -0.5700 
 11 N        1.4910    -4.8980     0.5830 N.am  1 <1>  -0.6600 
 12 C        4.3420    -3.9570    -1.1840 C.3   1 <1>   0.0400 
 13 C        0.4950    -4.4430    -0.4180 C.3   1 <1>   0.1400 
 14 C        1.2760    -6.3220     0.9110 C.3   1 <1>   0.1400 
 15 C       -0.4510    -5.6340    -0.6290 C.3   1 <1>   0.2000 
 16 C        0.3930    -6.8490    -0.2220 C.3   1 <1>  -0.0800 
 17 O       -1.5450    -5.5350     0.2390 O.3   1 <1>  -0.5600 
 18 C       -0.4250    -8.0960     0.1640 C.3   1 <1>   0.0200 
 19 C       -2.6050    -4.7610    -0.2270 C.3   1 <1>   0.0400 
 20 C        0.4340    -9.3300     0.3870 C.2   1 <1>  -0.0400 
 21 O       -0.1440   -10.4290     0.7940 O.3   1 <1>  -0.0190 
 22 C        1.7450    -9.5860     0.2510 C.2   1 <1>  -0.1500 
 23 N        0.7080   -11.4030     0.9410 N.2   1 <1>  -0.4100 
 24 C        1.8550   -10.9230     0.6210 C.2   1 <1>   0.1080 
 25 C        3.1450   -11.7110     0.6490 C.3   1 <1>  -0.0590 
 26 H        1.9110    -2.1480     2.8490 H     1 <1>   0.1500 
 27 H        2.5920     1.1280     0.2220 H     1 <1>   0.1500 
 28 H        3.2500    -0.4580    -1.5700 H     1 <1>   0.1500 
 29 H        4.8750    -4.1000    -2.1070 H     1 <1>   0.0800 
 30 H        3.8660    -4.8780    -0.8970 H     1 <1>   0.0800 
 31 H        5.0210    -3.6290    -0.4160 H     1 <1>   0.0800 
 32 H       -0.0300    -3.5700    -0.0730 H     1 <1>   0.0800 
 33 H        1.0050    -4.2190    -1.3380 H     1 <1>   0.0800 
 34 H        2.2130    -6.8460     0.9780 H     1 <1>   0.0800 
 35 H        0.7610    -6.3840     1.8550 H     1 <1>   0.0800 
 36 H       -0.8050    -5.7110    -1.6420 H     1 <1>   0.0800 
 37 H        1.0310    -7.0950    -1.0510 H     1 <1>   0.0800 
 38 H       -1.1310    -8.3120    -0.6170 H     1 <1>   0.0800 
 39 H       -0.9840    -7.9010     1.0630 H     1 <1>   0.0800 
 40 H       -3.3710    -4.7560     0.5280 H     1 <1>   0.0800 
 41 H       -2.9940    -5.1970    -1.1310 H     1 <1>   0.0800 
 42 H       -2.2700    -3.7540    -0.4050 H     1 <1>   0.0800 
 43 H        2.5510    -8.9510    -0.0640 H     1 <1>   0.1500 
 44 H        3.8440   -11.2440     1.3170 H     1 <1>   0.0800 
 45 H        3.5680   -11.7530    -0.3380 H     1 <1>   0.0800 
 46 H        2.9550   -12.7130     0.9890 H     1 <1>   0.0800 
@<TRIPOS>BOND
  1   1   2  1   
  2   2   3  ar  
  3   2   4  ar  
  4   3   5  ar  
  5   3  26  1   
  6   4   6  ar  
  7   4  27  1   
  8   5   7  ar  
  9   5   8  1   
 10   6   7  ar  
 11   6  28  1   
 12   7   9  1   
 13   8  10  2   
 14   8  11  am  
 15   9  12  1   
 16  11  13  1   
 17  11  14  1   
 18  12  29  1   
 19  12  30  1   
 20  12  31  1   
 21  13  15  1   
 22  13  32  1   
 23  13  33  1   
 24  14  16  1   
 25  14  34  1   
 26  14  35  1   
 27  15  16  1   
 28  15  17  1   
 29  15  36  1   
 30  16  18  1   
 31  16  37  1   
 32  17  19  1   
 33  18  20  1   
 34  18  38  1   
 35  18  39  1   
 36  19  40  1   
 37  19  41  1   
 38  19  42  1   
 39  20  21  1   
 40  20  22  2   
 41  21  23  1   
 42  22  24  1   
 43  22  43  1   
 44  23  24  2   
 45  24  25  1   
 46  25  44  1   
 47  25  45  1   
 48  25  46  1   
@<TRIPOS>SUBSTRUCTURE
  1 ****  11 GROUP 4 **** **** 0

# MOE 2024.06 (io_trps.svl 2023.06)
