@<TRIPOS>MOLECULE
NONAME
48 51 1 0 0 
SMALL
USER_CHARGES


@<TRIPOS>ATOM
  1 S        3.6970    -1.3200     2.4590 S.3   1 <1>  -0.0800 
  2 C        2.2510    -0.9510     1.5530 C.2   1 <1>   0.1980 
  3 C        3.3080    -3.0030     2.3380 C.2   1 <1>  -0.1100 
  4 N        1.5750    -1.9750     1.2130 N.2   1 <1>  -0.5650 
  5 C        1.9520     0.5120     1.2800 C.3   1 <1>   0.1640 
  6 C        2.1580    -3.1830     1.6480 C.2   1 <1>   0.1410 
  7 C        3.0120     1.1530     0.3930 C.ar  1 <1>  -0.1440 
  8 C        1.5700    -4.5010     1.3900 C.2   1 <1>   0.7160 
  9 C        3.8160     2.1770     0.8730 C.ar  1 <1>  -0.1500 
 10 C        3.1780     0.7150    -0.9120 C.ar  1 <1>  -0.1500 
 11 O        2.0360    -5.4700     1.9660 O.2   1 <1>  -0.5700 
 12 N        0.5190    -4.7360     0.5220 N.am  1 <1>  -0.6600 
 13 C        4.7720     2.7570     0.0570 C.ar  1 <1>  -0.1500 
 14 C        4.1340     1.2940    -1.7290 C.ar  1 <1>  -0.1500 
 15 C       -0.0450    -3.7750    -0.4590 C.3   1 <1>   0.1400 
 16 C       -0.0780    -6.0810     0.3380 C.3   1 <1>   0.1400 
 17 C        4.9310     2.3160    -1.2450 C.ar  1 <1>  -0.1500 
 18 C       -0.8820    -4.6290    -1.4100 C.3   1 <1>   0.2000 
 19 C       -1.2590    -5.8730    -0.6110 C.3   1 <1>  -0.0800 
 20 O       -2.0240    -3.9650    -1.8280 O.3   1 <1>  -0.6800 
 21 C       -1.5570    -7.0890    -1.5010 C.3   1 <1>   0.0200 
 22 C       -1.8450    -8.3210    -0.6650 C.2   1 <1>  -0.0400 
 23 O       -2.8790    -8.3430     0.1330 O.3   1 <1>  -0.0190 
 24 C       -1.2110    -9.4980    -0.5510 C.2   1 <1>  -0.1500 
 25 N       -2.9690    -9.4700     0.7770 N.2   1 <1>  -0.4100 
 26 C       -1.9780   -10.1860     0.3850 C.2   1 <1>   0.1080 
 27 C       -1.6910   -11.5860     0.8800 C.3   1 <1>  -0.0590 
 28 H        3.9720    -3.7150     2.7950 H     1 <1>   0.1500 
 29 H        0.9960     0.5860     0.7940 H     1 <1>   0.0800 
 30 H        1.8830     1.0310     2.2180 H     1 <1>   0.0800 
 31 H        3.7060     2.5300     1.8840 H     1 <1>   0.1500 
 32 H        2.5650    -0.0820    -1.2970 H     1 <1>   0.1500 
 33 H        5.3920     3.5510     0.4340 H     1 <1>   0.1500 
 34 H        4.2580     0.9480    -2.7400 H     1 <1>   0.1500 
 35 H       -0.6590    -3.0610     0.0620 H     1 <1>   0.0800 
 36 H        0.7420    -3.2700    -0.9910 H     1 <1>   0.0800 
 37 H        0.6600    -6.7330    -0.0980 H     1 <1>   0.0800 
 38 H       -0.3980    -6.4900     1.2820 H     1 <1>   0.0800 
 39 H        5.6740     2.7670    -1.8800 H     1 <1>   0.1500 
 40 H       -0.2980    -4.8800    -2.2780 H     1 <1>   0.0800 
 41 H       -2.1200    -5.6600     0.0000 H     1 <1>   0.0800 
 42 H       -2.5920    -3.7500    -1.0630 H     1 <1>   0.4000 
 43 H       -0.7180    -7.2880    -2.1440 H     1 <1>   0.0800 
 44 H       -2.4100    -6.8810    -2.1220 H     1 <1>   0.0800 
 45 H       -0.3250    -9.8570    -1.0420 H     1 <1>   0.1500 
 46 H       -1.6970   -12.2740     0.0550 H     1 <1>   0.0800 
 47 H       -2.4420   -11.8860     1.5880 H     1 <1>   0.0800 
 48 H       -0.7300   -11.6140     1.3600 H     1 <1>   0.0800 
@<TRIPOS>BOND
  1   1   2  1   
  2   1   3  1   
  3   2   4  2   
  4   2   5  1   
  5   3   6  2   
  6   3  28  1   
  7   4   6  1   
  8   5   7  1   
  9   5  29  1   
 10   5  30  1   
 11   6   8  1   
 12   7   9  ar  
 13   7  10  ar  
 14   8  11  2   
 15   8  12  am  
 16   9  13  ar  
 17   9  31  1   
 18  10  14  ar  
 19  10  32  1   
 20  12  15  1   
 21  12  16  1   
 22  13  17  ar  
 23  13  33  1   
 24  14  17  ar  
 25  14  34  1   
 26  15  18  1   
 27  15  35  1   
 28  15  36  1   
 29  16  19  1   
 30  16  37  1   
 31  16  38  1   
 32  17  39  1   
 33  18  19  1   
 34  18  20  1   
 35  18  40  1   
 36  19  21  1   
 37  19  41  1   
 38  20  42  1   
 39  21  22  1   
 40  21  43  1   
 41  21  44  1   
 42  22  23  1   
 43  22  24  2   
 44  23  25  1   
 45  24  26  1   
 46  24  45  1   
 47  25  26  2   
 48  26  27  1   
 49  27  46  1   
 50  27  47  1   
 51  27  48  1   
@<TRIPOS>SUBSTRUCTURE
  1 ****  12 GROUP 4 **** **** 0

# MOE 2024.06 (io_trps.svl 2023.06)
