@<TRIPOS>MOLECULE
NONAME
49 51 1 0 0 
SMALL
USER_CHARGES


@<TRIPOS>ATOM
  1 F       -2.1830     0.0430     1.6980 F     1 <1>  -0.3400 
  2 C       -1.8480     0.1980     0.4230 C.3   1 <1>   0.8800 
  3 F       -1.9220     1.4980     0.1820 F     1 <1>  -0.3400 
  4 O       -2.8110    -0.4470    -0.3780 O.3   1 <1>  -0.3630 
  5 C       -2.8390    -1.7970    -0.5040 C.ar  1 <1>   0.0830 
  6 C       -2.0730    -2.6730     0.2610 C.ar  1 <1>  -0.1500 
  7 C       -3.6960    -2.3070    -1.4640 C.ar  1 <1>  -0.1500 
  8 C       -2.1760    -4.0390     0.0620 C.ar  1 <1>  -0.1500 
  9 C       -3.7980    -3.6720    -1.6630 C.ar  1 <1>  -0.1500 
 10 C       -3.0430    -4.5470    -0.8950 C.ar  1 <1>  -0.1440 
 11 C       -3.1820    -6.0460    -1.0930 C.3   1 <1>   0.4870 
 12 N       -4.0720    -6.5760    -0.0280 N.4   1 <1>  -0.9590 
 13 C       -5.4430    -6.0100    -0.1040 C.3   1 <1>   0.3430 
 14 C       -4.2280    -8.0540    -0.0510 C.3   1 <1>   0.3430 
 15 C       -6.3050    -6.9760     0.6950 C.3   1 <1>  -0.0800 
 16 C       -5.6390    -8.3500     0.4690 C.3   1 <1>  -0.0800 
 17 C       -7.8140    -6.8940     0.3470 C.3   1 <1>   0.2800 
 18 C       -6.4070    -9.2320    -0.5310 C.3   1 <1>  -0.1600 
 19 O       -7.9420    -6.6410    -1.0050 O.3   1 <1>  -0.6800 
 20 C       -8.4880    -8.2470     0.6350 C.3   1 <1>  -0.1600 
 21 C       -8.5570    -5.7670     1.0980 C.3   1 <1>  -0.1600 
 22 C       -7.8710    -9.4460    -0.1150 C.3   1 <1>  -0.1600 
 23 C       -8.0530    -4.3320     0.8590 C.3   1 <1>  -0.2400 
 24 H       -0.8470    -0.1530     0.2500 H     1 <1>   0.0800 
 25 H       -1.3990    -2.3170     1.0200 H     1 <1>   0.1500 
 26 H       -4.2830    -1.6260    -2.0550 H     1 <1>   0.1500 
 27 H       -1.5720    -4.6970     0.6640 H     1 <1>   0.1500 
 28 H       -4.4720    -4.0360    -2.4210 H     1 <1>   0.1500 
 29 H       -2.2100    -6.5080    -1.0320 H     1 <1>   0.0800 
 30 H       -3.6000    -6.2510    -2.0650 H     1 <1>   0.0800 
 31 H       -3.6830    -6.2900     0.8780 H     1 <1>   0.4500 
 32 H       -5.4810    -5.0080     0.2910 H     1 <1>   0.0800 
 33 H       -5.7720    -5.9960    -1.1300 H     1 <1>   0.0800 
 34 H       -4.1400    -8.4180    -1.0620 H     1 <1>   0.0800 
 35 H       -3.4800    -8.5330     0.5610 H     1 <1>   0.0800 
 36 H       -6.1930    -6.7350     1.7380 H     1 <1>   0.0800 
 37 H       -5.5730    -8.8790     1.4050 H     1 <1>   0.0800 
 38 H       -6.3970    -8.7590    -1.4990 H     1 <1>   0.0800 
 39 H       -5.9260   -10.1900    -0.6370 H     1 <1>   0.0800 
 40 H       -8.8890    -6.6600    -1.2470 H     1 <1>   0.4000 
 41 H       -8.3990    -8.4370     1.6910 H     1 <1>   0.0800 
 42 H       -9.5420    -8.1960     0.4230 H     1 <1>   0.0800 
 43 H       -9.5990    -5.8050     0.8280 H     1 <1>   0.0800 
 44 H       -8.5110    -5.9650     2.1550 H     1 <1>   0.0800 
 45 H       -7.9440   -10.3180     0.5130 H     1 <1>   0.0800 
 46 H       -8.4490    -9.6450    -1.0020 H     1 <1>   0.0800 
 47 H       -8.0050    -4.1090    -0.1930 H     1 <1>   0.0800 
 48 H       -7.0860    -4.1800     1.3020 H     1 <1>   0.0800 
 49 H       -8.7320    -3.6330     1.3150 H     1 <1>   0.0800 
@<TRIPOS>BOND
  1   1   2  1   
  2   2   3  1   
  3   2   4  1   
  4   2  24  1   
  5   4   5  1   
  6   5   6  ar  
  7   5   7  ar  
  8   6   8  ar  
  9   6  25  1   
 10   7   9  ar  
 11   7  26  1   
 12   8  10  ar  
 13   8  27  1   
 14   9  10  ar  
 15   9  28  1   
 16  10  11  1   
 17  11  12  1   
 18  11  29  1   
 19  11  30  1   
 20  12  13  1   
 21  12  14  1   
 22  12  31  1   
 23  13  15  1   
 24  13  32  1   
 25  13  33  1   
 26  14  16  1   
 27  14  34  1   
 28  14  35  1   
 29  15  16  1   
 30  15  17  1   
 31  15  36  1   
 32  16  18  1   
 33  16  37  1   
 34  17  19  1   
 35  17  20  1   
 36  17  21  1   
 37  18  22  1   
 38  18  38  1   
 39  18  39  1   
 40  19  40  1   
 41  20  22  1   
 42  20  41  1   
 43  20  42  1   
 44  21  23  1   
 45  21  43  1   
 46  21  44  1   
 47  22  45  1   
 48  22  46  1   
 49  23  47  1   
 50  23  48  1   
 51  23  49  1   
@<TRIPOS>SUBSTRUCTURE
  1 ****  13 GROUP 4 **** **** 0

# MOE 2024.06 (io_trps.svl 2023.06)
