@<TRIPOS>MOLECULE
NONAME
47 50 1 0 0 
SMALL
USER_CHARGES


@<TRIPOS>ATOM
  1 O        0.0380     0.1060     0.8110 O.3   1 <1>  -0.6800 
  2 C        0.9300    -0.2330    -0.2000 C.3   1 <1>   0.2000 
  3 C        1.7800    -1.4100     0.2630 C.3   1 <1>  -0.0800 
  4 C        1.9510     0.8970    -0.3470 C.3   1 <1>   0.1100 
  5 C        2.8100    -0.7240     1.1640 C.3   1 <1>   0.1100 
  6 C        2.4370    -2.1370    -0.9270 C.3   1 <1>  -0.0170 
  7 N        3.0640     0.6170     0.5950 N.3   1 <1>  -0.8100 
  8 C        3.3450    -3.2650    -0.4640 C.ar  1 <1>  -0.1440 
  9 C        3.1310     1.6220     1.6710 C.3   1 <1>   0.2780 
 10 C        2.8460    -4.4710    -0.0140 C.ar  1 <1>  -0.1500 
 11 C        4.7200    -3.1370    -0.4660 C.ar  1 <1>  -0.1500 
 12 C        3.8050     2.8970     1.1740 C.2   1 <1>   0.1820 
 13 C        3.7210    -5.4590     0.4070 C.ar  1 <1>   0.1600 
 14 C        5.5060    -4.1880    -0.0230 C.ar  1 <1>   0.1600 
 15 N        3.7700     4.1010     1.8340 N.pl3 1 <1>  -0.7000 
 16 C        4.5340     3.0690     0.0540 C.2   1 <1>   0.2000 
 17 N        5.0390    -5.3450     0.4160 N.ar  1 <1>  -0.6200 
 18 C        4.4720     4.9920     1.1130 C.cat 1 <1>   0.7910 
 19 N        4.9560     4.3820     0.0070 N.pl3 1 <1>  -0.6290 
 20 C        4.7370     6.3500     1.3500 C.2   1 <1>  -0.1410 
 21 C        5.7180     5.0810    -0.9020 C.2   1 <1>   0.2290 
 22 C        5.4920     7.0580     0.4540 C.2   1 <1>  -0.1500 
 23 C        5.9920     6.4060    -0.6950 C.2   1 <1>  -0.1380 
 24 C        6.8280     7.2150    -1.6730 C.3   1 <1>  -0.1020 
 25 H       -0.6310    -0.5960     0.9270 H     1 <1>   0.4000 
 26 H        0.3750    -0.4170    -1.1040 H     1 <1>   0.0800 
 27 H        1.1970    -2.1200     0.8220 H     1 <1>   0.0800 
 28 H        1.4880     1.8560    -0.1840 H     1 <1>   0.0800 
 29 H        2.3460     0.8760    -1.3480 H     1 <1>   0.0800 
 30 H        3.7260    -1.2830     1.2490 H     1 <1>   0.0800 
 31 H        2.3780    -0.6360     2.1490 H     1 <1>   0.0800 
 32 H        3.0100    -1.4430    -1.5180 H     1 <1>   0.0800 
 33 H        1.6730    -2.5480    -1.5640 H     1 <1>   0.0800 
 34 H        2.1390     1.8360     2.0320 H     1 <1>   0.0800 
 35 H        3.7130     1.2350     2.4900 H     1 <1>   0.0800 
 36 H        1.7880    -4.6520     0.0150 H     1 <1>   0.1500 
 37 H        5.1880    -2.2310    -0.8040 H     1 <1>   0.1500 
 38 H        3.3150    -6.3930     0.7550 H     1 <1>   0.1500 
 39 H        6.5760    -4.0690    -0.0300 H     1 <1>   0.1500 
 40 H        3.2950     4.3090     2.7140 H     1 <1>   0.4500 
 41 H        4.7760     2.3400    -0.7030 H     1 <1>   0.1500 
 42 H        4.3390     6.8080     2.2350 H     1 <1>   0.1500 
 43 H        6.0820     4.5500    -1.7670 H     1 <1>   0.1500 
 44 H        5.7140     8.1030     0.6070 H     1 <1>   0.1500 
 45 H        7.7020     7.6040    -1.1790 H     1 <1>   0.0800 
 46 H        6.2540     8.0410    -2.0560 H     1 <1>   0.0800 
 47 H        7.1500     6.6110    -2.5030 H     1 <1>   0.0800 
@<TRIPOS>BOND
  1   1   2  1   
  2   1  25  1   
  3   2   3  1   
  4   2   4  1   
  5   2  26  1   
  6   3   5  1   
  7   3   6  1   
  8   3  27  1   
  9   4   7  1   
 10   4  28  1   
 11   4  29  1   
 12   5   7  1   
 13   5  30  1   
 14   5  31  1   
 15   6   8  1   
 16   6  32  1   
 17   6  33  1   
 18   7   9  1   
 19   8  10  ar  
 20   8  11  ar  
 21   9  12  1   
 22   9  34  1   
 23   9  35  1   
 24  10  13  ar  
 25  10  36  1   
 26  11  14  ar  
 27  11  37  1   
 28  12  15  1   
 29  12  16  2   
 30  13  17  ar  
 31  13  38  1   
 32  14  17  ar  
 33  14  39  1   
 34  15  18  ar  
 35  15  40  1   
 36  16  19  1   
 37  16  41  1   
 38  18  19  ar  
 39  18  20  1   
 40  19  21  1   
 41  20  22  2   
 42  20  42  1   
 43  21  23  2   
 44  21  43  1   
 45  22  23  1   
 46  22  44  1   
 47  23  24  1   
 48  24  45  1   
 49  24  46  1   
 50  24  47  1   
@<TRIPOS>SUBSTRUCTURE
  1 ****   7 GROUP 4 **** **** 0

# MOE 2024.06 (io_trps.svl 2023.06)
