@<TRIPOS>MOLECULE
NONAME
47 50 1 0 0 
SMALL
USER_CHARGES


@<TRIPOS>ATOM
  1 S        0.2200     0.1220     0.1400 S.3   1 <1>  -0.0800 
  2 C       -0.7770     1.5290     0.4840 C.2   1 <1>   0.4620 
  3 C        1.6130     0.9870     0.7060 C.2   1 <1>  -0.1100 
  4 N       -0.1130     2.5170     0.9640 N.2   1 <1>  -0.5650 
  5 N       -2.1290     1.4820     0.2300 N.pl3 1 <1>  -0.8220 
  6 C        1.2520     2.2260     1.1030 C.2   1 <1>   0.1410 
  7 C       -3.0100     2.6490     0.5430 C.3   1 <1>   0.2090 
  8 C       -2.7970     0.3090    -0.4080 C.3   1 <1>   0.2090 
  9 C        2.1590     3.2280     1.6460 C.2   1 <1>   0.7160 
 10 C       -3.6990     3.1790    -0.7340 C.3   1 <1>   0.1440 
 11 C       -4.1960     0.6680    -0.9380 C.3   1 <1>  -0.1600 
 12 O        3.3520     3.0340     1.7520 O.2   1 <1>  -0.5700 
 13 N        1.6920     4.4260     2.0630 N.am  1 <1>  -0.8000 
 14 C       -4.8320     4.0820    -0.2840 C.ar  1 <1>   0.1670 
 15 C       -4.1830     2.0270    -1.6590 C.3   1 <1>  -0.1600 
 16 C       -2.7780     4.1670    -1.5010 C.3   1 <1>  -0.1600 
 17 N       -5.9650     3.6740     0.2300 N.ar  1 <1>  -0.6200 
 18 C       -4.5280     5.3990    -0.4560 C.ar  1 <1>  -0.1430 
 19 C       -3.1500     5.5860    -1.0360 C.3   1 <1>  -0.0170 
 20 C       -6.8220     4.6410     0.5660 C.ar  1 <1>   0.7200 
 21 C       -5.4710     6.3240    -0.0860 C.ar  1 <1>   0.1600 
 22 N       -6.6220     5.9560     0.4250 N.ar  1 <1>  -0.6200 
 23 N       -8.0270     4.2450     1.1120 N.pl3 1 <1>  -0.8380 
 24 C       -8.4990     2.8340     1.0470 C.3   1 <1>   0.1290 
 25 C       -8.9450     5.2050     1.7830 C.3   1 <1>   0.1290 
 26 H        2.5670     0.4920     0.6930 H     1 <1>   0.1500 
 27 H       -2.4550     3.4390     1.0160 H     1 <1>   0.0800 
 28 H       -3.7610     2.3250     1.2440 H     1 <1>   0.0800 
 29 H       -2.8710    -0.4940     0.3060 H     1 <1>   0.0800 
 30 H       -2.1940    -0.0270    -1.2340 H     1 <1>   0.0800 
 31 H       -4.8930     0.7000    -0.1180 H     1 <1>   0.0800 
 32 H       -4.5270    -0.1010    -1.6110 H     1 <1>   0.0800 
 33 H        2.3210     5.1120     2.4750 H     1 <1>   0.3700 
 34 H        0.6910     4.6230     2.0330 H     1 <1>   0.3700 
 35 H       -3.5210     1.9340    -2.5020 H     1 <1>   0.0800 
 36 H       -5.1640     2.2490    -2.0420 H     1 <1>   0.0800 
 37 H       -2.9800     4.1080    -2.5560 H     1 <1>   0.0800 
 38 H       -1.7360     3.9510    -1.3430 H     1 <1>   0.0800 
 39 H       -3.1520     6.2840    -1.8560 H     1 <1>   0.0800 
 40 H       -2.4750     5.9230    -0.2680 H     1 <1>   0.0800 
 41 H       -5.2800     7.3760    -0.2070 H     1 <1>   0.1500 
 42 H       -8.1050     2.3440     0.1730 H     1 <1>   0.0800 
 43 H       -9.5730     2.8050     0.9930 H     1 <1>   0.0800 
 44 H       -8.1710     2.3040     1.9230 H     1 <1>   0.0800 
 45 H       -8.3890     6.0130     2.2260 H     1 <1>   0.0800 
 46 H       -9.4970     4.7090     2.5620 H     1 <1>   0.0800 
 47 H       -9.6320     5.6100     1.0610 H     1 <1>   0.0800 
@<TRIPOS>BOND
  1   1   2  1   
  2   1   3  1   
  3   2   4  2   
  4   2   5  1   
  5   3   6  2   
  6   3  26  1   
  7   4   6  1   
  8   5   7  1   
  9   5   8  1   
 10   6   9  1   
 11   7  10  1   
 12   7  27  1   
 13   7  28  1   
 14   8  11  1   
 15   8  29  1   
 16   8  30  1   
 17   9  12  2   
 18   9  13  am  
 19  10  14  1   
 20  10  15  1   
 21  10  16  1   
 22  11  15  1   
 23  11  31  1   
 24  11  32  1   
 25  13  33  1   
 26  13  34  1   
 27  14  17  ar  
 28  14  18  ar  
 29  15  35  1   
 30  15  36  1   
 31  16  19  1   
 32  16  37  1   
 33  16  38  1   
 34  17  20  ar  
 35  18  19  1   
 36  18  21  ar  
 37  19  39  1   
 38  19  40  1   
 39  20  22  ar  
 40  20  23  1   
 41  21  22  ar  
 42  21  41  1   
 43  23  24  1   
 44  23  25  1   
 45  24  42  1   
 46  24  43  1   
 47  24  44  1   
 48  25  45  1   
 49  25  46  1   
 50  25  47  1   
@<TRIPOS>SUBSTRUCTURE
  1 ****   7 GROUP 4 **** **** 0

# MOE 2024.06 (io_trps.svl 2023.06)
