@<TRIPOS>MOLECULE
NONAME
44 46 1 0 0 
SMALL
USER_CHARGES


@<TRIPOS>ATOM
  1 F       -0.7300    -0.9850    -1.0830 F     1 <1>  -0.1900 
  2 C       -1.7680    -1.2820    -0.3510 C.ar  1 <1>   0.1900 
  3 C       -2.5680    -0.2720     0.1580 C.ar  1 <1>  -0.1440 
  4 C       -2.0150    -2.6230    -0.1230 C.ar  1 <1>  -0.1500 
  5 C       -3.6620    -0.6560     0.9300 C.ar  1 <1>  -0.1500 
  6 C       -2.2300     1.1930    -0.1360 C.3   1 <1>   1.1640 
  7 C       -3.1120    -2.9890     0.6430 C.ar  1 <1>  -0.1440 
  8 C       -3.9280    -1.9960     1.1690 C.ar  1 <1>  -0.1500 
  9 F       -3.0930     2.0340     0.4220 F     1 <1>  -0.3400 
 10 F       -1.0330     1.5420     0.3190 F     1 <1>  -0.3400 
 11 F       -2.2430     1.4650    -1.4340 F     1 <1>  -0.3400 
 12 C       -3.4140    -4.4540     0.9070 C.3   1 <1>   0.4870 
 13 N       -3.9610    -5.0650    -0.3360 N.4   1 <1>  -0.9590 
 14 C       -5.3390    -4.5430    -0.6200 C.3   1 <1>   0.3430 
 15 C       -4.0880    -6.5490    -0.1810 C.3   1 <1>   0.3430 
 16 C       -6.3020    -5.5940    -0.0610 C.3   1 <1>   0.2000 
 17 C       -5.5690    -6.8960    -0.3760 C.3   1 <1>  -0.0800 
 18 O       -6.3860    -5.4200     1.3190 O.3   1 <1>  -0.6800 
 19 C       -6.0040    -8.1410     0.4210 C.3   1 <1>  -0.0160 
 20 C       -5.0890    -9.3100     0.0990 C.ar  1 <1>  -0.1430 
 21 C       -4.1540    -9.7760     1.0040 C.ar  1 <1>  -0.1500 
 22 C       -5.1390    -9.9630    -1.1170 C.ar  1 <1>  -0.1500 
 23 C       -3.3250   -10.8280     0.6500 C.ar  1 <1>   0.1600 
 24 C       -4.2630   -11.0050    -1.3710 C.ar  1 <1>   0.1600 
 25 N       -3.3510   -11.4420    -0.5200 N.ar  1 <1>  -0.6200 
 26 H       -1.3430    -3.3520    -0.5420 H     1 <1>   0.1500 
 27 H       -4.3180     0.0880     1.3570 H     1 <1>   0.1500 
 28 H       -4.7810    -2.2540     1.7770 H     1 <1>   0.1500 
 29 H       -4.1260    -4.5470     1.7120 H     1 <1>   0.0800 
 30 H       -2.5050    -4.9550     1.1970 H     1 <1>   0.0800 
 31 H       -3.3320    -4.8210    -1.1100 H     1 <1>   0.4500 
 32 H       -5.5160    -3.5760    -0.1780 H     1 <1>   0.0800 
 33 H       -5.4810    -4.4710    -1.6860 H     1 <1>   0.0800 
 34 H       -3.4790    -7.0760    -0.8990 H     1 <1>   0.0800 
 35 H       -3.7850    -6.8430     0.8100 H     1 <1>   0.0800 
 36 H       -7.2890    -5.5250    -0.4890 H     1 <1>   0.0800 
 37 H       -5.7080    -7.1080    -1.4220 H     1 <1>   0.0800 
 38 H       -7.1680    -5.8870     1.6870 H     1 <1>   0.4000 
 39 H       -7.0180    -8.4020     0.1700 H     1 <1>   0.0800 
 40 H       -5.9690    -7.9500     1.4790 H     1 <1>   0.0800 
 41 H       -4.0590    -9.3430     1.9830 H     1 <1>   0.1500 
 42 H       -5.8500    -9.6810    -1.8710 H     1 <1>   0.1500 
 43 H       -2.6020   -11.1830     1.3660 H     1 <1>   0.1500 
 44 H       -4.3140   -11.5060    -2.3240 H     1 <1>   0.1500 
@<TRIPOS>BOND
  1   1   2  1   
  2   2   3  ar  
  3   2   4  ar  
  4   3   5  ar  
  5   3   6  1   
  6   4   7  ar  
  7   4  26  1   
  8   5   8  ar  
  9   5  27  1   
 10   6   9  1   
 11   6  10  1   
 12   6  11  1   
 13   7   8  ar  
 14   7  12  1   
 15   8  28  1   
 16  12  13  1   
 17  12  29  1   
 18  12  30  1   
 19  13  14  1   
 20  13  15  1   
 21  13  31  1   
 22  14  16  1   
 23  14  32  1   
 24  14  33  1   
 25  15  17  1   
 26  15  34  1   
 27  15  35  1   
 28  16  17  1   
 29  16  18  1   
 30  16  36  1   
 31  17  19  1   
 32  17  37  1   
 33  18  38  1   
 34  19  20  1   
 35  19  39  1   
 36  19  40  1   
 37  20  21  ar  
 38  20  22  ar  
 39  21  23  ar  
 40  21  41  1   
 41  22  24  ar  
 42  22  42  1   
 43  23  25  ar  
 44  23  43  1   
 45  24  25  ar  
 46  24  44  1   
@<TRIPOS>SUBSTRUCTURE
  1 ****  13 GROUP 4 **** **** 0

# MOE 2024.06 (io_trps.svl 2023.06)
