@<TRIPOS>MOLECULE
NONAME
23 23 1 0 0 
SMALL
USER_CHARGES


@<TRIPOS>ATOM
  1 O       -0.4420     0.6660     1.1900 O.2   1 <1>  -0.5700 
  2 C       -1.4000     1.0670     0.5820 C.2   1 <1>   0.4230 
  3 C       -1.6430     2.4700     0.3370 C.ar  1 <1>   0.0860 
  4 C       -2.3670     0.0180     0.0690 C.3   1 <1>  -0.1790 
  5 C       -0.7450     3.4260     0.8140 C.ar  1 <1>   0.1600 
  6 C       -2.7450     2.9540    -0.3650 C.ar  1 <1>  -0.1500 
  7 N       -0.8420     4.7350     0.6640 N.ar  1 <1>  -0.6200 
  8 C       -2.8770     4.3140    -0.5400 C.ar  1 <1>  -0.1430 
  9 C       -1.9050     5.1620    -0.0100 C.ar  1 <1>   0.3930 
 10 C       -4.0700     4.8760    -1.3030 C.3   1 <1>  -0.0960 
 11 O       -2.0540     6.4890    -0.1930 O.3   1 <1>  -0.3630 
 12 C       -1.1140     7.4160     0.3120 C.3   1 <1>   0.0400 
 13 H       -3.3390     0.1710     0.4980 H     1 <1>   0.0800 
 14 H       -2.0220    -0.9620     0.3460 H     1 <1>   0.0800 
 15 H       -2.4300     0.0660    -1.0020 H     1 <1>   0.0800 
 16 H        0.1150     3.0720     1.3600 H     1 <1>   0.1500 
 17 H       -3.4840     2.2850    -0.7670 H     1 <1>   0.1500 
 18 H       -4.7230     4.0930    -1.6440 H     1 <1>   0.0800 
 19 H       -3.7280     5.4330    -2.1570 H     1 <1>   0.0800 
 20 H       -4.6310     5.5370    -0.6660 H     1 <1>   0.0800 
 21 H       -1.4370     8.4060     0.0470 H     1 <1>   0.0800 
 22 H       -0.1530     7.2100    -0.1260 H     1 <1>   0.0800 
 23 H       -1.0670     7.3150     1.3820 H     1 <1>   0.0800 
@<TRIPOS>BOND
  1   1   2  2   
  2   2   3  1   
  3   2   4  1   
  4   3   5  ar  
  5   3   6  ar  
  6   4  13  1   
  7   4  14  1   
  8   4  15  1   
  9   5   7  ar  
 10   5  16  1   
 11   6   8  ar  
 12   6  17  1   
 13   7   9  ar  
 14   8   9  ar  
 15   8  10  1   
 16   9  11  1   
 17  10  18  1   
 18  10  19  1   
 19  10  20  1   
 20  11  12  1   
 21  12  21  1   
 22  12  22  1   
 23  12  23  1   
@<TRIPOS>SUBSTRUCTURE
  1 ****   3 GROUP 4 **** **** 0

# MOE 2024.06 (io_trps.svl 2023.06)
