@<TRIPOS>MOLECULE
NONAME
53 55 1 0 0 
SMALL
USER_CHARGES


@<TRIPOS>ATOM
  1 O       -0.2260    -0.5210     0.2370 O.3   1 <1>  -0.3630 
  2 C        1.0150    -1.0730     0.2300 C.ar  1 <1>   0.0830 
  3 C       -1.3380    -1.2320    -0.2430 C.3   1 <1>   0.1200 
  4 C        2.0470    -0.2890     0.7220 C.ar  1 <1>  -0.1500 
  5 C        1.2930    -2.3560    -0.2360 C.ar  1 <1>  -0.1500 
  6 C       -2.5550    -0.3190    -0.0970 C.3   1 <1>  -0.1600 
  7 C        3.3450    -0.7680     0.7540 C.ar  1 <1>  -0.1500 
  8 C        2.5910    -2.8340    -0.2040 C.ar  1 <1>  -0.1500 
  9 C       -3.8140    -1.0080    -0.6190 C.3   1 <1>   0.3430 
 10 C        3.6230    -2.0500     0.2870 C.ar  1 <1>   0.0830 
 11 N       -5.0130    -0.1530    -0.3910 N.4   1 <1>  -0.9590 
 12 O        4.8640    -2.6010     0.2800 O.3   1 <1>  -0.3620 
 13 C       -6.2720    -0.9570    -0.5550 C.3   1 <1>   0.3430 
 14 C       -5.0230     1.0570    -1.2710 C.3   1 <1>   0.3430 
 15 C        5.9800    -1.8840     0.7590 C.3   1 <1>   0.0400 
 16 C       -7.5360    -0.1370    -0.2150 C.3   1 <1>   0.0000 
 17 C       -6.2400     1.9260    -0.9530 C.3   1 <1>  -0.1600 
 18 C       -7.5870     0.0980     1.3110 C.3   1 <1>   0.2000 
 19 C       -7.5500     1.1380    -1.0910 C.3   1 <1>  -0.1600 
 20 C       -8.7860    -0.9960    -0.4720 C.3   1 <1>  -0.1600 
 21 O       -8.4720     1.1110     1.6150 O.3   1 <1>  -0.6800 
 22 C       -8.1480    -1.1960     1.8970 C.3   1 <1>  -0.1600 
 23 C       -9.0090    -1.8300     0.7960 C.3   1 <1>  -0.1600 
 24 H       -1.1570    -1.4810    -1.2750 H     1 <1>   0.0800 
 25 H       -1.4460    -2.1270     0.3480 H     1 <1>   0.0800 
 26 H        1.8280     0.7010     1.0810 H     1 <1>   0.1500 
 27 H        0.5260    -2.9960    -0.6240 H     1 <1>   0.1500 
 28 H       -2.6770    -0.0790     0.9440 H     1 <1>   0.0800 
 29 H       -2.3620     0.5810    -0.6540 H     1 <1>   0.0800 
 30 H        4.1190    -0.1330     1.1410 H     1 <1>   0.1500 
 31 H        2.8170    -3.8220    -0.5620 H     1 <1>   0.1500 
 32 H       -3.9360    -1.9440    -0.0960 H     1 <1>   0.0800 
 33 H       -3.7070    -1.2230    -1.6710 H     1 <1>   0.0800 
 34 H       -4.9840     0.1870     0.5790 H     1 <1>   0.4500 
 35 H       -6.3470    -1.2950    -1.5750 H     1 <1>   0.0800 
 36 H       -6.2380    -1.8270     0.0800 H     1 <1>   0.0800 
 37 H       -4.1270     1.6380    -1.1190 H     1 <1>   0.0800 
 38 H       -5.0590     0.7560    -2.3050 H     1 <1>   0.0800 
 39 H        6.8480    -2.5110     0.6570 H     1 <1>   0.0800 
 40 H        5.8220    -1.6440     1.7960 H     1 <1>   0.0800 
 41 H        6.1010    -0.9930     0.1700 H     1 <1>   0.0800 
 42 H       -6.1530     2.3260     0.0430 H     1 <1>   0.0800 
 43 H       -6.2590     2.7620    -1.6300 H     1 <1>   0.0800 
 44 H       -6.6380     0.3650     1.7410 H     1 <1>   0.0800 
 45 H       -7.6810     0.8580    -2.1230 H     1 <1>   0.0800 
 46 H       -8.3790     1.7740    -0.8310 H     1 <1>   0.0800 
 47 H       -9.6410    -0.3540    -0.6100 H     1 <1>   0.0800 
 48 H       -8.6940    -1.6160    -1.3480 H     1 <1>   0.0800 
 49 H       -9.3860     0.8280     1.4140 H     1 <1>   0.4000 
 50 H       -7.3350    -1.8600     2.1330 H     1 <1>   0.0800 
 51 H       -8.7050    -1.0220     2.8030 H     1 <1>   0.0800 
 52 H       -8.7140    -2.8540     0.6380 H     1 <1>   0.0800 
 53 H      -10.0510    -1.8170     1.0720 H     1 <1>   0.0800 
@<TRIPOS>BOND
  1   1   2  1   
  2   1   3  1   
  3   2   4  ar  
  4   2   5  ar  
  5   3   6  1   
  6   3  24  1   
  7   3  25  1   
  8   4   7  ar  
  9   4  26  1   
 10   5   8  ar  
 11   5  27  1   
 12   6   9  1   
 13   6  28  1   
 14   6  29  1   
 15   7  10  ar  
 16   7  30  1   
 17   8  10  ar  
 18   8  31  1   
 19   9  11  1   
 20   9  32  1   
 21   9  33  1   
 22  10  12  1   
 23  11  13  1   
 24  11  14  1   
 25  11  34  1   
 26  12  15  1   
 27  13  16  1   
 28  13  35  1   
 29  13  36  1   
 30  14  17  1   
 31  14  37  1   
 32  14  38  1   
 33  15  39  1   
 34  15  40  1   
 35  15  41  1   
 36  16  18  1   
 37  16  19  1   
 38  16  20  1   
 39  17  19  1   
 40  17  42  1   
 41  17  43  1   
 42  18  21  1   
 43  18  22  1   
 44  18  44  1   
 45  19  45  1   
 46  19  46  1   
 47  20  23  1   
 48  20  47  1   
 49  20  48  1   
 50  21  49  1   
 51  22  23  1   
 52  22  50  1   
 53  22  51  1   
 54  23  52  1   
 55  23  53  1   
@<TRIPOS>SUBSTRUCTURE
  1 ****   6 GROUP 4 **** **** 0

# MOE 2024.06 (io_trps.svl 2023.06)
