@<TRIPOS>MOLECULE
NONAME
46 48 1 0 0 
SMALL
USER_CHARGES


@<TRIPOS>ATOM
  1 CL      -0.2610     0.2800    -0.5060 Cl    1 <1>  -0.1770 
  2 C        0.3100    -1.1880    -1.2660 C.ar  1 <1>   0.1770 
  3 C        0.8810    -2.2110    -0.5170 C.ar  1 <1>  -0.1440 
  4 C        0.1630    -1.2910    -2.6380 C.ar  1 <1>  -0.1500 
  5 C        1.3130    -3.3490    -1.1850 C.ar  1 <1>  -0.1500 
  6 C        1.0550    -2.1350     1.0010 C.3   1 <1>   0.0450 
  7 C        0.5930    -2.4340    -3.2870 C.ar  1 <1>  -0.1500 
  8 C        1.1680    -3.4610    -2.5580 C.ar  1 <1>  -0.1500 
  9 C        0.4760    -3.3450     1.7300 C.2   1 <1>   0.5690 
 10 O        1.2730    -4.0710     2.2780 O.2   1 <1>  -0.5700 
 11 N       -0.8780    -3.6060     1.7710 N.am  1 <1>  -0.6600 
 12 C       -1.8990    -2.7300     1.1200 C.3   1 <1>   0.2200 
 13 C       -1.3650    -4.8320     2.4780 C.3   1 <1>   0.0600 
 14 C       -2.4670    -3.3390    -0.1570 C.3   1 <1>  -0.1600 
 15 C       -3.1310    -2.4350     1.9740 C.3   1 <1>  -0.1600 
 16 C       -3.7520    -2.5440    -0.4150 C.3   1 <1>  -0.0800 
 17 C       -4.1880    -1.9800     0.9580 C.3   1 <1>  -0.0800 
 18 C       -4.8240    -3.3670    -1.1550 C.3   1 <1>   0.1400 
 19 C       -5.6220    -2.3690     1.3600 C.3   1 <1>  -0.0990 
 20 N       -6.1490    -2.7120    -1.0260 N.am  1 <1>  -0.6600 
 21 C       -6.5630    -2.2210     0.1820 C.2   1 <1>   0.5690 
 22 C       -6.9970    -2.6600    -2.2460 C.3   1 <1>   0.0600 
 23 O       -7.6330    -1.6880     0.3530 O.2   1 <1>  -0.5700 
 24 H       -0.2830    -0.4830    -3.1890 H     1 <1>   0.1500 
 25 H        1.7650    -4.1600    -0.6360 H     1 <1>   0.1500 
 26 H        0.6190    -1.2500     1.4200 H     1 <1>   0.0800 
 27 H        2.1070    -2.0870     1.2130 H     1 <1>   0.0800 
 28 H        0.4860    -2.5250    -4.3550 H     1 <1>   0.1500 
 29 H        1.5080    -4.3520    -3.0600 H     1 <1>   0.1500 
 30 H       -1.4680    -1.7800     0.8680 H     1 <1>   0.0800 
 31 H       -2.1930    -5.2730     1.9530 H     1 <1>   0.0800 
 32 H       -1.6750    -4.5730     3.4750 H     1 <1>   0.0800 
 33 H       -0.5840    -5.5700     2.5450 H     1 <1>   0.0800 
 34 H       -1.7780    -3.2540    -0.9780 H     1 <1>   0.0800 
 35 H       -2.7010    -4.3760     0.0030 H     1 <1>   0.0800 
 36 H       -3.4750    -3.3220     2.4710 H     1 <1>   0.0800 
 37 H       -2.9280    -1.6710     2.7030 H     1 <1>   0.0800 
 38 H       -3.4990    -1.7050    -1.0430 H     1 <1>   0.0800 
 39 H       -4.1480    -0.9050     0.8860 H     1 <1>   0.0800 
 40 H       -4.8940    -4.3540    -0.7320 H     1 <1>   0.0800 
 41 H       -4.5540    -3.4620    -2.1930 H     1 <1>   0.0800 
 42 H       -5.9590    -1.7490     2.1710 H     1 <1>   0.0800 
 43 H       -5.6620    -3.3930     1.6790 H     1 <1>   0.0800 
 44 H       -6.5010    -2.0870    -3.0090 H     1 <1>   0.0800 
 45 H       -7.9440    -2.1960    -2.0290 H     1 <1>   0.0800 
 46 H       -7.1770    -3.6570    -2.6070 H     1 <1>   0.0800 
@<TRIPOS>BOND
  1   1   2  1   
  2   2   3  ar  
  3   2   4  ar  
  4   3   5  ar  
  5   3   6  1   
  6   4   7  ar  
  7   4  24  1   
  8   5   8  ar  
  9   5  25  1   
 10   6   9  1   
 11   6  26  1   
 12   6  27  1   
 13   7   8  ar  
 14   7  28  1   
 15   8  29  1   
 16   9  10  2   
 17   9  11  am  
 18  11  12  1   
 19  11  13  1   
 20  12  14  1   
 21  12  15  1   
 22  12  30  1   
 23  13  31  1   
 24  13  32  1   
 25  13  33  1   
 26  14  16  1   
 27  14  34  1   
 28  14  35  1   
 29  15  17  1   
 30  15  36  1   
 31  15  37  1   
 32  16  17  1   
 33  16  18  1   
 34  16  38  1   
 35  17  19  1   
 36  17  39  1   
 37  18  20  1   
 38  18  40  1   
 39  18  41  1   
 40  19  21  1   
 41  19  42  1   
 42  19  43  1   
 43  20  21  am  
 44  20  22  1   
 45  21  23  2   
 46  22  44  1   
 47  22  45  1   
 48  22  46  1   
@<TRIPOS>SUBSTRUCTURE
  1 ****  14 GROUP 4 **** **** 0

# MOE 2024.06 (io_trps.svl 2023.06)
