@<TRIPOS>MOLECULE
NONAME
49 51 1 0 0 
SMALL
USER_CHARGES


@<TRIPOS>ATOM
  1 N        1.2130    -0.0400    -0.2140 N.ar  1 <1>  -0.3100 
  2 N        0.0760    -0.5490    -0.6620 N.ar  1 <1>  -0.3100 
  3 C        2.0660    -0.7920     0.4470 C.ar  1 <1>   0.4100 
  4 C       -0.2210    -1.8000    -0.4400 C.ar  1 <1>   0.1660 
  5 N        3.2440    -0.1950     0.8560 N.pl3 1 <1>  -0.8690 
  6 C        1.8320    -2.1630     0.7190 C.ar  1 <1>   0.0000 
  7 C        0.6190    -2.6920     0.2550 C.ar  1 <1>   0.0000 
  8 C       -1.5570    -2.2780    -0.9840 C.3   1 <1>  -0.0970 
  9 C        3.3780     1.2940     1.0510 C.3   1 <1>   0.2090 
 10 C        2.7240    -3.0170     1.4090 C.ar  1 <1>  -0.1500 
 11 C        0.3320    -4.0550     0.5070 C.ar  1 <1>  -0.1500 
 12 C        3.8360     2.1900    -0.1710 C.3   1 <1>   0.5030 
 13 C        2.4230    -4.3310     1.6360 C.ar  1 <1>  -0.1500 
 14 C        1.2110    -4.8560     1.1800 C.ar  1 <1>  -0.1500 
 15 N        4.5230     1.4490    -1.3070 N.4   1 <1>  -0.9590 
 16 C        2.6420     2.9800    -0.7730 C.3   1 <1>  -0.1600 
 17 C        4.8670     3.2310     0.3380 C.3   1 <1>  -0.1600 
 18 C        3.6140     0.5700    -2.1200 C.3   1 <1>   0.2630 
 19 C        5.7040     0.6330    -0.8830 C.3   1 <1>   0.2630 
 20 C        2.0470     4.0620     0.1480 C.3   1 <1>  -0.1600 
 21 C        4.2810     4.2840     1.2960 C.3   1 <1>  -0.1600 
 22 C        3.1210     5.0330     0.6390 C.3   1 <1>  -0.1600 
 23 H        3.7460    -0.7340     1.5670 H     1 <1>   0.4000 
 24 H       -2.0720    -1.4760    -1.4840 H     1 <1>   0.0800 
 25 H       -2.1770    -2.6260    -0.1790 H     1 <1>   0.0800 
 26 H       -1.4050    -3.0740    -1.6890 H     1 <1>   0.0800 
 27 H        4.0780     1.4380     1.8540 H     1 <1>   0.0800 
 28 H        2.4420     1.6670     1.4270 H     1 <1>   0.0800 
 29 H        3.6610    -2.6330     1.7640 H     1 <1>   0.1500 
 30 H       -0.5960    -4.4730     0.1620 H     1 <1>   0.1500 
 31 H        3.1050    -4.9770     2.1630 H     1 <1>   0.1500 
 32 H        0.9860    -5.8920     1.3680 H     1 <1>   0.1500 
 33 H        4.8570     2.1870    -1.9380 H     1 <1>   0.4500 
 34 H        1.8410     2.3150    -1.0350 H     1 <1>   0.0800 
 35 H        2.9640     3.4710    -1.6740 H     1 <1>   0.0800 
 36 H        5.2830     3.7590    -0.5020 H     1 <1>   0.0800 
 37 H        5.6750     2.7410     0.8510 H     1 <1>   0.0800 
 38 H        3.3170    -0.2930    -1.5520 H     1 <1>   0.0800 
 39 H        4.1220     0.2270    -3.0050 H     1 <1>   0.0800 
 40 H        2.7270     1.1000    -2.4230 H     1 <1>   0.0800 
 41 H        5.3930    -0.1550    -0.2170 H     1 <1>   0.0800 
 42 H        6.4330     1.2460    -0.3810 H     1 <1>   0.0800 
 43 H        6.1720     0.1840    -1.7430 H     1 <1>   0.0800 
 44 H        1.5560     3.6100     0.9930 H     1 <1>   0.0800 
 45 H        1.2940     4.6120    -0.3920 H     1 <1>   0.0800 
 46 H        5.0480     4.9910     1.5660 H     1 <1>   0.0800 
 47 H        3.9380     3.8210     2.2060 H     1 <1>   0.0800 
 48 H        2.6880     5.7230     1.3450 H     1 <1>   0.0800 
 49 H        3.4900     5.6110    -0.1930 H     1 <1>   0.0800 
@<TRIPOS>BOND
  1   1   2  ar  
  2   1   3  ar  
  3   2   4  ar  
  4   3   5  1   
  5   3   6  ar  
  6   4   7  ar  
  7   4   8  1   
  8   5   9  1   
  9   5  23  1   
 10   6   7  ar  
 11   6  10  ar  
 12   7  11  ar  
 13   8  24  1   
 14   8  25  1   
 15   8  26  1   
 16   9  12  1   
 17   9  27  1   
 18   9  28  1   
 19  10  13  ar  
 20  10  29  1   
 21  11  14  ar  
 22  11  30  1   
 23  12  15  1   
 24  12  16  1   
 25  12  17  1   
 26  13  14  ar  
 27  13  31  1   
 28  14  32  1   
 29  15  18  1   
 30  15  19  1   
 31  15  33  1   
 32  16  20  1   
 33  16  34  1   
 34  16  35  1   
 35  17  21  1   
 36  17  36  1   
 37  17  37  1   
 38  18  38  1   
 39  18  39  1   
 40  18  40  1   
 41  19  41  1   
 42  19  42  1   
 43  19  43  1   
 44  20  22  1   
 45  20  44  1   
 46  20  45  1   
 47  21  22  1   
 48  21  46  1   
 49  21  47  1   
 50  22  48  1   
 51  22  49  1   
@<TRIPOS>SUBSTRUCTURE
  1 ****   3 GROUP 4 **** **** 0

# MOE 2024.06 (io_trps.svl 2023.06)
