@<TRIPOS>MOLECULE
NONAME
51 54 1 0 0 
SMALL
USER_CHARGES


@<TRIPOS>ATOM
  1 S       -1.4490     2.8400    -2.0140 S.3   1 <1>  -0.0800 
  2 C       -0.4480     3.6960    -0.8600 C.2   1 <1>  -0.1400 
  3 C       -0.0180     2.1890    -2.7990 C.2   1 <1>  -0.1100 
  4 C        0.8560     3.4780    -1.0690 C.2   1 <1>  -0.1810 
  5 C       -1.0230     4.5690     0.2220 C.3   1 <1>   0.0200 
  6 C        1.1060     2.6160    -2.1890 C.2   1 <1>  -0.1500 
  7 C        1.9160     4.1150    -0.1660 C.3   1 <1>   0.4610 
  8 C        0.1110     5.4750     0.7270 C.3   1 <1>   0.1200 
  9 O        1.2930     4.7400     0.9420 O.3   1 <1>  -0.5600 
 10 C        2.8370     3.0380     0.4180 C.3   1 <1>  -0.1600 
 11 C        2.7400     5.1590    -0.9330 C.3   1 <1>  -0.1600 
 12 C        3.9520     3.6480     1.2700 C.3   1 <1>   0.1400 
 13 C        3.8530     5.7500    -0.0660 C.3   1 <1>   0.1400 
 14 N        4.7020     4.6450     0.4570 N.am  1 <1>  -0.6600 
 15 C        6.0690     4.5700     0.3070 C.2   1 <1>   0.5690 
 16 O        6.7060     3.6560     0.7810 O.2   1 <1>  -0.5700 
 17 C        6.8610     5.6240    -0.4880 C.3   1 <1>   0.1710 
 18 N        6.8110     7.0240     0.0330 N.3   1 <1>  -0.8100 
 19 C        7.5880     7.9240    -0.8360 C.3   1 <1>   0.2540 
 20 C        7.2860     7.0780     1.4270 C.3   1 <1>   0.0300 
 21 C        7.3720     9.3840    -0.4590 C.ar  1 <1>  -0.1430 
 22 C        8.4260    10.2600    -0.2900 C.ar  1 <1>  -0.1500 
 23 C        6.1100     9.9110    -0.2710 C.ar  1 <1>  -0.1500 
 24 C        8.1730    11.5790     0.0470 C.ar  1 <1>   0.1600 
 25 C        5.9650    11.2460     0.0650 C.ar  1 <1>   0.1600 
 26 N        6.9680    12.0950     0.2280 N.ar  1 <1>  -0.6200 
 27 H       -0.1720     1.5450    -3.6470 H     1 <1>   0.1500 
 28 H       -1.3990     3.9590     1.0240 H     1 <1>   0.0800 
 29 H       -1.8260     5.1700    -0.1650 H     1 <1>   0.0800 
 30 H        2.1070     2.3560    -2.4840 H     1 <1>   0.1500 
 31 H       -0.1660     5.9310     1.6610 H     1 <1>   0.0800 
 32 H        0.3170     6.2510     0.0120 H     1 <1>   0.0800 
 33 H        3.2890     2.4720    -0.3740 H     1 <1>   0.0800 
 34 H        2.2530     2.3590     1.0120 H     1 <1>   0.0800 
 35 H        2.1010     5.9390    -1.2990 H     1 <1>   0.0800 
 36 H        3.1900     4.6920    -1.7900 H     1 <1>   0.0800 
 37 H        4.6050     2.8680     1.6200 H     1 <1>   0.0800 
 38 H        3.5310     4.1400     2.1300 H     1 <1>   0.0800 
 39 H        3.4280     6.2870     0.7660 H     1 <1>   0.0800 
 40 H        4.4260     6.4450    -0.6500 H     1 <1>   0.0800 
 41 H        6.4840     5.6120    -1.4950 H     1 <1>   0.0800 
 42 H        7.8860     5.3010    -0.5240 H     1 <1>   0.0800 
 43 H        7.2730     7.7920    -1.8570 H     1 <1>   0.0800 
 44 H        8.6340     7.6760    -0.7730 H     1 <1>   0.0800 
 45 H        6.6670     6.4590     2.0550 H     1 <1>   0.0800 
 46 H        7.2300     8.0850     1.8030 H     1 <1>   0.0800 
 47 H        8.3040     6.7340     1.4950 H     1 <1>   0.0800 
 48 H        9.4410     9.9310    -0.4150 H     1 <1>   0.1500 
 49 H        5.2430     9.2840    -0.3790 H     1 <1>   0.1500 
 50 H        9.0070    12.2470     0.1750 H     1 <1>   0.1500 
 51 H        4.9720    11.6350     0.2100 H     1 <1>   0.1500 
@<TRIPOS>BOND
  1   1   2  1   
  2   1   3  1   
  3   2   4  2   
  4   2   5  1   
  5   3   6  2   
  6   3  27  1   
  7   4   6  1   
  8   4   7  1   
  9   5   8  1   
 10   5  28  1   
 11   5  29  1   
 12   6  30  1   
 13   7   9  1   
 14   7  10  1   
 15   7  11  1   
 16   8   9  1   
 17   8  31  1   
 18   8  32  1   
 19  10  12  1   
 20  10  33  1   
 21  10  34  1   
 22  11  13  1   
 23  11  35  1   
 24  11  36  1   
 25  12  14  1   
 26  12  37  1   
 27  12  38  1   
 28  13  14  1   
 29  13  39  1   
 30  13  40  1   
 31  14  15  am  
 32  15  16  2   
 33  15  17  1   
 34  17  18  1   
 35  17  41  1   
 36  17  42  1   
 37  18  19  1   
 38  18  20  1   
 39  19  21  1   
 40  19  43  1   
 41  19  44  1   
 42  20  45  1   
 43  20  46  1   
 44  20  47  1   
 45  21  22  ar  
 46  21  23  ar  
 47  22  24  ar  
 48  22  48  1   
 49  23  25  ar  
 50  23  49  1   
 51  24  26  ar  
 52  24  50  1   
 53  25  26  ar  
 54  25  51  1   
@<TRIPOS>SUBSTRUCTURE
  1 ****  13 GROUP 4 **** **** 0

# MOE 2024.06 (io_trps.svl 2023.06)
