@<TRIPOS>MOLECULE
NONAME
43 45 1 0 0 
SMALL
USER_CHARGES


@<TRIPOS>ATOM
  1 F        2.5140    -0.0510    -2.4500 F     1 <1>  -0.1900 
  2 C        2.7570    -0.6570    -1.3160 C.ar  1 <1>   0.1900 
  3 C        2.9190     0.0890    -0.1570 C.ar  1 <1>  -0.1440 
  4 C        2.8360    -2.0370    -1.3310 C.ar  1 <1>  -0.1500 
  5 C        3.1460    -0.6050     1.0230 C.ar  1 <1>  -0.1500 
  6 C        2.8320     1.6130    -0.1550 C.3   1 <1>   0.2540 
  7 C        3.0770    -2.7100    -0.1460 C.ar  1 <1>  -0.1500 
  8 C        3.2320    -1.9900     1.0380 C.ar  1 <1>   0.0830 
  9 N        4.1430     2.2720    -0.3140 N.3   1 <1>  -0.8100 
 10 O        3.4700    -2.5660     2.2430 O.3   1 <1>  -0.3630 
 11 C        5.0840     1.9690     0.7930 C.3   1 <1>   0.1100 
 12 C        4.7130     2.0660    -1.6600 C.3   1 <1>   0.1100 
 13 C        3.6040    -3.9640     2.3730 C.3   1 <1>   0.0400 
 14 C        6.3570     2.8550     0.8670 C.3   1 <1>   0.2200 
 15 C        5.9000     2.9910    -1.9970 C.3   1 <1>  -0.0190 
 16 N        6.1980     4.1780     0.1880 N.am  1 <1>  -0.6600 
 17 C        7.6160     2.1230     0.3560 C.3   1 <1>   0.1200 
 18 C        5.9580     4.2570    -1.1580 C.2   1 <1>   0.5690 
 19 C        7.2570     2.2700    -1.9830 C.3   1 <1>   0.1200 
 20 C        6.1540     5.3740     1.0720 C.3   1 <1>   0.0600 
 21 O        7.4180     1.4600    -0.8590 O.3   1 <1>  -0.5600 
 22 O        5.8330     5.3180    -1.7280 O.2   1 <1>  -0.5700 
 23 H        2.7090    -2.5700    -2.2560 H     1 <1>   0.1500 
 24 H        3.2630    -0.0760     1.9510 H     1 <1>   0.1500 
 25 H        2.3940     1.9400     0.7720 H     1 <1>   0.0800 
 26 H        2.1750     1.9440    -0.9420 H     1 <1>   0.0800 
 27 H        3.1390    -3.7810    -0.1630 H     1 <1>   0.1500 
 28 H        4.5560     2.1010     1.7210 H     1 <1>   0.0800 
 29 H        5.3790     0.9350     0.7430 H     1 <1>   0.0800 
 30 H        5.0050     1.0370    -1.7790 H     1 <1>   0.0800 
 31 H        3.9380     2.2670    -2.3800 H     1 <1>   0.0800 
 32 H        3.7970    -4.1860     3.4070 H     1 <1>   0.0800 
 33 H        4.4310    -4.2930     1.7690 H     1 <1>   0.0800 
 34 H        2.6880    -4.4340     2.0640 H     1 <1>   0.0800 
 35 H        6.5400     3.0450     1.9090 H     1 <1>   0.0800 
 36 H        5.7590     3.3110    -3.0120 H     1 <1>   0.0800 
 37 H        7.8890     1.3670     1.0690 H     1 <1>   0.0800 
 38 H        8.4420     2.8060     0.2570 H     1 <1>   0.0800 
 39 H        8.0710     2.9730    -2.0320 H     1 <1>   0.0800 
 40 H        7.3190     1.6210    -2.8390 H     1 <1>   0.0800 
 41 H        7.0730     5.4550     1.6240 H     1 <1>   0.0800 
 42 H        5.3290     5.2850     1.7560 H     1 <1>   0.0800 
 43 H        6.0210     6.2710     0.4910 H     1 <1>   0.0800 
@<TRIPOS>BOND
  1   1   2  1   
  2   2   3  ar  
  3   2   4  ar  
  4   3   5  ar  
  5   3   6  1   
  6   4   7  ar  
  7   4  23  1   
  8   5   8  ar  
  9   5  24  1   
 10   6   9  1   
 11   6  25  1   
 12   6  26  1   
 13   7   8  ar  
 14   7  27  1   
 15   8  10  1   
 16   9  11  1   
 17   9  12  1   
 18  10  13  1   
 19  11  14  1   
 20  11  28  1   
 21  11  29  1   
 22  12  15  1   
 23  12  30  1   
 24  12  31  1   
 25  13  32  1   
 26  13  33  1   
 27  13  34  1   
 28  14  16  1   
 29  14  17  1   
 30  14  35  1   
 31  15  18  1   
 32  15  19  1   
 33  15  36  1   
 34  16  18  am  
 35  16  20  1   
 36  17  21  1   
 37  17  37  1   
 38  17  38  1   
 39  18  22  2   
 40  19  21  1   
 41  19  39  1   
 42  19  40  1   
 43  20  41  1   
 44  20  42  1   
 45  20  43  1   
@<TRIPOS>SUBSTRUCTURE
  1 ****   9 GROUP 4 **** **** 0

# MOE 2024.06 (io_trps.svl 2023.06)
