@<TRIPOS>MOLECULE
NONAME
49 52 1 0 0 
SMALL
USER_CHARGES


@<TRIPOS>ATOM
  1 S        1.9110     0.2080     1.3930 S.3   1 <1>  -0.0800 
  2 C        1.1130     1.7030     0.9500 C.2   1 <1>  -0.1400 
  3 C        3.4720     0.8940     0.9660 C.2   1 <1>  -0.1100 
  4 C        1.9840     2.6290     0.5300 C.2   1 <1>  -0.1810 
  5 C       -0.3780     1.8860     1.0410 C.3   1 <1>   0.0200 
  6 C        3.3410     2.1630     0.5330 C.2   1 <1>  -0.1500 
  7 C        1.5110     4.0220     0.1060 C.3   1 <1>   0.4610 
  8 C       -0.7400     3.1110     0.1840 C.3   1 <1>   0.1200 
  9 O        0.1400     4.1830     0.4290 O.3   1 <1>  -0.5600 
 10 C        2.2590     5.1020     0.8950 C.3   1 <1>  -0.1600 
 11 C        1.7010     4.2320    -1.4040 C.3   1 <1>  -0.1600 
 12 C        1.8770     6.5100     0.4360 C.3   1 <1>   0.1400 
 13 C        1.3050     5.6460    -1.8290 C.3   1 <1>   0.1400 
 14 N        2.0960     6.6210    -1.0330 N.am  1 <1>  -0.6600 
 15 C        3.0310     7.4560    -1.6110 C.2   1 <1>   0.5440 
 16 O        3.1240     7.4960    -2.8240 O.2   1 <1>  -0.5700 
 17 C        3.8960     8.3020    -0.8200 C.ar  1 <1>   0.0860 
 18 C        5.0110     7.7930    -0.1490 C.ar  1 <1>   0.0830 
 19 C        3.6330     9.6670    -0.7140 C.ar  1 <1>  -0.1500 
 20 O        5.2880     6.4710    -0.2340 O.3   1 <1>  -0.3630 
 21 C        5.8320     8.6240     0.6170 C.ar  1 <1>   0.0830 
 22 C        4.4390    10.4970     0.0400 C.ar  1 <1>  -0.1500 
 23 C        6.0990     6.0780    -1.3170 C.3   1 <1>   0.0400 
 24 O        6.9040     8.0610     1.2450 O.3   1 <1>  -0.3630 
 25 C        5.5370     9.9800     0.7070 C.ar  1 <1>  -0.1500 
 26 C        7.7580     8.8160     2.0760 C.3   1 <1>   0.0400 
 27 H        4.3360     0.2650     1.0880 H     1 <1>   0.1500 
 28 H       -0.6660     2.0490     2.0640 H     1 <1>   0.0800 
 29 H       -0.8880     1.0170     0.6690 H     1 <1>   0.0800 
 30 H        4.1500     2.7970     0.2130 H     1 <1>   0.1500 
 31 H       -1.7360     3.4440     0.4150 H     1 <1>   0.0800 
 32 H       -0.6940     2.8630    -0.8610 H     1 <1>   0.0800 
 33 H        3.3180     4.9800     0.7660 H     1 <1>   0.0800 
 34 H        2.0470     4.9860     1.9420 H     1 <1>   0.0800 
 35 H        1.1360     3.5060    -1.9560 H     1 <1>   0.0800 
 36 H        2.7350     4.0840    -1.6530 H     1 <1>   0.0800 
 37 H        2.4600     7.2360     0.9740 H     1 <1>   0.0800 
 38 H        0.8380     6.6940     0.6500 H     1 <1>   0.0800 
 39 H        0.2560     5.8110    -1.6480 H     1 <1>   0.0800 
 40 H        1.4860     5.7730    -2.8830 H     1 <1>   0.0800 
 41 H        2.7840    10.0710    -1.2380 H     1 <1>   0.1500 
 42 H        4.2160    11.5480     0.1080 H     1 <1>   0.1500 
 43 H        6.2460     5.0150    -1.2580 H     1 <1>   0.0800 
 44 H        7.0430     6.5880    -1.2440 H     1 <1>   0.0800 
 45 H        5.6020     6.3320    -2.2370 H     1 <1>   0.0800 
 46 H        6.1450    10.6500     1.2850 H     1 <1>   0.1500 
 47 H        8.5090     8.1560     2.4700 H     1 <1>   0.0800 
 48 H        7.1810     9.2350     2.8820 H     1 <1>   0.0800 
 49 H        8.2230     9.5890     1.4890 H     1 <1>   0.0800 
@<TRIPOS>BOND
  1   1   2  1   
  2   1   3  1   
  3   2   4  2   
  4   2   5  1   
  5   3   6  2   
  6   3  27  1   
  7   4   6  1   
  8   4   7  1   
  9   5   8  1   
 10   5  28  1   
 11   5  29  1   
 12   6  30  1   
 13   7   9  1   
 14   7  10  1   
 15   7  11  1   
 16   8   9  1   
 17   8  31  1   
 18   8  32  1   
 19  10  12  1   
 20  10  33  1   
 21  10  34  1   
 22  11  13  1   
 23  11  35  1   
 24  11  36  1   
 25  12  14  1   
 26  12  37  1   
 27  12  38  1   
 28  13  14  1   
 29  13  39  1   
 30  13  40  1   
 31  14  15  am  
 32  15  16  2   
 33  15  17  1   
 34  17  18  ar  
 35  17  19  ar  
 36  18  20  1   
 37  18  21  ar  
 38  19  22  ar  
 39  19  41  1   
 40  20  23  1   
 41  21  24  1   
 42  21  25  ar  
 43  22  25  ar  
 44  22  42  1   
 45  23  43  1   
 46  23  44  1   
 47  23  45  1   
 48  24  26  1   
 49  25  46  1   
 50  26  47  1   
 51  26  48  1   
 52  26  49  1   
@<TRIPOS>SUBSTRUCTURE
  1 ****  10 GROUP 4 **** **** 0

# MOE 2024.06 (io_trps.svl 2023.06)
