@<TRIPOS>MOLECULE
NONAME
55 57 1 0 0 
SMALL
USER_CHARGES


@<TRIPOS>ATOM
  1 O       -0.4350     0.5570     1.9440 O.2   1 <1>  -0.5700 
  2 C       -1.2080     0.9080     1.0890 C.2   1 <1>   0.5690 
  3 N       -2.0570     0.0750     0.4160 N.am  1 <1>  -0.5470 
  4 C       -1.2320     2.3750     0.7250 C.3   1 <1>  -0.0990 
  5 C       -2.2770    -1.3120     0.5040 C.ar  1 <1>   0.1170 
  6 C       -0.1130     2.7090    -0.2730 C.3   1 <1>  -0.0990 
  7 C       -3.4920    -1.8520     0.0610 C.ar  1 <1>  -0.1430 
  8 C       -1.3000    -2.1690     1.0050 C.ar  1 <1>  -0.1500 
  9 C       -0.1310     4.1780    -0.6320 C.2   1 <1>   0.5690 
 10 C       -3.6870    -3.2270     0.1330 C.ar  1 <1>  -0.1500 
 11 C       -4.5780    -0.9150    -0.4900 C.3   1 <1>  -0.0160 
 12 C       -1.5100    -3.5320     1.0740 C.ar  1 <1>  -0.1500 
 13 O       -0.9280     4.5450    -1.4590 O.2   1 <1>  -0.5700 
 14 N        0.7490     5.0040     0.0080 N.am  1 <1>  -0.4940 
 15 C       -2.7070    -4.0620     0.6360 C.ar  1 <1>  -0.1500 
 16 C       -5.9240    -1.5670    -0.8290 C.3   1 <1>  -0.2400 
 17 C        0.8950     6.4080    -0.1110 C.2   1 <1>  -0.0880 
 18 N        2.0860     7.0590    -0.2320 N.pl3 1 <1>   0.3140 
 19 C       -0.0640     7.3660    -0.1170 C.2   1 <1>  -0.1810 
 20 N        1.9080     8.4020    -0.2970 N.2   1 <1>  -0.7070 
 21 C        3.4340     6.4250    -0.3240 C.3   1 <1>   0.1760 
 22 C        0.6240     8.5670    -0.2370 C.2   1 <1>   0.1390 
 23 C       -1.5710     7.2260    -0.0150 C.3   1 <1>  -0.0590 
 24 C        4.3350     6.7600     0.8670 C.3   1 <1>  -0.1600 
 25 C        4.2440     6.8790    -1.5390 C.3   1 <1>  -0.1600 
 26 C        5.7720     6.5990     0.3530 C.3   1 <1>  -0.1600 
 27 C        5.6900     6.5400    -1.1780 C.3   1 <1>  -0.1600 
 28 H       -2.6760     0.5390    -0.2430 H     1 <1>   0.3700 
 29 H       -1.1000     2.9510     1.6240 H     1 <1>   0.0800 
 30 H       -2.1870     2.6340     0.3050 H     1 <1>   0.0800 
 31 H       -0.2490     2.1370    -1.1740 H     1 <1>   0.0800 
 32 H        0.8410     2.4430     0.1450 H     1 <1>   0.0800 
 33 H       -0.3600    -1.7760     1.3430 H     1 <1>   0.1500 
 34 H       -4.6030    -3.6810    -0.1970 H     1 <1>   0.1500 
 35 H       -4.2020    -0.4420    -1.3800 H     1 <1>   0.0800 
 36 H       -4.7650    -0.1460     0.2400 H     1 <1>   0.0800 
 37 H       -0.7440    -4.1770     1.4670 H     1 <1>   0.1500 
 38 H        1.3760     4.5500     0.6720 H     1 <1>   0.3700 
 39 H       -2.8760    -5.1230     0.6870 H     1 <1>   0.1500 
 40 H       -5.8040    -2.2950    -1.6120 H     1 <1>   0.0800 
 41 H       -6.6170    -0.8190    -1.1680 H     1 <1>   0.0800 
 42 H       -6.3390    -2.0440     0.0410 H     1 <1>   0.0800 
 43 H        3.3160     5.3600    -0.3810 H     1 <1>   0.0800 
 44 H        0.1540     9.5360    -0.2740 H     1 <1>   0.1500 
 45 H       -1.8280     6.3090     0.4810 H     1 <1>   0.0800 
 46 H       -2.0000     7.2160    -1.0010 H     1 <1>   0.0800 
 47 H       -1.9850     8.0470     0.5410 H     1 <1>   0.0800 
 48 H        4.1380     6.1190     1.7070 H     1 <1>   0.0800 
 49 H        4.1820     7.7860     1.1560 H     1 <1>   0.0800 
 50 H        4.1550     7.9460    -1.6600 H     1 <1>   0.0800 
 51 H        3.9260     6.3870    -2.4400 H     1 <1>   0.0800 
 52 H        6.2130     5.6930     0.7340 H     1 <1>   0.0800 
 53 H        6.3730     7.4350     0.6710 H     1 <1>   0.0800 
 54 H        6.3790     7.2270    -1.6400 H     1 <1>   0.0800 
 55 H        5.9200     5.5420    -1.5110 H     1 <1>   0.0800 
@<TRIPOS>BOND
  1   1   2  2   
  2   2   3  am  
  3   2   4  1   
  4   3   5  1   
  5   3  28  1   
  6   4   6  1   
  7   4  29  1   
  8   4  30  1   
  9   5   7  ar  
 10   5   8  ar  
 11   6   9  1   
 12   6  31  1   
 13   6  32  1   
 14   7  10  ar  
 15   7  11  1   
 16   8  12  ar  
 17   8  33  1   
 18   9  13  2   
 19   9  14  am  
 20  10  15  ar  
 21  10  34  1   
 22  11  16  1   
 23  11  35  1   
 24  11  36  1   
 25  12  15  ar  
 26  12  37  1   
 27  14  17  1   
 28  14  38  1   
 29  15  39  1   
 30  16  40  1   
 31  16  41  1   
 32  16  42  1   
 33  17  18  1   
 34  17  19  2   
 35  18  20  1   
 36  18  21  1   
 37  19  22  1   
 38  19  23  1   
 39  20  22  2   
 40  21  24  1   
 41  21  25  1   
 42  21  43  1   
 43  22  44  1   
 44  23  45  1   
 45  23  46  1   
 46  23  47  1   
 47  24  26  1   
 48  24  48  1   
 49  24  49  1   
 50  25  27  1   
 51  25  50  1   
 52  25  51  1   
 53  26  27  1   
 54  26  52  1   
 55  26  53  1   
 56  27  54  1   
 57  27  55  1   
@<TRIPOS>SUBSTRUCTURE
  1 ****   6 GROUP 4 **** **** 0

# MOE 2024.06 (io_trps.svl 2023.06)
