@<TRIPOS>MOLECULE
NONAME
35 35 1 0 0 
SMALL
USER_CHARGES


@<TRIPOS>ATOM
  1 O        7.3460     1.7400     2.0470 O.2   1 <1>  -0.5700 
  2 C        7.5270     0.9490     1.1550 C.2   1 <1>   0.6590 
  3 O        6.6490     0.7910     0.1680 O.3   1 <1>  -0.4300 
  4 C        8.7890     0.0590     1.0970 C.3   1 <1>   0.2510 
  5 C        5.4620     1.5470     0.1130 C.3   1 <1>   0.1200 
  6 N        8.4800    -1.3800     0.9470 N.3   1 <1>  -0.9900 
  7 C        9.7130     0.5080    -0.0530 C.3   1 <1>  -0.1600 
  8 C        4.6900     1.1250    -1.1330 C.3   1 <1>  -0.2400 
  9 C       11.2120     0.1670     0.1150 C.3   1 <1>  -0.0800 
 10 C       12.0220     0.9020    -0.9700 C.3   1 <1>  -0.1600 
 11 C       11.5020    -1.3460     0.0560 C.3   1 <1>  -0.1600 
 12 C       13.5240     0.6030    -0.8690 C.3   1 <1>  -0.1600 
 13 C       13.0040    -1.6490     0.1420 C.3   1 <1>  -0.1600 
 14 C       13.7900    -0.9040    -0.9420 C.3   1 <1>  -0.1600 
 15 H        9.3120     0.1990     2.0270 H     1 <1>   0.0800 
 16 H        4.8910     1.3530     1.0060 H     1 <1>   0.0800 
 17 H        5.7230     2.5910     0.0720 H     1 <1>   0.0800 
 18 H        7.9300    -1.4940     0.0870 H     1 <1>   0.3600 
 19 H        7.8730    -1.6690     1.7230 H     1 <1>   0.3600 
 20 H        9.3430     0.1200    -0.9860 H     1 <1>   0.0800 
 21 H        9.6420     1.5800    -0.1120 H     1 <1>   0.0800 
 22 H        4.4440     0.0800    -1.0820 H     1 <1>   0.0800 
 23 H        5.2770     1.3150    -2.0140 H     1 <1>   0.0800 
 24 H        3.7770     1.6890    -1.2020 H     1 <1>   0.0800 
 25 H       11.5370     0.5330     1.0740 H     1 <1>   0.0800 
 26 H       11.6720     0.6020    -1.9430 H     1 <1>   0.0800 
 27 H       11.8730     1.9640    -0.8800 H     1 <1>   0.0800 
 28 H       11.0140    -1.8450     0.8730 H     1 <1>   0.0800 
 29 H       11.1080    -1.7510    -0.8600 H     1 <1>   0.0800 
 30 H       14.0450     1.1000    -1.6680 H     1 <1>   0.0800 
 31 H       13.9030     0.9880     0.0630 H     1 <1>   0.0800 
 32 H       13.3690    -1.3540     1.1110 H     1 <1>   0.0800 
 33 H       13.1630    -2.7080     0.0390 H     1 <1>   0.0800 
 34 H       14.8420    -1.0920    -0.8200 H     1 <1>   0.0800 
 35 H       13.4970    -1.2720    -1.9110 H     1 <1>   0.0800 
@<TRIPOS>BOND
  1   1   2  2   
  2   2   3  1   
  3   2   4  1   
  4   3   5  1   
  5   4   6  1   
  6   4   7  1   
  7   4  15  1   
  8   5   8  1   
  9   5  16  1   
 10   5  17  1   
 11   6  18  1   
 12   6  19  1   
 13   7   9  1   
 14   7  20  1   
 15   7  21  1   
 16   8  22  1   
 17   8  23  1   
 18   8  24  1   
 19   9  10  1   
 20   9  11  1   
 21   9  25  1   
 22  10  12  1   
 23  10  26  1   
 24  10  27  1   
 25  11  13  1   
 26  11  28  1   
 27  11  29  1   
 28  12  14  1   
 29  12  30  1   
 30  12  31  1   
 31  13  14  1   
 32  13  32  1   
 33  13  33  1   
 34  14  34  1   
 35  14  35  1   
@<TRIPOS>SUBSTRUCTURE
  1 ****   7 GROUP 4 **** **** 0

# MOE 2024.06 (io_trps.svl 2023.06)
