@<TRIPOS>MOLECULE
NONAME
58 60 1 0 0 
SMALL
USER_CHARGES


@<TRIPOS>ATOM
  1 CL      -3.9780     0.4330    -2.2810 Cl    1 <1>  -0.1770 
  2 C       -3.8510    -0.6830    -0.9400 C.ar  1 <1>   0.1770 
  3 C       -4.0900    -0.2530     0.3610 C.ar  1 <1>   0.0830 
  4 C       -3.5480    -2.0010    -1.2070 C.ar  1 <1>  -0.1500 
  5 O       -4.5030     0.9980     0.6330 O.3   1 <1>  -0.3630 
  6 C       -3.9600    -1.1570     1.4030 C.ar  1 <1>  -0.1500 
  7 C       -3.4910    -2.9400    -0.1770 C.ar  1 <1>   0.0860 
  8 C       -3.4980     1.9840     0.7310 C.3   1 <1>   0.1200 
  9 C       -3.6540    -2.4790     1.1300 C.ar  1 <1>  -0.1500 
 10 C       -3.2580    -4.3390    -0.4730 C.2   1 <1>   0.5440 
 11 C       -4.1720     3.3310     0.9920 C.3   1 <1>  -0.1600 
 12 O       -2.2070    -4.6380    -1.0050 O.2   1 <1>  -0.5700 
 13 N       -4.1680    -5.3450    -0.1830 N.am  1 <1>  -0.6600 
 14 C       -3.1360     4.4540     1.1130 C.3   1 <1>  -0.2400 
 15 C       -5.6640    -5.2580    -0.1750 C.3   1 <1>   0.2200 
 16 C       -3.6730    -6.7510    -0.0800 C.3   1 <1>   0.0600 
 17 C       -6.2770    -4.3650    -1.2530 C.3   1 <1>  -0.1600 
 18 C       -6.2230    -4.7820     1.1630 C.3   1 <1>  -0.1600 
 19 C       -7.6100    -3.8710    -0.6720 C.3   1 <1>  -0.0800 
 20 C       -7.4580    -3.9200     0.8540 C.3   1 <1>  -0.0800 
 21 C       -7.9100    -2.4090    -1.0200 C.3   1 <1>  -0.1600 
 22 C       -7.3540    -2.4570     1.3270 C.3   1 <1>  -0.1600 
 23 C       -7.1620    -1.6300     0.0570 C.3   1 <1>   0.4230 
 24 N       -7.5710    -0.1980     0.1980 N.4   1 <1>  -0.9590 
 25 C       -8.9940     0.0300     0.6050 C.3   1 <1>   0.2630 
 26 C       -7.2710     0.5730    -1.0470 C.3   1 <1>   0.2630 
 27 H       -3.3630    -2.3180    -2.2190 H     1 <1>   0.1500 
 28 H       -4.0970    -0.8270     2.4180 H     1 <1>   0.1500 
 29 H       -2.8390     1.7210     1.5410 H     1 <1>   0.0800 
 30 H       -2.9420     2.0090    -0.1910 H     1 <1>   0.0800 
 31 H       -3.5350    -3.1780     1.9410 H     1 <1>   0.1500 
 32 H       -4.8400     3.5590     0.1800 H     1 <1>   0.0800 
 33 H       -4.7370     3.2770     1.9060 H     1 <1>   0.0800 
 34 H       -2.5650     4.5420     0.2040 H     1 <1>   0.0800 
 35 H       -2.4610     4.2610     1.9290 H     1 <1>   0.0800 
 36 H       -3.6290     5.3920     1.2950 H     1 <1>   0.0800 
 37 H       -6.0630    -6.2450    -0.3470 H     1 <1>   0.0800 
 38 H       -4.1710    -7.2600     0.7260 H     1 <1>   0.0800 
 39 H       -2.6140    -6.7670     0.1140 H     1 <1>   0.0800 
 40 H       -3.8620    -7.2700    -1.0030 H     1 <1>   0.0800 
 41 H       -5.6450    -3.5360    -1.4840 H     1 <1>   0.0800 
 42 H       -6.4380    -4.9260    -2.1570 H     1 <1>   0.0800 
 43 H       -6.5130    -5.6390     1.7460 H     1 <1>   0.0800 
 44 H       -5.4890    -4.2430     1.7240 H     1 <1>   0.0800 
 45 H       -8.4060    -4.5240    -0.9940 H     1 <1>   0.0800 
 46 H       -8.3320    -4.3760     1.2920 H     1 <1>   0.0800 
 47 H       -8.9700    -2.2500    -0.9410 H     1 <1>   0.0800 
 48 H       -7.5770    -2.1620    -2.0120 H     1 <1>   0.0800 
 49 H       -6.5450    -2.3030     2.0170 H     1 <1>   0.0800 
 50 H       -8.2750    -2.2110     1.8200 H     1 <1>   0.0800 
 51 H       -6.1160    -1.6710    -0.1940 H     1 <1>   0.0800 
 52 H       -6.9570     0.1970     0.9300 H     1 <1>   0.4500 
 53 H       -9.6660    -0.3890    -0.1250 H     1 <1>   0.0800 
 54 H       -9.1920     1.0870     0.6860 H     1 <1>   0.0800 
 55 H       -9.1940    -0.4230     1.5610 H     1 <1>   0.0800 
 56 H       -7.8630     0.2080    -1.8700 H     1 <1>   0.0800 
 57 H       -6.2300     0.4780    -1.3010 H     1 <1>   0.0800 
 58 H       -7.4870     1.6190    -0.9010 H     1 <1>   0.0800 
@<TRIPOS>BOND
  1   1   2  1   
  2   2   3  ar  
  3   2   4  ar  
  4   3   5  1   
  5   3   6  ar  
  6   4   7  ar  
  7   4  27  1   
  8   5   8  1   
  9   6   9  ar  
 10   6  28  1   
 11   7   9  ar  
 12   7  10  1   
 13   8  11  1   
 14   8  29  1   
 15   8  30  1   
 16   9  31  1   
 17  10  12  2   
 18  10  13  am  
 19  11  14  1   
 20  11  32  1   
 21  11  33  1   
 22  13  15  1   
 23  13  16  1   
 24  14  34  1   
 25  14  35  1   
 26  14  36  1   
 27  15  17  1   
 28  15  18  1   
 29  15  37  1   
 30  16  38  1   
 31  16  39  1   
 32  16  40  1   
 33  17  19  1   
 34  17  41  1   
 35  17  42  1   
 36  18  20  1   
 37  18  43  1   
 38  18  44  1   
 39  19  20  1   
 40  19  21  1   
 41  19  45  1   
 42  20  22  1   
 43  20  46  1   
 44  21  23  1   
 45  21  47  1   
 46  21  48  1   
 47  22  23  1   
 48  22  49  1   
 49  22  50  1   
 50  23  24  1   
 51  23  51  1   
 52  24  25  1   
 53  24  26  1   
 54  24  52  1   
 55  25  53  1   
 56  25  54  1   
 57  25  55  1   
 58  26  56  1   
 59  26  57  1   
 60  26  58  1   
@<TRIPOS>SUBSTRUCTURE
  1 ****   3 GROUP 4 **** **** 0

# MOE 2024.06 (io_trps.svl 2023.06)
