@<TRIPOS>MOLECULE
NONAME
55 58 1 0 0 
SMALL
USER_CHARGES


@<TRIPOS>ATOM
  1 O       -2.5590     0.0390    -2.9710 O.2   1 <1>  -0.5700 
  2 C       -3.5560    -0.5460    -2.6380 C.2   1 <1>   0.5690 
  3 N       -4.2990    -0.0760    -1.6020 N.am  1 <1>  -0.5470 
  4 C       -3.9410    -1.8090    -3.3720 C.3   1 <1>  -0.1790 
  5 C       -5.4970    -0.5350    -1.0470 C.ar  1 <1>   0.1170 
  6 C       -5.6110    -0.7160     0.3100 C.ar  1 <1>  -0.1500 
  7 C       -6.6120    -0.8040    -1.8580 C.ar  1 <1>  -0.1500 
  8 C       -6.8020    -1.1800     0.8980 C.ar  1 <1>   0.0000 
  9 C       -7.7820    -1.2560    -1.3090 C.ar  1 <1>  -0.1500 
 10 C       -7.9140    -1.4590     0.0740 C.ar  1 <1>   0.3100 
 11 C       -6.9440    -1.3880     2.2800 C.ar  1 <1>  -0.1500 
 12 N       -9.0970    -1.9090     0.5660 N.ar  1 <1>  -0.6200 
 13 C       -8.1370    -1.8480     2.7490 C.ar  1 <1>  -0.1500 
 14 C       -9.1900    -2.0980     1.8530 C.ar  1 <1>   0.1670 
 15 C      -10.5200    -2.6150     2.4060 C.3   1 <1>   0.4860 
 16 N      -11.6720    -2.0240     1.6590 N.4   1 <1>  -0.9590 
 17 C      -11.7770    -0.5430     1.8050 C.3   1 <1>   0.3430 
 18 C      -12.9590    -2.7440     1.8260 C.3   1 <1>   0.3430 
 19 C      -13.0150     0.0060     1.0880 C.3   1 <1>  -0.1600 
 20 C      -13.9790    -2.2770     0.7810 C.3   1 <1>  -0.1600 
 21 C      -13.5860    -0.9800     0.0640 C.3   1 <1>   0.4180 
 22 O      -12.5720    -1.3350    -0.8460 O.3   1 <1>  -0.5600 
 23 C      -14.7910    -0.4010    -0.6680 C.2   1 <1>  -0.2880 
 24 C      -12.3290    -0.4600    -1.9140 C.3   1 <1>   0.1200 
 25 C      -14.8060    -0.1250    -1.9740 C.2   1 <1>  -0.2760 
 26 C      -13.5650    -0.3520    -2.8170 C.3   1 <1>  -0.0220 
 27 C      -16.0100     0.4140    -2.7260 C.3   1 <1>  -0.1020 
 28 H       -3.8500     0.7150    -1.1380 H     1 <1>   0.3700 
 29 H       -4.3650    -2.5250    -2.6920 H     1 <1>   0.0800 
 30 H       -3.0670    -2.2400    -3.8240 H     1 <1>   0.0800 
 31 H       -4.6500    -1.5770    -4.1430 H     1 <1>   0.0800 
 32 H       -4.7700    -0.5100     0.9470 H     1 <1>   0.1500 
 33 H       -6.5340    -0.6430    -2.9180 H     1 <1>   0.1500 
 34 H       -8.6340    -1.4680    -1.9280 H     1 <1>   0.1500 
 35 H       -6.1130    -1.1870     2.9360 H     1 <1>   0.1500 
 36 H       -8.2730    -2.0230     3.8020 H     1 <1>   0.1500 
 37 H      -10.5980    -2.3790     3.4530 H     1 <1>   0.0800 
 38 H      -10.5320    -3.6870     2.2940 H     1 <1>   0.0800 
 39 H      -11.4150    -2.1350     0.6540 H     1 <1>   0.4500 
 40 H      -10.8980    -0.0920     1.3710 H     1 <1>   0.0800 
 41 H      -11.8140    -0.2690     2.8470 H     1 <1>   0.0800 
 42 H      -13.3470    -2.5560     2.8140 H     1 <1>   0.0800 
 43 H      -12.8070    -3.8060     1.7180 H     1 <1>   0.0800 
 44 H      -12.7780     0.9410     0.6150 H     1 <1>   0.0800 
 45 H      -13.7710     0.2190     1.8210 H     1 <1>   0.0800 
 46 H      -14.9200    -2.1400     1.2810 H     1 <1>   0.0800 
 47 H      -14.1300    -3.0480     0.0460 H     1 <1>   0.0800 
 48 H      -15.6420    -0.2410    -0.0320 H     1 <1>   0.1500 
 49 H      -11.4920    -0.8420    -2.4730 H     1 <1>   0.0800 
 50 H      -12.0690     0.5060    -1.5190 H     1 <1>   0.0800 
 51 H      -13.6750    -1.2520    -3.3960 H     1 <1>   0.0800 
 52 H      -13.4200     0.4680    -3.4980 H     1 <1>   0.0800 
 53 H      -15.7820     1.3710    -3.1590 H     1 <1>   0.0800 
 54 H      -16.8490     0.5320    -2.0630 H     1 <1>   0.0800 
 55 H      -16.2900    -0.2660    -3.5110 H     1 <1>   0.0800 
@<TRIPOS>BOND
  1   1   2  2   
  2   2   3  am  
  3   2   4  1   
  4   3   5  1   
  5   3  28  1   
  6   4  29  1   
  7   4  30  1   
  8   4  31  1   
  9   5   6  ar  
 10   5   7  ar  
 11   6   8  ar  
 12   6  32  1   
 13   7   9  ar  
 14   7  33  1   
 15   8  10  ar  
 16   8  11  ar  
 17   9  10  ar  
 18   9  34  1   
 19  10  12  ar  
 20  11  13  ar  
 21  11  35  1   
 22  12  14  ar  
 23  13  14  ar  
 24  13  36  1   
 25  14  15  1   
 26  15  16  1   
 27  15  37  1   
 28  15  38  1   
 29  16  17  1   
 30  16  18  1   
 31  16  39  1   
 32  17  19  1   
 33  17  40  1   
 34  17  41  1   
 35  18  20  1   
 36  18  42  1   
 37  18  43  1   
 38  19  21  1   
 39  19  44  1   
 40  19  45  1   
 41  20  21  1   
 42  20  46  1   
 43  20  47  1   
 44  21  22  1   
 45  21  23  1   
 46  22  24  1   
 47  23  25  2   
 48  23  48  1   
 49  24  26  1   
 50  24  49  1   
 51  24  50  1   
 52  25  26  1   
 53  25  27  1   
 54  26  51  1   
 55  26  52  1   
 56  27  53  1   
 57  27  54  1   
 58  27  55  1   
@<TRIPOS>SUBSTRUCTURE
  1 ****  12 GROUP 4 **** **** 0

# MOE 2024.06 (io_trps.svl 2023.06)
