@<TRIPOS>MOLECULE
NONAME
41 43 1 0 0 
SMALL
USER_CHARGES


@<TRIPOS>ATOM
  1 O       -0.2420     0.1200     0.4410 O.2   1 <1>  -0.5700 
  2 C       -1.2920     0.7260     0.5090 C.2   1 <1>   0.5440 
  3 N       -2.4710     0.0220     0.4190 N.am  1 <1>  -0.6600 
  4 C       -1.2790     2.1660     0.6690 C.ar  1 <1>   0.0860 
  5 C       -3.7900     0.6120     0.0780 C.3   1 <1>   0.1400 
  6 C       -2.4930    -1.4490     0.2290 C.3   1 <1>   0.1400 
  7 C       -0.5270     2.9880    -0.1510 C.ar  1 <1>  -0.1500 
  8 C       -2.0070     2.8240     1.6510 C.ar  1 <1>  -0.1500 
  9 C       -4.6160    -0.5560    -0.4640 C.3   1 <1>   0.2000 
 10 C       -3.9740    -1.8160     0.1100 C.3   1 <1>  -0.0800 
 11 C       -0.5480     4.3600     0.0180 C.ar  1 <1>   0.3920 
 12 C       -1.9640     4.2010     1.7450 C.ar  1 <1>   0.1600 
 13 O       -5.9410    -0.4750    -0.0620 O.3   1 <1>  -0.6800 
 14 C       -4.2490    -3.0640    -0.7460 C.3   1 <1>  -0.0160 
 15 O        0.2060     5.0920    -0.8280 O.3   1 <1>  -0.3630 
 16 N       -1.2600     4.9870     0.9500 N.ar  1 <1>  -0.6200 
 17 C       -3.6380    -4.3140    -0.1320 C.ar  1 <1>   0.1670 
 18 C        0.2650     6.5010    -0.7190 C.3   1 <1>   0.0400 
 19 N       -2.3540    -4.5220    -0.3700 N.ar  1 <1>  -0.6200 
 20 C       -4.4250    -5.1680     0.6390 C.ar  1 <1>   0.1600 
 21 C       -1.9120    -5.6250     0.2100 C.ar  1 <1>   0.1600 
 22 N       -3.9860    -6.2710     1.2220 N.ar  1 <1>  -0.6200 
 23 C       -2.7010    -6.4710     0.9800 C.ar  1 <1>   0.1600 
 24 H       -4.2390     1.0150     0.9680 H     1 <1>   0.0800 
 25 H       -3.6820     1.3800    -0.6670 H     1 <1>   0.0800 
 26 H       -1.9600    -1.6950    -0.6760 H     1 <1>   0.0800 
 27 H       -2.0230    -1.9500     1.0580 H     1 <1>   0.0800 
 28 H        0.0830     2.5610    -0.9250 H     1 <1>   0.1500 
 29 H       -2.5990     2.2550     2.3440 H     1 <1>   0.1500 
 30 H       -4.5850    -0.5540    -1.5400 H     1 <1>   0.0800 
 31 H       -4.3380    -1.9810     1.1090 H     1 <1>   0.0800 
 32 H       -2.5380     4.6860     2.5170 H     1 <1>   0.1500 
 33 H       -6.0050    -0.4940     0.9120 H     1 <1>   0.4000 
 34 H       -3.8460    -2.9280    -1.7350 H     1 <1>   0.0800 
 35 H       -5.3110    -3.1970    -0.8470 H     1 <1>   0.0800 
 36 H        0.9230     6.8730    -1.4820 H     1 <1>   0.0800 
 37 H        0.6440     6.7580     0.2550 H     1 <1>   0.0800 
 38 H       -0.7240     6.9020    -0.8540 H     1 <1>   0.0800 
 39 H       -5.4640    -4.9270     0.7830 H     1 <1>   0.1500 
 40 H       -0.8740    -5.8720     0.0700 H     1 <1>   0.1500 
 41 H       -2.2500    -7.3460     1.4120 H     1 <1>   0.1500 
@<TRIPOS>BOND
  1   1   2  2   
  2   2   3  am  
  3   2   4  1   
  4   3   5  1   
  5   3   6  1   
  6   4   7  ar  
  7   4   8  ar  
  8   5   9  1   
  9   5  24  1   
 10   5  25  1   
 11   6  10  1   
 12   6  26  1   
 13   6  27  1   
 14   7  11  ar  
 15   7  28  1   
 16   8  12  ar  
 17   8  29  1   
 18   9  10  1   
 19   9  13  1   
 20   9  30  1   
 21  10  14  1   
 22  10  31  1   
 23  11  15  1   
 24  11  16  ar  
 25  12  16  ar  
 26  12  32  1   
 27  13  33  1   
 28  14  17  1   
 29  14  34  1   
 30  14  35  1   
 31  15  18  1   
 32  17  19  ar  
 33  17  20  ar  
 34  18  36  1   
 35  18  37  1   
 36  18  38  1   
 37  19  21  ar  
 38  20  22  ar  
 39  20  39  1   
 40  21  23  ar  
 41  21  40  1   
 42  22  23  ar  
 43  23  41  1   
@<TRIPOS>SUBSTRUCTURE
  1 ****   3 GROUP 4 **** **** 0

# MOE 2024.06 (io_trps.svl 2023.06)
