@<TRIPOS>MOLECULE
NONAME
53 56 1 0 0 
SMALL
USER_CHARGES


@<TRIPOS>ATOM
  1 F        0.7460    -0.2350     2.5820 F     1 <1>  -0.1900 
  2 C        1.3880     0.6380     1.8320 C.ar  1 <1>   0.1900 
  3 C        2.5070     0.2760     1.0860 C.ar  1 <1>   0.4100 
  4 C        0.9470     1.9310     1.7910 C.ar  1 <1>   0.1600 
  5 N        3.1240     1.1860     0.3530 N.ar  1 <1>  -0.6200 
  6 N        3.0210    -1.0160     1.0580 N.pl3 1 <1>  -0.8380 
  7 N        1.5560     2.8430     1.0580 N.ar  1 <1>  -0.6200 
  8 C        2.6110     2.4050     0.3760 C.ar  1 <1>   0.7200 
  9 C        2.1540    -2.1320     0.5720 C.3   1 <1>   0.2090 
 10 C        4.4680    -1.2550     0.7620 C.3   1 <1>   0.2090 
 11 N        3.2790     3.2890    -0.4020 N.pl3 1 <1>  -0.8690 
 12 C        2.4890    -2.4940    -0.8880 C.3   1 <1>   0.1200 
 13 C        4.6680    -1.6570    -0.7110 C.3   1 <1>   0.1200 
 14 C        3.2580     4.7480    -0.2140 C.3   1 <1>   0.2890 
 15 O        3.8570    -2.7510    -1.0450 O.3   1 <1>  -0.5600 
 16 C        3.5340     5.4180    -1.5580 C.3   1 <1>  -0.1600 
 17 C        4.3100     5.1390     0.8230 C.3   1 <1>  -0.1600 
 18 C        3.6040     6.9340    -1.3910 C.3   1 <1>   0.2090 
 19 C        4.3740     6.6590     0.9660 C.3   1 <1>   0.2090 
 20 N        4.6240     7.2630    -0.3660 N.pl3 1 <1>  -0.8380 
 21 C        5.0950     8.5700    -0.3680 C.ar  1 <1>   0.1000 
 22 C        4.2930     9.6350     0.0300 C.ar  1 <1>  -0.1500 
 23 C        6.3950     8.8290    -0.7750 C.ar  1 <1>  -0.1500 
 24 C        4.7760    10.9330     0.0230 C.ar  1 <1>  -0.1430 
 25 C        6.8870    10.1210    -0.7870 C.ar  1 <1>  -0.1500 
 26 C        6.0780    11.1720    -0.3880 C.ar  1 <1>  -0.1500 
 27 C        3.8990    12.0920     0.4580 C.3   1 <1>  -0.0970 
 28 H        0.0860     2.2240     2.3650 H     1 <1>   0.1500 
 29 H        1.1170    -1.8560     0.6360 H     1 <1>   0.0800 
 30 H        2.3060    -2.9950     1.1970 H     1 <1>   0.0800 
 31 H        4.8310    -2.0460     1.3950 H     1 <1>   0.0800 
 32 H        5.0440    -0.3730     0.9790 H     1 <1>   0.0800 
 33 H        4.1580     2.9090    -0.7430 H     1 <1>   0.4000 
 34 H        2.2140    -1.6860    -1.5440 H     1 <1>   0.0800 
 35 H        1.9520    -3.3780    -1.1820 H     1 <1>   0.0800 
 36 H        5.6910    -1.9410    -0.8820 H     1 <1>   0.0800 
 37 H        4.4220    -0.8330    -1.3570 H     1 <1>   0.0800 
 38 H        2.2850     5.0590     0.1320 H     1 <1>   0.0800 
 39 H        2.7490     5.1730    -2.2500 H     1 <1>   0.0800 
 40 H        4.4690     5.0730    -1.9600 H     1 <1>   0.0800 
 41 H        5.2780     4.7810     0.5240 H     1 <1>   0.0800 
 42 H        4.0590     4.7060     1.7730 H     1 <1>   0.0800 
 43 H        2.6470     7.3210    -1.0840 H     1 <1>   0.0800 
 44 H        3.8750     7.3950    -2.3260 H     1 <1>   0.0800 
 45 H        5.1700     6.9320     1.6390 H     1 <1>   0.0800 
 46 H        3.4460     7.0350     1.3640 H     1 <1>   0.0800 
 47 H        3.2880     9.4310     0.3440 H     1 <1>   0.1500 
 48 H        7.0110     8.0050    -1.0820 H     1 <1>   0.1500 
 49 H        7.8970    10.3090    -1.1050 H     1 <1>   0.1500 
 50 H        6.4660    12.1760    -0.3980 H     1 <1>   0.1500 
 51 H        2.9330    11.7450     0.7780 H     1 <1>   0.0800 
 52 H        3.7640    12.7750    -0.3620 H     1 <1>   0.0800 
 53 H        4.3630    12.6160     1.2740 H     1 <1>   0.0800 
@<TRIPOS>BOND
  1   1   2  1   
  2   2   3  ar  
  3   2   4  ar  
  4   3   5  ar  
  5   3   6  1   
  6   4   7  ar  
  7   4  28  1   
  8   5   8  ar  
  9   6   9  1   
 10   6  10  1   
 11   7   8  ar  
 12   8  11  1   
 13   9  12  1   
 14   9  29  1   
 15   9  30  1   
 16  10  13  1   
 17  10  31  1   
 18  10  32  1   
 19  11  14  1   
 20  11  33  1   
 21  12  15  1   
 22  12  34  1   
 23  12  35  1   
 24  13  15  1   
 25  13  36  1   
 26  13  37  1   
 27  14  16  1   
 28  14  17  1   
 29  14  38  1   
 30  16  18  1   
 31  16  39  1   
 32  16  40  1   
 33  17  19  1   
 34  17  41  1   
 35  17  42  1   
 36  18  20  1   
 37  18  43  1   
 38  18  44  1   
 39  19  20  1   
 40  19  45  1   
 41  19  46  1   
 42  20  21  1   
 43  21  22  ar  
 44  21  23  ar  
 45  22  24  ar  
 46  22  47  1   
 47  23  25  ar  
 48  23  48  1   
 49  24  26  ar  
 50  24  27  1   
 51  25  26  ar  
 52  25  49  1   
 53  26  50  1   
 54  27  51  1   
 55  27  52  1   
 56  27  53  1   
@<TRIPOS>SUBSTRUCTURE
  1 ****  14 GROUP 4 **** **** 0

# MOE 2024.06 (io_trps.svl 2023.06)
