@<TRIPOS>MOLECULE
NONAME
57 59 1 0 0 
SMALL
USER_CHARGES


@<TRIPOS>ATOM
  1 O       -1.6450     0.5220    -0.8620 O.2   1 <1>  -0.5700 
  2 C       -1.1070     1.4910    -0.3790 C.2   1 <1>   0.5690 
  3 N       -1.6820     2.7330    -0.3980 N.am  1 <1>  -0.6600 
  4 C        0.2790     1.3060     0.2430 C.3   1 <1>   0.1810 
  5 C       -0.9830     3.9250     0.1900 C.3   1 <1>   0.3640 
  6 C       -3.0760     2.9590    -0.8790 C.3   1 <1>   0.0600 
  7 O        0.6210     2.3290     1.1440 O.3   1 <1>  -0.5600 
  8 C       -0.9920     5.0750    -0.8290 C.ar  1 <1>  -0.1430 
  9 C        0.4760     3.6360     0.6190 C.3   1 <1>   0.2610 
 10 C       -1.4310     6.3600    -0.5080 C.ar  1 <1>  -0.1430 
 11 C       -0.5360     4.8240    -2.1200 C.ar  1 <1>  -0.1500 
 12 C        0.9170     4.6950     1.6460 C.2   1 <1>   0.5690 
 13 C       -1.3960     7.3560    -1.4730 C.ar  1 <1>  -0.1500 
 14 C       -1.9450     6.7300     0.8770 C.3   1 <1>  -0.0960 
 15 C       -0.5070     5.8220    -3.0750 C.ar  1 <1>  -0.1500 
 16 O        0.3220     4.7090     2.7040 O.2   1 <1>  -0.5700 
 17 N        1.9140     5.6180     1.3950 N.am  1 <1>  -0.6600 
 18 C       -0.9380     7.0930    -2.7500 C.ar  1 <1>  -0.1500 
 19 C        2.6180     5.8500     0.1040 C.3   1 <1>   0.1400 
 20 C        2.2990     6.6170     2.4270 C.3   1 <1>   0.1400 
 21 C        2.2680     7.2410    -0.4310 C.3   1 <1>  -0.1600 
 22 C        1.9180     8.0190     1.9470 C.3   1 <1>  -0.1600 
 23 C        2.5550     8.3770     0.5810 C.3   1 <1>  -0.0800 
 24 C        2.1290     9.7860     0.0590 C.3   1 <1>   0.2800 
 25 O        0.7680     9.8090    -0.1250 O.3   1 <1>  -0.6800 
 26 C        2.4440    10.9080     1.0530 C.3   1 <1>  -0.2400 
 27 C        2.7490    10.1320    -1.2990 C.3   1 <1>  -0.2400 
 28 H        1.0200     1.2730    -0.5340 H     1 <1>   0.0800 
 29 H        0.3020     0.3770     0.7830 H     1 <1>   0.0800 
 30 H       -1.5350     4.2050     1.0680 H     1 <1>   0.0800 
 31 H       -3.6480     3.4600    -0.1180 H     1 <1>   0.0800 
 32 H       -3.5560     2.0230    -1.1090 H     1 <1>   0.0800 
 33 H       -3.0640     3.5650    -1.7680 H     1 <1>   0.0800 
 34 H        1.1020     3.6770    -0.2450 H     1 <1>   0.0800 
 35 H       -0.2050     3.8370    -2.3940 H     1 <1>   0.1500 
 36 H       -1.7190     8.3530    -1.2320 H     1 <1>   0.1500 
 37 H       -2.2550     7.7590     0.9110 H     1 <1>   0.0800 
 38 H       -1.1720     6.6000     1.6110 H     1 <1>   0.0800 
 39 H       -2.7890     6.1190     1.1400 H     1 <1>   0.0800 
 40 H       -0.1540     5.6110    -4.0690 H     1 <1>   0.1500 
 41 H       -0.9170     7.8780    -3.4850 H     1 <1>   0.1500 
 42 H        3.6800     5.7860     0.2730 H     1 <1>   0.0800 
 43 H        2.3620     5.1210    -0.6370 H     1 <1>   0.0800 
 44 H        1.8110     6.4140     3.3650 H     1 <1>   0.0800 
 45 H        3.3610     6.5610     2.5930 H     1 <1>   0.0800 
 46 H        2.8310     7.3950    -1.3320 H     1 <1>   0.0800 
 47 H        1.2280     7.2510    -0.6950 H     1 <1>   0.0800 
 48 H        0.8460     8.0750     1.8750 H     1 <1>   0.0800 
 49 H        2.2320     8.7170     2.7000 H     1 <1>   0.0800 
 50 H        3.6200     8.4050     0.7290 H     1 <1>   0.0800 
 51 H        0.5050    10.6830    -0.4610 H     1 <1>   0.4000 
 52 H        3.4880    10.8890     1.3090 H     1 <1>   0.0800 
 53 H        1.8690    10.7990     1.9550 H     1 <1>   0.0800 
 54 H        2.2230    11.8710     0.6300 H     1 <1>   0.0800 
 55 H        3.8180    10.0390    -1.2460 H     1 <1>   0.0800 
 56 H        2.5160    11.1420    -1.5830 H     1 <1>   0.0800 
 57 H        2.3860     9.4750    -2.0680 H     1 <1>   0.0800 
@<TRIPOS>BOND
  1   1   2  2   
  2   2   3  am  
  3   2   4  1   
  4   3   5  1   
  5   3   6  1   
  6   4   7  1   
  7   4  28  1   
  8   4  29  1   
  9   5   8  1   
 10   5   9  1   
 11   5  30  1   
 12   6  31  1   
 13   6  32  1   
 14   6  33  1   
 15   7   9  1   
 16   8  10  ar  
 17   8  11  ar  
 18   9  12  1   
 19   9  34  1   
 20  10  13  ar  
 21  10  14  1   
 22  11  15  ar  
 23  11  35  1   
 24  12  16  2   
 25  12  17  am  
 26  13  18  ar  
 27  13  36  1   
 28  14  37  1   
 29  14  38  1   
 30  14  39  1   
 31  15  18  ar  
 32  15  40  1   
 33  17  19  1   
 34  17  20  1   
 35  18  41  1   
 36  19  21  1   
 37  19  42  1   
 38  19  43  1   
 39  20  22  1   
 40  20  44  1   
 41  20  45  1   
 42  21  23  1   
 43  21  46  1   
 44  21  47  1   
 45  22  23  1   
 46  22  48  1   
 47  22  49  1   
 48  23  24  1   
 49  23  50  1   
 50  24  25  1   
 51  24  26  1   
 52  24  27  1   
 53  25  51  1   
 54  26  52  1   
 55  26  53  1   
 56  26  54  1   
 57  27  55  1   
 58  27  56  1   
 59  27  57  1   
@<TRIPOS>SUBSTRUCTURE
  1 ****   8 GROUP 4 **** **** 0

# MOE 2024.06 (io_trps.svl 2023.06)
