@<TRIPOS>MOLECULE
NONAME
49 51 1 0 0 
SMALL
USER_CHARGES


@<TRIPOS>ATOM
  1 S       -0.5340     1.7990     1.2340 S.o2  1 <1>   1.2040 
  2 O       -1.8340     1.3680     1.6920 O.2   1 <1>  -0.6500 
  3 O        0.2530     2.6860     2.0660 O.2   1 <1>  -0.6500 
  4 C        0.4550     0.3410     0.8160 C.ar  1 <1>  -0.0090 
  5 C       -0.7870     2.5750    -0.3710 C.3   1 <1>  -0.0550 
  6 C        1.7410     0.1770     1.3170 C.ar  1 <1>  -0.1500 
  7 C       -0.0410    -0.6430    -0.0320 C.ar  1 <1>  -0.1500 
  8 C        0.4880     2.8150    -1.2040 C.3   1 <1>  -0.0990 
  9 C        2.5170    -0.9150     0.9680 C.ar  1 <1>  -0.1500 
 10 C        0.7280    -1.7390    -0.3870 C.ar  1 <1>  -0.1500 
 11 C        1.4140     3.7910    -0.5050 C.2   1 <1>   0.5690 
 12 C        2.0100    -1.8720     0.1100 C.ar  1 <1>  -0.1500 
 13 O        1.0670     4.9440    -0.4360 O.2   1 <1>  -0.5700 
 14 N        2.5920     3.3820     0.0500 N.am  1 <1>  -0.6600 
 15 C        2.9940     3.9480     1.3810 C.3   1 <1>   0.1400 
 16 C        3.5620     2.4650    -0.6140 C.3   1 <1>   0.1400 
 17 C        4.3050     4.7790     1.4140 C.3   1 <1>   0.4230 
 18 C        4.8600     3.2090    -0.9950 C.3   1 <1>  -0.0800 
 19 N        4.6520     5.5240     0.1390 N.4   1 <1>  -0.9590 
 20 C        5.5010     3.9420     1.9200 C.3   1 <1>   0.1200 
 21 C        6.0570     2.8330    -0.1070 C.3   1 <1>   0.1200 
 22 C        4.6460     4.7270    -1.1370 C.3   1 <1>   0.3430 
 23 C        3.7350     6.6970    -0.0240 C.3   1 <1>   0.2630 
 24 O        5.6730     2.7460     1.2250 O.3   1 <1>  -0.5600 
 25 H       -1.4510     1.9610    -0.9480 H     1 <1>   0.0800 
 26 H       -1.2820     3.5170    -0.2230 H     1 <1>   0.0800 
 27 H        2.1430     0.9110     1.9940 H     1 <1>   0.1500 
 28 H       -1.0440    -0.5610    -0.4150 H     1 <1>   0.1500 
 29 H        0.9770     1.8800    -1.3940 H     1 <1>   0.0800 
 30 H        0.2110     3.2390    -2.1520 H     1 <1>   0.0800 
 31 H        3.5110    -1.0230     1.3690 H     1 <1>   0.1500 
 32 H        0.3260    -2.4910    -1.0460 H     1 <1>   0.1500 
 33 H        2.6100    -2.7250    -0.1630 H     1 <1>   0.1500 
 34 H        2.1990     4.5770     1.7450 H     1 <1>   0.0800 
 35 H        3.0710     3.1400     2.0880 H     1 <1>   0.0800 
 36 H        3.7730     1.6280     0.0300 H     1 <1>   0.0800 
 37 H        3.1240     2.0710    -1.5140 H     1 <1>   0.0800 
 38 H        4.1560     5.5230     2.1790 H     1 <1>   0.0800 
 39 H        5.1180     2.8630    -1.9800 H     1 <1>   0.0800 
 40 H        5.6050     5.8850     0.2630 H     1 <1>   0.4500 
 41 H        5.3220     3.6700     2.9460 H     1 <1>   0.0800 
 42 H        6.4180     4.5030     1.8850 H     1 <1>   0.0800 
 43 H        6.8780     3.5230    -0.2050 H     1 <1>   0.0800 
 44 H        6.4090     1.8530    -0.3840 H     1 <1>   0.0800 
 45 H        3.6990     4.8730    -1.6340 H     1 <1>   0.0800 
 46 H        5.4060     5.1220    -1.7910 H     1 <1>   0.0800 
 47 H        2.7170     6.3660    -0.1410 H     1 <1>   0.0800 
 48 H        4.0080     7.2720    -0.8940 H     1 <1>   0.0800 
 49 H        3.7850     7.3390     0.8410 H     1 <1>   0.0800 
@<TRIPOS>BOND
  1   1   2  2   
  2   1   3  2   
  3   1   4  1   
  4   1   5  1   
  5   4   6  ar  
  6   4   7  ar  
  7   5   8  1   
  8   5  25  1   
  9   5  26  1   
 10   6   9  ar  
 11   6  27  1   
 12   7  10  ar  
 13   7  28  1   
 14   8  11  1   
 15   8  29  1   
 16   8  30  1   
 17   9  12  ar  
 18   9  31  1   
 19  10  12  ar  
 20  10  32  1   
 21  11  13  2   
 22  11  14  am  
 23  12  33  1   
 24  14  15  1   
 25  14  16  1   
 26  15  17  1   
 27  15  34  1   
 28  15  35  1   
 29  16  18  1   
 30  16  36  1   
 31  16  37  1   
 32  17  19  1   
 33  17  20  1   
 34  17  38  1   
 35  18  21  1   
 36  18  22  1   
 37  18  39  1   
 38  19  22  1   
 39  19  23  1   
 40  19  40  1   
 41  20  24  1   
 42  20  41  1   
 43  20  42  1   
 44  21  24  1   
 45  21  43  1   
 46  21  44  1   
 47  22  45  1   
 48  22  46  1   
 49  23  47  1   
 50  23  48  1   
 51  23  49  1   
@<TRIPOS>SUBSTRUCTURE
  1 ****  14 GROUP 4 **** **** 0

# MOE 2024.06 (io_trps.svl 2023.06)
