@<TRIPOS>MOLECULE
NONAME
41 43 1 0 0 
SMALL
USER_CHARGES


@<TRIPOS>ATOM
  1 O        3.7520    -2.0130    -1.6660 O.2   1 <1>  -0.5700 
  2 C        2.8000    -1.7180    -0.9670 C.2   1 <1>   0.5440 
  3 N        2.8140    -0.4430    -0.4750 N.am  1 <1>  -0.6600 
  4 C        1.7790    -2.6980    -0.6180 C.ar  1 <1>   0.0860 
  5 C        3.3610    -0.2250     0.9090 C.3   1 <1>   0.2200 
  6 C        2.8240     0.6940    -1.4500 C.3   1 <1>   0.1400 
  7 C        0.4490    -2.3710    -0.2930 C.ar  1 <1>   0.0730 
  8 C        2.1350    -4.0500    -0.6030 C.ar  1 <1>  -0.1500 
  9 C        2.8470     1.0710     1.5580 C.3   1 <1>   0.1200 
 10 C        4.9130    -0.2630     0.9020 C.3   1 <1>   0.3430 
 11 C        3.8660     1.7900    -1.1640 C.3   1 <1>  -0.0800 
 12 C       -0.0420    -1.0220    -0.2950 C.1   1 <1>   0.4840 
 13 C       -0.4460    -3.3810     0.0440 C.ar  1 <1>  -0.1500 
 14 C        1.2360    -5.0420    -0.2680 C.ar  1 <1>  -0.1500 
 15 O        3.6710     2.1460     1.2190 O.3   1 <1>  -0.5600 
 16 N        5.4920    -0.0750    -0.4740 N.4   1 <1>  -0.9590 
 17 C        3.4270     2.7190    -0.0210 C.3   1 <1>   0.1200 
 18 C        5.3260     1.3120    -1.0140 C.3   1 <1>   0.3430 
 19 N       -0.4030     0.0590    -0.2730 N.1   1 <1>  -0.5570 
 20 C       -0.0620    -4.7070     0.0600 C.ar  1 <1>  -0.1500 
 21 C        6.9070    -0.5330    -0.5490 C.3   1 <1>   0.2630 
 22 H        3.0140    -1.0330     1.5300 H     1 <1>   0.0800 
 23 H        2.9990     0.3030    -2.4400 H     1 <1>   0.0800 
 24 H        1.8420     1.1380    -1.4640 H     1 <1>   0.0800 
 25 H        3.1420    -4.3350    -0.8620 H     1 <1>   0.1500 
 26 H        2.8970     0.9760     2.6280 H     1 <1>   0.0800 
 27 H        1.8250     1.2800     1.2860 H     1 <1>   0.0800 
 28 H        5.2180    -1.2240     1.2800 H     1 <1>   0.0800 
 29 H        5.2980     0.4860     1.5740 H     1 <1>   0.0800 
 30 H        3.8560     2.4230    -2.0330 H     1 <1>   0.0800 
 31 H       -1.4650    -3.1320     0.2960 H     1 <1>   0.1500 
 32 H        1.5430    -6.0760    -0.2640 H     1 <1>   0.1500 
 33 H        4.9110    -0.7000    -1.0800 H     1 <1>   0.4500 
 34 H        2.3810     2.9740    -0.0910 H     1 <1>   0.0800 
 35 H        3.9940     3.6340    -0.0560 H     1 <1>   0.0800 
 36 H        5.8570     2.0080    -0.3840 H     1 <1>   0.0800 
 37 H        5.7830     1.3460    -1.9890 H     1 <1>   0.0800 
 38 H       -0.7690    -5.4770     0.3230 H     1 <1>   0.1500 
 39 H        7.5320     0.0760     0.0830 H     1 <1>   0.0800 
 40 H        7.2660    -0.4670    -1.5630 H     1 <1>   0.0800 
 41 H        6.9820    -1.5600    -0.2290 H     1 <1>   0.0800 
@<TRIPOS>BOND
  1   1   2  2   
  2   2   3  am  
  3   2   4  1   
  4   3   5  1   
  5   3   6  1   
  6   4   7  ar  
  7   4   8  ar  
  8   5   9  1   
  9   5  10  1   
 10   5  22  1   
 11   6  11  1   
 12   6  23  1   
 13   6  24  1   
 14   7  12  1   
 15   7  13  ar  
 16   8  14  ar  
 17   8  25  1   
 18   9  15  1   
 19   9  26  1   
 20   9  27  1   
 21  10  16  1   
 22  10  28  1   
 23  10  29  1   
 24  11  17  1   
 25  11  18  1   
 26  11  30  1   
 27  12  19  3   
 28  13  20  ar  
 29  13  31  1   
 30  14  20  ar  
 31  14  32  1   
 32  15  17  1   
 33  16  18  1   
 34  16  21  1   
 35  16  33  1   
 36  17  34  1   
 37  17  35  1   
 38  18  36  1   
 39  18  37  1   
 40  20  38  1   
 41  21  39  1   
 42  21  40  1   
 43  21  41  1   
@<TRIPOS>SUBSTRUCTURE
  1 ****   3 GROUP 4 **** **** 0

# MOE 2024.06 (io_trps.svl 2023.06)
