@<TRIPOS>MOLECULE
NONAME
38 39 1 0 0 
SMALL
USER_CHARGES


@<TRIPOS>ATOM
  1 CL      -0.5110    -0.3750     0.8410 Cl    1 <1>  -0.1770 
  2 C        1.0820    -1.1050     0.7020 C.ar  1 <1>   0.1770 
  3 C        1.2870    -2.3410     0.0920 C.ar  1 <1>   0.4100 
  4 C        2.1650    -0.4490     1.2190 C.ar  1 <1>   0.1600 
  5 N        2.5080    -2.8510     0.0350 N.ar  1 <1>  -0.6200 
  6 N        0.2680    -3.0870    -0.4790 N.pl3 1 <1>  -0.8380 
  7 N        3.3860    -0.9520     1.1580 N.ar  1 <1>  -0.6200 
  8 C        3.4780    -2.1310     0.5660 C.ar  1 <1>   0.4770 
  9 C        0.2740    -4.5750    -0.4070 C.3   1 <1>   0.2090 
 10 C       -0.5520    -2.5060    -1.5770 C.3   1 <1>   0.1290 
 11 C        4.8660    -2.7200     0.4890 C.3   1 <1>  -0.0960 
 12 C       -1.0260    -5.0550     0.2370 C.3   1 <1>  -0.1600 
 13 C       -1.0020    -6.5640     0.4830 C.3   1 <1>   0.2000 
 14 O       -0.7990    -7.2000    -0.7420 O.3   1 <1>  -0.5600 
 15 C       -2.3180    -7.0650     1.0980 C.3   1 <1>  -0.1600 
 16 C       -0.6390    -8.5830    -0.6650 C.3   1 <1>   0.1200 
 17 C       -2.3140    -8.5930     1.2250 C.3   1 <1>  -0.1600 
 18 C       -1.9230    -9.2190    -0.1190 C.3   1 <1>  -0.1600 
 19 H        2.0320     0.5050     1.6960 H     1 <1>   0.1500 
 20 H        1.1050    -4.9150     0.1870 H     1 <1>   0.0800 
 21 H        0.3810    -4.9910    -1.3950 H     1 <1>   0.0800 
 22 H       -0.2260    -1.5050    -1.8010 H     1 <1>   0.0800 
 23 H       -1.5860    -2.4780    -1.2810 H     1 <1>   0.0800 
 24 H       -0.4550    -3.1040    -2.4670 H     1 <1>   0.0800 
 25 H        4.8260    -3.7360     0.1420 H     1 <1>   0.0800 
 26 H        5.3210    -2.7000     1.4610 H     1 <1>   0.0800 
 27 H        5.4600    -2.1400    -0.1910 H     1 <1>   0.0800 
 28 H       -1.8590    -4.8110    -0.3960 H     1 <1>   0.0800 
 29 H       -1.1510    -4.5510     1.1780 H     1 <1>   0.0800 
 30 H       -0.1740    -6.8100     1.1280 H     1 <1>   0.0800 
 31 H       -3.1370    -6.7570     0.4720 H     1 <1>   0.0800 
 32 H       -2.4570    -6.6210     2.0670 H     1 <1>   0.0800 
 33 H        0.2050    -8.7970    -0.0300 H     1 <1>   0.0800 
 34 H       -0.4310    -8.9450    -1.6570 H     1 <1>   0.0800 
 35 H       -3.2850    -8.9430     1.5290 H     1 <1>   0.0800 
 36 H       -1.6000    -8.8870     1.9750 H     1 <1>   0.0800 
 37 H       -1.7800   -10.2780    -0.0030 H     1 <1>   0.0800 
 38 H       -2.7120    -9.0680    -0.8350 H     1 <1>   0.0800 
@<TRIPOS>BOND
  1   1   2  1   
  2   2   3  ar  
  3   2   4  ar  
  4   3   5  ar  
  5   3   6  1   
  6   4   7  ar  
  7   4  19  1   
  8   5   8  ar  
  9   6   9  1   
 10   6  10  1   
 11   7   8  ar  
 12   8  11  1   
 13   9  12  1   
 14   9  20  1   
 15   9  21  1   
 16  10  22  1   
 17  10  23  1   
 18  10  24  1   
 19  11  25  1   
 20  11  26  1   
 21  11  27  1   
 22  12  13  1   
 23  12  28  1   
 24  12  29  1   
 25  13  14  1   
 26  13  15  1   
 27  13  30  1   
 28  14  16  1   
 29  15  17  1   
 30  15  31  1   
 31  15  32  1   
 32  16  18  1   
 33  16  33  1   
 34  16  34  1   
 35  17  18  1   
 36  17  35  1   
 37  17  36  1   
 38  18  37  1   
 39  18  38  1   
@<TRIPOS>SUBSTRUCTURE
  1 ****   9 GROUP 4 **** **** 0

# MOE 2024.06 (io_trps.svl 2023.06)
