@<TRIPOS>MOLECULE
NONAME
50 53 1 0 0 
SMALL
USER_CHARGES


@<TRIPOS>ATOM
  1 O       -0.1470     0.1730     0.7180 O.2   1 <1>  -0.5700 
  2 C       -1.1670     0.8350     0.7210 C.2   1 <1>   0.5440 
  3 N       -2.3720     0.1860     0.5770 N.am  1 <1>  -0.6600 
  4 C       -1.0850     2.2760     0.8620 C.ar  1 <1>   0.0860 
  5 C       -3.6180     0.8160     0.0690 C.3   1 <1>   0.1400 
  6 C       -2.4600    -1.2930     0.4720 C.3   1 <1>   0.1400 
  7 C       -0.1850     3.0210     0.1280 C.ar  1 <1>  -0.1500 
  8 C       -1.9150     2.9680     1.7670 C.ar  1 <1>  -0.1500 
  9 C       -4.3830    -0.3210    -0.6070 C.3   1 <1>   0.2000 
 10 C       -3.9130    -1.5900     0.0980 C.3   1 <1>  -0.0800 
 11 C       -0.0900     4.4140     0.2360 C.ar  1 <1>   0.3100 
 12 C       -1.8450     4.3300     1.8990 C.ar  1 <1>  -0.1500 
 13 O       -5.7530    -0.1710    -0.4670 O.3   1 <1>  -0.6800 
 14 C       -4.0830    -2.8570    -0.7540 C.3   1 <1>   0.0210 
 15 N        0.8100     5.0800    -0.5300 N.ar  1 <1>  -0.6200 
 16 C       -0.9410     5.0900     1.1420 C.ar  1 <1>   0.3100 
 17 C       -3.5200    -4.0690    -0.0370 C.2   1 <1>   0.1080 
 18 C        0.8210     6.3650    -0.3580 C.ar  1 <1>   0.1670 
 19 N       -0.9090     6.4350     1.2980 N.ar  1 <1>  -0.6200 
 20 N       -4.0060    -4.5130     1.0800 N.2   1 <1>  -0.7070 
 21 C       -2.4350    -4.8210    -0.4750 C.2   1 <1>  -0.1500 
 22 C       -0.0370     7.0410     0.5540 C.ar  1 <1>   0.1670 
 23 C        1.8200     7.1410    -1.1990 C.3   1 <1>  -0.0970 
 24 N       -3.2370    -5.5740     1.3870 N.pl3 1 <1>   0.3000 
 25 C       -2.2770    -5.7800     0.4610 C.2   1 <1>  -0.3320 
 26 C        0.0320     8.5520     0.7020 C.3   1 <1>  -0.0970 
 27 C       -1.2510    -6.8960     0.5280 C.3   1 <1>  -0.0600 
 28 H       -4.1800     1.2070     0.8990 H     1 <1>   0.0800 
 29 H       -3.3950     1.5980    -0.6350 H     1 <1>   0.0800 
 30 H       -1.7860    -1.6310    -0.2980 H     1 <1>   0.0800 
 31 H       -2.1920    -1.7590     1.4050 H     1 <1>   0.0800 
 32 H        0.4790     2.5290    -0.5590 H     1 <1>   0.1500 
 33 H       -2.6050     2.3980     2.3650 H     1 <1>   0.1500 
 34 H       -4.1470    -0.3420    -1.6570 H     1 <1>   0.0800 
 35 H       -4.4550    -1.7130     1.0200 H     1 <1>   0.0800 
 36 H       -2.4780     4.8570     2.5890 H     1 <1>   0.1500 
 37 H       -6.0190    -0.3380     0.4590 H     1 <1>   0.4000 
 38 H       -3.5860    -2.7380    -1.6990 H     1 <1>   0.0800 
 39 H       -5.1280    -3.0250    -0.9430 H     1 <1>   0.0800 
 40 H       -1.8630    -4.6510    -1.3700 H     1 <1>   0.1500 
 41 H        1.3060     7.8400    -1.8330 H     1 <1>   0.0800 
 42 H        2.3830     6.4700    -1.8240 H     1 <1>   0.0800 
 43 H        2.5080     7.6670    -0.5650 H     1 <1>   0.0800 
 44 H       -3.3920    -6.1350     2.2330 H     1 <1>   0.2700 
 45 H       -0.1900     9.0270    -0.2350 H     1 <1>   0.0800 
 46 H        1.0100     8.8470     1.0340 H     1 <1>   0.0800 
 47 H       -0.6860     8.8890     1.4290 H     1 <1>   0.0800 
 48 H       -0.5960    -6.8480    -0.3240 H     1 <1>   0.0800 
 49 H       -1.7410    -7.8530     0.5300 H     1 <1>   0.0800 
 50 H       -0.6580    -6.8020     1.4210 H     1 <1>   0.0800 
@<TRIPOS>BOND
  1   1   2  2   
  2   2   3  am  
  3   2   4  1   
  4   3   5  1   
  5   3   6  1   
  6   4   7  ar  
  7   4   8  ar  
  8   5   9  1   
  9   5  28  1   
 10   5  29  1   
 11   6  10  1   
 12   6  30  1   
 13   6  31  1   
 14   7  11  ar  
 15   7  32  1   
 16   8  12  ar  
 17   8  33  1   
 18   9  10  1   
 19   9  13  1   
 20   9  34  1   
 21  10  14  1   
 22  10  35  1   
 23  11  15  ar  
 24  11  16  ar  
 25  12  16  ar  
 26  12  36  1   
 27  13  37  1   
 28  14  17  1   
 29  14  38  1   
 30  14  39  1   
 31  15  18  ar  
 32  16  19  ar  
 33  17  20  2   
 34  17  21  1   
 35  18  22  ar  
 36  18  23  1   
 37  19  22  ar  
 38  20  24  1   
 39  21  25  2   
 40  21  40  1   
 41  22  26  1   
 42  23  41  1   
 43  23  42  1   
 44  23  43  1   
 45  24  25  1   
 46  24  44  1   
 47  25  27  1   
 48  26  45  1   
 49  26  46  1   
 50  26  47  1   
 51  27  48  1   
 52  27  49  1   
 53  27  50  1   
@<TRIPOS>SUBSTRUCTURE
  1 ****   2 GROUP 4 **** **** 0

# MOE 2024.06 (io_trps.svl 2023.06)
