@<TRIPOS>MOLECULE
NONAME
48 50 1 0 0 
SMALL
USER_CHARGES


@<TRIPOS>ATOM
  1 F        0.3150    -0.7210    -1.2120 F     1 <1>  -0.1900 
  2 C       -0.3950    -1.7950    -0.9700 C.ar  1 <1>   0.1900 
  3 C        0.1930    -3.0570    -0.8330 C.ar  1 <1>   0.0820 
  4 C       -1.7600    -1.6190    -0.8610 C.ar  1 <1>  -0.1500 
  5 O        1.5220    -3.3570    -0.9190 O.3   1 <1>  -0.3630 
  6 C       -0.6450    -4.1320    -0.5840 C.ar  1 <1>  -0.1500 
  7 C       -2.5660    -2.7140    -0.6140 C.ar  1 <1>  -0.1500 
  8 C        2.5220    -2.3760    -1.0760 C.3   1 <1>   0.0400 
  9 C       -2.0320    -3.9970    -0.4680 C.ar  1 <1>   0.0530 
 10 C       -2.8670    -5.1510    -0.2130 C.2   1 <1>   0.0870 
 11 O       -2.4090    -6.3560    -0.4560 O.3   1 <1>  -0.0190 
 12 C       -4.1320    -5.3050     0.2550 C.2   1 <1>  -0.2330 
 13 N       -3.2760    -7.2930    -0.1840 N.2   1 <1>  -0.4100 
 14 C       -4.3340    -6.6910     0.2440 C.2   1 <1>   0.3720 
 15 C       -5.0360    -4.2880     0.6790 C.2   1 <1>   1.0330 
 16 N       -5.4860    -7.3920     0.6570 N.pl3 1 <1>  -0.8210 
 17 O       -4.8400    -3.6590     1.7320 O.co2 1 <1>  -0.9000 
 18 O       -5.9870    -3.9420    -0.0470 O.co2 1 <1>  -0.9000 
 19 C       -5.5810    -8.8520     0.3830 C.3   1 <1>   0.2090 
 20 C       -6.8040    -6.7640     0.3920 C.3   1 <1>   0.2090 
 21 C       -6.9830    -9.0910    -0.1810 C.3   1 <1>  -0.0800 
 22 C       -7.7970    -7.9150     0.3510 C.3   1 <1>  -0.1600 
 23 C       -7.5520   -10.4720     0.2000 C.3   1 <1>  -0.1600 
 24 C       -8.9850   -10.7420    -0.3010 C.3   1 <1>  -0.0800 
 25 C       -9.4650   -12.1020     0.2180 C.3   1 <1>  -0.2400 
 26 C       -9.0780   -10.7200    -1.8330 C.3   1 <1>  -0.2400 
 27 H       -2.1900    -0.6400    -0.9660 H     1 <1>   0.1500 
 28 H       -0.2030    -5.1050    -0.4730 H     1 <1>   0.1500 
 29 H       -3.6290    -2.5620    -0.5330 H     1 <1>   0.1500 
 30 H        3.4780    -2.8670    -1.0640 H     1 <1>   0.0800 
 31 H        2.4600    -1.6790    -0.2590 H     1 <1>   0.0800 
 32 H        2.3800    -1.8790    -2.0190 H     1 <1>   0.0800 
 33 H       -5.4490    -9.3760     1.3130 H     1 <1>   0.0800 
 34 H       -4.8360    -9.1880    -0.3170 H     1 <1>   0.0800 
 35 H       -6.7790    -6.2600    -0.5600 H     1 <1>   0.0800 
 36 H       -7.0540    -6.0570     1.1660 H     1 <1>   0.0800 
 37 H       -6.9070    -9.0050    -1.2510 H     1 <1>   0.0800 
 38 H       -8.6410    -7.6790    -0.2710 H     1 <1>   0.0800 
 39 H       -8.1340    -8.1100     1.3530 H     1 <1>   0.0800 
 40 H       -7.5430   -10.5570     1.2730 H     1 <1>   0.0800 
 41 H       -6.8960   -11.2330    -0.1860 H     1 <1>   0.0800 
 42 H       -9.6440    -9.9870     0.0930 H     1 <1>   0.0800 
 43 H       -8.8390   -12.8930    -0.1560 H     1 <1>   0.0800 
 44 H      -10.4770   -12.2870    -0.0960 H     1 <1>   0.0800 
 45 H       -9.4390   -12.1220     1.2930 H     1 <1>   0.0800 
 46 H       -8.3890   -11.4250    -2.2650 H     1 <1>   0.0800 
 47 H       -8.8550    -9.7400    -2.2150 H     1 <1>   0.0800 
 48 H      -10.0730   -10.9760    -2.1490 H     1 <1>   0.0800 
@<TRIPOS>BOND
  1   1   2  1   
  2   2   3  ar  
  3   2   4  ar  
  4   3   5  1   
  5   3   6  ar  
  6   4   7  ar  
  7   4  27  1   
  8   5   8  1   
  9   6   9  ar  
 10   6  28  1   
 11   7   9  ar  
 12   7  29  1   
 13   8  30  1   
 14   8  31  1   
 15   8  32  1   
 16   9  10  1   
 17  10  11  1   
 18  10  12  2   
 19  11  13  1   
 20  12  14  1   
 21  12  15  1   
 22  13  14  2   
 23  14  16  1   
 24  15  17  ar  
 25  15  18  ar  
 26  16  19  1   
 27  16  20  1   
 28  19  21  1   
 29  19  33  1   
 30  19  34  1   
 31  20  22  1   
 32  20  35  1   
 33  20  36  1   
 34  21  22  1   
 35  21  23  1   
 36  21  37  1   
 37  22  38  1   
 38  22  39  1   
 39  23  24  1   
 40  23  40  1   
 41  23  41  1   
 42  24  25  1   
 43  24  26  1   
 44  24  42  1   
 45  25  43  1   
 46  25  44  1   
 47  25  45  1   
 48  26  46  1   
 49  26  47  1   
 50  26  48  1   
@<TRIPOS>SUBSTRUCTURE
  1 ****  12 GROUP 4 **** **** 0

# MOE 2024.06 (io_trps.svl 2023.06)
