@<TRIPOS>MOLECULE
NONAME
44 45 1 0 0 
SMALL
USER_CHARGES


@<TRIPOS>ATOM
  1 O        0.2980    -0.2730    -1.6310 O.2   1 <1>  -0.5700 
  2 C        1.0940    -0.4660    -0.7310 C.2   1 <1>   0.7160 
  3 N        1.6940     0.6160    -0.1710 N.am  1 <1>  -0.7300 
  4 C        1.4330    -1.7900    -0.2510 C.2   1 <1>  -0.0860 
  5 C        1.7050     1.9700    -0.7500 C.3   1 <1>   0.4000 
  6 C        0.7380    -2.9780    -0.2940 C.2   1 <1>  -0.3320 
  7 C        2.6450    -2.1050     0.3970 C.2   1 <1>  -0.1500 
  8 C        3.1160     2.5600    -0.6730 C.2   1 <1>   0.2980 
  9 C        0.7000     2.8200     0.0260 C.3   1 <1>  -0.2400 
 10 N        1.4650    -3.9710     0.2800 N.pl3 1 <1>   0.0480 
 11 C       -0.6500    -3.2130    -0.8770 C.3   1 <1>  -0.0600 
 12 C        2.6350    -3.4230     0.7070 C.2   1 <1>  -0.3320 
 13 O        3.3740     3.6400    -1.3680 O.3   1 <1>  -0.0190 
 14 N        4.0950     2.1050     0.0120 N.2   1 <1>  -0.5650 
 15 C        1.0740    -5.3860     0.4360 C.3   1 <1>   0.0160 
 16 C        3.7290    -4.2040     1.4140 C.3   1 <1>  -0.0600 
 17 N        4.6210     3.8900    -1.1080 N.2   1 <1>  -0.4100 
 18 C        5.0290     2.9870    -0.3050 C.2   1 <1>   0.3350 
 19 C        6.4260     2.8630     0.2720 C.3   1 <1>   0.0210 
 20 C        7.3840     3.9060    -0.2980 C.3   1 <1>   0.1200 
 21 O        8.6370     3.7020     0.2710 O.3   1 <1>  -0.5600 
 22 C        9.6070     4.5970    -0.1680 C.3   1 <1>   0.0400 
 23 H        2.4470     0.4540     0.4980 H     1 <1>   0.3700 
 24 H        1.4120     1.9220    -1.7860 H     1 <1>   0.0800 
 25 H        3.4380    -1.4050     0.5960 H     1 <1>   0.1500 
 26 H        0.9830     2.8830     1.0610 H     1 <1>   0.0800 
 27 H       -0.2810     2.3860    -0.0520 H     1 <1>   0.0800 
 28 H        0.6670     3.8130    -0.3840 H     1 <1>   0.0800 
 29 H       -1.1110    -2.2880    -1.1720 H     1 <1>   0.0800 
 30 H       -1.2850    -3.6790    -0.1460 H     1 <1>   0.0800 
 31 H       -0.5830    -3.8460    -1.7430 H     1 <1>   0.0800 
 32 H        0.3110    -5.6380    -0.2750 H     1 <1>   0.0800 
 33 H        0.7040    -5.5390     1.4330 H     1 <1>   0.0800 
 34 H        1.9280    -6.0140     0.2660 H     1 <1>   0.0800 
 35 H        4.5410    -3.5490     1.6760 H     1 <1>   0.0800 
 36 H        4.1090    -4.9770     0.7710 H     1 <1>   0.0800 
 37 H        3.3450    -4.6500     2.3140 H     1 <1>   0.0800 
 38 H        6.8000     1.8810     0.0500 H     1 <1>   0.0800 
 39 H        6.3670     2.9790     1.3380 H     1 <1>   0.0800 
 40 H        7.0480     4.9000    -0.0550 H     1 <1>   0.0800 
 41 H        7.4660     3.7980    -1.3670 H     1 <1>   0.0800 
 42 H       10.5320     4.3570     0.3270 H     1 <1>   0.0800 
 43 H        9.3090     5.5990     0.0880 H     1 <1>   0.0800 
 44 H        9.7290     4.4970    -1.2320 H     1 <1>   0.0800 
@<TRIPOS>BOND
  1   1   2  2   
  2   2   3  am  
  3   2   4  1   
  4   3   5  1   
  5   3  23  1   
  6   4   6  2   
  7   4   7  1   
  8   5   8  1   
  9   5   9  1   
 10   5  24  1   
 11   6  10  1   
 12   6  11  1   
 13   7  12  2   
 14   7  25  1   
 15   8  13  1   
 16   8  14  2   
 17   9  26  1   
 18   9  27  1   
 19   9  28  1   
 20  10  12  1   
 21  10  15  1   
 22  11  29  1   
 23  11  30  1   
 24  11  31  1   
 25  12  16  1   
 26  13  17  1   
 27  14  18  1   
 28  15  32  1   
 29  15  33  1   
 30  15  34  1   
 31  16  35  1   
 32  16  36  1   
 33  16  37  1   
 34  17  18  2   
 35  18  19  1   
 36  19  20  1   
 37  19  38  1   
 38  19  39  1   
 39  20  21  1   
 40  20  40  1   
 41  20  41  1   
 42  21  22  1   
 43  22  42  1   
 44  22  43  1   
 45  22  44  1   
@<TRIPOS>SUBSTRUCTURE
  1 ****   3 GROUP 4 **** **** 0

# MOE 2024.06 (io_trps.svl 2023.06)
