@<TRIPOS>MOLECULE
NONAME
52 54 1 0 0 
SMALL
USER_CHARGES


@<TRIPOS>ATOM
  1 O       -1.5450     0.4320    -2.4560 O.2   1 <1>  -0.5700 
  2 C       -1.5580     1.0330    -1.3980 C.2   1 <1>   0.6160 
  3 N       -1.5870     0.3050    -0.2270 N.am  1 <1>  -0.6600 
  4 C       -1.6060     2.4780    -1.4090 C.2   1 <1>  -0.0140 
  5 C       -1.3370    -1.1680    -0.2150 C.3   1 <1>   0.1400 
  6 C       -2.0520     0.8440     1.0790 C.3   1 <1>   0.1400 
  7 C       -0.5760     3.2630    -0.7600 C.ar  1 <1>   0.0280 
  8 C       -2.6280     3.1290    -2.0330 C.2   1 <1>  -0.1360 
  9 C       -2.6470    -1.9320     0.0740 C.3   1 <1>   0.0000 
 10 C       -3.3380     0.1240     1.5000 C.3   1 <1>  -0.1600 
 11 C       -0.7100     4.6630    -0.7380 C.ar  1 <1>   0.1170 
 12 C        0.5600     2.7100    -0.1560 C.ar  1 <1>  -0.1500 
 13 C       -2.7460     4.5410    -2.0280 C.2   1 <1>   0.6160 
 14 C       -3.1770    -1.4040     1.4390 C.3   1 <1>   0.2000 
 15 C       -3.6820    -1.6570    -1.0530 C.3   1 <1>   0.1200 
 16 C       -2.3770    -3.4650     0.1140 C.3   1 <1>  -0.1600 
 17 N       -1.7980     5.2530    -1.3670 N.am  1 <1>  -0.5470 
 18 C        0.2440     5.4510    -0.1010 C.ar  1 <1>  -0.1500 
 19 C        1.5060     3.4970     0.4710 C.ar  1 <1>  -0.1430 
 20 O       -3.6570     5.1400    -2.5680 O.2   1 <1>  -0.5700 
 21 O       -4.3980    -1.9730     1.7610 O.3   1 <1>  -0.6800 
 22 O       -3.1420    -1.8880    -2.3110 O.3   1 <1>  -0.6800 
 23 C       -1.3990    -3.9670     1.1940 C.3   1 <1>  -0.1600 
 24 C        1.3400     4.8740     0.5010 C.ar  1 <1>  -0.1500 
 25 C        2.7290     2.8800     1.1250 C.3   1 <1>  -0.0970 
 26 C       -1.2050    -5.4820     1.0820 C.3   1 <1>  -0.2400 
 27 H       -0.9120    -1.4930    -1.1490 H     1 <1>   0.0800 
 28 H       -0.6110    -1.3760     0.5500 H     1 <1>   0.0800 
 29 H       -1.2840     0.6830     1.8170 H     1 <1>   0.0800 
 30 H       -2.2370     1.9030     1.0190 H     1 <1>   0.0800 
 31 H       -3.4000     2.5970    -2.5570 H     1 <1>   0.1500 
 32 H       -4.1410     0.4500     0.8640 H     1 <1>   0.0800 
 33 H       -3.5790     0.4120     2.5080 H     1 <1>   0.0800 
 34 H        0.7090     1.6460    -0.1830 H     1 <1>   0.1500 
 35 H       -2.4900    -1.6870     2.2170 H     1 <1>   0.0800 
 36 H       -4.0210    -0.6380    -1.0440 H     1 <1>   0.0800 
 37 H       -4.5350    -2.3050    -0.9460 H     1 <1>   0.0800 
 38 H       -3.3150    -3.9740     0.2540 H     1 <1>   0.0800 
 39 H       -2.0020    -3.7710    -0.8480 H     1 <1>   0.0800 
 40 H       -1.9130     6.2650    -1.3960 H     1 <1>   0.3700 
 41 H        0.1250     6.5190    -0.0820 H     1 <1>   0.1500 
 42 H       -5.0710    -1.7430     1.0950 H     1 <1>   0.4000 
 43 H       -2.5120    -1.1570    -2.5390 H     1 <1>   0.4000 
 44 H       -0.4390    -3.4950     1.0890 H     1 <1>   0.0800 
 45 H       -1.7830    -3.7490     2.1750 H     1 <1>   0.0800 
 46 H        2.0730     5.4930     0.9910 H     1 <1>   0.1500 
 47 H        3.6230     3.3110     0.7100 H     1 <1>   0.0800 
 48 H        2.7590     1.8170     0.9670 H     1 <1>   0.0800 
 49 H        2.7120     3.0680     2.1840 H     1 <1>   0.0800 
 50 H       -0.8000    -5.7410     0.1190 H     1 <1>   0.0800 
 51 H       -2.1450    -5.9910     1.2100 H     1 <1>   0.0800 
 52 H       -0.5250    -5.8240     1.8420 H     1 <1>   0.0800 
@<TRIPOS>BOND
  1   1   2  2   
  2   2   3  am  
  3   2   4  1   
  4   3   5  1   
  5   3   6  1   
  6   4   7  1   
  7   4   8  2   
  8   5   9  1   
  9   5  27  1   
 10   5  28  1   
 11   6  10  1   
 12   6  29  1   
 13   6  30  1   
 14   7  11  ar  
 15   7  12  ar  
 16   8  13  1   
 17   8  31  1   
 18   9  14  1   
 19   9  15  1   
 20   9  16  1   
 21  10  14  1   
 22  10  32  1   
 23  10  33  1   
 24  11  17  1   
 25  11  18  ar  
 26  12  19  ar  
 27  12  34  1   
 28  13  17  am  
 29  13  20  2   
 30  14  21  1   
 31  14  35  1   
 32  15  22  1   
 33  15  36  1   
 34  15  37  1   
 35  16  23  1   
 36  16  38  1   
 37  16  39  1   
 38  17  40  1   
 39  18  24  ar  
 40  18  41  1   
 41  19  24  ar  
 42  19  25  1   
 43  21  42  1   
 44  22  43  1   
 45  23  26  1   
 46  23  44  1   
 47  23  45  1   
 48  24  46  1   
 49  25  47  1   
 50  25  48  1   
 51  25  49  1   
 52  26  50  1   
 53  26  51  1   
 54  26  52  1   
@<TRIPOS>SUBSTRUCTURE
  1 ****   3 GROUP 4 **** **** 0

# MOE 2024.06 (io_trps.svl 2023.06)
