@<TRIPOS>MOLECULE
NONAME
44 46 1 0 0 
SMALL
USER_CHARGES


@<TRIPOS>ATOM
  1 O        0.8120     1.6630    -1.6200 O.2   1 <1>  -0.5700 
  2 C        0.4610     2.8070    -1.4790 C.2   1 <1>   0.5690 
  3 N       -0.2610     3.1830    -0.4030 N.am  1 <1>  -0.7300 
  4 C        0.7930     3.8530    -2.5410 C.3   1 <1>   0.1810 
  5 C       -0.8370     4.5410    -0.2240 C.3   1 <1>   0.3640 
  6 O        0.7610     5.1630    -2.0230 O.3   1 <1>  -0.5600 
  7 C       -2.3530     4.3890    -0.1050 C.ar  1 <1>  -0.1440 
  8 C       -0.4560     5.5240    -1.3710 C.3   1 <1>   0.2610 
  9 C       -3.0400     5.0720     0.8890 C.ar  1 <1>  -0.1500 
 10 C       -3.0710     3.5790    -0.9790 C.ar  1 <1>  -0.1500 
 11 C       -0.3480     6.9540    -0.8250 C.2   1 <1>   0.5690 
 12 C       -4.4130     4.9480     1.0110 C.ar  1 <1>  -0.1500 
 13 C       -4.4440     3.4530    -0.8580 C.ar  1 <1>  -0.1500 
 14 O       -1.2160     7.3870    -0.1030 O.2   1 <1>  -0.5700 
 15 N        0.7450     7.6900    -1.1660 N.am  1 <1>  -0.5790 
 16 C       -5.1160     4.1370     0.1380 C.ar  1 <1>  -0.1500 
 17 C        1.0690     9.0550    -0.7320 C.3   1 <1>   0.0540 
 18 C        1.5410     9.9840    -1.8010 C.3   1 <1>  -0.2000 
 19 C        0.1690    10.1420    -1.2150 C.3   1 <1>  -0.2000 
 20 C        1.6660     9.1120     0.6800 C.3   1 <1>  -0.0650 
 21 C        2.9750     8.3160     0.7980 C.3   1 <1>  -0.1600 
 22 C        3.5790     8.4440     2.2000 C.3   1 <1>  -0.2400 
 23 H       -0.5430     2.4700     0.2700 H     1 <1>   0.3700 
 24 H        0.0890     3.7850    -3.3500 H     1 <1>   0.0800 
 25 H        1.7820     3.6730    -2.9210 H     1 <1>   0.0800 
 26 H       -0.4540     4.9350     0.7020 H     1 <1>   0.0800 
 27 H       -1.2330     5.5170    -2.1140 H     1 <1>   0.0800 
 28 H       -2.5130     5.7160     1.5720 H     1 <1>   0.1500 
 29 H       -2.5680     3.0350    -1.7600 H     1 <1>   0.1500 
 30 H       -4.9330     5.4860     1.7840 H     1 <1>   0.1500 
 31 H       -4.9890     2.8220    -1.5370 H     1 <1>   0.1500 
 32 H        1.4600     7.2180    -1.7260 H     1 <1>   0.3700 
 33 H       -6.1840     4.0410     0.2340 H     1 <1>   0.1500 
 34 H        2.2770    10.7310    -1.5630 H     1 <1>   0.1000 
 35 H        1.6260     9.6250    -2.8110 H     1 <1>   0.1000 
 36 H       -0.6950     9.8640    -1.7930 H     1 <1>   0.1000 
 37 H       -0.0200    10.9860    -0.5750 H     1 <1>   0.1000 
 38 H        1.8540    10.1390     0.9390 H     1 <1>   0.0800 
 39 H        0.9390     8.7320     1.3770 H     1 <1>   0.0800 
 40 H        2.7880     7.2770     0.5910 H     1 <1>   0.0800 
 41 H        3.6810     8.6800     0.0720 H     1 <1>   0.0800 
 42 H        2.8940     8.0700     2.9400 H     1 <1>   0.0800 
 43 H        3.8020     9.4730     2.4220 H     1 <1>   0.0800 
 44 H        4.4910     7.8770     2.2610 H     1 <1>   0.0800 
@<TRIPOS>BOND
  1   1   2  2   
  2   2   3  am  
  3   2   4  1   
  4   3   5  1   
  5   3  23  1   
  6   4   6  1   
  7   4  24  1   
  8   4  25  1   
  9   5   7  1   
 10   5   8  1   
 11   5  26  1   
 12   6   8  1   
 13   7   9  ar  
 14   7  10  ar  
 15   8  11  1   
 16   8  27  1   
 17   9  12  ar  
 18   9  28  1   
 19  10  13  ar  
 20  10  29  1   
 21  11  14  2   
 22  11  15  am  
 23  12  16  ar  
 24  12  30  1   
 25  13  16  ar  
 26  13  31  1   
 27  15  17  1   
 28  15  32  1   
 29  16  33  1   
 30  17  18  1   
 31  17  19  1   
 32  17  20  1   
 33  18  19  1   
 34  18  34  1   
 35  18  35  1   
 36  19  36  1   
 37  19  37  1   
 38  20  21  1   
 39  20  38  1   
 40  20  39  1   
 41  21  22  1   
 42  21  40  1   
 43  21  41  1   
 44  22  42  1   
 45  22  43  1   
 46  22  44  1   
@<TRIPOS>SUBSTRUCTURE
  1 ****   8 GROUP 4 **** **** 0

# MOE 2024.06 (io_trps.svl 2023.06)
