@<TRIPOS>MOLECULE
NONAME
49 51 1 0 0 
SMALL
USER_CHARGES


@<TRIPOS>ATOM
  1 O       -2.2740     0.8220    -1.6700 O.2   1 <1>  -0.5700 
  2 C       -2.2480     0.9720    -0.4720 C.2   1 <1>   0.5690 
  3 N       -2.2790    -0.0860     0.3800 N.am  1 <1>  -0.7300 
  4 C       -2.1730     2.3780     0.1260 C.3   1 <1>  -0.0190 
  5 C       -2.3240    -1.5090    -0.0360 C.3   1 <1>   0.1400 
  6 C       -2.6650     3.4760    -0.8420 C.3   1 <1>  -0.1600 
  7 C       -0.7410     2.6930     0.6220 C.3   1 <1>  -0.1600 
  8 C       -3.6580    -2.1340     0.3830 C.3   1 <1>  -0.0170 
  9 C       -2.7250     4.8650    -0.1720 C.3   1 <1>   0.2000 
 10 C       -0.4550     4.1990     0.7890 C.3   1 <1>  -0.1600 
 11 C       -3.8090    -3.6340     0.0990 C.ar  1 <1>  -0.1440 
 12 O       -2.4130     5.8410    -1.1360 O.3   1 <1>  -0.5600 
 13 C       -1.7410     4.9980     1.0210 C.3   1 <1>   0.2000 
 14 C       -4.9770    -4.3010     0.5640 C.ar  1 <1>   0.0000 
 15 C       -2.8490    -4.3380    -0.5880 C.ar  1 <1>  -0.1500 
 16 C       -3.4360     6.1370    -2.0360 C.3   1 <1>   0.0400 
 17 O       -1.3970     6.3240     1.1810 O.3   1 <1>  -0.6800 
 18 C       -5.1110    -5.6900     0.3230 C.ar  1 <1>   0.0000 
 19 C       -6.0330    -3.6620     1.2580 C.ar  1 <1>  -0.1500 
 20 C       -2.9920    -5.7070    -0.8290 C.ar  1 <1>  -0.1500 
 21 C       -4.0970    -6.3660    -0.3800 C.ar  1 <1>  -0.1500 
 22 C       -6.2550    -6.3700     0.7880 C.ar  1 <1>  -0.1500 
 23 C       -7.1340    -4.3440     1.6960 C.ar  1 <1>  -0.1500 
 24 C       -7.2480    -5.7170     1.4600 C.ar  1 <1>  -0.1500 
 25 H       -2.2250     0.0780     1.3860 H     1 <1>   0.3700 
 26 H       -2.8330     2.3870     0.9750 H     1 <1>   0.0800 
 27 H       -2.2120    -1.5810    -1.1050 H     1 <1>   0.0800 
 28 H       -1.5080    -2.0350     0.4300 H     1 <1>   0.0800 
 29 H       -3.6420     3.2160    -1.2100 H     1 <1>   0.0800 
 30 H       -1.9900     3.5110    -1.6800 H     1 <1>   0.0800 
 31 H       -0.5830     2.1930     1.5620 H     1 <1>   0.0800 
 32 H       -0.0250     2.2920    -0.0770 H     1 <1>   0.0800 
 33 H       -3.7720    -1.9820     1.4410 H     1 <1>   0.0800 
 34 H       -4.4470    -1.6110    -0.1280 H     1 <1>   0.0800 
 35 H       -3.7170     5.0550     0.2010 H     1 <1>   0.0800 
 36 H        0.0120     4.5650    -0.1100 H     1 <1>   0.0800 
 37 H        0.2250     4.3510     1.6080 H     1 <1>   0.0800 
 38 H       -2.2080     4.6670     1.9320 H     1 <1>   0.0800 
 39 H       -1.9560    -3.8780    -0.9690 H     1 <1>   0.1500 
 40 H       -3.0860     6.9130    -2.6940 H     1 <1>   0.0800 
 41 H       -4.2980     6.4850    -1.4940 H     1 <1>   0.0800 
 42 H       -3.6760     5.2600    -2.6110 H     1 <1>   0.0800 
 43 H       -1.4280     6.7170     0.2790 H     1 <1>   0.4000 
 44 H       -5.9790    -2.6080     1.4500 H     1 <1>   0.1500 
 45 H       -2.2200    -6.2270    -1.3700 H     1 <1>   0.1500 
 46 H       -4.2120    -7.4200    -0.5610 H     1 <1>   0.1500 
 47 H       -6.3340    -7.4250     0.5990 H     1 <1>   0.1500 
 48 H       -7.9250    -3.8390     2.2230 H     1 <1>   0.1500 
 49 H       -8.1190    -6.2410     1.8130 H     1 <1>   0.1500 
@<TRIPOS>BOND
  1   1   2  2   
  2   2   3  am  
  3   2   4  1   
  4   3   5  1   
  5   3  25  1   
  6   4   6  1   
  7   4   7  1   
  8   4  26  1   
  9   5   8  1   
 10   5  27  1   
 11   5  28  1   
 12   6   9  1   
 13   6  29  1   
 14   6  30  1   
 15   7  10  1   
 16   7  31  1   
 17   7  32  1   
 18   8  11  1   
 19   8  33  1   
 20   8  34  1   
 21   9  12  1   
 22   9  13  1   
 23   9  35  1   
 24  10  13  1   
 25  10  36  1   
 26  10  37  1   
 27  11  14  ar  
 28  11  15  ar  
 29  12  16  1   
 30  13  17  1   
 31  13  38  1   
 32  14  18  ar  
 33  14  19  ar  
 34  15  20  ar  
 35  15  39  1   
 36  16  40  1   
 37  16  41  1   
 38  16  42  1   
 39  17  43  1   
 40  18  21  ar  
 41  18  22  ar  
 42  19  23  ar  
 43  19  44  1   
 44  20  21  ar  
 45  20  45  1   
 46  21  46  1   
 47  22  24  ar  
 48  22  47  1   
 49  23  24  ar  
 50  23  48  1   
 51  24  49  1   
@<TRIPOS>SUBSTRUCTURE
  1 ****   3 GROUP 4 **** **** 0

# MOE 2024.06 (io_trps.svl 2023.06)
