@<TRIPOS>MOLECULE
NONAME
49 50 1 0 0 
SMALL
USER_CHARGES


@<TRIPOS>ATOM
  1 O       -0.2820     1.0530    -0.8320 O.2   1 <1>  -0.5700 
  2 C       -0.5130     2.2390    -0.8430 C.2   1 <1>   0.5690 
  3 N       -1.4190     2.8500    -0.0140 N.am  1 <1>  -0.6600 
  4 C        0.2460     3.0980    -1.8490 C.3   1 <1>   0.1810 
  5 C       -1.6610     4.3300    -0.1100 C.3   1 <1>   0.3640 
  6 C       -2.1730     2.1660     1.0730 C.3   1 <1>   0.2200 
  7 O        0.5130     4.3750    -1.3350 O.3   1 <1>  -0.5600 
  8 C       -3.0860     4.5770    -0.6130 C.ar  1 <1>  -0.1440 
  9 C       -0.6520     5.1190    -0.9950 C.3   1 <1>   0.2610 
 10 C       -1.2060     1.6580     2.1410 C.3   1 <1>  -0.2400 
 11 C       -3.0590     1.0470     0.5240 C.3   1 <1>  -0.2400 
 12 C       -3.8760     5.5380     0.0020 C.ar  1 <1>  -0.1500 
 13 C       -3.6100     3.8650    -1.6860 C.ar  1 <1>  -0.1500 
 14 C       -0.2600     6.4190    -0.2830 C.2   1 <1>   0.5690 
 15 C       -5.1650     5.7800    -0.4410 C.ar  1 <1>  -0.1500 
 16 C       -4.8980     4.1050    -2.1300 C.ar  1 <1>  -0.1500 
 17 O       -1.1310     7.1760     0.0780 O.2   1 <1>  -0.5700 
 18 N        1.0620     6.6660    -0.0690 N.am  1 <1>  -0.7300 
 19 C       -5.6780     5.0630    -1.5070 C.ar  1 <1>  -0.1500 
 20 C        1.7170     7.7980     0.5880 C.3   1 <1>   0.3000 
 21 C        3.2190     7.5240     0.5300 C.3   1 <1>  -0.2400 
 22 C        1.3980     9.0860    -0.1690 C.3   1 <1>  -0.2400 
 23 C        1.2630     7.8790     2.0450 C.3   1 <1>  -0.2400 
 24 H       -0.3230     3.1960    -2.7550 H     1 <1>   0.0800 
 25 H        1.1880     2.6320    -2.0750 H     1 <1>   0.0800 
 26 H       -1.5880     4.7240     0.8900 H     1 <1>   0.0800 
 27 H       -2.8270     2.8840     1.5420 H     1 <1>   0.0800 
 28 H       -1.1310     5.3910    -1.9180 H     1 <1>   0.0800 
 29 H       -0.5720     0.8850     1.7460 H     1 <1>   0.0800 
 30 H       -1.7580     1.2490     2.9680 H     1 <1>   0.0800 
 31 H       -0.5970     2.4650     2.5050 H     1 <1>   0.0800 
 32 H       -2.4690     0.2480     0.1130 H     1 <1>   0.0800 
 33 H       -3.7160     1.4310    -0.2340 H     1 <1>   0.0800 
 34 H       -3.6610     0.6420     1.3160 H     1 <1>   0.0800 
 35 H       -3.4920     6.1140     0.8270 H     1 <1>   0.1500 
 36 H       -3.0210     3.1120    -2.1800 H     1 <1>   0.1500 
 37 H       -5.7670     6.5290     0.0430 H     1 <1>   0.1500 
 38 H       -5.2950     3.5450    -2.9590 H     1 <1>   0.1500 
 39 H        1.7050     5.9520    -0.4210 H     1 <1>   0.3700 
 40 H       -6.6800     5.2510    -1.8510 H     1 <1>   0.1500 
 41 H        3.7580     8.3260     1.0010 H     1 <1>   0.0800 
 42 H        3.5510     7.4510    -0.4900 H     1 <1>   0.0800 
 43 H        3.4570     6.6110     1.0470 H     1 <1>   0.0800 
 44 H        1.9330     9.9120     0.2630 H     1 <1>   0.0800 
 45 H        0.3470     9.3070    -0.1150 H     1 <1>   0.0800 
 46 H        1.6830     8.9970    -1.2020 H     1 <1>   0.0800 
 47 H        1.7950     8.6600     2.5550 H     1 <1>   0.0800 
 48 H        1.4520     6.9490     2.5510 H     1 <1>   0.0800 
 49 H        0.2130     8.1020     2.1020 H     1 <1>   0.0800 
@<TRIPOS>BOND
  1   1   2  2   
  2   2   3  am  
  3   2   4  1   
  4   3   5  1   
  5   3   6  1   
  6   4   7  1   
  7   4  24  1   
  8   4  25  1   
  9   5   8  1   
 10   5   9  1   
 11   5  26  1   
 12   6  10  1   
 13   6  11  1   
 14   6  27  1   
 15   7   9  1   
 16   8  12  ar  
 17   8  13  ar  
 18   9  14  1   
 19   9  28  1   
 20  10  29  1   
 21  10  30  1   
 22  10  31  1   
 23  11  32  1   
 24  11  33  1   
 25  11  34  1   
 26  12  15  ar  
 27  12  35  1   
 28  13  16  ar  
 29  13  36  1   
 30  14  17  2   
 31  14  18  am  
 32  15  19  ar  
 33  15  37  1   
 34  16  19  ar  
 35  16  38  1   
 36  18  20  1   
 37  18  39  1   
 38  19  40  1   
 39  20  21  1   
 40  20  22  1   
 41  20  23  1   
 42  21  41  1   
 43  21  42  1   
 44  21  43  1   
 45  22  44  1   
 46  22  45  1   
 47  22  46  1   
 48  23  47  1   
 49  23  48  1   
 50  23  49  1   
@<TRIPOS>SUBSTRUCTURE
  1 ****   5 GROUP 4 **** **** 0

# MOE 2024.06 (io_trps.svl 2023.06)
