@<TRIPOS>MOLECULE
NONAME
45 45 1 0 0 
SMALL
USER_CHARGES


@<TRIPOS>ATOM
  1 O        0.5560     0.1260     0.4770 O.2   1 <1>  -0.5700 
  2 C        1.5080    -0.6200     0.5670 C.2   1 <1>   0.7800 
  3 O        1.4580    -1.8740     0.1170 O.3   1 <1>  -0.4300 
  4 N        2.6960    -0.1990     1.1110 N.am  1 <1>  -0.6600 
  5 C        0.3490    -2.5290    -0.4640 C.3   1 <1>   0.2800 
  6 C        3.9480    -1.0090     1.0750 C.3   1 <1>   0.1400 
  7 C        2.8600     1.1860     1.6400 C.3   1 <1>   0.1400 
  8 C        0.8380    -3.9450    -0.7710 C.3   1 <1>  -0.2400 
  9 C       -0.0510    -1.8380    -1.7730 C.3   1 <1>  -0.2400 
 10 C       -0.8090    -2.6010     0.5380 C.3   1 <1>  -0.2400 
 11 C        5.0550    -0.2490     0.3190 C.3   1 <1>   0.3430 
 12 C        3.9680     1.9230     0.8660 C.3   1 <1>   0.3430 
 13 N        5.2670     1.1510     0.8510 N.4   1 <1>  -0.9590 
 14 C        6.2970     1.9020     0.0800 C.3   1 <1>   0.3430 
 15 C        7.6990     1.3490     0.3580 C.3   1 <1>  -0.1600 
 16 C        8.7660     2.1980    -0.3540 C.3   1 <1>  -0.1600 
 17 C       10.1950     1.6860    -0.0930 C.3   1 <1>   0.0400 
 18 C       11.2040     2.5290    -0.7940 C.1   1 <1>   0.3570 
 19 N       11.9560     3.1850    -1.3380 N.1   1 <1>  -0.5570 
 20 H        3.7800    -1.9550     0.5910 H     1 <1>   0.0800 
 21 H        4.2650    -1.2150     2.0830 H     1 <1>   0.0800 
 22 H        3.1060     1.1410     2.6860 H     1 <1>   0.0800 
 23 H        1.9400     1.7410     1.5490 H     1 <1>   0.0800 
 24 H        1.6650    -3.9170    -1.4570 H     1 <1>   0.0800 
 25 H        0.0490    -4.5230    -1.2180 H     1 <1>   0.0800 
 26 H        1.1460    -4.4390     0.1330 H     1 <1>   0.0800 
 27 H        0.7980    -1.7460    -2.4250 H     1 <1>   0.0800 
 28 H       -0.4660    -0.8650    -1.5890 H     1 <1>   0.0800 
 29 H       -0.8030    -2.4180    -2.2760 H     1 <1>   0.0800 
 30 H       -0.4770    -3.0280     1.4670 H     1 <1>   0.0800 
 31 H       -1.5960    -3.2180     0.1430 H     1 <1>   0.0800 
 32 H       -1.2260    -1.6290     0.7230 H     1 <1>   0.0800 
 33 H        4.7770    -0.2000    -0.7220 H     1 <1>   0.0800 
 34 H        5.9700    -0.8120     0.3880 H     1 <1>   0.0800 
 35 H        4.1210     2.8920     1.3140 H     1 <1>   0.0800 
 36 H        3.6260     2.0780    -0.1440 H     1 <1>   0.0800 
 37 H        5.5840     1.0720     1.8270 H     1 <1>   0.4500 
 38 H        6.2740     2.9410     0.3690 H     1 <1>   0.0800 
 39 H        6.0820     1.8460    -0.9760 H     1 <1>   0.0800 
 40 H        7.7750     0.3350     0.0060 H     1 <1>   0.0800 
 41 H        7.8900     1.3680     1.4180 H     1 <1>   0.0800 
 42 H        8.6990     3.2210    -0.0180 H     1 <1>   0.0800 
 43 H        8.5850     2.1910    -1.4170 H     1 <1>   0.0800 
 44 H       10.2990     0.6750    -0.4420 H     1 <1>   0.0800 
 45 H       10.4120     1.7070     0.9600 H     1 <1>   0.0800 
@<TRIPOS>BOND
  1   1   2  2   
  2   2   3  1   
  3   2   4  am  
  4   3   5  1   
  5   4   6  1   
  6   4   7  1   
  7   5   8  1   
  8   5   9  1   
  9   5  10  1   
 10   6  11  1   
 11   6  20  1   
 12   6  21  1   
 13   7  12  1   
 14   7  22  1   
 15   7  23  1   
 16   8  24  1   
 17   8  25  1   
 18   8  26  1   
 19   9  27  1   
 20   9  28  1   
 21   9  29  1   
 22  10  30  1   
 23  10  31  1   
 24  10  32  1   
 25  11  13  1   
 26  11  33  1   
 27  11  34  1   
 28  12  13  1   
 29  12  35  1   
 30  12  36  1   
 31  13  14  1   
 32  13  37  1   
 33  14  15  1   
 34  14  38  1   
 35  14  39  1   
 36  15  16  1   
 37  15  40  1   
 38  15  41  1   
 39  16  17  1   
 40  16  42  1   
 41  16  43  1   
 42  17  18  1   
 43  17  44  1   
 44  17  45  1   
 45  18  19  3   
@<TRIPOS>SUBSTRUCTURE
  1 ****  11 GROUP 4 **** **** 0

# MOE 2024.06 (io_trps.svl 2023.06)
