@<TRIPOS>MOLECULE
NONAME
49 51 1 0 0 
SMALL
USER_CHARGES


@<TRIPOS>ATOM
  1 O        2.6080    -1.8340     1.5960 O.2   1 <1>  -0.5700 
  2 C        2.6760    -1.4980     0.4320 C.2   1 <1>   0.5690 
  3 N        3.2000    -0.2690     0.0960 N.am  1 <1>  -0.6600 
  4 C        2.2040    -2.4880    -0.6640 C.3   1 <1>   0.2610 
  5 C        3.2940     0.2780    -1.2970 C.3   1 <1>   0.1400 
  6 C        3.6970     0.6640     1.1420 C.3   1 <1>   0.1400 
  7 O        1.0670    -2.0100    -1.3310 O.3   1 <1>  -0.5600 
  8 C        1.7560    -3.8640    -0.1690 C.3   1 <1>  -0.1600 
  9 C        4.7310     0.2440    -1.8440 C.3   1 <1>   0.1400 
 10 C        5.1700     0.3880     1.4730 C.3   1 <1>  -0.1600 
 11 C       -0.0770    -2.3760    -0.6270 C.3   1 <1>   0.1200 
 12 C        0.2670    -3.6810     0.0890 C.3   1 <1>  -0.1600 
 13 N        5.7120     0.8990    -0.9200 N.am  1 <1>  -0.6600 
 14 C        6.0640     0.0670     0.2670 C.3   1 <1>   0.1400 
 15 C        6.2000     2.1560    -1.1850 C.2   1 <1>   0.5690 
 16 O        5.8240     2.7820    -2.1490 O.2   1 <1>  -0.5700 
 17 C        7.2140     2.8360    -0.2720 C.3   1 <1>   0.0820 
 18 C        8.5670     2.1340    -0.2180 C.2   1 <1>  -0.1810 
 19 C        9.2980     1.5780    -1.1990 C.2   1 <1>  -0.0400 
 20 C        9.3420     1.9100     0.9220 C.2   1 <1>   0.1080 
 21 O       10.3750     1.0750    -0.6600 O.3   1 <1>  -0.0190 
 22 C        9.1020     1.4490    -2.6960 C.3   1 <1>  -0.0600 
 23 N       10.4140     1.2690     0.6250 N.2   1 <1>  -0.4100 
 24 C        9.0050     2.3440     2.3320 C.3   1 <1>  -0.0590 
 25 H        2.9920    -2.5960    -1.3870 H     1 <1>   0.0800 
 26 H        2.6560    -0.2690    -1.9660 H     1 <1>   0.0800 
 27 H        2.9460     1.2960    -1.3030 H     1 <1>   0.0800 
 28 H        3.5910     1.6770     0.7940 H     1 <1>   0.0800 
 29 H        3.1000     0.5660     2.0340 H     1 <1>   0.0800 
 30 H        1.9070    -4.5820    -0.9550 H     1 <1>   0.0800 
 31 H        2.2940    -4.1890     0.7050 H     1 <1>   0.0800 
 32 H        4.7440     0.7340    -2.8020 H     1 <1>   0.0800 
 33 H        5.0230    -0.7770    -2.0110 H     1 <1>   0.0800 
 34 H        5.5660     1.2370     1.9980 H     1 <1>   0.0800 
 35 H        5.2130    -0.4430     2.1540 H     1 <1>   0.0800 
 36 H       -0.3000    -1.5940     0.0790 H     1 <1>   0.0800 
 37 H       -0.8900    -2.4910    -1.3220 H     1 <1>   0.0800 
 38 H        0.0680    -3.5780     1.1410 H     1 <1>   0.0800 
 39 H       -0.3070    -4.5020    -0.3010 H     1 <1>   0.0800 
 40 H        5.9350    -0.9720     0.0130 H     1 <1>   0.0800 
 41 H        7.0980     0.1910     0.5310 H     1 <1>   0.0800 
 42 H        7.3670     3.8420    -0.6170 H     1 <1>   0.0800 
 43 H        6.7860     2.8970     0.7090 H     1 <1>   0.0800 
 44 H        8.2380     1.9970    -3.0220 H     1 <1>   0.0800 
 45 H        8.9780     0.4140    -2.9570 H     1 <1>   0.0800 
 46 H        9.9650     1.8360    -3.2070 H     1 <1>   0.0800 
 47 H        8.8100     3.4000     2.3550 H     1 <1>   0.0800 
 48 H        9.8310     2.1320     2.9870 H     1 <1>   0.0800 
 49 H        8.1410     1.8110     2.6830 H     1 <1>   0.0800 
@<TRIPOS>BOND
  1   1   2  2   
  2   2   3  am  
  3   2   4  1   
  4   3   5  1   
  5   3   6  1   
  6   4   7  1   
  7   4   8  1   
  8   4  25  1   
  9   5   9  1   
 10   5  26  1   
 11   5  27  1   
 12   6  10  1   
 13   6  28  1   
 14   6  29  1   
 15   7  11  1   
 16   8  12  1   
 17   8  30  1   
 18   8  31  1   
 19   9  13  1   
 20   9  32  1   
 21   9  33  1   
 22  10  14  1   
 23  10  34  1   
 24  10  35  1   
 25  11  12  1   
 26  11  36  1   
 27  11  37  1   
 28  12  38  1   
 29  12  39  1   
 30  13  14  1   
 31  13  15  am  
 32  14  40  1   
 33  14  41  1   
 34  15  16  2   
 35  15  17  1   
 36  17  18  1   
 37  17  42  1   
 38  17  43  1   
 39  18  19  2   
 40  18  20  1   
 41  19  21  1   
 42  19  22  1   
 43  20  23  2   
 44  20  24  1   
 45  21  23  1   
 46  22  44  1   
 47  22  45  1   
 48  22  46  1   
 49  24  47  1   
 50  24  48  1   
 51  24  49  1   
@<TRIPOS>SUBSTRUCTURE
  1 ****  14 GROUP 4 **** **** 0

# MOE 2024.06 (io_trps.svl 2023.06)
