@<TRIPOS>MOLECULE
NONAME
49 50 1 0 0 
SMALL
USER_CHARGES


@<TRIPOS>ATOM
  1 S        0.3020     0.3350     1.1060 S.o2  1 <1>   1.3330 
  2 O        1.4430     0.8900     1.7990 O.2   1 <1>  -0.6500 
  3 O       -1.0050     0.4010     1.7200 O.2   1 <1>  -0.6500 
  4 N        0.6470    -1.2890     0.7520 N.am  1 <1>  -0.8490 
  5 C        0.1790     1.0850    -0.5150 C.3   1 <1>  -0.0550 
  6 C        2.0690    -1.5400     0.4940 C.3   1 <1>   0.1160 
  7 C        0.1610    -2.1990     1.7930 C.3   1 <1>   0.1160 
  8 C       -0.1830     2.5790    -0.4610 C.3   1 <1>  -0.0800 
  9 C       -0.3720     3.1760    -1.8480 C.3   1 <1>   0.2000 
 10 C        0.8940     3.4600     0.1770 C.3   1 <1>   0.2090 
 11 O       -1.6500     2.9000    -2.3140 O.3   1 <1>  -0.6800 
 12 C       -0.1260     4.6700    -1.6640 C.3   1 <1>   0.2090 
 13 N        0.8370     4.7640    -0.5320 N.pl3 1 <1>  -0.8380 
 14 C        2.0480     5.3730    -0.7770 C.ar  1 <1>   0.4100 
 15 N        2.7510     4.8820    -1.7790 N.ar  1 <1>  -0.6200 
 16 C        2.5190     6.4300    -0.0070 C.ar  1 <1>  -0.1430 
 17 C        3.9130     5.4580    -2.0050 C.ar  1 <1>   0.4770 
 18 C        3.7490     6.9330    -0.3490 C.ar  1 <1>   0.1600 
 19 C        1.7280     7.0140     1.1660 C.3   1 <1>   0.0630 
 20 N        4.4650     6.4600    -1.3500 N.ar  1 <1>  -0.6200 
 21 C        4.7200     4.9010    -3.1530 C.3   1 <1>  -0.0970 
 22 C        1.4580     8.5090     0.9610 C.3   1 <1>  -0.2400 
 23 C        2.4670     6.7750     2.4880 C.3   1 <1>  -0.2400 
 24 H        1.1080     0.9660    -1.0390 H     1 <1>   0.0800 
 25 H       -0.5790     0.5710    -1.0740 H     1 <1>   0.0800 
 26 H        2.2150    -2.5630     0.1920 H     1 <1>   0.0800 
 27 H        2.6520    -1.3510     1.3810 H     1 <1>   0.0800 
 28 H        2.4230    -0.9000    -0.2950 H     1 <1>   0.0800 
 29 H        0.3810    -3.2200     1.5310 H     1 <1>   0.0800 
 30 H       -0.9070    -2.1030     1.8980 H     1 <1>   0.0800 
 31 H        0.6230    -1.9670     2.7390 H     1 <1>   0.0800 
 32 H       -1.0850     2.7110     0.1120 H     1 <1>   0.0800 
 33 H        0.3440     2.7810    -2.5490 H     1 <1>   0.0800 
 34 H        1.8720     3.0230     0.0490 H     1 <1>   0.0800 
 35 H        0.7120     3.5980     1.2300 H     1 <1>   0.0800 
 36 H       -2.3220     3.2270    -1.6840 H     1 <1>   0.4000 
 37 H       -1.0330     5.1770    -1.3890 H     1 <1>   0.0800 
 38 H        0.2770     5.1060    -2.5630 H     1 <1>   0.0800 
 39 H        4.1730     7.7490     0.2090 H     1 <1>   0.1500 
 40 H        0.7710     6.5260     1.2390 H     1 <1>   0.0800 
 41 H        5.1950     5.7030    -3.6870 H     1 <1>   0.0800 
 42 H        4.0860     4.3600    -3.8290 H     1 <1>   0.0800 
 43 H        5.4730     4.2400    -2.7670 H     1 <1>   0.0800 
 44 H        2.3730     9.0730     0.9540 H     1 <1>   0.0800 
 45 H        0.8310     8.8840     1.7500 H     1 <1>   0.0800 
 46 H        0.9530     8.6620     0.0230 H     1 <1>   0.0800 
 47 H        3.4130     7.2860     2.4990 H     1 <1>   0.0800 
 48 H        2.6430     5.7220     2.6200 H     1 <1>   0.0800 
 49 H        1.8750     7.1270     3.3130 H     1 <1>   0.0800 
@<TRIPOS>BOND
  1   1   2  2   
  2   1   3  2   
  3   1   4  am  
  4   1   5  1   
  5   4   6  1   
  6   4   7  1   
  7   5   8  1   
  8   5  24  1   
  9   5  25  1   
 10   6  26  1   
 11   6  27  1   
 12   6  28  1   
 13   7  29  1   
 14   7  30  1   
 15   7  31  1   
 16   8   9  1   
 17   8  10  1   
 18   8  32  1   
 19   9  11  1   
 20   9  12  1   
 21   9  33  1   
 22  10  13  1   
 23  10  34  1   
 24  10  35  1   
 25  11  36  1   
 26  12  13  1   
 27  12  37  1   
 28  12  38  1   
 29  13  14  1   
 30  14  15  ar  
 31  14  16  ar  
 32  15  17  ar  
 33  16  18  ar  
 34  16  19  1   
 35  17  20  ar  
 36  17  21  1   
 37  18  20  ar  
 38  18  39  1   
 39  19  22  1   
 40  19  23  1   
 41  19  40  1   
 42  21  41  1   
 43  21  42  1   
 44  21  43  1   
 45  22  44  1   
 46  22  45  1   
 47  22  46  1   
 48  23  47  1   
 49  23  48  1   
 50  23  49  1   
@<TRIPOS>SUBSTRUCTURE
  1 ****  10 GROUP 4 **** **** 0

# MOE 2024.06 (io_trps.svl 2023.06)
