@<TRIPOS>MOLECULE
NONAME
44 46 1 0 0 
SMALL
USER_CHARGES


@<TRIPOS>ATOM
  1 F        1.0220     0.0180    -0.5980 F     1 <1>  -0.1900 
  2 C        1.4880    -1.1980    -0.5000 C.ar  1 <1>   0.1900 
  3 C        0.7740    -2.2330    -1.0740 C.ar  1 <1>  -0.1500 
  4 C        2.6770    -1.4060     0.1710 C.ar  1 <1>  -0.1500 
  5 C        1.2700    -3.5210    -0.9650 C.ar  1 <1>  -0.1500 
  6 C        3.1630    -2.6980     0.2740 C.ar  1 <1>  -0.1500 
  7 C        2.4630    -3.7680    -0.2840 C.ar  1 <1>  -0.0230 
  8 N        2.9670    -5.0920    -0.1560 N.pl3 1 <1>   0.5930 
  9 N        4.1320    -5.4880    -0.7200 N.2   1 <1>  -0.7070 
 10 C        2.4160    -6.1270     0.5390 C.2   1 <1>  -0.3320 
 11 C        4.2940    -6.7240    -0.3820 C.2   1 <1>   0.1080 
 12 C        3.2470    -7.1860     0.4100 C.2   1 <1>  -0.1810 
 13 C        1.1060    -6.0220     1.3100 C.3   1 <1>  -0.0600 
 14 C        5.5010    -7.5250    -0.8300 C.3   1 <1>  -0.0590 
 15 C        3.1260    -8.5870     0.9680 C.3   1 <1>   0.5240 
 16 N        2.8150    -9.4930    -0.1460 N.4   1 <1>  -0.9590 
 17 C        2.8790   -10.9410     0.2700 C.3   1 <1>   0.3170 
 18 C        1.5180    -9.2480    -0.8280 C.3   1 <1>   0.3430 
 19 C        4.2240   -11.5610    -0.1560 C.2   1 <1>   0.9060 
 20 C        1.6560   -11.5950    -0.3780 C.3   1 <1>  -0.1600 
 21 C        0.6480   -10.4630    -0.4970 C.3   1 <1>   0.2000 
 22 O        4.9580   -10.8210    -0.8340 O.co2 1 <1>  -0.9000 
 23 O        4.5210   -12.7040     0.1880 O.co2 1 <1>  -0.9000 
 24 O        0.0670   -10.2690     0.7510 O.3   1 <1>  -0.6800 
 25 H       -0.1440    -2.0290    -1.5940 H     1 <1>   0.1500 
 26 H        3.2080    -0.5740     0.5980 H     1 <1>   0.1500 
 27 H        0.7320    -4.3380    -1.4150 H     1 <1>   0.1500 
 28 H        4.0930    -2.8840     0.7850 H     1 <1>   0.1500 
 29 H        0.8820    -6.9410     1.8210 H     1 <1>   0.0800 
 30 H        0.2930    -5.8010     0.6420 H     1 <1>   0.0800 
 31 H        1.1710    -5.2350     2.0420 H     1 <1>   0.0800 
 32 H        5.8060    -8.2250    -0.0730 H     1 <1>   0.0800 
 33 H        6.3230    -6.8620    -1.0310 H     1 <1>   0.0800 
 34 H        5.2720    -8.0660    -1.7300 H     1 <1>   0.0800 
 35 H        2.3420    -8.6290     1.7050 H     1 <1>   0.0800 
 36 H        4.0570    -8.8750     1.4280 H     1 <1>   0.0800 
 37 H        3.6210    -9.4400    -0.8090 H     1 <1>   0.4500 
 38 H        2.7940   -11.0200     1.3380 H     1 <1>   0.0800 
 39 H        1.0530    -8.3340    -0.5000 H     1 <1>   0.0800 
 40 H        1.6830    -9.2040    -1.8920 H     1 <1>   0.0800 
 41 H        1.3000   -12.4320     0.1950 H     1 <1>   0.0800 
 42 H        1.9280   -11.9470    -1.3580 H     1 <1>   0.0800 
 43 H       -0.1270   -10.6380    -1.2250 H     1 <1>   0.0800 
 44 H       -0.4860   -11.0400     0.9960 H     1 <1>   0.4000 
@<TRIPOS>BOND
  1   1   2  1   
  2   2   3  ar  
  3   2   4  ar  
  4   3   5  ar  
  5   3  25  1   
  6   4   6  ar  
  7   4  26  1   
  8   5   7  ar  
  9   5  27  1   
 10   6   7  ar  
 11   6  28  1   
 12   7   8  1   
 13   8   9  1   
 14   8  10  1   
 15   9  11  2   
 16  10  12  2   
 17  10  13  1   
 18  11  12  1   
 19  11  14  1   
 20  12  15  1   
 21  13  29  1   
 22  13  30  1   
 23  13  31  1   
 24  14  32  1   
 25  14  33  1   
 26  14  34  1   
 27  15  16  1   
 28  15  35  1   
 29  15  36  1   
 30  16  17  1   
 31  16  18  1   
 32  16  37  1   
 33  17  19  1   
 34  17  20  1   
 35  17  38  1   
 36  18  21  1   
 37  18  39  1   
 38  18  40  1   
 39  19  22  ar  
 40  19  23  ar  
 41  20  21  1   
 42  20  41  1   
 43  20  42  1   
 44  21  24  1   
 45  21  43  1   
 46  24  44  1   
@<TRIPOS>SUBSTRUCTURE
  1 ****  12 GROUP 4 **** **** 0

# MOE 2024.06 (io_trps.svl 2023.06)
