@<TRIPOS>MOLECULE
NONAME
48 52 1 0 0 
SMALL
USER_CHARGES


@<TRIPOS>ATOM
  1 S       -0.4930     0.0810    -1.5300 S.3   1 <1>  -0.0800 
  2 C       -0.5600    -1.6750    -1.6900 C.ar  1 <1>   0.2970 
  3 C       -1.6600     0.0410    -0.2130 C.2   1 <1>  -0.1400 
  4 N        0.1500    -2.3320    -2.5830 N.ar  1 <1>  -0.5670 
  5 C       -1.4290    -2.2200    -0.7720 C.ar  1 <1>   0.0000 
  6 C       -2.0630    -1.2110     0.0520 C.2   1 <1>  -0.1810 
  7 C       -2.0860     1.3290     0.4570 C.3   1 <1>   0.0200 
  8 C       -0.0470    -3.6330    -2.5210 C.ar  1 <1>   0.4700 
  9 C       -1.5170    -3.6140    -0.8170 C.ar  1 <1>   0.4100 
 10 C       -3.0970    -1.4830     1.1360 C.3   1 <1>   0.0210 
 11 C       -2.8340     0.9920     1.7590 C.3   1 <1>  -0.1600 
 12 N       -0.8310    -4.3180    -1.6990 N.ar  1 <1>  -0.6200 
 13 N       -2.3090    -4.3080     0.0580 N.pl3 1 <1>  -0.8690 
 14 C       -3.8110    -0.1860     1.5710 C.3   1 <1>  -0.1600 
 15 C       -2.3650    -5.7800     0.2260 C.3   1 <1>   0.2890 
 16 C       -3.8000    -6.2370     0.0360 C.3   1 <1>  -0.0800 
 17 C       -2.1190    -6.1280     1.6910 C.3   1 <1>   0.1200 
 18 C       -4.4030    -5.9730     1.4200 C.3   1 <1>   0.1200 
 19 C       -3.8750    -7.7240    -0.3620 C.3   1 <1>  -0.0170 
 20 O       -3.3510    -6.0050     2.3420 O.3   1 <1>  -0.5600 
 21 C       -5.3140    -8.1830    -0.5430 C.ar  1 <1>  -0.1430 
 22 C       -6.0610    -7.8140    -1.6430 C.ar  1 <1>  -0.1500 
 23 C       -5.9470    -8.9920     0.3790 C.ar  1 <1>  -0.1500 
 24 C       -7.3690    -8.2550    -1.7620 C.ar  1 <1>   0.1600 
 25 C       -7.2600    -9.3770     0.1650 C.ar  1 <1>   0.1600 
 26 N       -7.9870    -9.0270    -0.8830 N.ar  1 <1>  -0.6200 
 27 H       -1.2250     1.9360     0.6750 H     1 <1>   0.0800 
 28 H       -2.7290     1.8730    -0.2120 H     1 <1>   0.0800 
 29 H        0.5060    -4.2210    -3.2340 H     1 <1>   0.1500 
 30 H       -3.8380    -2.1720     0.7710 H     1 <1>   0.0800 
 31 H       -2.6030    -1.9250     1.9840 H     1 <1>   0.0800 
 32 H       -2.1140     0.7260     2.5140 H     1 <1>   0.0800 
 33 H       -3.3660     1.8620     2.1020 H     1 <1>   0.0800 
 34 H       -2.7040    -3.7990     0.8490 H     1 <1>   0.4000 
 35 H       -4.5310     0.0820     0.8160 H     1 <1>   0.0800 
 36 H       -4.3480    -0.3650     2.4860 H     1 <1>   0.0800 
 37 H       -1.6700    -6.2760    -0.4300 H     1 <1>   0.0800 
 38 H       -4.2930    -5.6510    -0.7180 H     1 <1>   0.0800 
 39 H       -1.3980    -5.4770     2.1520 H     1 <1>   0.0800 
 40 H       -1.7990    -7.1500     1.7880 H     1 <1>   0.0800 
 41 H       -5.1440    -6.6980     1.7070 H     1 <1>   0.0800 
 42 H       -4.8360    -4.9890     1.4590 H     1 <1>   0.0800 
 43 H       -3.3950    -8.3340     0.3830 H     1 <1>   0.0800 
 44 H       -3.3480    -7.8700    -1.2890 H     1 <1>   0.0800 
 45 H       -5.6400    -7.1870    -2.4080 H     1 <1>   0.1500 
 46 H       -5.4340    -9.3260     1.2630 H     1 <1>   0.1500 
 47 H       -7.9370    -7.9560    -2.6270 H     1 <1>   0.1500 
 48 H       -7.7370   -10.0080     0.8960 H     1 <1>   0.1500 
@<TRIPOS>BOND
  1   1   2  1   
  2   1   3  1   
  3   2   4  ar  
  4   2   5  ar  
  5   3   6  2   
  6   3   7  1   
  7   4   8  ar  
  8   5   6  1   
  9   5   9  ar  
 10   6  10  1   
 11   7  11  1   
 12   7  27  1   
 13   7  28  1   
 14   8  12  ar  
 15   8  29  1   
 16   9  12  ar  
 17   9  13  1   
 18  10  14  1   
 19  10  30  1   
 20  10  31  1   
 21  11  14  1   
 22  11  32  1   
 23  11  33  1   
 24  13  15  1   
 25  13  34  1   
 26  14  35  1   
 27  14  36  1   
 28  15  16  1   
 29  15  17  1   
 30  15  37  1   
 31  16  18  1   
 32  16  19  1   
 33  16  38  1   
 34  17  20  1   
 35  17  39  1   
 36  17  40  1   
 37  18  20  1   
 38  18  41  1   
 39  18  42  1   
 40  19  21  1   
 41  19  43  1   
 42  19  44  1   
 43  21  22  ar  
 44  21  23  ar  
 45  22  24  ar  
 46  22  45  1   
 47  23  25  ar  
 48  23  46  1   
 49  24  26  ar  
 50  24  47  1   
 51  25  26  ar  
 52  25  48  1   
@<TRIPOS>SUBSTRUCTURE
  1 ****  13 GROUP 4 **** **** 0

# MOE 2024.06 (io_trps.svl 2023.06)
