@<TRIPOS>MOLECULE
NONAME
45 47 1 0 0 
SMALL
USER_CHARGES


@<TRIPOS>ATOM
  1 O       -1.3370    -0.2950    -0.0730 O.2   1 <1>  -0.5700 
  2 C       -1.4260     0.9010    -0.0600 C.2   1 <1>   0.6590 
  3 O       -2.4540     1.5560     0.4390 O.3   1 <1>  -0.4300 
  4 C       -0.3750     1.8430    -0.5690 C.3   1 <1>  -0.0990 
  5 C       -2.3320     2.9540     0.3140 C.3   1 <1>   0.2800 
  6 C       -0.8200     3.1590     0.0770 C.3   1 <1>  -0.0190 
  7 C       -3.2300     3.3850    -0.8680 C.3   1 <1>  -0.1600 
  8 C       -2.8220     3.5990     1.6250 C.3   1 <1>  -0.1600 
  9 C       -0.4740     4.4210    -0.7000 C.2   1 <1>   0.5690 
 10 C       -4.7200     3.1140    -0.6030 C.3   1 <1>  -0.1600 
 11 C       -4.3150     3.3400     1.8860 C.3   1 <1>  -0.1600 
 12 O       -0.3820     4.3620    -1.9030 O.2   1 <1>  -0.5700 
 13 N       -0.2950     5.5750     0.0040 N.am  1 <1>  -0.4930 
 14 C       -5.1770     3.7860     0.6980 C.3   1 <1>  -0.1600 
 15 C       -0.0260     6.8790    -0.4800 C.2   1 <1>   0.0630 
 16 C        0.1010     8.0000     0.2660 C.2   1 <1>  -0.3320 
 17 C        0.1630     7.3040    -1.7950 C.2   1 <1>   0.1390 
 18 N        0.3550     9.0150    -0.6030 N.pl3 1 <1>   0.3140 
 19 C       -0.0040     8.1800     1.7740 C.3   1 <1>  -0.0600 
 20 N        0.3890     8.5810    -1.8740 N.2   1 <1>  -0.7070 
 21 C        0.5730    10.4450    -0.2900 C.3   1 <1>   0.0960 
 22 C        2.0510    10.7290     0.0080 C.3   1 <1>  -0.2400 
 23 H       -0.4350     1.8670    -1.6420 H     1 <1>   0.0800 
 24 H        0.6070     1.5410    -0.2570 H     1 <1>   0.0800 
 25 H       -0.3350     3.2200     1.0340 H     1 <1>   0.0800 
 26 H       -2.9250     2.8810    -1.7680 H     1 <1>   0.0800 
 27 H       -3.1150     4.4410    -1.0400 H     1 <1>   0.0800 
 28 H       -2.6690     4.6620     1.5690 H     1 <1>   0.0800 
 29 H       -2.2490     3.2250     2.4540 H     1 <1>   0.0800 
 30 H       -4.8860     2.0520    -0.5340 H     1 <1>   0.0800 
 31 H       -5.3060     3.4850    -1.4260 H     1 <1>   0.0800 
 32 H       -4.6260     3.8650     2.7730 H     1 <1>   0.0800 
 33 H       -4.4700     2.2870     2.0590 H     1 <1>   0.0800 
 34 H       -0.3710     5.5240     1.0160 H     1 <1>   0.3700 
 35 H       -6.2070     3.5350     0.8870 H     1 <1>   0.0800 
 36 H       -5.1140     4.8560     0.5900 H     1 <1>   0.0800 
 37 H        0.1270     6.6570    -2.6540 H     1 <1>   0.1500 
 38 H       -0.2030     7.2430     2.2600 H     1 <1>   0.0800 
 39 H       -0.8040     8.8600     2.0100 H     1 <1>   0.0800 
 40 H        0.9160     8.5760     2.1660 H     1 <1>   0.0800 
 41 H       -0.0390    10.7150     0.5500 H     1 <1>   0.0800 
 42 H        0.2560    11.0220    -1.1400 H     1 <1>   0.0800 
 43 H        2.3820    10.1650     0.8600 H     1 <1>   0.0800 
 44 H        2.1870    11.7760     0.2130 H     1 <1>   0.0800 
 45 H        2.6520    10.4670    -0.8460 H     1 <1>   0.0800 
@<TRIPOS>BOND
  1   1   2  2   
  2   2   3  1   
  3   2   4  1   
  4   3   5  1   
  5   4   6  1   
  6   4  23  1   
  7   4  24  1   
  8   5   6  1   
  9   5   7  1   
 10   5   8  1   
 11   6   9  1   
 12   6  25  1   
 13   7  10  1   
 14   7  26  1   
 15   7  27  1   
 16   8  11  1   
 17   8  28  1   
 18   8  29  1   
 19   9  12  2   
 20   9  13  am  
 21  10  14  1   
 22  10  30  1   
 23  10  31  1   
 24  11  14  1   
 25  11  32  1   
 26  11  33  1   
 27  13  15  1   
 28  13  34  1   
 29  14  35  1   
 30  14  36  1   
 31  15  16  2   
 32  15  17  1   
 33  16  18  1   
 34  16  19  1   
 35  17  20  2   
 36  17  37  1   
 37  18  20  1   
 38  18  21  1   
 39  19  38  1   
 40  19  39  1   
 41  19  40  1   
 42  21  22  1   
 43  21  41  1   
 44  21  42  1   
 45  22  43  1   
 46  22  44  1   
 47  22  45  1   
@<TRIPOS>SUBSTRUCTURE
  1 ****  13 GROUP 4 **** **** 0

# MOE 2024.06 (io_trps.svl 2023.06)
