@<TRIPOS>MOLECULE
NONAME
49 51 1 0 0 
SMALL
USER_CHARGES


@<TRIPOS>ATOM
  1 S        0.2990     0.3150    -1.1560 S.o2  1 <1>   1.4470 
  2 O       -0.4110    -0.6240    -2.0000 O.2   1 <1>  -0.6500 
  3 O        1.0480     1.3760    -1.8030 O.2   1 <1>  -0.6500 
  4 N       -0.8260     1.0580    -0.1240 N.am  1 <1>  -0.8490 
  5 C        1.3530    -0.5800     0.0350 C.ar  1 <1>  -0.0090 
  6 C       -1.8280     0.1620     0.4790 C.3   1 <1>   0.1960 
  7 C       -1.3930     2.3270    -0.5600 C.3   1 <1>   0.1960 
  8 C        2.3110     0.0440     0.8400 C.ar  1 <1>  -0.1440 
  9 C        1.1660    -1.9480     0.1970 C.ar  1 <1>  -0.1500 
 10 C       -3.2230     0.1460    -0.2250 C.3   1 <1>   0.0000 
 11 C       -2.4550     2.1530    -1.6550 C.3   1 <1>  -0.1600 
 12 C        3.0460    -0.7040     1.7470 C.ar  1 <1>  -0.1500 
 13 C        2.5780     1.5420     0.7680 C.3   1 <1>  -0.0970 
 14 C        1.8760    -2.7200     1.1160 C.ar  1 <1>  -0.1790 
 15 C       -4.3290     0.7370     0.6780 C.3   1 <1>   0.2000 
 16 C       -3.2010     0.8080    -1.6220 C.3   1 <1>  -0.1600 
 17 C       -3.7020    -1.3100    -0.3500 C.3   1 <1>  -0.1600 
 18 C        2.8320    -2.0600     1.8810 C.ar  1 <1>  -0.1500 
 19 C        1.6210    -4.1470     1.2770 C.2   1 <1>   0.9790 
 20 O       -3.9180     1.8940     1.3440 O.3   1 <1>  -0.5600 
 21 C       -4.6920    -0.3690     1.6760 C.3   1 <1>  -0.1600 
 22 C       -4.2390    -1.6860     1.0330 C.3   1 <1>  -0.1600 
 23 O        2.3350    -4.8390     2.0250 O.co2 1 <1>  -0.9000 
 24 O        0.6760    -4.6920     0.6800 O.co2 1 <1>  -0.9000 
 25 C       -4.9470     2.6560     1.8910 C.3   1 <1>   0.0400 
 26 H       -1.4240    -0.8350     0.5130 H     1 <1>   0.0800 
 27 H       -1.9520     0.4570     1.5070 H     1 <1>   0.0800 
 28 H       -1.8500     2.7970     0.2940 H     1 <1>   0.0800 
 29 H       -0.6140     2.9870    -0.9020 H     1 <1>   0.0800 
 30 H        0.4290    -2.4540    -0.4070 H     1 <1>   0.1500 
 31 H       -3.1630     2.9560    -1.5530 H     1 <1>   0.0800 
 32 H       -1.9840     2.2670    -2.6160 H     1 <1>   0.0800 
 33 H        3.7920    -0.2350     2.3640 H     1 <1>   0.1500 
 34 H        3.2160     1.8610     1.5720 H     1 <1>   0.0800 
 35 H        1.6560     2.0910     0.8410 H     1 <1>   0.0800 
 36 H        3.0580     1.7860    -0.1620 H     1 <1>   0.0800 
 37 H       -5.1880     0.9710     0.0720 H     1 <1>   0.0800 
 38 H       -2.7120     0.1400    -2.3060 H     1 <1>   0.0800 
 39 H       -4.2010     0.9420    -1.9960 H     1 <1>   0.0800 
 40 H       -4.5090    -1.3670    -1.0610 H     1 <1>   0.0800 
 41 H       -2.9200    -1.9770    -0.6780 H     1 <1>   0.0800 
 42 H        3.4050    -2.6320     2.5920 H     1 <1>   0.1500 
 43 H       -4.1680    -0.2250     2.6050 H     1 <1>   0.0800 
 44 H       -5.7520    -0.3780     1.8550 H     1 <1>   0.0800 
 45 H       -3.4490    -2.1250     1.6210 H     1 <1>   0.0800 
 46 H       -5.0460    -2.3950     0.9560 H     1 <1>   0.0800 
 47 H       -4.5090     3.5180     2.3620 H     1 <1>   0.0800 
 48 H       -5.4750     2.0730     2.6250 H     1 <1>   0.0800 
 49 H       -5.6120     2.9720     1.1060 H     1 <1>   0.0800 
@<TRIPOS>BOND
  1   1   2  2   
  2   1   3  2   
  3   1   4  am  
  4   1   5  1   
  5   4   6  1   
  6   4   7  1   
  7   5   8  ar  
  8   5   9  ar  
  9   6  10  1   
 10   6  26  1   
 11   6  27  1   
 12   7  11  1   
 13   7  28  1   
 14   7  29  1   
 15   8  12  ar  
 16   8  13  1   
 17   9  14  ar  
 18   9  30  1   
 19  10  15  1   
 20  10  16  1   
 21  10  17  1   
 22  11  16  1   
 23  11  31  1   
 24  11  32  1   
 25  12  18  ar  
 26  12  33  1   
 27  13  34  1   
 28  13  35  1   
 29  13  36  1   
 30  14  18  ar  
 31  14  19  1   
 32  15  20  1   
 33  15  21  1   
 34  15  37  1   
 35  16  38  1   
 36  16  39  1   
 37  17  22  1   
 38  17  40  1   
 39  17  41  1   
 40  18  42  1   
 41  19  23  ar  
 42  19  24  ar  
 43  20  25  1   
 44  21  22  1   
 45  21  43  1   
 46  21  44  1   
 47  22  45  1   
 48  22  46  1   
 49  25  47  1   
 50  25  48  1   
 51  25  49  1   
@<TRIPOS>SUBSTRUCTURE
  1 ****   6 GROUP 4 **** **** 0

# MOE 2024.06 (io_trps.svl 2023.06)
