@<TRIPOS>MOLECULE
NONAME
44 44 1 0 0 
SMALL
USER_CHARGES


@<TRIPOS>ATOM
  1 O        1.4320    -0.9360     2.2930 O.2   1 <1>  -0.5700 
  2 C        1.8930    -1.1160     1.1930 C.2   1 <1>   0.5690 
  3 N        2.3180    -0.1190     0.3680 N.am  1 <1>  -0.4930 
  4 C        2.0080    -2.5440     0.6950 C.3   1 <1>  -0.0990 
  5 C        2.3250     1.2850     0.5700 C.2   1 <1>   0.0630 
  6 C        0.8640    -2.9040    -0.2680 C.3   1 <1>  -0.1600 
  7 C        1.3580     2.1150     1.1470 C.2   1 <1>   0.1080 
  8 C        3.3130     2.1230     0.1850 C.2   1 <1>  -0.3320 
  9 C        0.9310    -4.3700    -0.6930 C.3   1 <1>   0.1400 
 10 N        1.7110     3.3630     1.1260 N.2   1 <1>  -0.7070 
 11 C        0.0310     1.6860     1.7310 C.3   1 <1>  -0.0590 
 12 N        2.9180     3.3740     0.5380 N.pl3 1 <1>   0.3140 
 13 C        4.6370     1.8070    -0.4980 C.3   1 <1>  -0.0600 
 14 N       -0.1760    -4.6440    -1.6300 N.am  1 <1>  -0.7300 
 15 C        3.6520     4.6420     0.3470 C.3   1 <1>   0.0960 
 16 C       -1.3430    -5.2860    -1.4070 C.2   1 <1>   0.5690 
 17 C        3.3430     5.2560    -1.0260 C.3   1 <1>  -0.1600 
 18 O       -2.1420    -5.4050    -2.2980 O.2   1 <1>  -0.5700 
 19 C       -1.6690    -5.8540    -0.0480 C.3   1 <1>  -0.1790 
 20 C        4.1080     6.5670    -1.2380 C.3   1 <1>  -0.2400 
 21 H        2.7490    -0.4030    -0.5060 H     1 <1>   0.3700 
 22 H        1.9800    -3.1980     1.5480 H     1 <1>   0.0800 
 23 H        2.9590    -2.6750     0.2120 H     1 <1>   0.0800 
 24 H        0.9140    -2.2740    -1.1390 H     1 <1>   0.0800 
 25 H       -0.0760    -2.7240     0.2270 H     1 <1>   0.0800 
 26 H        0.8560    -5.0100     0.1700 H     1 <1>   0.0800 
 27 H        1.8670    -4.5760    -1.1860 H     1 <1>   0.0800 
 28 H       -0.3660     0.8540     1.1810 H     1 <1>   0.0800 
 29 H       -0.6680     2.5000     1.6850 H     1 <1>   0.0800 
 30 H        0.1680     1.4000     2.7570 H     1 <1>   0.0800 
 31 H        4.7460     0.7490    -0.6470 H     1 <1>   0.0800 
 32 H        5.4560     2.1450     0.1120 H     1 <1>   0.0800 
 33 H        4.6880     2.2950    -1.4540 H     1 <1>   0.0800 
 34 H       -0.0680    -4.2780    -2.5790 H     1 <1>   0.3700 
 35 H        4.7040     4.4520     0.4480 H     1 <1>   0.0800 
 36 H        3.3520     5.3180     1.1260 H     1 <1>   0.0800 
 37 H        2.2850     5.4490    -1.0910 H     1 <1>   0.0800 
 38 H        3.6090     4.5610    -1.8030 H     1 <1>   0.0800 
 39 H       -1.6100    -5.0820     0.6950 H     1 <1>   0.0800 
 40 H       -0.9810    -6.6430     0.1900 H     1 <1>   0.0800 
 41 H       -2.6670    -6.2540    -0.0540 H     1 <1>   0.0800 
 42 H        3.8380     7.2870    -0.4840 H     1 <1>   0.0800 
 43 H        3.8690     6.9800    -2.2020 H     1 <1>   0.0800 
 44 H        5.1700     6.3990    -1.1930 H     1 <1>   0.0800 
@<TRIPOS>BOND
  1   1   2  2   
  2   2   3  am  
  3   2   4  1   
  4   3   5  1   
  5   3  21  1   
  6   4   6  1   
  7   4  22  1   
  8   4  23  1   
  9   5   7  1   
 10   5   8  2   
 11   6   9  1   
 12   6  24  1   
 13   6  25  1   
 14   7  10  2   
 15   7  11  1   
 16   8  12  1   
 17   8  13  1   
 18   9  14  1   
 19   9  26  1   
 20   9  27  1   
 21  10  12  1   
 22  11  28  1   
 23  11  29  1   
 24  11  30  1   
 25  12  15  1   
 26  13  31  1   
 27  13  32  1   
 28  13  33  1   
 29  14  16  am  
 30  14  34  1   
 31  15  17  1   
 32  15  35  1   
 33  15  36  1   
 34  16  18  2   
 35  16  19  1   
 36  17  20  1   
 37  17  37  1   
 38  17  38  1   
 39  19  39  1   
 40  19  40  1   
 41  19  41  1   
 42  20  42  1   
 43  20  43  1   
 44  20  44  1   
@<TRIPOS>SUBSTRUCTURE
  1 ****   3 GROUP 4 **** **** 0

# MOE 2024.06 (io_trps.svl 2023.06)
