@<TRIPOS>MOLECULE
NONAME
50 52 1 0 0 
SMALL
USER_CHARGES


@<TRIPOS>ATOM
  1 O       -0.5880     0.1900     0.4130 O.2   1 <1>  -0.5700 
  2 C       -1.5460     0.8870     0.1730 C.2   1 <1>   0.5690 
  3 N       -2.7010     0.3430    -0.3300 N.am  1 <1>  -0.6600 
  4 C       -1.4410     2.3760     0.4480 C.3   1 <1>  -0.0990 
  5 C       -2.7760    -1.1090    -0.6640 C.3   1 <1>   0.1400 
  6 C       -4.0020     1.0590    -0.4600 C.3   1 <1>   0.1400 
  7 C       -0.0510     2.7810     0.9640 C.3   1 <1>   0.0960 
  8 C       -3.8010    -1.8070     0.2580 C.3   1 <1>   0.4230 
  9 C       -5.0160     0.3890     0.4750 C.3   1 <1>  -0.1600 
 10 N        0.0320     4.2440     1.1350 N.pl3 1 <1>   0.3140 
 11 N       -3.8370    -3.3230     0.1040 N.4   1 <1>  -0.9590 
 12 C       -5.2040    -1.1310     0.1980 C.3   1 <1>   0.0000 
 13 N       -0.6910     4.8970     2.0180 N.2   1 <1>  -0.4180 
 14 C        0.7640     5.1350     0.4820 C.2   1 <1>   0.0060 
 15 C       -5.0720    -3.9660     0.6620 C.3   1 <1>   0.3430 
 16 C       -3.5750    -3.8420    -1.2800 C.3   1 <1>   0.2630 
 17 C       -6.1100    -1.7320     1.3130 C.3   1 <1>  -0.1600 
 18 C       -5.8480    -1.3520    -1.2010 C.3   1 <1>   0.1200 
 19 N       -0.3900     6.1380     1.8870 N.2   1 <1>   0.0000 
 20 N        0.5160     6.3050     0.9310 N.2   1 <1>  -0.3380 
 21 C        1.7490     4.8350    -0.6320 C.3   1 <1>  -0.0600 
 22 C       -5.6650    -3.1270     1.7930 C.3   1 <1>  -0.1600 
 23 O       -6.9820    -0.5760    -1.3700 O.3   1 <1>  -0.6800 
 24 H       -1.6490     2.9050    -0.4630 H     1 <1>   0.0800 
 25 H       -2.1750     2.6410     1.1870 H     1 <1>   0.0800 
 26 H       -3.0530    -1.2030    -1.6980 H     1 <1>   0.0800 
 27 H       -1.8130    -1.5720    -0.5350 H     1 <1>   0.0800 
 28 H       -3.9090     2.0990    -0.1990 H     1 <1>   0.0800 
 29 H       -4.3420     1.0120    -1.4820 H     1 <1>   0.0800 
 30 H        0.7080     2.4620     0.2750 H     1 <1>   0.0800 
 31 H        0.1380     2.3180     1.9160 H     1 <1>   0.0800 
 32 H       -3.4440    -1.6180     1.2570 H     1 <1>   0.0800 
 33 H       -4.6720     0.5400     1.4840 H     1 <1>   0.0800 
 34 H       -5.9560     0.9090     0.3930 H     1 <1>   0.0800 
 35 H       -3.0590    -3.6580     0.6920 H     1 <1>   0.4500 
 36 H       -5.8150    -4.0640    -0.1140 H     1 <1>   0.0800 
 37 H       -4.8390    -4.9550     1.0230 H     1 <1>   0.0800 
 38 H       -4.3320    -3.4950    -1.9640 H     1 <1>   0.0800 
 39 H       -3.5810    -4.9200    -1.2810 H     1 <1>   0.0800 
 40 H       -2.6110    -3.5120    -1.6330 H     1 <1>   0.0800 
 41 H       -6.1280    -1.0880     2.1760 H     1 <1>   0.0800 
 42 H       -7.1280    -1.7900     0.9680 H     1 <1>   0.0800 
 43 H       -6.1360    -2.3770    -1.3490 H     1 <1>   0.0800 
 44 H       -5.1750    -1.0730    -1.9920 H     1 <1>   0.0800 
 45 H        2.1900     5.7510    -0.9840 H     1 <1>   0.0800 
 46 H        1.2480     4.3590    -1.4550 H     1 <1>   0.0800 
 47 H        2.5340     4.1950    -0.2710 H     1 <1>   0.0800 
 48 H       -6.5140    -3.6430     2.2090 H     1 <1>   0.0800 
 49 H       -4.9370    -3.0350     2.5810 H     1 <1>   0.0800 
 50 H       -7.7040    -0.8340    -0.7630 H     1 <1>   0.4000 
@<TRIPOS>BOND
  1   1   2  2   
  2   2   3  am  
  3   2   4  1   
  4   3   5  1   
  5   3   6  1   
  6   4   7  1   
  7   4  24  1   
  8   4  25  1   
  9   5   8  1   
 10   5  26  1   
 11   5  27  1   
 12   6   9  1   
 13   6  28  1   
 14   6  29  1   
 15   7  10  1   
 16   7  30  1   
 17   7  31  1   
 18   8  11  1   
 19   8  12  1   
 20   8  32  1   
 21   9  12  1   
 22   9  33  1   
 23   9  34  1   
 24  10  13  1   
 25  10  14  1   
 26  11  15  1   
 27  11  16  1   
 28  11  35  1   
 29  12  17  1   
 30  12  18  1   
 31  13  19  2   
 32  14  20  2   
 33  14  21  1   
 34  15  22  1   
 35  15  36  1   
 36  15  37  1   
 37  16  38  1   
 38  16  39  1   
 39  16  40  1   
 40  17  22  1   
 41  17  41  1   
 42  17  42  1   
 43  18  23  1   
 44  18  43  1   
 45  18  44  1   
 46  19  20  1   
 47  21  45  1   
 48  21  46  1   
 49  21  47  1   
 50  22  48  1   
 51  22  49  1   
 52  23  50  1   
@<TRIPOS>SUBSTRUCTURE
  1 ****   3 GROUP 4 **** **** 0

# MOE 2024.06 (io_trps.svl 2023.06)
