@<TRIPOS>MOLECULE
NONAME
51 54 1 0 0 
SMALL
USER_CHARGES


@<TRIPOS>ATOM
  1 O        0.9500     0.2340     1.6750 O.2   1 <1>  -0.5700 
  2 C        1.1680     0.4480     0.4640 C.2   1 <1>   0.5410 
  3 C        1.7440    -0.5100    -0.4120 C.2   1 <1>   0.0140 
  4 C        0.8590     1.7300    -0.0370 C.2   1 <1>  -0.1360 
  5 C        2.0560    -1.8270     0.0010 C.2   1 <1>   0.2710 
  6 C        2.0030    -0.1130    -1.7360 C.2   1 <1>  -0.1500 
  7 C        1.1220     2.0810    -1.3330 C.2   1 <1>  -0.1500 
  8 N        1.1080    -2.6130     0.4990 N.2   1 <1>  -0.6210 
  9 N        3.3320    -2.2830    -0.1640 N.pl3 1 <1>  -0.6000 
 10 C        1.7050     1.1480    -2.1930 C.2   1 <1>  -0.1500 
 11 C        1.4370    -3.8430     0.8680 C.2   1 <1>   0.4860 
 12 C        3.7090    -3.5290     0.1910 C.2   1 <1>  -0.0380 
 13 N        0.4550    -4.6280     1.3960 N.pl3 1 <1>  -0.7880 
 14 C        2.7510    -4.3290     0.7210 C.2   1 <1>  -0.1360 
 15 C        5.1530    -3.9330    -0.0100 C.3   1 <1>  -0.1020 
 16 C       -0.7470    -4.0490     2.0710 C.3   1 <1>   0.2090 
 17 C        0.3030    -6.0820     1.1020 C.3   1 <1>   0.2090 
 18 C       -2.0230    -4.3660     1.2720 C.3   1 <1>   0.1100 
 19 C       -1.0110    -6.3530     0.3420 C.3   1 <1>   0.1100 
 20 N       -2.2020    -5.8230     1.0540 N.3   1 <1>  -0.8100 
 21 C       -3.4430    -6.0750     0.3020 C.3   1 <1>   0.1100 
 22 C       -3.8850    -7.5320     0.4520 C.3   1 <1>   0.0960 
 23 N       -5.1830    -7.7260    -0.2100 N.pl3 1 <1>   0.3140 
 24 N       -5.2890    -7.8480    -1.5460 N.2   1 <1>  -0.7070 
 25 C       -6.3920    -7.8000     0.3830 C.2   1 <1>  -0.3020 
 26 C       -6.5590    -7.9990    -1.7680 C.2   1 <1>   0.1390 
 27 C       -7.3040    -7.9770    -0.5960 C.2   1 <1>  -0.1500 
 28 H        0.4110     2.4210     0.6520 H     1 <1>   0.1500 
 29 H        2.4360    -0.8350    -2.4070 H     1 <1>   0.1500 
 30 H        0.8850     3.0650    -1.7020 H     1 <1>   0.1500 
 31 H        4.0220    -1.6290    -0.5370 H     1 <1>   0.4000 
 32 H        1.9100     1.4270    -3.2140 H     1 <1>   0.1500 
 33 H        2.9730    -5.3220     1.0490 H     1 <1>   0.1500 
 34 H        5.7970    -3.2840     0.5550 H     1 <1>   0.0800 
 35 H        5.4110    -3.8650    -1.0520 H     1 <1>   0.0800 
 36 H        5.3110    -4.9440     0.3180 H     1 <1>   0.0800 
 37 H       -0.6470    -2.9830     2.1830 H     1 <1>   0.0800 
 38 H       -0.8340    -4.4710     3.0560 H     1 <1>   0.0800 
 39 H        0.3000    -6.6310     2.0270 H     1 <1>   0.0800 
 40 H        1.1240    -6.4310     0.5030 H     1 <1>   0.0800 
 41 H       -1.9690    -3.8540     0.3260 H     1 <1>   0.0800 
 42 H       -2.8680    -3.9780     1.8140 H     1 <1>   0.0800 
 43 H       -1.1100    -7.4150     0.2080 H     1 <1>   0.0800 
 44 H       -0.9400    -5.8990    -0.6320 H     1 <1>   0.0800 
 45 H       -3.3040    -5.8350    -0.7400 H     1 <1>   0.0800 
 46 H       -4.2260    -5.4480     0.6940 H     1 <1>   0.0800 
 47 H       -3.9840    -7.7800     1.4920 H     1 <1>   0.0800 
 48 H       -3.1760    -8.1910    -0.0100 H     1 <1>   0.0800 
 49 H       -6.5330    -7.7250     1.4460 H     1 <1>   0.1500 
 50 H       -6.9770    -8.1250    -2.7530 H     1 <1>   0.1500 
 51 H       -8.3710    -8.0810    -0.5190 H     1 <1>   0.1500 
@<TRIPOS>BOND
  1   1   2  2   
  2   2   3  1   
  3   2   4  1   
  4   3   5  2   
  5   3   6  1   
  6   4   7  2   
  7   4  28  1   
  8   5   8  1   
  9   5   9  1   
 10   6  10  2   
 11   6  29  1   
 12   7  10  1   
 13   7  30  1   
 14   8  11  2   
 15   9  12  1   
 16   9  31  1   
 17  10  32  1   
 18  11  13  1   
 19  11  14  1   
 20  12  14  2   
 21  12  15  1   
 22  13  16  1   
 23  13  17  1   
 24  14  33  1   
 25  15  34  1   
 26  15  35  1   
 27  15  36  1   
 28  16  18  1   
 29  16  37  1   
 30  16  38  1   
 31  17  19  1   
 32  17  39  1   
 33  17  40  1   
 34  18  20  1   
 35  18  41  1   
 36  18  42  1   
 37  19  20  1   
 38  19  43  1   
 39  19  44  1   
 40  20  21  1   
 41  21  22  1   
 42  21  45  1   
 43  21  46  1   
 44  22  23  1   
 45  22  47  1   
 46  22  48  1   
 47  23  24  1   
 48  23  25  1   
 49  24  26  2   
 50  25  27  2   
 51  25  49  1   
 52  26  27  1   
 53  26  50  1   
 54  27  51  1   
@<TRIPOS>SUBSTRUCTURE
  1 ****  13 GROUP 4 **** **** 0

# MOE 2024.06 (io_trps.svl 2023.06)
