@<TRIPOS>MOLECULE
NONAME
47 49 1 0 0 
SMALL
USER_CHARGES


@<TRIPOS>ATOM
  1 O       -0.8970     0.2930     1.5290 O.2   1 <1>  -0.5700 
  2 C       -1.6640     0.9600     0.8580 C.2   1 <1>   0.5440 
  3 N       -2.6900     0.3250     0.1830 N.am  1 <1>  -0.6600 
  4 C       -1.4870     2.3980     0.8090 C.ar  1 <1>   0.0860 
  5 C       -3.8770     1.0780    -0.3240 C.3   1 <1>   0.2200 
  6 C       -2.7130    -1.1680     0.1050 C.3   1 <1>   0.0600 
  7 C       -1.3160     3.0700    -0.4010 C.ar  1 <1>  -0.1500 
  8 C       -1.5010     3.1620     1.9730 C.ar  1 <1>  -0.1500 
  9 C       -5.2210     0.5490     0.1710 C.3   1 <1>  -0.1600 
 10 C       -4.0020     1.0550    -1.8440 C.3   1 <1>  -0.1600 
 11 C       -1.1990     4.4480    -0.4620 C.ar  1 <1>  -0.1430 
 12 C       -1.3810     4.5380     1.9330 C.ar  1 <1>  -0.1500 
 13 C       -6.2390     1.1350    -0.8170 C.3   1 <1>  -0.0800 
 14 C       -5.4610     1.4460    -2.1100 C.3   1 <1>  -0.0800 
 15 C       -1.2370     5.1940     0.7130 C.ar  1 <1>   0.0830 
 16 C       -1.0280     5.1350    -1.8090 C.3   1 <1>  -0.0970 
 17 C       -6.8470     2.4650    -0.3470 C.3   1 <1>  -0.1600 
 18 C       -5.6460     2.9470    -2.3780 C.3   1 <1>  -0.1600 
 19 O       -1.1270     6.5410     0.6100 O.3   1 <1>  -0.3620 
 20 C       -6.8930     3.3280    -1.5970 C.3   1 <1>   0.2000 
 21 C       -1.1060     7.3810     1.7430 C.3   1 <1>   0.0400 
 22 O       -6.8510     4.6620    -1.2570 O.3   1 <1>  -0.6800 
 23 H       -3.8190     2.1080    -0.0150 H     1 <1>   0.0800 
 24 H       -3.1950    -1.4980    -0.7960 H     1 <1>   0.0800 
 25 H       -3.2370    -1.5630     0.9570 H     1 <1>   0.0800 
 26 H       -1.7080    -1.5540     0.1120 H     1 <1>   0.0800 
 27 H       -1.2730     2.4860    -1.3030 H     1 <1>   0.1500 
 28 H       -1.6090     2.6570     2.9180 H     1 <1>   0.1500 
 29 H       -5.2610    -0.5220     0.0950 H     1 <1>   0.0800 
 30 H       -5.4150     0.8410     1.1870 H     1 <1>   0.0800 
 31 H       -3.3060     1.7240    -2.3160 H     1 <1>   0.0800 
 32 H       -3.8390     0.0600    -2.2150 H     1 <1>   0.0800 
 33 H       -1.4010     5.0810     2.8580 H     1 <1>   0.1500 
 34 H       -7.0270     0.4280    -1.0170 H     1 <1>   0.0800 
 35 H       -5.8640     0.8770    -2.9320 H     1 <1>   0.0800 
 36 H       -1.0180     4.4220    -2.6140 H     1 <1>   0.0800 
 37 H       -0.1010     5.6800    -1.8220 H     1 <1>   0.0800 
 38 H       -1.8360     5.8260    -1.9710 H     1 <1>   0.0800 
 39 H       -6.2110     2.9260     0.3890 H     1 <1>   0.0800 
 40 H       -7.8300     2.3230     0.0650 H     1 <1>   0.0800 
 41 H       -5.7680     3.1460    -3.4280 H     1 <1>   0.0800 
 42 H       -4.8010     3.5000    -2.0030 H     1 <1>   0.0800 
 43 H       -7.7860     3.1370    -2.1700 H     1 <1>   0.0800 
 44 H       -0.9950     8.3950     1.4040 H     1 <1>   0.0800 
 45 H       -0.2710     7.1090     2.3630 H     1 <1>   0.0800 
 46 H       -2.0350     7.2730     2.2750 H     1 <1>   0.0800 
 47 H       -6.0390     4.8500    -0.7520 H     1 <1>   0.4000 
@<TRIPOS>BOND
  1   1   2  2   
  2   2   3  am  
  3   2   4  1   
  4   3   5  1   
  5   3   6  1   
  6   4   7  ar  
  7   4   8  ar  
  8   5   9  1   
  9   5  10  1   
 10   5  23  1   
 11   6  24  1   
 12   6  25  1   
 13   6  26  1   
 14   7  11  ar  
 15   7  27  1   
 16   8  12  ar  
 17   8  28  1   
 18   9  13  1   
 19   9  29  1   
 20   9  30  1   
 21  10  14  1   
 22  10  31  1   
 23  10  32  1   
 24  11  15  ar  
 25  11  16  1   
 26  12  15  ar  
 27  12  33  1   
 28  13  14  1   
 29  13  17  1   
 30  13  34  1   
 31  14  18  1   
 32  14  35  1   
 33  15  19  1   
 34  16  36  1   
 35  16  37  1   
 36  16  38  1   
 37  17  20  1   
 38  17  39  1   
 39  17  40  1   
 40  18  20  1   
 41  18  41  1   
 42  18  42  1   
 43  19  21  1   
 44  20  22  1   
 45  20  43  1   
 46  21  44  1   
 47  21  45  1   
 48  21  46  1   
 49  22  47  1   
@<TRIPOS>SUBSTRUCTURE
  1 ****   5 GROUP 4 **** **** 0

# MOE 2024.06 (io_trps.svl 2023.06)
