@<TRIPOS>MOLECULE
NONAME
51 53 1 0 0 
SMALL
USER_CHARGES


@<TRIPOS>ATOM
  1 CL      -0.8710     0.5010    -1.6930 Cl    1 <1>  -0.1770 
  2 C       -2.5100     0.8320    -1.2010 C.ar  1 <1>   0.1770 
  3 C       -2.8940     2.1330    -0.9390 C.ar  1 <1>  -0.1500 
  4 C       -3.4090    -0.2100    -1.0810 C.ar  1 <1>  -0.1500 
  5 C       -4.1970     2.3880    -0.5500 C.ar  1 <1>  -0.1500 
  6 C       -4.7090     0.0580    -0.6930 C.ar  1 <1>  -0.1500 
  7 C       -5.1360     1.3600    -0.4160 C.ar  1 <1>   0.0530 
  8 C       -6.4920     1.6540    -0.0160 C.2   1 <1>   0.0870 
  9 O       -6.9940     2.8450    -0.2260 O.3   1 <1>  -0.0190 
 10 C       -7.4730     0.9180     0.5730 C.2   1 <1>  -0.0860 
 11 N       -8.2310     2.9600     0.1770 N.2   1 <1>  -0.4100 
 12 C       -8.5400     1.8150     0.6700 C.2   1 <1>   0.3720 
 13 C       -7.4720    -0.4350     1.0310 C.2   1 <1>   0.7160 
 14 N       -9.7890     1.5180     1.2180 N.pl3 1 <1>  -0.8520 
 15 O       -6.5910    -0.8060     1.7830 O.2   1 <1>  -0.5700 
 16 N       -8.4270    -1.3460     0.6320 N.am  1 <1>  -0.6600 
 17 C      -10.5400     2.6300     1.8690 C.3   1 <1>   0.2090 
 18 C       -9.3390    -1.1440    -0.5380 C.3   1 <1>   0.1400 
 19 C       -8.4920    -2.7360     1.1820 C.3   1 <1>   0.1400 
 20 C      -11.4250     3.3510     0.8500 C.3   1 <1>   0.1200 
 21 C       -9.1710    -2.2800    -1.5680 C.3   1 <1>   0.2000 
 22 C       -8.3610    -3.7770     0.0520 C.3   1 <1>   0.2000 
 23 O      -12.2380     4.2590     1.5280 O.3   1 <1>  -0.5600 
 24 O       -9.3040    -3.5230    -0.9470 O.3   1 <1>  -0.5600 
 25 C      -10.2280    -2.2160    -2.6670 C.3   1 <1>  -0.2400 
 26 C       -8.6130    -5.1980     0.5500 C.3   1 <1>  -0.2400 
 27 C      -13.0420     5.0240     0.6900 C.3   1 <1>   0.0400 
 28 H       -2.1790     2.9300    -1.0390 H     1 <1>   0.1500 
 29 H       -3.0890    -1.2150    -1.2880 H     1 <1>   0.1500 
 30 H       -4.4920     3.4030    -0.3440 H     1 <1>   0.1500 
 31 H       -5.3970    -0.7630    -0.6060 H     1 <1>   0.1500 
 32 H       -9.7510     0.6950     1.8290 H     1 <1>   0.4000 
 33 H      -11.1630     2.2240     2.6460 H     1 <1>   0.0800 
 34 H       -9.8530     3.3350     2.3070 H     1 <1>   0.0800 
 35 H      -10.3580    -1.1270    -0.1910 H     1 <1>   0.0800 
 36 H       -9.1430    -0.2060    -1.0240 H     1 <1>   0.0800 
 37 H       -7.7140    -2.9010     1.9060 H     1 <1>   0.0800 
 38 H       -9.4360    -2.8720     1.6790 H     1 <1>   0.0800 
 39 H      -12.0540     2.6430     0.3400 H     1 <1>   0.0800 
 40 H      -10.8150     3.8870     0.1450 H     1 <1>   0.0800 
 41 H       -8.1910    -2.2280    -2.0120 H     1 <1>   0.0800 
 42 H       -7.3780    -3.7200    -0.3850 H     1 <1>   0.0800 
 43 H      -11.2130    -2.3040    -2.2430 H     1 <1>   0.0800 
 44 H      -10.0730    -3.0160    -3.3680 H     1 <1>   0.0800 
 45 H      -10.1590    -1.2820    -3.1940 H     1 <1>   0.0800 
 46 H       -9.6050    -5.2810     0.9580 H     1 <1>   0.0800 
 47 H       -7.9010    -5.4540     1.3130 H     1 <1>   0.0800 
 48 H       -8.5060    -5.8920    -0.2640 H     1 <1>   0.0800 
 49 H      -13.6310     5.6850     1.3010 H     1 <1>   0.0800 
 50 H      -13.6910     4.3740     0.1280 H     1 <1>   0.0800 
 51 H      -12.4180     5.6010     0.0290 H     1 <1>   0.0800 
@<TRIPOS>BOND
  1   1   2  1   
  2   2   3  ar  
  3   2   4  ar  
  4   3   5  ar  
  5   3  28  1   
  6   4   6  ar  
  7   4  29  1   
  8   5   7  ar  
  9   5  30  1   
 10   6   7  ar  
 11   6  31  1   
 12   7   8  1   
 13   8   9  1   
 14   8  10  2   
 15   9  11  1   
 16  10  12  1   
 17  10  13  1   
 18  11  12  2   
 19  12  14  1   
 20  13  15  2   
 21  13  16  am  
 22  14  17  1   
 23  14  32  1   
 24  16  18  1   
 25  16  19  1   
 26  17  20  1   
 27  17  33  1   
 28  17  34  1   
 29  18  21  1   
 30  18  35  1   
 31  18  36  1   
 32  19  22  1   
 33  19  37  1   
 34  19  38  1   
 35  20  23  1   
 36  20  39  1   
 37  20  40  1   
 38  21  24  1   
 39  21  25  1   
 40  21  41  1   
 41  22  24  1   
 42  22  26  1   
 43  22  42  1   
 44  23  27  1   
 45  25  43  1   
 46  25  44  1   
 47  25  45  1   
 48  26  46  1   
 49  26  47  1   
 50  26  48  1   
 51  27  49  1   
 52  27  50  1   
 53  27  51  1   
@<TRIPOS>SUBSTRUCTURE
  1 ****  10 GROUP 4 **** **** 0

# MOE 2024.06 (io_trps.svl 2023.06)
