@<TRIPOS>MOLECULE
NONAME
49 51 1 0 0 
SMALL
USER_CHARGES


@<TRIPOS>ATOM
  1 O        0.7290     0.3890     0.8750 O.3   1 <1>  -0.3630 
  2 C        1.8380     1.0270     0.3970 C.ar  1 <1>   0.0820 
  3 C        0.8410    -0.8860     1.4680 C.3   1 <1>   0.0400 
  4 C        3.1270     0.5280     0.4440 C.ar  1 <1>   0.1600 
  5 C        1.6890     2.2660    -0.1830 C.ar  1 <1>   0.1600 
  6 N        4.1560     1.1890    -0.0340 N.ar  1 <1>  -0.6200 
  7 N        2.6990     2.9510    -0.6680 N.ar  1 <1>  -0.6200 
  8 C        3.9010     2.3810    -0.5740 C.ar  1 <1>   0.7200 
  9 N        4.9760     3.0890    -1.0790 N.pl3 1 <1>  -0.8380 
 10 C        4.9270     4.5540    -1.3290 C.3   1 <1>   0.2090 
 11 C        6.2910     2.4600    -1.3750 C.3   1 <1>   0.2090 
 12 C        5.9950     5.2460    -0.4780 C.3   1 <1>  -0.1600 
 13 C        7.3720     3.1280    -0.5230 C.3   1 <1>  -0.1600 
 14 C        7.4030     4.6570    -0.7250 C.3   1 <1>  -0.0800 
 15 C        8.5210     5.3110     0.1210 C.3   1 <1>   0.2000 
 16 O        8.2800     5.0890     1.4630 O.3   1 <1>  -0.6800 
 17 C        8.6650     6.8230    -0.1000 C.3   1 <1>  -0.1600 
 18 C        9.8740     7.4160     0.6380 C.3   1 <1>  -0.0160 
 19 C        9.9990     8.8980     0.3280 C.ar  1 <1>  -0.1430 
 20 C        9.3820     9.8370     1.1410 C.ar  1 <1>  -0.1500 
 21 C       10.7240     9.3260    -0.7730 C.ar  1 <1>  -0.1500 
 22 C        9.4890    11.1870     0.8570 C.ar  1 <1>  -0.1500 
 23 C       10.8320    10.6760    -1.0590 C.ar  1 <1>  -0.1500 
 24 C       10.2140    11.6080    -0.2440 C.ar  1 <1>  -0.1500 
 25 H       -0.1420    -1.2020     1.7690 H     1 <1>   0.0800 
 26 H        1.4810    -0.8180     2.3310 H     1 <1>   0.0800 
 27 H        1.2390    -1.5770     0.7450 H     1 <1>   0.0800 
 28 H        3.3260    -0.4310     0.8820 H     1 <1>   0.1500 
 29 H        0.7050     2.6970    -0.2450 H     1 <1>   0.1500 
 30 H        3.9630     4.9660    -1.0860 H     1 <1>   0.0800 
 31 H        5.1090     4.7360    -2.3740 H     1 <1>   0.0800 
 32 H        6.5130     2.5950    -2.4200 H     1 <1>   0.0800 
 33 H        6.2780     1.4020    -1.1800 H     1 <1>   0.0800 
 34 H        5.7170     5.1350     0.5540 H     1 <1>   0.0800 
 35 H        5.9790     6.2930    -0.7160 H     1 <1>   0.0800 
 36 H        8.3270     2.7060    -0.7790 H     1 <1>   0.0800 
 37 H        7.1770     2.8900     0.5080 H     1 <1>   0.0800 
 38 H        7.6490     4.8360    -1.7580 H     1 <1>   0.0800 
 39 H        9.4590     4.8350    -0.1110 H     1 <1>   0.0800 
 40 H        7.3360     5.2450     1.6530 H     1 <1>   0.4000 
 41 H        7.7770     7.3350     0.2210 H     1 <1>   0.0800 
 42 H        8.7860     7.0080    -1.1530 H     1 <1>   0.0800 
 43 H       10.7730     6.9070     0.3370 H     1 <1>   0.0800 
 44 H        9.7620     7.2760     1.6990 H     1 <1>   0.0800 
 45 H        8.8160     9.5180     1.9990 H     1 <1>   0.1500 
 46 H       11.2080     8.6090    -1.4120 H     1 <1>   0.1500 
 47 H        9.0080    11.9100     1.4930 H     1 <1>   0.1500 
 48 H       11.3970    11.0010    -1.9150 H     1 <1>   0.1500 
 49 H       10.2970    12.6570    -0.4660 H     1 <1>   0.1500 
@<TRIPOS>BOND
  1   1   2  1   
  2   1   3  1   
  3   2   4  ar  
  4   2   5  ar  
  5   3  25  1   
  6   3  26  1   
  7   3  27  1   
  8   4   6  ar  
  9   4  28  1   
 10   5   7  ar  
 11   5  29  1   
 12   6   8  ar  
 13   7   8  ar  
 14   8   9  1   
 15   9  10  1   
 16   9  11  1   
 17  10  12  1   
 18  10  30  1   
 19  10  31  1   
 20  11  13  1   
 21  11  32  1   
 22  11  33  1   
 23  12  14  1   
 24  12  34  1   
 25  12  35  1   
 26  13  14  1   
 27  13  36  1   
 28  13  37  1   
 29  14  15  1   
 30  14  38  1   
 31  15  16  1   
 32  15  17  1   
 33  15  39  1   
 34  16  40  1   
 35  17  18  1   
 36  17  41  1   
 37  17  42  1   
 38  18  19  1   
 39  18  43  1   
 40  18  44  1   
 41  19  20  ar  
 42  19  21  ar  
 43  20  22  ar  
 44  20  45  1   
 45  21  23  ar  
 46  21  46  1   
 47  22  24  ar  
 48  22  47  1   
 49  23  24  ar  
 50  23  48  1   
 51  24  49  1   
@<TRIPOS>SUBSTRUCTURE
  1 ****  12 GROUP 4 **** **** 0

# MOE 2024.06 (io_trps.svl 2023.06)
