@<TRIPOS>MOLECULE
NONAME
45 48 1 0 0 
SMALL
USER_CHARGES


@<TRIPOS>ATOM
  1 O        0.2150    -2.6250    -2.0730 O.co2 1 <1>  -0.9000 
  2 C       -0.0020    -1.9450    -1.0540 C.2   1 <1>   1.0330 
  3 O       -0.8630    -1.0530    -1.1000 O.co2 1 <1>  -0.9000 
  4 C        0.6240    -2.2770     0.1810 C.2   1 <1>  -0.2330 
  5 C        0.2200    -3.3390     0.9850 C.2   1 <1>   0.3720 
  6 C        1.6710    -1.7420     0.8560 C.2   1 <1>   0.0870 
  7 N        0.9600    -3.4490     2.0270 N.2   1 <1>  -0.4100 
  8 N       -0.8500    -4.1980     0.7240 N.pl3 1 <1>  -0.8210 
  9 O        1.8310    -2.4750     1.9360 O.3   1 <1>  -0.0190 
 10 C        2.5400    -0.6180     0.5970 C.ar  1 <1>   0.0530 
 11 C       -0.6380    -4.9720    -0.5430 C.3   1 <1>   0.2090 
 12 C       -2.1480    -3.4740     0.7130 C.3   1 <1>   0.2090 
 13 C        2.1670     0.4220    -0.2550 C.ar  1 <1>  -0.1500 
 14 C        3.7970    -0.5290     1.1990 C.ar  1 <1>  -0.1500 
 15 C       -1.0470    -6.4360    -0.3280 C.3   1 <1>   0.4230 
 16 C       -3.2790    -4.4290     1.0980 C.3   1 <1>  -0.1600 
 17 C        3.0070     1.4930    -0.5000 C.ar  1 <1>  -0.1500 
 18 C        4.6410     0.5400     0.9610 C.ar  1 <1>  -0.1500 
 19 N       -2.2590    -6.6230     0.5240 N.4   1 <1>  -0.9590 
 20 C       -1.3570    -7.2300    -1.5910 C.3   1 <1>  -0.1600 
 21 C       -3.3700    -5.6740     0.2130 C.3   1 <1>   0.3430 
 22 C        4.2480     1.5560     0.1080 C.ar  1 <1>  -0.1500 
 23 C       -2.6490    -8.0370     0.3300 C.3   1 <1>   0.3430 
 24 C       -2.2960    -8.3500    -1.1260 C.3   1 <1>  -0.1600 
 25 H       -1.2070    -4.5430    -1.3500 H     1 <1>   0.0800 
 26 H        0.3990    -4.9390    -0.8380 H     1 <1>   0.0800 
 27 H       -2.1120    -2.6580     1.4170 H     1 <1>   0.0800 
 28 H       -2.3350    -3.0480    -0.2610 H     1 <1>   0.0800 
 29 H        1.2030     0.3990    -0.7340 H     1 <1>   0.1500 
 30 H        4.1160    -1.3130     1.8620 H     1 <1>   0.1500 
 31 H       -0.2220    -6.9200     0.1680 H     1 <1>   0.0800 
 32 H       -4.2000    -3.8830     1.0050 H     1 <1>   0.0800 
 33 H       -3.1790    -4.7070     2.1310 H     1 <1>   0.0800 
 34 H        2.6890     2.2760    -1.1650 H     1 <1>   0.1500 
 35 H        5.6050     0.5820     1.4380 H     1 <1>   0.1500 
 36 H       -1.9460    -6.4030     1.4820 H     1 <1>   0.4500 
 37 H       -1.8510    -6.6030    -2.3130 H     1 <1>   0.0800 
 38 H       -0.4530    -7.6130    -2.0320 H     1 <1>   0.0800 
 39 H       -3.3480    -5.3950    -0.8280 H     1 <1>   0.0800 
 40 H       -4.3130    -6.1570     0.4110 H     1 <1>   0.0800 
 41 H        4.9010     2.3890    -0.0820 H     1 <1>   0.1500 
 42 H       -2.0630    -8.6640     0.9820 H     1 <1>   0.0800 
 43 H       -3.6960    -8.1960     0.5330 H     1 <1>   0.0800 
 44 H       -1.8200    -9.3140    -1.1860 H     1 <1>   0.0800 
 45 H       -3.1870    -8.3730    -1.7290 H     1 <1>   0.0800 
@<TRIPOS>BOND
  1   1   2  ar  
  2   2   3  ar  
  3   2   4  1   
  4   4   5  1   
  5   4   6  2   
  6   5   7  2   
  7   5   8  1   
  8   6   9  1   
  9   6  10  1   
 10   7   9  1   
 11   8  11  1   
 12   8  12  1   
 13  10  13  ar  
 14  10  14  ar  
 15  11  15  1   
 16  11  25  1   
 17  11  26  1   
 18  12  16  1   
 19  12  27  1   
 20  12  28  1   
 21  13  17  ar  
 22  13  29  1   
 23  14  18  ar  
 24  14  30  1   
 25  15  19  1   
 26  15  20  1   
 27  15  31  1   
 28  16  21  1   
 29  16  32  1   
 30  16  33  1   
 31  17  22  ar  
 32  17  34  1   
 33  18  22  ar  
 34  18  35  1   
 35  19  21  1   
 36  19  23  1   
 37  19  36  1   
 38  20  24  1   
 39  20  37  1   
 40  20  38  1   
 41  21  39  1   
 42  21  40  1   
 43  22  41  1   
 44  23  24  1   
 45  23  42  1   
 46  23  43  1   
 47  24  44  1   
 48  24  45  1   
@<TRIPOS>SUBSTRUCTURE
  1 ****   5 GROUP 4 **** **** 0

# MOE 2024.06 (io_trps.svl 2023.06)
