@<TRIPOS>MOLECULE
NONAME
46 48 1 0 0 
SMALL
USER_CHARGES


@<TRIPOS>ATOM
  1 CL      -4.0770     0.3050     2.1430 Cl    1 <1>  -0.1770 
  2 C       -4.2190    -0.9850     0.9770 C.ar  1 <1>   0.1770 
  3 C       -4.9590    -0.7800    -0.1730 C.ar  1 <1>  -0.1500 
  4 C       -3.5920    -2.1910     1.2200 C.ar  1 <1>  -0.1500 
  5 C       -5.0750    -1.8070    -1.0940 C.ar  1 <1>  -0.1500 
  6 C       -3.7120    -3.2140     0.2940 C.ar  1 <1>  -0.1500 
  7 C       -4.4580    -3.0290    -0.8630 C.ar  1 <1>  -0.1430 
  8 C       -4.6040    -4.1700    -1.8690 C.3   1 <1>   0.0440 
  9 C       -5.0050    -5.4920    -1.2270 C.2   1 <1>   0.5690 
 10 O       -4.1760    -6.3730    -1.1850 O.2   1 <1>  -0.5700 
 11 N       -6.2650    -5.6780    -0.7270 N.am  1 <1>  -0.6600 
 12 C       -7.3190    -4.6500    -0.5840 C.3   1 <1>   0.1400 
 13 C       -6.6880    -6.9450    -0.0920 C.3   1 <1>   0.1400 
 14 C       -8.1930    -5.1440     0.5730 C.3   1 <1>  -0.0800 
 15 C       -8.0740    -6.6780     0.5060 C.3   1 <1>  -0.0800 
 16 C       -9.6490    -4.5890     0.6150 C.3   1 <1>   0.2800 
 17 C       -9.2090    -7.2780    -0.3380 C.3   1 <1>  -0.1600 
 18 O      -10.0690    -4.2460    -0.6570 O.3   1 <1>  -0.6800 
 19 C      -10.6160    -5.6780     1.1160 C.3   1 <1>  -0.1600 
 20 C       -9.7780    -3.3210     1.4890 C.3   1 <1>  -0.1600 
 21 C      -10.5920    -6.9660     0.2640 C.3   1 <1>  -0.1600 
 22 C       -8.9120    -2.1230     1.0590 C.3   1 <1>  -0.2400 
 23 H       -5.4350     0.1690    -0.3390 H     1 <1>   0.1500 
 24 H       -3.0190    -2.3260     2.1190 H     1 <1>   0.1500 
 25 H       -5.6510    -1.6470    -1.9900 H     1 <1>   0.1500 
 26 H       -3.2250    -4.1580     0.4800 H     1 <1>   0.1500 
 27 H       -3.6650    -4.3060    -2.3730 H     1 <1>   0.0800 
 28 H       -5.3370    -3.9230    -2.6130 H     1 <1>   0.0800 
 29 H       -6.9100    -3.6830    -0.3650 H     1 <1>   0.0800 
 30 H       -7.8690    -4.6070    -1.5080 H     1 <1>   0.0800 
 31 H       -6.7090    -7.7370    -0.8210 H     1 <1>   0.0800 
 32 H       -5.9850    -7.1980     0.6830 H     1 <1>   0.0800 
 33 H       -7.7010    -4.8500     1.4830 H     1 <1>   0.0800 
 34 H       -8.1210    -7.1050     1.4930 H     1 <1>   0.0800 
 35 H       -9.1590    -6.8610    -1.3300 H     1 <1>   0.0800 
 36 H       -9.0860    -8.3440    -0.4280 H     1 <1>   0.0800 
 37 H      -11.0060    -3.9800    -0.6240 H     1 <1>   0.4000 
 38 H      -10.3280    -5.9350     2.1210 H     1 <1>   0.0800 
 39 H      -11.6200    -5.2970     1.1700 H     1 <1>   0.0800 
 40 H      -10.8080    -3.0110     1.5020 H     1 <1>   0.0800 
 41 H       -9.5190    -3.5740     2.5020 H     1 <1>   0.0800 
 42 H      -10.9110    -7.7900     0.8790 H     1 <1>   0.0800 
 43 H      -11.2990    -6.8740    -0.5430 H     1 <1>   0.0800 
 44 H       -9.0920    -1.8710     0.0280 H     1 <1>   0.0800 
 45 H       -7.8670    -2.3370     1.1880 H     1 <1>   0.0800 
 46 H       -9.1510    -1.2650     1.6620 H     1 <1>   0.0800 
@<TRIPOS>BOND
  1   1   2  1   
  2   2   3  ar  
  3   2   4  ar  
  4   3   5  ar  
  5   3  23  1   
  6   4   6  ar  
  7   4  24  1   
  8   5   7  ar  
  9   5  25  1   
 10   6   7  ar  
 11   6  26  1   
 12   7   8  1   
 13   8   9  1   
 14   8  27  1   
 15   8  28  1   
 16   9  10  2   
 17   9  11  am  
 18  11  12  1   
 19  11  13  1   
 20  12  14  1   
 21  12  29  1   
 22  12  30  1   
 23  13  15  1   
 24  13  31  1   
 25  13  32  1   
 26  14  15  1   
 27  14  16  1   
 28  14  33  1   
 29  15  17  1   
 30  15  34  1   
 31  16  18  1   
 32  16  19  1   
 33  16  20  1   
 34  17  21  1   
 35  17  35  1   
 36  17  36  1   
 37  18  37  1   
 38  19  21  1   
 39  19  38  1   
 40  19  39  1   
 41  20  22  1   
 42  20  40  1   
 43  20  41  1   
 44  21  42  1   
 45  21  43  1   
 46  22  44  1   
 47  22  45  1   
 48  22  46  1   
@<TRIPOS>SUBSTRUCTURE
  1 ****  12 GROUP 4 **** **** 0

# MOE 2024.06 (io_trps.svl 2023.06)
