@<TRIPOS>MOLECULE
NONAME
45 47 1 0 0 
SMALL
USER_CHARGES


@<TRIPOS>ATOM
  1 O       -1.5960    -1.2230     1.6700 O.3   1 <1>  -0.6800 
  2 C       -2.3820    -1.9140     0.7620 C.3   1 <1>   0.2000 
  3 C       -2.0920    -3.4220     0.8620 C.3   1 <1>   0.2090 
  4 C       -2.0570    -1.3810    -0.6370 C.3   1 <1>  -0.1600 
  5 N       -2.8420    -4.1730    -0.2000 N.pl3 1 <1>  -0.8380 
  6 C       -2.7760    -2.2120    -1.7130 C.3   1 <1>  -0.1600 
  7 C       -3.6410    -5.2500     0.0270 C.ar  1 <1>   0.4100 
  8 C       -2.4850    -3.7130    -1.5790 C.3   1 <1>   0.2090 
  9 N       -3.7250    -6.1640    -0.9240 N.ar  1 <1>  -0.6200 
 10 C       -4.3590    -5.3870     1.2330 C.ar  1 <1>  -0.1500 
 11 C       -4.4730    -7.2250    -0.6990 C.ar  1 <1>   0.7710 
 12 C       -5.1220    -6.4880     1.4300 C.ar  1 <1>   0.2110 
 13 N       -5.1570    -7.4090     0.4430 N.ar  1 <1>  -0.1790 
 14 N       -4.5310    -8.1280    -1.6850 N.pl3 1 <1>  -0.8690 
 15 C       -5.1990    -9.4460    -1.7310 C.3   1 <1>   0.2090 
 16 C       -6.7000    -9.2410    -1.9700 C.3   1 <1>  -0.1600 
 17 C       -7.5580   -10.3760    -1.3830 C.3   1 <1>   0.0960 
 18 N       -7.4740   -10.4880     0.0990 N.pl3 1 <1>   0.3140 
 19 N       -6.8840    -9.5760     0.9190 N.2   1 <1>  -0.7070 
 20 C       -7.9810   -11.5140     0.8070 C.2   1 <1>  -0.3020 
 21 C       -7.0500   -10.0610     2.1170 C.2   1 <1>   0.1390 
 22 C       -7.7270   -11.2720     2.1080 C.2   1 <1>  -0.1500 
 23 H       -1.9240    -1.3380     2.5820 H     1 <1>   0.4000 
 24 H       -3.4150    -1.7220     0.9990 H     1 <1>   0.0800 
 25 H       -2.3420    -3.7800     1.8420 H     1 <1>   0.0800 
 26 H       -1.0380    -3.5820     0.7090 H     1 <1>   0.0800 
 27 H       -0.9940    -1.4380    -0.8010 H     1 <1>   0.0800 
 28 H       -2.3600    -0.3520    -0.7110 H     1 <1>   0.0800 
 29 H       -2.4660    -1.8800    -2.6880 H     1 <1>   0.0800 
 30 H       -3.8380    -2.0600    -1.6400 H     1 <1>   0.0800 
 31 H       -3.0520    -4.2450    -2.3240 H     1 <1>   0.0800 
 32 H       -1.4400    -3.9030    -1.7560 H     1 <1>   0.0800 
 33 H       -4.3040    -4.6100     1.9710 H     1 <1>   0.1500 
 34 H       -5.7010    -6.6580     2.3240 H     1 <1>   0.1500 
 35 H       -5.7340    -8.2590     0.5150 H     1 <1>   0.4570 
 36 H       -3.9860    -7.8800    -2.5190 H     1 <1>   0.4000 
 37 H       -5.0090    -9.9690    -0.8090 H     1 <1>   0.0800 
 38 H       -4.7770   -10.0390    -2.5270 H     1 <1>   0.0800 
 39 H       -6.8720    -9.1920    -3.0310 H     1 <1>   0.0800 
 40 H       -7.0410    -8.3110    -1.5510 H     1 <1>   0.0800 
 41 H       -7.2580   -11.3170    -1.8080 H     1 <1>   0.0800 
 42 H       -8.5890   -10.2100    -1.6390 H     1 <1>   0.0800 
 43 H       -8.4910   -12.3490     0.3590 H     1 <1>   0.1500 
 44 H       -6.7060    -9.5870     3.0230 H     1 <1>   0.1500 
 45 H       -7.9830   -11.8680     2.9680 H     1 <1>   0.1500 
@<TRIPOS>BOND
  1   1   2  1   
  2   1  23  1   
  3   2   3  1   
  4   2   4  1   
  5   2  24  1   
  6   3   5  1   
  7   3  25  1   
  8   3  26  1   
  9   4   6  1   
 10   4  27  1   
 11   4  28  1   
 12   5   7  1   
 13   5   8  1   
 14   6   8  1   
 15   6  29  1   
 16   6  30  1   
 17   7   9  ar  
 18   7  10  ar  
 19   8  31  1   
 20   8  32  1   
 21   9  11  ar  
 22  10  12  ar  
 23  10  33  1   
 24  11  13  ar  
 25  11  14  1   
 26  12  13  ar  
 27  12  34  1   
 28  13  35  1   
 29  14  15  1   
 30  14  36  1   
 31  15  16  1   
 32  15  37  1   
 33  15  38  1   
 34  16  17  1   
 35  16  39  1   
 36  16  40  1   
 37  17  18  1   
 38  17  41  1   
 39  17  42  1   
 40  18  19  1   
 41  18  20  1   
 42  19  21  2   
 43  20  22  2   
 44  20  43  1   
 45  21  22  1   
 46  21  44  1   
 47  22  45  1   
@<TRIPOS>SUBSTRUCTURE
  1 ****  11 GROUP 4 **** **** 0

# MOE 2024.06 (io_trps.svl 2023.06)
