@<TRIPOS>MOLECULE
NONAME
62 65 1 0 0 
SMALL
USER_CHARGES


@<TRIPOS>ATOM
  1 O        0.7100     0.5190     1.3050 O.3   1 <1>  -0.5600 
  2 C        1.7070    -0.3220     1.8450 C.3   1 <1>   0.2000 
  3 C        0.1900     1.4840     2.1710 C.3   1 <1>   0.1200 
  4 C        3.1270     0.2070     1.5190 C.3   1 <1>   0.2090 
  5 C        1.4730    -1.7490     1.2920 C.3   1 <1>   0.3430 
  6 C        1.1260     2.6920     2.2730 C.3   1 <1>  -0.1600 
  7 N        3.3070     1.7050     1.6030 N.pl3 1 <1>  -0.8380 
  8 N        0.7520    -1.7170    -0.0210 N.4   1 <1>  -0.9590 
  9 C        2.5490     2.3480     2.7240 C.3   1 <1>   0.2090 
 10 C        4.1240     2.3850     0.7600 C.ar  1 <1>   0.4610 
 11 C       -0.2570    -2.8090    -0.1350 C.3   1 <1>   0.3430 
 12 C        1.6500    -1.6510    -1.2090 C.3   1 <1>   0.3430 
 13 N        4.0230     3.7120     0.6600 N.ar  1 <1>  -0.1790 
 14 C        5.1070     1.7710    -0.0600 C.ar  1 <1>  -0.1500 
 15 C       -1.1220    -2.5830    -1.3770 C.3   1 <1>  -0.1600 
 16 C        0.8180    -1.4030    -2.4690 C.3   1 <1>  -0.1600 
 17 C        4.7620     4.5190    -0.1870 C.ar  1 <1>   0.3610 
 18 C        5.8800     2.4840    -0.9240 C.ar  1 <1>  -0.1440 
 19 C       -0.2720    -2.4660    -2.6490 C.3   1 <1>  -0.1600 
 20 C        5.7160     3.9010    -1.0170 C.ar  1 <1>   0.0000 
 21 C        4.5570     5.9120    -0.2220 C.ar  1 <1>  -0.1440 
 22 C        6.9260     1.7790    -1.7800 C.3   1 <1>  -0.0970 
 23 C        6.4510     4.7210    -1.8830 C.ar  1 <1>  -0.1500 
 24 C        5.3020     6.6860    -1.0940 C.ar  1 <1>  -0.1440 
 25 C        3.5090     6.5400     0.7070 C.3   1 <1>  -0.0970 
 26 C        6.2460     6.0750    -1.9190 C.ar  1 <1>  -0.1500 
 27 C        5.1520     8.2000    -1.2140 C.3   1 <1>  -0.0970 
 28 H        1.5980    -0.3670     2.9150 H     1 <1>   0.0800 
 29 H        0.0050     1.0420     3.1360 H     1 <1>   0.0800 
 30 H       -0.7570     1.8010     1.7640 H     1 <1>   0.0800 
 31 H        3.3670    -0.1180     0.5240 H     1 <1>   0.0800 
 32 H        3.8310    -0.2630     2.1850 H     1 <1>   0.0800 
 33 H        0.8650    -2.2740     2.0100 H     1 <1>   0.0800 
 34 H        2.4040    -2.2860     1.2090 H     1 <1>   0.0800 
 35 H        0.6980     3.3640     2.9960 H     1 <1>   0.0800 
 36 H        1.1400     3.2080     1.3310 H     1 <1>   0.0800 
 37 H        0.2340    -0.8170     0.0090 H     1 <1>   0.4500 
 38 H        2.5230     1.6950     3.5820 H     1 <1>   0.0800 
 39 H        3.0520     3.2450     3.0420 H     1 <1>   0.0800 
 40 H       -0.8880    -2.8230     0.7390 H     1 <1>   0.0800 
 41 H        0.2410    -3.7620    -0.2130 H     1 <1>   0.0800 
 42 H        2.1900    -2.5780    -1.3120 H     1 <1>   0.0800 
 43 H        2.3590    -0.8480    -1.0960 H     1 <1>   0.0800 
 44 H        3.3090     4.1640     1.2150 H     1 <1>   0.4570 
 45 H        5.2530     0.7130     0.0260 H     1 <1>   0.1500 
 46 H       -1.7080    -1.6900    -1.2450 H     1 <1>   0.0800 
 47 H       -1.8080    -3.4050    -1.4820 H     1 <1>   0.0800 
 48 H        1.4670    -1.4100    -3.3270 H     1 <1>   0.0800 
 49 H        0.3700    -0.4250    -2.4130 H     1 <1>   0.0800 
 50 H       -0.9010    -2.2080    -3.4860 H     1 <1>   0.0800 
 51 H        0.1850    -3.4180    -2.8660 H     1 <1>   0.0800 
 52 H        6.9420     0.7210    -1.5900 H     1 <1>   0.0800 
 53 H        7.9060     2.1690    -1.5650 H     1 <1>   0.0800 
 54 H        6.7160     1.9280    -2.8250 H     1 <1>   0.0800 
 55 H        7.1910     4.2930    -2.5370 H     1 <1>   0.1500 
 56 H        3.7290     6.3070     1.7340 H     1 <1>   0.0800 
 57 H        2.5260     6.1810     0.4580 H     1 <1>   0.0800 
 58 H        3.4810     7.6110     0.6340 H     1 <1>   0.0800 
 59 H        6.8290     6.6760    -2.5980 H     1 <1>   0.1500 
 60 H        4.1420     8.4550    -1.4800 H     1 <1>   0.0800 
 61 H        5.8010     8.5990    -1.9740 H     1 <1>   0.0800 
 62 H        5.4050     8.6740    -0.2830 H     1 <1>   0.0800 
@<TRIPOS>BOND
  1   1   2  1   
  2   1   3  1   
  3   2   4  1   
  4   2   5  1   
  5   2  28  1   
  6   3   6  1   
  7   3  29  1   
  8   3  30  1   
  9   4   7  1   
 10   4  31  1   
 11   4  32  1   
 12   5   8  1   
 13   5  33  1   
 14   5  34  1   
 15   6   9  1   
 16   6  35  1   
 17   6  36  1   
 18   7   9  1   
 19   7  10  1   
 20   8  11  1   
 21   8  12  1   
 22   8  37  1   
 23   9  38  1   
 24   9  39  1   
 25  10  13  ar  
 26  10  14  ar  
 27  11  15  1   
 28  11  40  1   
 29  11  41  1   
 30  12  16  1   
 31  12  42  1   
 32  12  43  1   
 33  13  17  ar  
 34  13  44  1   
 35  14  18  ar  
 36  14  45  1   
 37  15  19  1   
 38  15  46  1   
 39  15  47  1   
 40  16  19  1   
 41  16  48  1   
 42  16  49  1   
 43  17  20  ar  
 44  17  21  ar  
 45  18  20  ar  
 46  18  22  1   
 47  19  50  1   
 48  19  51  1   
 49  20  23  ar  
 50  21  24  ar  
 51  21  25  1   
 52  22  52  1   
 53  22  53  1   
 54  22  54  1   
 55  23  26  ar  
 56  23  55  1   
 57  24  26  ar  
 58  24  27  1   
 59  25  56  1   
 60  25  57  1   
 61  25  58  1   
 62  26  59  1   
 63  27  60  1   
 64  27  61  1   
 65  27  62  1   
@<TRIPOS>SUBSTRUCTURE
  1 ****  10 GROUP 4 **** **** 0

# MOE 2024.06 (io_trps.svl 2023.06)
