@<TRIPOS>MOLECULE
NONAME
53 56 1 0 0 
SMALL
USER_CHARGES


@<TRIPOS>ATOM
  1 O        1.9340    -1.5270    -1.8610 O.2   1 <1>  -0.5700 
  2 C        2.8440    -1.9120    -1.1650 C.2   1 <1>   0.5690 
  3 N        4.0800    -1.3250    -1.2150 N.am  1 <1>  -0.6600 
  4 C        2.5910    -3.0730    -0.2080 C.3   1 <1>  -0.0990 
  5 C        4.2870    -0.0880    -2.0280 C.3   1 <1>   0.3210 
  6 C        5.2510    -1.6920    -0.3690 C.3   1 <1>   0.0600 
  7 C        1.1160    -3.5130    -0.1230 C.3   1 <1>  -0.1600 
  8 C        4.3100     1.1410    -1.1290 C.2   1 <1>   0.1080 
  9 C        0.9180    -4.6630     0.8750 C.3   1 <1>   0.0200 
 10 N        5.3960     1.7660    -0.7750 N.2   1 <1>  -0.7070 
 11 C        3.1700     1.7210    -0.5830 C.2   1 <1>  -0.1500 
 12 C       -0.5310    -5.1060     0.9350 C.2   1 <1>   0.2980 
 13 N        4.9620     2.7730     0.0090 N.pl3 1 <1>   0.3000 
 14 C        3.6210     2.7670     0.1410 C.2   1 <1>  -0.2370 
 15 O       -1.4200    -4.2920     1.4380 O.3   1 <1>  -0.0190 
 16 N       -0.9770    -6.2240     0.5360 N.2   1 <1>  -0.5650 
 17 C        2.8590     3.7810     0.9680 C.3   1 <1>  -0.0150 
 18 N       -2.5330    -4.9480     1.3510 N.2   1 <1>  -0.4100 
 19 C       -2.2780    -6.0910     0.8160 C.2   1 <1>   0.4620 
 20 C        1.4820     4.1980     0.5620 C.3   1 <1>  -0.2000 
 21 C        2.6310     5.1530     0.4220 C.3   1 <1>  -0.2000 
 22 C       -3.2540    -7.1330     0.5350 C.ar  1 <1>   0.0540 
 23 C       -4.6050    -6.9610     0.8390 C.ar  1 <1>  -0.1500 
 24 C       -2.8870    -8.3470    -0.0470 C.ar  1 <1>  -0.1500 
 25 C       -5.5400    -7.9460     0.5760 C.ar  1 <1>  -0.1500 
 26 C       -3.8170    -9.3360    -0.3120 C.ar  1 <1>  -0.1500 
 27 C       -5.1520    -9.1410    -0.0030 C.ar  1 <1>  -0.1440 
 28 C       -6.1740   -10.2250    -0.2920 C.3   1 <1>  -0.0970 
 29 H        2.9190    -2.7760     0.7700 H     1 <1>   0.0800 
 30 H        3.1890    -3.9050    -0.5320 H     1 <1>   0.0800 
 31 H        3.5060     0.0260    -2.7590 H     1 <1>   0.0800 
 32 H        5.2210    -0.1580    -2.5560 H     1 <1>   0.0800 
 33 H        5.1730    -2.7010    -0.0060 H     1 <1>   0.0800 
 34 H        5.3160    -1.0180     0.4680 H     1 <1>   0.0800 
 35 H        6.1570    -1.6100    -0.9460 H     1 <1>   0.0800 
 36 H        0.7810    -3.8280    -1.0970 H     1 <1>   0.0800 
 37 H        0.5120    -2.6720     0.1740 H     1 <1>   0.0800 
 38 H        1.2250    -4.3570     1.8590 H     1 <1>   0.0800 
 39 H        1.5220    -5.5040     0.5810 H     1 <1>   0.0800 
 40 H        2.1610     1.3780    -0.7280 H     1 <1>   0.1500 
 41 H        5.6010     3.4530     0.4370 H     1 <1>   0.2700 
 42 H        3.0480     3.6850     2.0240 H     1 <1>   0.1000 
 43 H        0.7500     4.3710     1.3310 H     1 <1>   0.1000 
 44 H        1.0540     3.7750    -0.3300 H     1 <1>   0.1000 
 45 H        2.9840     5.3830    -0.5680 H     1 <1>   0.1000 
 46 H        2.6880     5.9940     1.0900 H     1 <1>   0.1000 
 47 H       -4.9300    -6.0390     1.2900 H     1 <1>   0.1500 
 48 H       -1.8550    -8.5210    -0.2970 H     1 <1>   0.1500 
 49 H       -6.5730    -7.7780     0.8260 H     1 <1>   0.1500 
 50 H       -3.4950   -10.2600    -0.7610 H     1 <1>   0.1500 
 51 H       -7.1370    -9.7910    -0.4920 H     1 <1>   0.0800 
 52 H       -6.2580   -10.8810     0.5560 H     1 <1>   0.0800 
 53 H       -5.8780   -10.8020    -1.1490 H     1 <1>   0.0800 
@<TRIPOS>BOND
  1   1   2  2   
  2   2   3  am  
  3   2   4  1   
  4   3   5  1   
  5   3   6  1   
  6   4   7  1   
  7   4  29  1   
  8   4  30  1   
  9   5   8  1   
 10   5  31  1   
 11   5  32  1   
 12   6  33  1   
 13   6  34  1   
 14   6  35  1   
 15   7   9  1   
 16   7  36  1   
 17   7  37  1   
 18   8  10  2   
 19   8  11  1   
 20   9  12  1   
 21   9  38  1   
 22   9  39  1   
 23  10  13  1   
 24  11  14  2   
 25  11  40  1   
 26  12  15  1   
 27  12  16  2   
 28  13  14  1   
 29  13  41  1   
 30  14  17  1   
 31  15  18  1   
 32  16  19  1   
 33  17  20  1   
 34  17  21  1   
 35  17  42  1   
 36  18  19  2   
 37  19  22  1   
 38  20  21  1   
 39  20  43  1   
 40  20  44  1   
 41  21  45  1   
 42  21  46  1   
 43  22  23  ar  
 44  22  24  ar  
 45  23  25  ar  
 46  23  47  1   
 47  24  26  ar  
 48  24  48  1   
 49  25  27  ar  
 50  25  49  1   
 51  26  27  ar  
 52  26  50  1   
 53  27  28  1   
 54  28  51  1   
 55  28  52  1   
 56  28  53  1   
@<TRIPOS>SUBSTRUCTURE
  1 ****   7 GROUP 4 **** **** 0

# MOE 2024.06 (io_trps.svl 2023.06)
