@<TRIPOS>MOLECULE
NONAME
48 51 1 0 0 
SMALL
USER_CHARGES


@<TRIPOS>ATOM
  1 F       -2.2980    -2.9590     2.2560 F     1 <1>  -0.3400 
  2 C       -3.0650    -2.8860     1.1750 C.3   1 <1>   1.1640 
  3 F       -4.2550    -3.3590     1.5580 F     1 <1>  -0.3400 
  4 F       -2.5620    -3.7820     0.3330 F     1 <1>  -0.3400 
  5 C       -3.1500    -1.4520     0.5940 C.ar  1 <1>  -0.1440 
  6 C       -3.5470    -1.1650    -0.7220 C.ar  1 <1>  -0.1440 
  7 C       -2.8240    -0.3820     1.4280 C.ar  1 <1>  -0.1500 
  8 C       -3.5910     0.1520    -1.1590 C.ar  1 <1>  -0.1500 
  9 C       -3.9570    -2.2380    -1.7300 C.3   1 <1>   0.2540 
 10 C       -2.8750     0.9250     0.9820 C.ar  1 <1>  -0.1500 
 11 C       -3.2580     1.1930    -0.3150 C.ar  1 <1>  -0.1500 
 12 N       -5.0550    -3.0300    -1.1640 N.3   1 <1>  -0.8100 
 13 C       -6.3300    -2.2940    -0.9990 C.3   1 <1>   0.1100 
 14 C       -5.2670    -4.3360    -1.8160 C.3   1 <1>   0.1100 
 15 C       -7.3240    -3.0880    -0.1090 C.3   1 <1>   0.4230 
 16 C       -6.3510    -5.1670    -1.0830 C.3   1 <1>   0.3430 
 17 N       -6.8190    -4.4840     0.1750 N.4   1 <1>  -0.9590 
 18 C       -8.7420    -3.1260    -0.7220 C.3   1 <1>   0.1200 
 19 C       -7.8110    -5.2470     0.9910 C.3   1 <1>   0.5180 
 20 O       -9.6080    -3.8730     0.0870 O.3   1 <1>  -0.5600 
 21 C       -7.2730    -6.6680     1.2540 C.3   1 <1>  -0.1950 
 22 C       -9.2120    -5.1980     0.3310 C.3   1 <1>   0.1200 
 23 C       -7.4800    -7.8470     0.3460 C.3   1 <1>  -0.2000 
 24 C       -8.1500    -7.8030     1.6900 C.3   1 <1>  -0.2000 
 25 H       -2.5200    -0.5490     2.4490 H     1 <1>   0.1500 
 26 H       -3.8870     0.3850    -2.1670 H     1 <1>   0.1500 
 27 H       -3.1080    -2.8700    -1.9330 H     1 <1>   0.0800 
 28 H       -4.2680    -1.7960    -2.6610 H     1 <1>   0.0800 
 29 H       -2.6140     1.7340     1.6440 H     1 <1>   0.1500 
 30 H       -3.2950     2.2100    -0.6670 H     1 <1>   0.1500 
 31 H       -6.1500    -1.3410    -0.5310 H     1 <1>   0.0800 
 32 H       -6.7600    -2.0990    -1.9660 H     1 <1>   0.0800 
 33 H       -5.5530    -4.1960    -2.8450 H     1 <1>   0.0800 
 34 H       -4.3440    -4.8910    -1.8070 H     1 <1>   0.0800 
 35 H       -7.4030    -2.5580     0.8250 H     1 <1>   0.0800 
 36 H       -5.9370    -6.1330    -0.8470 H     1 <1>   0.0800 
 37 H       -7.1840    -5.3240    -1.7470 H     1 <1>   0.0800 
 38 H       -5.9600    -4.3340     0.7260 H     1 <1>   0.4500 
 39 H       -8.7320    -3.5590    -1.7070 H     1 <1>   0.0800 
 40 H       -9.1420    -2.1300    -0.7900 H     1 <1>   0.0800 
 41 H       -7.9060    -4.7620     1.9490 H     1 <1>   0.0800 
 42 H       -6.3320    -6.6160     1.7750 H     1 <1>   0.1000 
 43 H       -9.9440    -5.6330     0.9870 H     1 <1>   0.0800 
 44 H       -9.2260    -5.7360    -0.6000 H     1 <1>   0.0800 
 45 H       -8.1170    -7.7920    -0.5200 H     1 <1>   0.1000 
 46 H       -6.6770    -8.5530     0.2110 H     1 <1>   0.1000 
 47 H       -7.7930    -8.4690     2.4580 H     1 <1>   0.1000 
 48 H       -9.2230    -7.7100     1.7120 H     1 <1>   0.1000 
@<TRIPOS>BOND
  1   1   2  1   
  2   2   3  1   
  3   2   4  1   
  4   2   5  1   
  5   5   6  ar  
  6   5   7  ar  
  7   6   8  ar  
  8   6   9  1   
  9   7  10  ar  
 10   7  25  1   
 11   8  11  ar  
 12   8  26  1   
 13   9  12  1   
 14   9  27  1   
 15   9  28  1   
 16  10  11  ar  
 17  10  29  1   
 18  11  30  1   
 19  12  13  1   
 20  12  14  1   
 21  13  15  1   
 22  13  31  1   
 23  13  32  1   
 24  14  16  1   
 25  14  33  1   
 26  14  34  1   
 27  15  17  1   
 28  15  18  1   
 29  15  35  1   
 30  16  17  1   
 31  16  36  1   
 32  16  37  1   
 33  17  19  1   
 34  17  38  1   
 35  18  20  1   
 36  18  39  1   
 37  18  40  1   
 38  19  21  1   
 39  19  22  1   
 40  19  41  1   
 41  20  22  1   
 42  21  23  1   
 43  21  24  1   
 44  21  42  1   
 45  22  43  1   
 46  22  44  1   
 47  23  24  1   
 48  23  45  1   
 49  23  46  1   
 50  24  47  1   
 51  24  48  1   
@<TRIPOS>SUBSTRUCTURE
  1 ****  12 GROUP 4 **** **** 0

# MOE 2024.06 (io_trps.svl 2023.06)
