@<TRIPOS>MOLECULE
NONAME
44 45 1 0 0 
SMALL
USER_CHARGES


@<TRIPOS>ATOM
  1 S        0.6900    -0.0810    -1.2690 S.o2  1 <1>   1.3330 
  2 O        2.1250     0.0790    -1.2170 O.2   1 <1>  -0.6500 
  3 O        0.0510    -0.6440    -2.4320 O.2   1 <1>  -0.6500 
  4 N        0.2070    -0.9590     0.1000 N.am  1 <1>  -0.8490 
  5 C       -0.0120     1.5440    -0.9570 C.3   1 <1>  -0.0550 
  6 C        1.1410    -2.0500     0.4100 C.3   1 <1>   0.1160 
  7 C       -1.1490    -1.5130    -0.0190 C.3   1 <1>   0.1160 
  8 C        0.4970     2.2070     0.3460 C.3   1 <1>  -0.0800 
  9 C       -0.2420     3.5090     0.6340 C.3   1 <1>   0.2000 
 10 C        1.9680     2.6490     0.2440 C.3   1 <1>   0.3430 
 11 O       -0.0760     3.8090     1.9820 O.3   1 <1>  -0.6800 
 12 C        0.5370     4.5380    -0.1880 C.3   1 <1>   0.3430 
 13 N        1.9690     4.1010    -0.1220 N.4   1 <1>  -0.9590 
 14 C        2.7300     4.8820     0.9000 C.3   1 <1>   0.4860 
 15 C        2.6710     6.3840     0.6230 C.ar  1 <1>  -0.1440 
 16 C        3.1680     6.9410    -0.5590 C.ar  1 <1>   0.0730 
 17 C        2.1130     7.2090     1.5900 C.ar  1 <1>  -0.1500 
 18 C        3.7030     6.0980    -1.5870 C.1   1 <1>   0.4840 
 19 C        3.1050     8.3180    -0.7370 C.ar  1 <1>  -0.1500 
 20 C        2.0530     8.5760     1.3960 C.ar  1 <1>  -0.1500 
 21 N        3.9790     5.2570    -2.3050 N.1   1 <1>  -0.5570 
 22 C        2.5510     9.1320     0.2330 C.ar  1 <1>  -0.1500 
 23 H        0.2030     2.1750    -1.7970 H     1 <1>   0.0800 
 24 H       -1.0780     1.4390    -0.9000 H     1 <1>   0.0800 
 25 H        0.8150    -2.5850     1.2860 H     1 <1>   0.0800 
 26 H        2.1240    -1.6550     0.6060 H     1 <1>   0.0800 
 27 H        1.2050    -2.7360    -0.4190 H     1 <1>   0.0800 
 28 H       -1.4350    -1.9950     0.9010 H     1 <1>   0.0800 
 29 H       -1.1930    -2.2370    -0.8180 H     1 <1>   0.0800 
 30 H       -1.8580    -0.7310    -0.2260 H     1 <1>   0.0800 
 31 H        0.3710     1.5090     1.1560 H     1 <1>   0.0800 
 32 H       -1.2940     3.4940     0.4030 H     1 <1>   0.0800 
 33 H        2.5190     2.0760    -0.4820 H     1 <1>   0.0800 
 34 H        2.4360     2.5140     1.2060 H     1 <1>   0.0800 
 35 H       -0.6870     3.2830     2.5420 H     1 <1>   0.4000 
 36 H        0.3880     5.5340     0.1970 H     1 <1>   0.0800 
 37 H        0.2000     4.5030    -1.2100 H     1 <1>   0.0800 
 38 H        2.4340     4.2190    -1.0400 H     1 <1>   0.4500 
 39 H        2.3140     4.6900     1.8760 H     1 <1>   0.0800 
 40 H        3.7600     4.5630     0.9090 H     1 <1>   0.0800 
 41 H        1.7210     6.7990     2.5080 H     1 <1>   0.1500 
 42 H        3.4880     8.7630    -1.6410 H     1 <1>   0.1500 
 43 H        1.6200     9.2130     2.1510 H     1 <1>   0.1500 
 44 H        2.5070    10.1990     0.0850 H     1 <1>   0.1500 
@<TRIPOS>BOND
  1   1   2  2   
  2   1   3  2   
  3   1   4  am  
  4   1   5  1   
  5   4   6  1   
  6   4   7  1   
  7   5   8  1   
  8   5  23  1   
  9   5  24  1   
 10   6  25  1   
 11   6  26  1   
 12   6  27  1   
 13   7  28  1   
 14   7  29  1   
 15   7  30  1   
 16   8   9  1   
 17   8  10  1   
 18   8  31  1   
 19   9  11  1   
 20   9  12  1   
 21   9  32  1   
 22  10  13  1   
 23  10  33  1   
 24  10  34  1   
 25  11  35  1   
 26  12  13  1   
 27  12  36  1   
 28  12  37  1   
 29  13  14  1   
 30  13  38  1   
 31  14  15  1   
 32  14  39  1   
 33  14  40  1   
 34  15  16  ar  
 35  15  17  ar  
 36  16  18  1   
 37  16  19  ar  
 38  17  20  ar  
 39  17  41  1   
 40  18  21  3   
 41  19  22  ar  
 42  19  42  1   
 43  20  22  ar  
 44  20  43  1   
 45  22  44  1   
@<TRIPOS>SUBSTRUCTURE
  1 ****  13 GROUP 4 **** **** 0

# MOE 2024.06 (io_trps.svl 2023.06)
