@<TRIPOS>MOLECULE
NONAME
41 43 1 0 0 
SMALL
USER_CHARGES


@<TRIPOS>ATOM
  1 O        0.0230     0.2270     1.6120 O.3   1 <1>  -0.5600 
  2 C        0.8640     0.4380     0.5250 C.3   1 <1>   0.1200 
  3 C       -1.3110     0.3500     1.2200 C.3   1 <1>   0.1200 
  4 C        0.1450     1.4890    -0.3150 C.3   1 <1>   0.2890 
  5 C       -1.3000     1.0170    -0.1630 C.3   1 <1>  -0.0800 
  6 N        0.3400     2.8150     0.3280 N.pl3 1 <1>  -0.8690 
  7 C       -2.4000     2.0810    -0.3430 C.3   1 <1>  -0.0170 
  8 C        0.7750     4.0120    -0.0740 C.ar  1 <1>   0.7710 
  9 C       -3.7810     1.4530    -0.2330 C.ar  1 <1>  -0.1440 
 10 N        0.8490     4.9390     0.8570 N.ar  1 <1>  -0.6200 
 11 N        1.1110     4.2320    -1.3590 N.ar  1 <1>  -0.1790 
 12 C       -4.5380     1.5490     0.9180 C.ar  1 <1>  -0.1500 
 13 C       -4.3490     0.7510    -1.2770 C.ar  1 <1>  -0.1500 
 14 C        1.2760     6.1290     0.4990 C.ar  1 <1>   0.4100 
 15 C        1.5600     5.4480    -1.7600 C.ar  1 <1>   0.2110 
 16 C       -5.7870     0.9510     0.9690 C.ar  1 <1>   0.1600 
 17 C       -5.6060     0.1900    -1.1230 C.ar  1 <1>   0.1600 
 18 N        1.3310     7.0300     1.4910 N.pl3 1 <1>  -0.8690 
 19 C        1.6510     6.4240    -0.8250 C.ar  1 <1>  -0.1500 
 20 N       -6.3370     0.2710    -0.0240 N.ar  1 <1>  -0.6200 
 21 C        1.6940     8.4720     1.4670 C.3   1 <1>   0.1290 
 22 H        1.8290     0.7610     0.8730 H     1 <1>   0.0800 
 23 H        0.9550    -0.4930    -0.0080 H     1 <1>   0.0800 
 24 H       -1.7570    -0.6300     1.1870 H     1 <1>   0.0800 
 25 H       -1.8140     0.9500     1.9580 H     1 <1>   0.0800 
 26 H        0.4780     1.4830    -1.3370 H     1 <1>   0.0800 
 27 H       -1.4700     0.2370    -0.8860 H     1 <1>   0.0800 
 28 H        0.1650     2.7560     1.3420 H     1 <1>   0.4000 
 29 H       -2.3050     2.5450    -1.3080 H     1 <1>   0.0800 
 30 H       -2.3040     2.8530     0.4020 H     1 <1>   0.0800 
 31 H        1.0140     3.4500    -1.9940 H     1 <1>   0.4570 
 32 H       -4.1760     2.0820     1.7780 H     1 <1>   0.1500 
 33 H       -3.8320     0.6310    -2.2110 H     1 <1>   0.1500 
 34 H        1.8290     5.6000    -2.7940 H     1 <1>   0.1500 
 35 H       -6.3630     1.0360     1.8740 H     1 <1>   0.1500 
 36 H       -6.0340    -0.3550    -1.9470 H     1 <1>   0.1500 
 37 H        1.0830     6.6740     2.4220 H     1 <1>   0.4000 
 38 H        2.0030     7.4080    -1.0680 H     1 <1>   0.1500 
 39 H        1.5550     8.8910     0.4860 H     1 <1>   0.0800 
 40 H        2.7210     8.5950     1.7640 H     1 <1>   0.0800 
 41 H        1.0670     9.0120     2.1560 H     1 <1>   0.0800 
@<TRIPOS>BOND
  1   1   2  1   
  2   1   3  1   
  3   2   4  1   
  4   2  22  1   
  5   2  23  1   
  6   3   5  1   
  7   3  24  1   
  8   3  25  1   
  9   4   5  1   
 10   4   6  1   
 11   4  26  1   
 12   5   7  1   
 13   5  27  1   
 14   6   8  1   
 15   6  28  1   
 16   7   9  1   
 17   7  29  1   
 18   7  30  1   
 19   8  10  ar  
 20   8  11  ar  
 21   9  12  ar  
 22   9  13  ar  
 23  10  14  ar  
 24  11  15  ar  
 25  11  31  1   
 26  12  16  ar  
 27  12  32  1   
 28  13  17  ar  
 29  13  33  1   
 30  14  18  1   
 31  14  19  ar  
 32  15  19  ar  
 33  15  34  1   
 34  16  20  ar  
 35  16  35  1   
 36  17  20  ar  
 37  17  36  1   
 38  18  21  1   
 39  18  37  1   
 40  19  38  1   
 41  21  39  1   
 42  21  40  1   
 43  21  41  1   
@<TRIPOS>SUBSTRUCTURE
  1 ****   6 GROUP 4 **** **** 0

# MOE 2024.06 (io_trps.svl 2023.06)
