@<TRIPOS>MOLECULE
NONAME
58 61 1 0 0 
SMALL
USER_CHARGES


@<TRIPOS>ATOM
  1 O       -3.0510     1.4570    -1.8880 O.2   1 <1>  -0.5700 
  2 C       -1.8670     1.7030    -1.7160 C.2   1 <1>   0.5440 
  3 N       -1.1930     0.8190    -0.8980 N.am  1 <1>  -0.6600 
  4 C       -1.2510     2.9020    -2.2860 C.ar  1 <1>   0.3960 
  5 C       -1.5200    -0.6440    -0.9810 C.3   1 <1>   0.1400 
  6 C       -0.9130     1.2540     0.5050 C.3   1 <1>   0.1400 
  7 N       -0.1300     3.3980    -1.7420 N.ar  1 <1>  -0.6200 
  8 C       -1.8640     3.5100    -3.3850 C.ar  1 <1>   0.1600 
  9 C       -2.5670    -1.0620     0.0820 C.3   1 <1>   0.3430 
 10 C       -2.1440     0.9930     1.4120 C.3   1 <1>   0.3430 
 11 C        0.3290     4.4830    -2.3460 C.ar  1 <1>   0.4100 
 12 N       -1.4260     4.5950    -4.0060 N.ar  1 <1>  -0.6200 
 13 N       -3.1860     0.1450     0.7260 N.4   1 <1>  -0.9590 
 14 N        1.4860     5.0370    -1.8170 N.pl3 1 <1>  -0.8380 
 15 C       -0.3170     5.0490    -3.4590 C.ar  1 <1>   0.1600 
 16 C       -4.3580    -0.1720     1.5900 C.3   1 <1>   0.2630 
 17 C        1.6860     6.5160    -1.6960 C.3   1 <1>   0.2090 
 18 C        2.5610     4.2070    -1.2070 C.3   1 <1>   0.2090 
 19 C        1.8890     6.9270    -0.2280 C.3   1 <1>   0.2000 
 20 C        2.7250     4.5880     0.2680 C.3   1 <1>  -0.1600 
 21 O        2.2600     8.2730    -0.2120 O.3   1 <1>  -0.5600 
 22 C        2.9920     6.0930     0.4460 C.3   1 <1>  -0.1600 
 23 C        1.9570     8.9660     0.9720 C.3   1 <1>   0.2630 
 24 C        2.3510    10.4410     0.8960 C.ar  1 <1>   0.1670 
 25 N        1.9250    11.1890     1.9070 N.ar  1 <1>  -0.6200 
 26 C        3.1050    10.9380    -0.1600 C.ar  1 <1>  -0.1500 
 27 C        2.2580    12.4690     1.8610 C.ar  1 <1>   0.1600 
 28 C        3.4450    12.2740    -0.1940 C.ar  1 <1>  -0.1500 
 29 C        3.0030    13.0540     0.8520 C.ar  1 <1>  -0.1500 
 30 H       -0.6210    -1.2230    -0.8550 H     1 <1>   0.0800 
 31 H       -1.9070    -0.8680    -1.9610 H     1 <1>   0.0800 
 32 H       -0.6620     2.3000     0.5350 H     1 <1>   0.0800 
 33 H       -0.0630     0.7120     0.8800 H     1 <1>   0.0800 
 34 H       -2.7670     3.0710    -3.7710 H     1 <1>   0.1500 
 35 H       -2.0890    -1.6710     0.8310 H     1 <1>   0.0800 
 36 H       -3.3260    -1.6600    -0.3940 H     1 <1>   0.0800 
 37 H       -2.5780     1.9410     1.6830 H     1 <1>   0.0800 
 38 H       -1.8150     0.5150     2.3200 H     1 <1>   0.0800 
 39 H       -3.4970     0.7150    -0.0930 H     1 <1>   0.4500 
 40 H        0.1280     5.9170    -3.9060 H     1 <1>   0.1500 
 41 H       -4.0540    -0.7730     2.4310 H     1 <1>   0.0800 
 42 H       -5.1000    -0.7140     1.0260 H     1 <1>   0.0800 
 43 H       -4.8070     0.7370     1.9570 H     1 <1>   0.0800 
 44 H        0.8320     7.0440    -2.0820 H     1 <1>   0.0800 
 45 H        2.5550     6.7960    -2.2650 H     1 <1>   0.0800 
 46 H        3.4830     4.3860    -1.7340 H     1 <1>   0.0800 
 47 H        2.3310     3.1580    -1.2940 H     1 <1>   0.0800 
 48 H        0.9520     6.8110     0.2900 H     1 <1>   0.0800 
 49 H        3.5400     4.0260     0.6880 H     1 <1>   0.0800 
 50 H        1.8280     4.3120     0.7940 H     1 <1>   0.0800 
 51 H        3.0380     6.3170     1.4960 H     1 <1>   0.0800 
 52 H        3.9400     6.3370    -0.0020 H     1 <1>   0.0800 
 53 H        2.4810     8.5080     1.7900 H     1 <1>   0.0800 
 54 H        0.8980     8.8980     1.1440 H     1 <1>   0.0800 
 55 H        3.4270    10.2880    -0.9530 H     1 <1>   0.1500 
 56 H        1.9190    13.0880     2.6740 H     1 <1>   0.1500 
 57 H        4.0270    12.6860    -1.0000 H     1 <1>   0.1500 
 58 H        3.2330    14.1030     0.8870 H     1 <1>   0.1500 
@<TRIPOS>BOND
  1   1   2  2   
  2   2   3  am  
  3   2   4  1   
  4   3   5  1   
  5   3   6  1   
  6   4   7  ar  
  7   4   8  ar  
  8   5   9  1   
  9   5  30  1   
 10   5  31  1   
 11   6  10  1   
 12   6  32  1   
 13   6  33  1   
 14   7  11  ar  
 15   8  12  ar  
 16   8  34  1   
 17   9  13  1   
 18   9  35  1   
 19   9  36  1   
 20  10  13  1   
 21  10  37  1   
 22  10  38  1   
 23  11  14  1   
 24  11  15  ar  
 25  12  15  ar  
 26  13  16  1   
 27  13  39  1   
 28  14  17  1   
 29  14  18  1   
 30  15  40  1   
 31  16  41  1   
 32  16  42  1   
 33  16  43  1   
 34  17  19  1   
 35  17  44  1   
 36  17  45  1   
 37  18  20  1   
 38  18  46  1   
 39  18  47  1   
 40  19  21  1   
 41  19  22  1   
 42  19  48  1   
 43  20  22  1   
 44  20  49  1   
 45  20  50  1   
 46  21  23  1   
 47  22  51  1   
 48  22  52  1   
 49  23  24  1   
 50  23  53  1   
 51  23  54  1   
 52  24  25  ar  
 53  24  26  ar  
 54  25  27  ar  
 55  26  28  ar  
 56  26  55  1   
 57  27  29  ar  
 58  27  56  1   
 59  28  29  ar  
 60  28  57  1   
 61  29  58  1   
@<TRIPOS>SUBSTRUCTURE
  1 ****  14 GROUP 4 **** **** 0

# MOE 2024.06 (io_trps.svl 2023.06)
