@<TRIPOS>MOLECULE
NONAME
39 41 1 0 0 
SMALL
USER_CHARGES


@<TRIPOS>ATOM
  1 O        0.0350    -0.1040    -0.3410 O.2   1 <1>  -0.5700 
  2 C        1.1320    -0.6210    -0.2540 C.2   1 <1>   0.7160 
  3 N        2.2690     0.1490    -0.2950 N.am  1 <1>  -0.4940 
  4 C        1.2780    -2.0480    -0.0910 C.2   1 <1>  -0.0860 
  5 C        2.4250     1.5390    -0.5320 C.2   1 <1>  -0.0880 
  6 C        0.4150    -2.9680     0.4270 C.2   1 <1>  -0.0400 
  7 C        2.4080    -2.8140    -0.4580 C.2   1 <1>  -0.1500 
  8 N        3.5860     2.2370    -0.3810 N.pl3 1 <1>   0.3140 
  9 C        1.5000     2.4330    -0.9540 C.2   1 <1>  -0.1500 
 10 O        0.9360    -4.1700     0.4030 O.3   1 <1>  -0.2800 
 11 C       -0.9800    -2.8220     1.0040 C.3   1 <1>  -0.0600 
 12 C        2.1330    -4.0900    -0.1290 C.2   1 <1>  -0.0400 
 13 N        3.4180     3.5430    -0.7110 N.2   1 <1>  -0.7070 
 14 C        4.8910     1.6710     0.0730 C.3   1 <1>   0.1760 
 15 C        2.1700     3.6440    -1.0450 C.2   1 <1>   0.1390 
 16 C        2.9420    -5.3600    -0.2790 C.3   1 <1>  -0.0600 
 17 C        5.8400     2.6750     0.7310 C.3   1 <1>  -0.1600 
 18 C        5.7120     1.0990    -1.0840 C.3   1 <1>  -0.1600 
 19 C        7.2110     2.0040     0.6460 C.3   1 <1>  -0.1600 
 20 C        7.1690     1.1190    -0.6060 C.3   1 <1>  -0.1600 
 21 H        3.1140    -0.3840    -0.1070 H     1 <1>   0.3700 
 22 H        3.3010    -2.4370    -0.9220 H     1 <1>   0.1500 
 23 H        0.4620     2.2660    -1.1800 H     1 <1>   0.1500 
 24 H       -1.2910    -1.7950     1.0150 H     1 <1>   0.0800 
 25 H       -0.9950    -3.1990     2.0100 H     1 <1>   0.0800 
 26 H       -1.6750    -3.3880     0.4110 H     1 <1>   0.0800 
 27 H        4.6920     0.8900     0.7840 H     1 <1>   0.0800 
 28 H        1.7140     4.5680    -1.3580 H     1 <1>   0.1500 
 29 H        3.8930    -5.1470    -0.7310 H     1 <1>   0.0800 
 30 H        2.4070    -6.0570    -0.8980 H     1 <1>   0.0800 
 31 H        3.1020    -5.8040     0.6870 H     1 <1>   0.0800 
 32 H        5.5570     2.8910     1.7460 H     1 <1>   0.0800 
 33 H        5.8670     3.5890     0.1630 H     1 <1>   0.0800 
 34 H        5.6170     1.7480    -1.9390 H     1 <1>   0.0800 
 35 H        5.3940     0.1080    -1.3510 H     1 <1>   0.0800 
 36 H        7.3660     1.3890     1.5160 H     1 <1>   0.0800 
 37 H        8.0010     2.7340     0.5920 H     1 <1>   0.0800 
 38 H        7.8050     1.5210    -1.3770 H     1 <1>   0.0800 
 39 H        7.5060     0.1250    -0.3650 H     1 <1>   0.0800 
@<TRIPOS>BOND
  1   1   2  2   
  2   2   3  am  
  3   2   4  1   
  4   3   5  1   
  5   3  21  1   
  6   4   6  2   
  7   4   7  1   
  8   5   8  1   
  9   5   9  2   
 10   6  10  1   
 11   6  11  1   
 12   7  12  2   
 13   7  22  1   
 14   8  13  1   
 15   8  14  1   
 16   9  15  1   
 17   9  23  1   
 18  10  12  1   
 19  11  24  1   
 20  11  25  1   
 21  11  26  1   
 22  12  16  1   
 23  13  15  2   
 24  14  17  1   
 25  14  18  1   
 26  14  27  1   
 27  15  28  1   
 28  16  29  1   
 29  16  30  1   
 30  16  31  1   
 31  17  19  1   
 32  17  32  1   
 33  17  33  1   
 34  18  20  1   
 35  18  34  1   
 36  18  35  1   
 37  19  20  1   
 38  19  36  1   
 39  19  37  1   
 40  20  38  1   
 41  20  39  1   
@<TRIPOS>SUBSTRUCTURE
  1 ****   3 GROUP 4 **** **** 0

# MOE 2024.06 (io_trps.svl 2023.06)
