@<TRIPOS>MOLECULE
NONAME
31 30 1 0 0 
SMALL
USER_CHARGES


@<TRIPOS>ATOM
  1 O       -0.2340    -0.2260     0.3570 O.2   1 <1>  -0.5700 
  2 C        0.8040    -0.8410     0.2840 C.2   1 <1>   0.6590 
  3 O        1.9570    -0.2580    -0.0380 O.3   1 <1>  -0.4300 
  4 C        0.8990    -2.3430     0.6550 C.3   1 <1>   0.0610 
  5 C        2.1630     1.0490    -0.5150 C.3   1 <1>   0.2800 
  6 C        1.7180    -3.1450    -0.3860 C.3   1 <1>  -0.2660 
  7 C        1.6100    -2.4800     2.0170 C.3   1 <1>  -0.2400 
  8 C       -0.5010    -2.9810     0.7990 C.3   1 <1>  -0.2400 
  9 C        1.3530     1.2770    -1.7960 C.3   1 <1>  -0.2400 
 10 C        3.6550     1.1260    -0.8390 C.3   1 <1>  -0.2400 
 11 C        1.8200     2.0630     0.5810 C.3   1 <1>  -0.2400 
 12 C        1.1530    -3.0860    -1.7830 C.2   1 <1>   0.9060 
 13 O        0.3770    -3.9770    -2.1400 O.co2 1 <1>  -0.9000 
 14 O        1.5130    -2.1760    -2.5330 O.co2 1 <1>  -0.9000 
 15 H        1.7710    -4.1780    -0.1040 H     1 <1>   0.0800 
 16 H        2.7210    -2.7670    -0.4370 H     1 <1>   0.0800 
 17 H        2.6050    -2.0750     1.9580 H     1 <1>   0.0800 
 18 H        1.6770    -3.5130     2.3080 H     1 <1>   0.0800 
 19 H        1.0680    -1.9410     2.7740 H     1 <1>   0.0800 
 20 H       -1.0520    -2.8720    -0.1190 H     1 <1>   0.0800 
 21 H       -1.0600    -2.4990     1.5810 H     1 <1>   0.0800 
 22 H       -0.4230    -4.0300     1.0190 H     1 <1>   0.0800 
 23 H        1.5590     0.4930    -2.5050 H     1 <1>   0.0800 
 24 H        1.6140     2.2180    -2.2410 H     1 <1>   0.0800 
 25 H        0.2990     1.2870    -1.5920 H     1 <1>   0.0800 
 26 H        3.9000     0.3910    -1.5860 H     1 <1>   0.0800 
 27 H        4.2390     0.9380     0.0430 H     1 <1>   0.0800 
 28 H        3.9060     2.0980    -1.2210 H     1 <1>   0.0800 
 29 H        0.7650     2.0600     0.7870 H     1 <1>   0.0800 
 30 H        2.0890     3.0530     0.2610 H     1 <1>   0.0800 
 31 H        2.3580     1.8330     1.4820 H     1 <1>   0.0800 
@<TRIPOS>BOND
  1   1   2  2   
  2   2   3  1   
  3   2   4  1   
  4   3   5  1   
  5   4   6  1   
  6   4   7  1   
  7   4   8  1   
  8   5   9  1   
  9   5  10  1   
 10   5  11  1   
 11   6  12  1   
 12   6  15  1   
 13   6  16  1   
 14   7  17  1   
 15   7  18  1   
 16   7  19  1   
 17   8  20  1   
 18   8  21  1   
 19   8  22  1   
 20   9  23  1   
 21   9  24  1   
 22   9  25  1   
 23  10  26  1   
 24  10  27  1   
 25  10  28  1   
 26  11  29  1   
 27  11  30  1   
 28  11  31  1   
 29  12  13  ar  
 30  12  14  ar  
@<TRIPOS>SUBSTRUCTURE
  1 ****   2 GROUP 4 **** **** 0

# MOE 2024.06 (io_trps.svl 2023.06)
