@<TRIPOS>MOLECULE
NONAME
45 45 1 0 0 
SMALL
USER_CHARGES


@<TRIPOS>ATOM
  1 S       -0.4620     0.4620     1.8340 S.3   1 <1>  -0.4600 
  2 C        0.9740     0.7670     0.7780 C.3   1 <1>   0.0700 
  3 C       -0.5070    -1.3450     1.9680 C.3   1 <1>  -0.0100 
  4 C        1.0800     2.2820     0.5890 C.3   1 <1>  -0.1600 
  5 C        2.2790     2.6850    -0.2780 C.3   1 <1>   0.2810 
  6 N        3.5340     2.2280     0.3960 N.am  1 <1>  -0.7300 
  7 C        2.2790     4.2010    -0.5550 C.2   1 <1>   0.5690 
  8 C        4.7760     2.1730    -0.1310 C.2   1 <1>   0.5690 
  9 O        1.5290     4.6320    -1.3990 O.2   1 <1>  -0.5700 
 10 N        3.1570     4.9790     0.1510 N.am  1 <1>  -0.4940 
 11 O        5.7210     2.0500     0.6000 O.2   1 <1>  -0.5700 
 12 C        4.9960     2.2990    -1.6180 C.3   1 <1>  -0.1790 
 13 C        3.5040     6.3480     0.0760 C.2   1 <1>  -0.0880 
 14 N        2.7240     7.4040    -0.2890 N.pl3 1 <1>   0.3140 
 15 C        4.7200     6.8610     0.3810 C.2   1 <1>  -0.1810 
 16 N        3.4110     8.5650    -0.2260 N.2   1 <1>  -0.7070 
 17 C        1.2970     7.4270    -0.6320 C.3   1 <1>   0.0160 
 18 C        4.5970     8.2310     0.1680 C.2   1 <1>   0.1080 
 19 C        5.9610     6.1160     0.8500 C.3   1 <1>   0.0210 
 20 C        5.6880     9.2600     0.3630 C.3   1 <1>  -0.0590 
 21 C        6.8110     5.6860    -0.3450 C.3   1 <1>  -0.2400 
 22 H        1.8310     0.3540     1.2810 H     1 <1>   0.0800 
 23 H        0.8050     0.2570    -0.1540 H     1 <1>   0.0800 
 24 H       -1.3440    -1.6050     2.5910 H     1 <1>   0.0800 
 25 H        0.4170    -1.6700     2.4130 H     1 <1>   0.0800 
 26 H       -0.6270    -1.7500     0.9790 H     1 <1>   0.0800 
 27 H        0.1800     2.6280     0.1110 H     1 <1>   0.0800 
 28 H        1.1470     2.7680     1.5470 H     1 <1>   0.0800 
 29 H        2.1960     2.1880    -1.2290 H     1 <1>   0.0800 
 30 H        3.4740     2.0770     1.4070 H     1 <1>   0.3700 
 31 H        3.7950     4.4310     0.7330 H     1 <1>   0.3700 
 32 H        4.4370     1.5440    -2.1370 H     1 <1>   0.0800 
 33 H        6.0390     2.1680    -1.8400 H     1 <1>   0.0800 
 34 H        4.6920     3.2710    -1.9590 H     1 <1>   0.0800 
 35 H        0.7700     6.7250    -0.0140 H     1 <1>   0.0800 
 36 H        1.1830     7.1640    -1.6670 H     1 <1>   0.0800 
 37 H        0.9100     8.4150    -0.4680 H     1 <1>   0.0800 
 38 H        6.5390     6.7470     1.5020 H     1 <1>   0.0800 
 39 H        5.6720     5.2460     1.4130 H     1 <1>   0.0800 
 40 H        6.6120     8.9050    -0.0540 H     1 <1>   0.0800 
 41 H        5.8180     9.4530     1.4120 H     1 <1>   0.0800 
 42 H        5.4150    10.1760    -0.1280 H     1 <1>   0.0800 
 43 H        7.1400     6.5470    -0.8990 H     1 <1>   0.0800 
 44 H        6.2360     5.0570    -1.0000 H     1 <1>   0.0800 
 45 H        7.6730     5.1370    -0.0090 H     1 <1>   0.0800 
@<TRIPOS>BOND
  1   1   2  1   
  2   1   3  1   
  3   2   4  1   
  4   2  22  1   
  5   2  23  1   
  6   3  24  1   
  7   3  25  1   
  8   3  26  1   
  9   4   5  1   
 10   4  27  1   
 11   4  28  1   
 12   5   6  1   
 13   5   7  1   
 14   5  29  1   
 15   6   8  am  
 16   6  30  1   
 17   7   9  2   
 18   7  10  am  
 19   8  11  2   
 20   8  12  1   
 21  10  13  1   
 22  10  31  1   
 23  12  32  1   
 24  12  33  1   
 25  12  34  1   
 26  13  14  1   
 27  13  15  2   
 28  14  16  1   
 29  14  17  1   
 30  15  18  1   
 31  15  19  1   
 32  16  18  2   
 33  17  35  1   
 34  17  36  1   
 35  17  37  1   
 36  18  20  1   
 37  19  21  1   
 38  19  38  1   
 39  19  39  1   
 40  20  40  1   
 41  20  41  1   
 42  20  42  1   
 43  21  43  1   
 44  21  44  1   
 45  21  45  1   
@<TRIPOS>SUBSTRUCTURE
  1 ****  10 GROUP 4 **** **** 0

# MOE 2024.06 (io_trps.svl 2023.06)
