@<TRIPOS>MOLECULE
NONAME
47 49 1 0 0 
SMALL
USER_CHARGES


@<TRIPOS>ATOM
  1 S        0.5190    -0.6880     1.8270 S.3   1 <1>  -0.2860 
  2 C       -0.4480     0.5270     0.9220 C.2   1 <1>   0.2420 
  3 C       -0.6510    -1.3740     3.1000 C.3   1 <1>   0.1310 
  4 N       -1.6750     0.8240     1.1740 N.2   1 <1>  -0.3380 
  5 N        0.0620     1.2070    -0.1030 N.pl3 1 <1>   0.0480 
  6 C       -1.0170    -2.8140     2.7670 C.2   1 <1>   0.5690 
  7 N       -2.0210     1.7450     0.2680 N.2   1 <1>  -0.3380 
  8 C       -0.9820     1.9570    -0.4710 C.2   1 <1>   0.0360 
  9 C        1.4180     1.1430    -0.6790 C.3   1 <1>   0.0160 
 10 O       -0.4210    -3.6950     3.3420 O.2   1 <1>  -0.5700 
 11 N       -2.0020    -3.1080     1.8610 N.am  1 <1>  -0.6600 
 12 C       -2.3770    -4.4970     1.5240 C.3   1 <1>   0.1400 
 13 C       -2.8000    -2.1510     1.0690 C.3   1 <1>   0.1400 
 14 C       -3.2440    -4.3960     0.2610 C.3   1 <1>   0.1900 
 15 C       -3.8620    -3.0030     0.3810 C.3   1 <1>  -0.1600 
 16 N       -4.2760    -5.4620     0.1640 N.3   1 <1>  -0.8100 
 17 C       -3.6740    -6.8170     0.1760 C.3   1 <1>   0.1100 
 18 C       -5.1490    -5.2890    -1.0210 C.3   1 <1>   0.1100 
 19 C       -4.7480    -7.9220     0.1160 C.3   1 <1>   0.3430 
 20 C       -6.2380    -6.3780    -1.0940 C.3   1 <1>   0.3430 
 21 N       -5.6490    -7.7610    -1.0770 N.4   1 <1>  -0.9590 
 22 C       -6.7160    -8.8050    -1.0950 C.3   1 <1>   0.2630 
 23 H       -1.5200    -0.7490     3.1490 H     1 <1>   0.0800 
 24 H       -0.1350    -1.3390     4.0410 H     1 <1>   0.0800 
 25 H       -0.9470     2.6530    -1.2900 H     1 <1>   0.1500 
 26 H        2.1350     1.4170     0.0740 H     1 <1>   0.0800 
 27 H        1.4930     1.8200    -1.5100 H     1 <1>   0.0800 
 28 H        1.6160     0.1400    -1.0110 H     1 <1>   0.0800 
 29 H       -2.9470    -4.9030     2.3420 H     1 <1>   0.0800 
 30 H       -1.4960    -5.0910     1.3540 H     1 <1>   0.0800 
 31 H       -2.1670    -1.6850     0.3340 H     1 <1>   0.0800 
 32 H       -3.2470    -1.3970     1.6960 H     1 <1>   0.0800 
 33 H       -2.5950    -4.4270    -0.5990 H     1 <1>   0.0800 
 34 H       -4.1220    -2.5810    -0.5720 H     1 <1>   0.0800 
 35 H       -4.7310    -3.0370     1.0140 H     1 <1>   0.0800 
 36 H       -3.1120    -6.9570     1.0830 H     1 <1>   0.0800 
 37 H       -2.9940    -6.9250    -0.6520 H     1 <1>   0.0800 
 38 H       -4.5580    -5.3040    -1.9200 H     1 <1>   0.0800 
 39 H       -5.6450    -4.3350    -0.9690 H     1 <1>   0.0800 
 40 H       -5.3320    -7.8730     1.0200 H     1 <1>   0.0800 
 41 H       -4.2640    -8.8840     0.0840 H     1 <1>   0.0800 
 42 H       -6.8200    -6.2370    -1.9900 H     1 <1>   0.0800 
 43 H       -6.8950    -6.2540    -0.2480 H     1 <1>   0.0800 
 44 H       -5.0650    -7.8570    -1.9190 H     1 <1>   0.4500 
 45 H       -7.3380    -8.7190    -0.2190 H     1 <1>   0.0800 
 46 H       -6.2770    -9.7900    -1.1100 H     1 <1>   0.0800 
 47 H       -7.3360    -8.6930    -1.9700 H     1 <1>   0.0800 
@<TRIPOS>BOND
  1   1   2  1   
  2   1   3  1   
  3   2   4  2   
  4   2   5  1   
  5   3   6  1   
  6   3  23  1   
  7   3  24  1   
  8   4   7  1   
  9   5   8  1   
 10   5   9  1   
 11   6  10  2   
 12   6  11  am  
 13   7   8  2   
 14   8  25  1   
 15   9  26  1   
 16   9  27  1   
 17   9  28  1   
 18  11  12  1   
 19  11  13  1   
 20  12  14  1   
 21  12  29  1   
 22  12  30  1   
 23  13  15  1   
 24  13  31  1   
 25  13  32  1   
 26  14  15  1   
 27  14  16  1   
 28  14  33  1   
 29  15  34  1   
 30  15  35  1   
 31  16  17  1   
 32  16  18  1   
 33  17  19  1   
 34  17  36  1   
 35  17  37  1   
 36  18  20  1   
 37  18  38  1   
 38  18  39  1   
 39  19  21  1   
 40  19  40  1   
 41  19  41  1   
 42  20  21  1   
 43  20  42  1   
 44  20  43  1   
 45  21  22  1   
 46  21  44  1   
 47  22  45  1   
 48  22  46  1   
 49  22  47  1   
@<TRIPOS>SUBSTRUCTURE
  1 ****  13 GROUP 4 **** **** 0

# MOE 2024.06 (io_trps.svl 2023.06)
