@<TRIPOS>MOLECULE
NONAME
45 48 1 0 0 
SMALL
USER_CHARGES


@<TRIPOS>ATOM
  1 O       -3.8370     2.2500    -1.8190 O.2   1 <1>  -0.5700 
  2 C       -3.1860     2.0270    -0.8270 C.2   1 <1>   0.5690 
  3 N       -2.6120     0.8190    -0.6060 N.am  1 <1>  -0.7300 
  4 C       -3.0150     3.1170     0.2100 C.3   1 <1>   0.0820 
  5 C       -2.5970    -0.3290    -1.5370 C.3   1 <1>   0.2200 
  6 C       -1.6450     3.0290     0.8540 C.2   1 <1>   0.1080 
  7 C       -3.3950    -1.4980    -0.9810 C.3   1 <1>  -0.0800 
  8 C       -1.1970    -0.9270    -1.5660 C.3   1 <1>   0.1200 
  9 N       -1.3870     2.2580     1.8600 N.2   1 <1>  -0.7070 
 10 C       -0.5170     3.7440     0.4090 C.ar  1 <1>   0.0000 
 11 C       -2.3880    -2.1850    -0.0540 C.3   1 <1>   0.1200 
 12 C       -4.7310    -1.1360    -0.3070 C.3   1 <1>  -0.0170 
 13 O       -1.1160    -1.7560    -0.4440 O.3   1 <1>  -0.5600 
 14 N       -0.0720     2.4540     2.1190 N.pl3 1 <1>   0.3000 
 15 C        0.4930     3.3470     1.2580 C.ar  1 <1>  -0.1520 
 16 C       -0.2400     4.6650    -0.6120 C.ar  1 <1>  -0.1500 
 17 C       -5.4780    -2.3890     0.1240 C.ar  1 <1>  -0.1440 
 18 C        1.7930     3.8480     1.1300 C.ar  1 <1>  -0.1500 
 19 C        1.0350     5.1610    -0.7440 C.ar  1 <1>  -0.1500 
 20 C       -5.4380    -2.8560     1.4220 C.ar  1 <1>  -0.1500 
 21 C       -6.2350    -3.1250    -0.7650 C.ar  1 <1>  -0.1500 
 22 C        2.0540     4.7540     0.1290 C.ar  1 <1>  -0.1500 
 23 C       -6.1330    -4.0060     1.7570 C.ar  1 <1>   0.1600 
 24 C       -6.8930    -4.2620    -0.3270 C.ar  1 <1>   0.1600 
 25 N       -6.8580    -4.7230     0.9130 N.ar  1 <1>  -0.6200 
 26 H       -2.0380     0.7070     0.2420 H     1 <1>   0.3700 
 27 H       -3.1430     4.0760    -0.2540 H     1 <1>   0.0800 
 28 H       -3.7720     2.9990     0.9620 H     1 <1>   0.0800 
 29 H       -2.9310    -0.0260    -2.5160 H     1 <1>   0.0800 
 30 H       -3.5980    -2.1740    -1.7930 H     1 <1>   0.0800 
 31 H       -0.4240    -0.1800    -1.5220 H     1 <1>   0.0800 
 32 H       -1.0650    -1.5420    -2.4380 H     1 <1>   0.0800 
 33 H       -2.4390    -3.2580    -0.1300 H     1 <1>   0.0800 
 34 H       -2.5280    -1.8850     0.9700 H     1 <1>   0.0800 
 35 H       -5.3390    -0.5780    -0.9980 H     1 <1>   0.0800 
 36 H       -4.5630    -0.5100     0.5510 H     1 <1>   0.0800 
 37 H        0.4230     1.9720     2.8770 H     1 <1>   0.2700 
 38 H       -1.0260     4.9690    -1.2790 H     1 <1>   0.1500 
 39 H        2.5670     3.5270     1.8050 H     1 <1>   0.1500 
 40 H        1.2670     5.8690    -1.5210 H     1 <1>   0.1500 
 41 H       -4.8750    -2.3380     2.1760 H     1 <1>   0.1500 
 42 H       -6.3200    -2.8240    -1.7930 H     1 <1>   0.1500 
 43 H        3.0430     5.1590     0.0030 H     1 <1>   0.1500 
 44 H       -6.0900    -4.3560     2.7750 H     1 <1>   0.1500 
 45 H       -7.4780    -4.8230    -1.0350 H     1 <1>   0.1500 
@<TRIPOS>BOND
  1   1   2  2   
  2   2   3  am  
  3   2   4  1   
  4   3   5  1   
  5   3  26  1   
  6   4   6  1   
  7   4  27  1   
  8   4  28  1   
  9   5   7  1   
 10   5   8  1   
 11   5  29  1   
 12   6   9  2   
 13   6  10  1   
 14   7  11  1   
 15   7  12  1   
 16   7  30  1   
 17   8  13  1   
 18   8  31  1   
 19   8  32  1   
 20   9  14  1   
 21  10  15  ar  
 22  10  16  ar  
 23  11  13  1   
 24  11  33  1   
 25  11  34  1   
 26  12  17  1   
 27  12  35  1   
 28  12  36  1   
 29  14  15  1   
 30  14  37  1   
 31  15  18  ar  
 32  16  19  ar  
 33  16  38  1   
 34  17  20  ar  
 35  17  21  ar  
 36  18  22  ar  
 37  18  39  1   
 38  19  22  ar  
 39  19  40  1   
 40  20  23  ar  
 41  20  41  1   
 42  21  24  ar  
 43  21  42  1   
 44  22  43  1   
 45  23  25  ar  
 46  23  44  1   
 47  24  25  ar  
 48  24  45  1   
@<TRIPOS>SUBSTRUCTURE
  1 ****   3 GROUP 4 **** **** 0

# MOE 2024.06 (io_trps.svl 2023.06)
