@<TRIPOS>MOLECULE
NONAME
54 56 1 0 0 
SMALL
USER_CHARGES


@<TRIPOS>ATOM
  1 O        1.1980    -0.3810    -2.1070 O.2   1 <1>  -0.5700 
  2 C        1.6890    -0.5520    -1.0070 C.2   1 <1>   0.5440 
  3 N        2.2140     0.5350    -0.3280 N.am  1 <1>  -0.6600 
  4 C        1.7710    -1.8990    -0.4960 C.ar  1 <1>   0.0860 
  5 C        2.9210     0.4150     0.9820 C.3   1 <1>   0.1400 
  6 C        2.0910     1.9160    -0.8770 C.3   1 <1>   0.1400 
  7 C        1.0260    -2.3230     0.6110 C.ar  1 <1>   0.3920 
  8 C        2.5990    -2.8300    -1.1060 C.ar  1 <1>  -0.1500 
  9 C        4.4280     0.1950     0.7740 C.3   1 <1>   0.1100 
 10 C        3.3720     2.7460    -0.7150 C.3   1 <1>  -0.1600 
 11 O        0.1890    -1.4350     1.1870 O.3   1 <1>  -0.3630 
 12 N        1.0900    -3.5420     1.1460 N.ar  1 <1>  -0.6200 
 13 C        2.6580    -4.0980    -0.5730 C.ar  1 <1>  -0.1500 
 14 N        5.1650     1.4070     0.3410 N.3   1 <1>  -0.8100 
 15 C        4.6650     1.9540    -0.9400 C.3   1 <1>   0.1100 
 16 C       -0.6680    -1.7940     2.2530 C.3   1 <1>   0.0400 
 17 C        1.8960    -4.3970     0.5420 C.ar  1 <1>   0.1600 
 18 C        6.6280     1.1270     0.2690 C.3   1 <1>   0.2540 
 19 C        7.4870     2.3950     0.4230 C.cat 1 <1>   0.6560 
 20 N        6.9870     3.5320     0.8690 N.pl3 1 <1>  -0.7000 
 21 N        8.7860     2.5490     0.1580 N.pl3 1 <1>  -0.7640 
 22 C        7.9780     4.4650     0.9010 C.2   1 <1>   0.1820 
 23 C        9.1040     3.8570     0.4580 C.2   1 <1>   0.1820 
 24 C        9.7480     1.5340    -0.3560 C.3   1 <1>   0.2740 
 25 C        7.7020     5.8790     1.3730 C.3   1 <1>  -0.0720 
 26 C       10.5070     4.4130     0.2840 C.3   1 <1>  -0.0720 
 27 H        2.5260    -0.4140     1.5370 H     1 <1>   0.0800 
 28 H        2.7550     1.2960     1.5770 H     1 <1>   0.0800 
 29 H        1.2700     2.4140    -0.3900 H     1 <1>   0.0800 
 30 H        1.8560     1.8660    -1.9270 H     1 <1>   0.0800 
 31 H        3.1700    -2.5580    -1.9780 H     1 <1>   0.1500 
 32 H        4.5710    -0.6030     0.0650 H     1 <1>   0.0800 
 33 H        4.8320    -0.1300     1.7180 H     1 <1>   0.0800 
 34 H        3.3880     3.2150     0.2520 H     1 <1>   0.0800 
 35 H        3.3250     3.5360    -1.4420 H     1 <1>   0.0800 
 36 H        3.2840    -4.8530    -1.0160 H     1 <1>   0.1500 
 37 H        5.3940     2.6340    -1.3490 H     1 <1>   0.0800 
 38 H        4.5100     1.1670    -1.6620 H     1 <1>   0.0800 
 39 H       -1.2510    -0.9320     2.5230 H     1 <1>   0.0800 
 40 H       -0.0720    -2.1160     3.0880 H     1 <1>   0.0800 
 41 H       -1.3140    -2.5890     1.9250 H     1 <1>   0.0800 
 42 H        1.9500    -5.3910     0.9550 H     1 <1>   0.1500 
 43 H        6.8600     0.6410    -0.6620 H     1 <1>   0.0800 
 44 H        6.9050     0.4640     1.0700 H     1 <1>   0.0800 
 45 H        5.9960     3.6110     1.1230 H     1 <1>   0.4500 
 46 H        9.2640     0.5840    -0.5010 H     1 <1>   0.0800 
 47 H       10.5540     1.4050     0.3470 H     1 <1>   0.0800 
 48 H       10.1560     1.8600    -1.2980 H     1 <1>   0.0800 
 49 H        6.9560     6.3350     0.7480 H     1 <1>   0.0800 
 50 H        8.5930     6.4780     1.3350 H     1 <1>   0.0800 
 51 H        7.3440     5.8620     2.3870 H     1 <1>   0.0800 
 52 H       11.1990     3.8650     0.8980 H     1 <1>   0.0800 
 53 H       10.5470     5.4470     0.5690 H     1 <1>   0.0800 
 54 H       10.8100     4.3330    -0.7450 H     1 <1>   0.0800 
@<TRIPOS>BOND
  1   1   2  2   
  2   2   3  am  
  3   2   4  1   
  4   3   5  1   
  5   3   6  1   
  6   4   7  ar  
  7   4   8  ar  
  8   5   9  1   
  9   5  27  1   
 10   5  28  1   
 11   6  10  1   
 12   6  29  1   
 13   6  30  1   
 14   7  11  1   
 15   7  12  ar  
 16   8  13  ar  
 17   8  31  1   
 18   9  14  1   
 19   9  32  1   
 20   9  33  1   
 21  10  15  1   
 22  10  34  1   
 23  10  35  1   
 24  11  16  1   
 25  12  17  ar  
 26  13  17  ar  
 27  13  36  1   
 28  14  15  1   
 29  14  18  1   
 30  15  37  1   
 31  15  38  1   
 32  16  39  1   
 33  16  40  1   
 34  16  41  1   
 35  17  42  1   
 36  18  19  1   
 37  18  43  1   
 38  18  44  1   
 39  19  20  ar  
 40  19  21  ar  
 41  20  22  1   
 42  20  45  1   
 43  21  23  1   
 44  21  24  1   
 45  22  23  2   
 46  22  25  1   
 47  23  26  1   
 48  24  46  1   
 49  24  47  1   
 50  24  48  1   
 51  25  49  1   
 52  25  50  1   
 53  25  51  1   
 54  26  52  1   
 55  26  53  1   
 56  26  54  1   
@<TRIPOS>SUBSTRUCTURE
  1 ****   9 GROUP 4 **** **** 0

# MOE 2024.06 (io_trps.svl 2023.06)
