@<TRIPOS>MOLECULE
NONAME
45 47 1 0 0 
SMALL
USER_CHARGES


@<TRIPOS>ATOM
  1 O       -0.7320    -0.1260    -1.2240 O.2   1 <1>  -0.5700 
  2 C       -1.5960     0.6130    -0.7760 C.2   1 <1>   0.5440 
  3 N       -2.7310     0.0090    -0.2610 N.am  1 <1>  -0.6600 
  4 C       -1.3950     2.0680    -0.8400 C.ar  1 <1>   0.3960 
  5 C       -3.9540     0.7150     0.1880 C.3   1 <1>   0.1400 
  6 C       -2.9540    -1.4500    -0.3110 C.3   1 <1>   0.1400 
  7 N       -1.8540     2.8770     0.1330 N.ar  1 <1>  -0.6200 
  8 C       -0.7060     2.5920    -1.9360 C.ar  1 <1>  -0.1500 
  9 C       -4.9320    -0.3840     0.6310 C.3   1 <1>  -0.0800 
 10 C       -4.4550    -1.6550    -0.0970 C.3   1 <1>  -0.0800 
 11 C       -1.6380     4.1710     0.0100 C.ar  1 <1>   0.1660 
 12 C       -0.4810     3.9450    -2.0600 C.ar  1 <1>  -0.1500 
 13 C       -6.4520    -0.0650     0.4730 C.3   1 <1>   0.2800 
 14 C       -5.2170    -1.8520    -1.4160 C.3   1 <1>  -0.1600 
 15 C       -0.9650     4.7480    -1.0540 C.ar  1 <1>  -0.1500 
 16 C       -2.1790     5.0370     1.1280 C.3   1 <1>  -0.0970 
 17 O       -6.6570     0.8130    -0.5760 O.3   1 <1>  -0.6800 
 18 C       -7.2260    -1.3490     0.1190 C.3   1 <1>  -0.1600 
 19 C       -7.0610     0.5900     1.7320 C.3   1 <1>  -0.1600 
 20 C       -6.7280    -2.0330    -1.1730 C.3   1 <1>  -0.1600 
 21 C       -6.4390     1.9350     2.1500 C.3   1 <1>  -0.2400 
 22 H       -3.7310     1.3750     1.0060 H     1 <1>   0.0800 
 23 H       -4.3310     1.2900    -0.6390 H     1 <1>   0.0800 
 24 H       -2.6230    -1.8560    -1.2520 H     1 <1>   0.0800 
 25 H       -2.3950    -1.9090     0.4870 H     1 <1>   0.0800 
 26 H       -0.3460     1.9190    -2.6930 H     1 <1>   0.1500 
 27 H       -4.7430    -0.5590     1.6750 H     1 <1>   0.0800 
 28 H       -4.6080    -2.5250     0.5170 H     1 <1>   0.0800 
 29 H        0.0500     4.3530    -2.9030 H     1 <1>   0.1500 
 30 H       -5.0630    -0.9830    -2.0350 H     1 <1>   0.0800 
 31 H       -4.8320    -2.7030    -1.9500 H     1 <1>   0.0800 
 32 H       -0.8200     5.8120    -1.0970 H     1 <1>   0.1500 
 33 H       -1.9590     6.0750     0.9580 H     1 <1>   0.0800 
 34 H       -1.7380     4.7360     2.0600 H     1 <1>   0.0800 
 35 H       -3.2440     4.9120     1.1940 H     1 <1>   0.0800 
 36 H       -7.6120     0.9410    -0.7060 H     1 <1>   0.4000 
 37 H       -7.1050    -2.0410     0.9340 H     1 <1>   0.0800 
 38 H       -8.2790    -1.1460     0.0370 H     1 <1>   0.0800 
 39 H       -8.1150     0.7360     1.5730 H     1 <1>   0.0800 
 40 H       -6.9650    -0.0950     2.5560 H     1 <1>   0.0800 
 41 H       -6.9610    -3.0830    -1.1190 H     1 <1>   0.0800 
 42 H       -7.2560    -1.6290    -2.0200 H     1 <1>   0.0800 
 43 H       -6.4590     2.6350     1.3340 H     1 <1>   0.0800 
 44 H       -5.4220     1.8040     2.4700 H     1 <1>   0.0800 
 45 H       -6.9950     2.3540     2.9700 H     1 <1>   0.0800 
@<TRIPOS>BOND
  1   1   2  2   
  2   2   3  am  
  3   2   4  1   
  4   3   5  1   
  5   3   6  1   
  6   4   7  ar  
  7   4   8  ar  
  8   5   9  1   
  9   5  22  1   
 10   5  23  1   
 11   6  10  1   
 12   6  24  1   
 13   6  25  1   
 14   7  11  ar  
 15   8  12  ar  
 16   8  26  1   
 17   9  10  1   
 18   9  13  1   
 19   9  27  1   
 20  10  14  1   
 21  10  28  1   
 22  11  15  ar  
 23  11  16  1   
 24  12  15  ar  
 25  12  29  1   
 26  13  17  1   
 27  13  18  1   
 28  13  19  1   
 29  14  20  1   
 30  14  30  1   
 31  14  31  1   
 32  15  32  1   
 33  16  33  1   
 34  16  34  1   
 35  16  35  1   
 36  17  36  1   
 37  18  20  1   
 38  18  37  1   
 39  18  38  1   
 40  19  21  1   
 41  19  39  1   
 42  19  40  1   
 43  20  41  1   
 44  20  42  1   
 45  21  43  1   
 46  21  44  1   
 47  21  45  1   
@<TRIPOS>SUBSTRUCTURE
  1 ****   5 GROUP 4 **** **** 0

# MOE 2024.06 (io_trps.svl 2023.06)
