@<TRIPOS>MOLECULE
NONAME
48 49 1 0 0 
SMALL
USER_CHARGES


@<TRIPOS>ATOM
  1 O       -0.5080     2.1650     0.3890 O.3   1 <1>  -0.3630 
  2 C       -0.6280     0.8480     0.6760 C.ar  1 <1>   0.0830 
  3 C       -1.1010     2.6060    -0.8210 C.3   1 <1>   0.1200 
  4 C        0.4060    -0.0410     0.3760 C.ar  1 <1>   0.0830 
  5 C       -1.7880     0.4030     1.2860 C.ar  1 <1>  -0.1500 
  6 C       -0.0130     2.8920    -1.8740 C.3   1 <1>   0.2890 
  7 O        1.5310     0.4570    -0.2160 O.3   1 <1>  -0.3630 
  8 C        0.2470    -1.3880     0.6900 C.ar  1 <1>  -0.1500 
  9 C       -1.9340    -0.9380     1.5930 C.ar  1 <1>  -0.1500 
 10 N        0.8780     4.0090    -1.4780 N.pl3 1 <1>  -0.8690 
 11 C       -0.6420     3.2850    -3.2060 C.3   1 <1>  -0.2400 
 12 C        2.4790    -0.4190    -0.7970 C.3   1 <1>   0.0400 
 13 C       -0.9190    -1.8300     1.2940 C.ar  1 <1>  -0.1500 
 14 C        1.8220     4.1200    -0.5350 C.ar  1 <1>   0.7710 
 15 N        2.5140     5.2380    -0.5420 N.ar  1 <1>  -0.6200 
 16 N        2.0360     3.1400     0.3520 N.ar  1 <1>  -0.1790 
 17 C        3.4680     5.3780     0.3620 C.ar  1 <1>   0.4100 
 18 C        2.9690     3.2580     1.3190 C.ar  1 <1>   0.2110 
 19 N        4.1980     6.5210     0.2880 N.pl3 1 <1>  -0.8380 
 20 C        3.7140     4.3910     1.3540 C.ar  1 <1>  -0.1430 
 21 C        3.5560     7.8300    -0.0230 C.3   1 <1>   0.1290 
 22 C        5.6780     6.5220     0.1240 C.3   1 <1>   0.1290 
 23 C        4.7460     4.5960     2.4610 C.3   1 <1>  -0.0970 
 24 H       -1.6610     3.5010    -0.6100 H     1 <1>   0.0800 
 25 H       -1.7800     1.8500    -1.1760 H     1 <1>   0.0800 
 26 H       -2.5720     1.1000     1.5230 H     1 <1>   0.1500 
 27 H        0.5700     2.0000    -2.0320 H     1 <1>   0.0800 
 28 H        1.0120    -2.1120     0.4810 H     1 <1>   0.1500 
 29 H       -2.8360    -1.2880     2.0660 H     1 <1>   0.1500 
 30 H        0.8060     4.8330    -2.0820 H     1 <1>   0.4000 
 31 H       -1.2410     4.1730    -3.1010 H     1 <1>   0.0800 
 32 H       -1.2740     2.4910    -3.5620 H     1 <1>   0.0800 
 33 H        0.1210     3.4560    -3.9450 H     1 <1>   0.0800 
 34 H        3.2200     0.1700    -1.3080 H     1 <1>   0.0800 
 35 H        1.9790    -1.0620    -1.5020 H     1 <1>   0.0800 
 36 H        2.9480    -0.9980    -0.0210 H     1 <1>   0.0800 
 37 H       -1.0370    -2.8730     1.5350 H     1 <1>   0.1500 
 38 H        1.4070     2.3290     0.2850 H     1 <1>   0.4570 
 39 H        3.0760     2.4550     2.0310 H     1 <1>   0.1500 
 40 H        2.5020     7.7910     0.1950 H     1 <1>   0.0800 
 41 H        3.6860     8.0630    -1.0650 H     1 <1>   0.0800 
 42 H        3.9990     8.6080     0.5740 H     1 <1>   0.0800 
 43 H        6.0460     5.5160     0.0210 H     1 <1>   0.0800 
 44 H        6.1400     6.9850     0.9790 H     1 <1>   0.0800 
 45 H        5.9480     7.0710    -0.7620 H     1 <1>   0.0800 
 46 H        4.6660     5.5940     2.8590 H     1 <1>   0.0800 
 47 H        5.7410     4.4570     2.0790 H     1 <1>   0.0800 
 48 H        4.5950     3.9030     3.2690 H     1 <1>   0.0800 
@<TRIPOS>BOND
  1   1   2  1   
  2   1   3  1   
  3   2   4  ar  
  4   2   5  ar  
  5   3   6  1   
  6   3  24  1   
  7   3  25  1   
  8   4   7  1   
  9   4   8  ar  
 10   5   9  ar  
 11   5  26  1   
 12   6  10  1   
 13   6  11  1   
 14   6  27  1   
 15   7  12  1   
 16   8  13  ar  
 17   8  28  1   
 18   9  13  ar  
 19   9  29  1   
 20  10  14  1   
 21  10  30  1   
 22  11  31  1   
 23  11  32  1   
 24  11  33  1   
 25  12  34  1   
 26  12  35  1   
 27  12  36  1   
 28  13  37  1   
 29  14  15  ar  
 30  14  16  ar  
 31  15  17  ar  
 32  16  18  ar  
 33  16  38  1   
 34  17  19  1   
 35  17  20  ar  
 36  18  20  ar  
 37  18  39  1   
 38  19  21  1   
 39  19  22  1   
 40  20  23  1   
 41  21  40  1   
 42  21  41  1   
 43  21  42  1   
 44  22  43  1   
 45  22  44  1   
 46  22  45  1   
 47  23  46  1   
 48  23  47  1   
 49  23  48  1   
@<TRIPOS>SUBSTRUCTURE
  1 ****  16 GROUP 4 **** **** 0

# MOE 2024.06 (io_trps.svl 2023.06)
