@<TRIPOS>MOLECULE
NONAME
47 49 1 0 0 
SMALL
USER_CHARGES


@<TRIPOS>ATOM
  1 S        0.4880    -0.0780    -1.3890 S.o2  1 <1>   1.4470 
  2 O        1.3650     0.9970    -1.8020 O.2   1 <1>  -0.6500 
  3 O        0.2760    -1.1750    -2.3110 O.2   1 <1>  -0.6500 
  4 N       -1.0410     0.5830    -1.0760 N.am  1 <1>  -0.8490 
  5 C        1.0080    -0.7270     0.2140 C.ar  1 <1>  -0.0090 
  6 C       -2.0680    -0.4620    -0.9150 C.3   1 <1>   0.1960 
  7 C       -1.4430     1.5600    -2.0840 C.3   1 <1>   0.1960 
  8 C        1.2820     0.1170     1.2770 C.ar  1 <1>   0.1900 
  9 C        1.1360    -2.0920     0.4510 C.ar  1 <1>  -0.1500 
 10 C       -3.3910     0.1280    -0.3840 C.3   1 <1>   0.0000 
 11 C       -2.7380     2.2540    -1.6470 C.3   1 <1>  -0.1600 
 12 F        1.1690     1.4090     1.1260 F     1 <1>  -0.1900 
 13 C        1.6720    -0.3390     2.5230 C.ar  1 <1>  -0.1500 
 14 C        1.5210    -2.5730     1.6930 C.ar  1 <1>  -0.1500 
 15 C       -3.2640     0.6390     1.0660 C.3   1 <1>   0.2000 
 16 C       -3.8580     1.2430    -1.3550 C.3   1 <1>  -0.1600 
 17 C       -4.4940    -0.9360    -0.2620 C.3   1 <1>  -0.1600 
 18 C        1.7920    -1.7020     2.7360 C.ar  1 <1>  -0.1430 
 19 O       -2.5440    -0.2930     1.8280 O.3   1 <1>  -0.5600 
 20 C       -4.7010     0.6590     1.5970 C.3   1 <1>  -0.1600 
 21 C       -5.4620    -0.4180     0.8100 C.3   1 <1>  -0.1600 
 22 C        2.2120    -2.2450     4.0900 C.3   1 <1>  -0.0970 
 23 C       -1.8630     0.2460     2.9150 C.3   1 <1>   0.0400 
 24 H       -2.2480    -0.9390    -1.8640 H     1 <1>   0.0800 
 25 H       -1.7150    -1.2190    -0.2360 H     1 <1>   0.0800 
 26 H       -0.6750     2.3080    -2.1970 H     1 <1>   0.0800 
 27 H       -1.5800     1.0710    -3.0350 H     1 <1>   0.0800 
 28 H        0.9300    -2.7880    -0.3450 H     1 <1>   0.1500 
 29 H       -2.5320     2.8450    -0.7730 H     1 <1>   0.0800 
 30 H       -3.0540     2.9270    -2.4240 H     1 <1>   0.0800 
 31 H        1.8740     0.3680     3.3070 H     1 <1>   0.1500 
 32 H        1.6080    -3.6360     1.8450 H     1 <1>   0.1500 
 33 H       -2.7760     1.5970     1.1160 H     1 <1>   0.0800 
 34 H       -4.1490     0.7920    -2.2880 H     1 <1>   0.0800 
 35 H       -4.7180     1.7600    -0.9690 H     1 <1>   0.0800 
 36 H       -4.9920    -1.1350    -1.1940 H     1 <1>   0.0800 
 37 H       -4.0580    -1.8550     0.0950 H     1 <1>   0.0800 
 38 H       -4.7400     0.4830     2.6570 H     1 <1>   0.0800 
 39 H       -5.1370     1.6200     1.3940 H     1 <1>   0.0800 
 40 H       -5.7650    -1.2230     1.4580 H     1 <1>   0.0800 
 41 H       -6.3380     0.0100     0.3530 H     1 <1>   0.0800 
 42 H        2.9890    -2.9780     3.9700 H     1 <1>   0.0800 
 43 H        1.3700    -2.7070     4.5740 H     1 <1>   0.0800 
 44 H        2.5830    -1.4570     4.7210 H     1 <1>   0.0800 
 45 H       -1.3310    -0.5500     3.4030 H     1 <1>   0.0800 
 46 H       -2.5690     0.6860     3.5970 H     1 <1>   0.0800 
 47 H       -1.1660     0.9860     2.5630 H     1 <1>   0.0800 
@<TRIPOS>BOND
  1   1   2  2   
  2   1   3  2   
  3   1   4  am  
  4   1   5  1   
  5   4   6  1   
  6   4   7  1   
  7   5   8  ar  
  8   5   9  ar  
  9   6  10  1   
 10   6  24  1   
 11   6  25  1   
 12   7  11  1   
 13   7  26  1   
 14   7  27  1   
 15   8  12  1   
 16   8  13  ar  
 17   9  14  ar  
 18   9  28  1   
 19  10  15  1   
 20  10  16  1   
 21  10  17  1   
 22  11  16  1   
 23  11  29  1   
 24  11  30  1   
 25  13  18  ar  
 26  13  31  1   
 27  14  18  ar  
 28  14  32  1   
 29  15  19  1   
 30  15  20  1   
 31  15  33  1   
 32  16  34  1   
 33  16  35  1   
 34  17  21  1   
 35  17  36  1   
 36  17  37  1   
 37  18  22  1   
 38  19  23  1   
 39  20  21  1   
 40  20  38  1   
 41  20  39  1   
 42  21  40  1   
 43  21  41  1   
 44  22  42  1   
 45  22  43  1   
 46  22  44  1   
 47  23  45  1   
 48  23  46  1   
 49  23  47  1   
@<TRIPOS>SUBSTRUCTURE
  1 ****   4 GROUP 4 **** **** 0

# MOE 2024.06 (io_trps.svl 2023.06)
