@<TRIPOS>MOLECULE
NONAME
54 56 1 0 0 
SMALL
USER_CHARGES


@<TRIPOS>ATOM
  1 O       -4.6670     1.1980    -2.5710 O.2   1 <1>  -0.5700 
  2 C       -3.8780     1.0390    -1.6570 C.2   1 <1>   0.5440 
  3 N       -3.7910    -0.2060    -1.0670 N.am  1 <1>  -0.6600 
  4 C       -3.0770     2.1600    -1.2160 C.ar  1 <1>   0.0860 
  5 C       -2.7870    -0.5040     0.0200 C.3   1 <1>   0.3640 
  6 C       -4.8020    -1.2510    -1.4130 C.3   1 <1>   0.1400 
  7 C       -3.3700     2.8410    -0.0340 C.ar  1 <1>  -0.1500 
  8 C       -1.9690     2.5870    -1.9450 C.ar  1 <1>  -0.1500 
  9 C       -1.3740    -0.2900    -0.5310 C.ar  1 <1>  -0.1430 
 10 C       -2.8630    -1.9260     0.6590 C.3   1 <1>   0.2000 
 11 C       -4.3950    -2.6510    -0.9540 C.3   1 <1>   0.1200 
 12 C       -2.5720     3.8770     0.4140 C.ar  1 <1>  -0.1500 
 13 C       -1.1670     3.6190    -1.4960 C.ar  1 <1>  -0.1500 
 14 C       -0.4820     0.5360     0.1410 C.ar  1 <1>  -0.1500 
 15 C       -0.9660    -0.8990    -1.7100 C.ar  1 <1>  -0.1500 
 16 O       -4.0590    -2.6080     0.3940 O.3   1 <1>  -0.5600 
 17 C       -2.7170    -1.8920     2.1890 C.3   1 <1>   0.1200 
 18 C       -1.4490     4.2740    -0.3020 C.ar  1 <1>   0.1170 
 19 C        0.7880     0.7570    -0.3600 C.ar  1 <1>  -0.1500 
 20 C        0.3080    -0.6870    -2.2090 C.ar  1 <1>  -0.1500 
 21 O       -1.5800    -1.1890     2.5800 O.3   1 <1>  -0.6800 
 22 N       -0.6560     5.3150     0.1880 N.am  1 <1>  -0.5470 
 23 C        1.1850     0.1430    -1.5340 C.ar  1 <1>  -0.1500 
 24 C        0.6890     5.5250     0.0600 C.2   1 <1>   0.5690 
 25 O        1.4350     4.7680    -0.5090 O.2   1 <1>  -0.5700 
 26 C        1.2650     6.7800     0.6900 C.3   1 <1>  -0.0990 
 27 C        1.3670     6.6660     2.2200 C.3   1 <1>  -0.1600 
 28 C        1.9480     7.9430     2.8340 C.3   1 <1>  -0.2400 
 29 H       -2.9530     0.2110     0.8070 H     1 <1>   0.0800 
 30 H       -5.7390    -0.9900    -0.9540 H     1 <1>   0.0800 
 31 H       -4.9530    -1.2640    -2.4790 H     1 <1>   0.0800 
 32 H       -4.2330     2.5430     0.5340 H     1 <1>   0.1500 
 33 H       -1.7300     2.0840    -2.8650 H     1 <1>   0.1500 
 34 H       -2.0710    -2.5360     0.2620 H     1 <1>   0.0800 
 35 H       -3.5590    -3.0210    -1.5210 H     1 <1>   0.0800 
 36 H       -5.2210    -3.3300    -1.0680 H     1 <1>   0.0800 
 37 H       -2.8190     4.3760     1.3330 H     1 <1>   0.1500 
 38 H       -0.3110     3.9120    -2.0770 H     1 <1>   0.1500 
 39 H       -0.7750     1.0260     1.0540 H     1 <1>   0.1500 
 40 H       -1.6440    -1.5340    -2.2520 H     1 <1>   0.1500 
 41 H       -2.6450    -2.8910     2.5800 H     1 <1>   0.0800 
 42 H       -3.5680    -1.3990     2.6270 H     1 <1>   0.0800 
 43 H        1.4640     1.4150     0.1590 H     1 <1>   0.1500 
 44 H        0.6150    -1.1620    -3.1240 H     1 <1>   0.1500 
 45 H       -0.7670    -1.6100     2.2320 H     1 <1>   0.4000 
 46 H       -1.1390     5.9840     0.7830 H     1 <1>   0.3700 
 47 H        2.1730     0.3190    -1.9230 H     1 <1>   0.1500 
 48 H        2.2450     6.9460     0.2780 H     1 <1>   0.0800 
 49 H        0.6500     7.6190     0.4190 H     1 <1>   0.0800 
 50 H        0.3940     6.4810     2.6410 H     1 <1>   0.0800 
 51 H        2.0000     5.8310     2.4700 H     1 <1>   0.0800 
 52 H        1.3220     8.7900     2.6140 H     1 <1>   0.0800 
 53 H        2.9350     8.1310     2.4480 H     1 <1>   0.0800 
 54 H        2.0170     7.8380     3.9030 H     1 <1>   0.0800 
@<TRIPOS>BOND
  1   1   2  2   
  2   2   3  am  
  3   2   4  1   
  4   3   5  1   
  5   3   6  1   
  6   4   7  ar  
  7   4   8  ar  
  8   5   9  1   
  9   5  10  1   
 10   5  29  1   
 11   6  11  1   
 12   6  30  1   
 13   6  31  1   
 14   7  12  ar  
 15   7  32  1   
 16   8  13  ar  
 17   8  33  1   
 18   9  14  ar  
 19   9  15  ar  
 20  10  16  1   
 21  10  17  1   
 22  10  34  1   
 23  11  16  1   
 24  11  35  1   
 25  11  36  1   
 26  12  18  ar  
 27  12  37  1   
 28  13  18  ar  
 29  13  38  1   
 30  14  19  ar  
 31  14  39  1   
 32  15  20  ar  
 33  15  40  1   
 34  17  21  1   
 35  17  41  1   
 36  17  42  1   
 37  18  22  1   
 38  19  23  ar  
 39  19  43  1   
 40  20  23  ar  
 41  20  44  1   
 42  21  45  1   
 43  22  24  am  
 44  22  46  1   
 45  23  47  1   
 46  24  25  2   
 47  24  26  1   
 48  26  27  1   
 49  26  48  1   
 50  26  49  1   
 51  27  28  1   
 52  27  50  1   
 53  27  51  1   
 54  28  52  1   
 55  28  53  1   
 56  28  54  1   
@<TRIPOS>SUBSTRUCTURE
  1 ****  14 GROUP 4 **** **** 0

# MOE 2024.06 (io_trps.svl 2023.06)
