@<TRIPOS>MOLECULE
NONAME
53 55 1 0 0 
SMALL
USER_CHARGES


@<TRIPOS>ATOM
  1 O       -2.1600     2.3070     0.0640 O.2   1 <1>  -0.5700 
  2 C       -1.8460     1.1370     0.0760 C.2   1 <1>   0.5690 
  3 N       -2.7960     0.1440     0.1520 N.am  1 <1>  -0.6600 
  4 C       -0.3270     0.8540     0.0220 C.3   1 <1>   0.4040 
  5 C       -2.4890    -1.3420     0.2010 C.3   1 <1>   0.3640 
  6 C       -4.2330     0.5380     0.3290 C.3   1 <1>   0.1400 
  7 N        0.5340     2.0540     0.3440 N.4   1 <1>  -0.9590 
  8 C       -1.4310    -1.6590    -0.8610 C.ar  1 <1>  -0.1430 
  9 C       -3.7080    -2.3020     0.0080 C.3   1 <1>   0.2000 
 10 C       -5.1960    -0.5050    -0.2330 C.3   1 <1>   0.1200 
 11 C        1.9320     1.8830    -0.1340 C.3   1 <1>   0.3430 
 12 C        0.4470     2.4190     1.7860 C.3   1 <1>   0.3430 
 13 C       -0.2630    -2.3250    -0.5130 C.ar  1 <1>  -0.1500 
 14 C       -1.6120    -1.2630    -2.1810 C.ar  1 <1>  -0.1500 
 15 O       -4.9300    -1.7250     0.3740 O.3   1 <1>  -0.5600 
 16 C       -3.5910    -3.5830     0.8520 C.3   1 <1>   0.1200 
 17 C        2.7110     3.1800     0.0860 C.3   1 <1>  -0.1600 
 18 C        1.2070     3.7230     2.0300 C.3   1 <1>  -0.1600 
 19 C        0.7130    -2.5750    -1.4610 C.ar  1 <1>  -0.1500 
 20 C       -0.6360    -1.5120    -3.1290 C.ar  1 <1>  -0.1500 
 21 O       -2.3710    -4.2200     0.6560 O.3   1 <1>  -0.6800 
 22 C        2.6650     3.6290     1.5540 C.3   1 <1>  -0.0800 
 23 C        0.5290    -2.1650    -2.7690 C.ar  1 <1>  -0.1500 
 24 C        3.3760     4.9750     1.7290 C.3   1 <1>  -0.2400 
 25 H       -0.1020     0.5170    -0.9750 H     1 <1>   0.0800 
 26 H       -0.0990     0.0520     0.7000 H     1 <1>   0.0800 
 27 H       -2.0760    -1.5480     1.1730 H     1 <1>   0.0800 
 28 H       -4.4360     0.6710     1.3780 H     1 <1>   0.0800 
 29 H       -4.4240     1.4770    -0.1630 H     1 <1>   0.0800 
 30 H        0.0980     2.8390    -0.1670 H     1 <1>   0.4500 
 31 H       -3.7930    -2.5790    -1.0280 H     1 <1>   0.0800 
 32 H       -5.0970    -0.6020    -1.3000 H     1 <1>   0.0800 
 33 H       -6.2120    -0.2360     0.0010 H     1 <1>   0.0800 
 34 H        2.4080     1.0820     0.4090 H     1 <1>   0.0800 
 35 H        1.9380     1.6340    -1.1830 H     1 <1>   0.0800 
 36 H       -0.5850     2.5500     2.0720 H     1 <1>   0.0800 
 37 H        0.8740     1.6350     2.3900 H     1 <1>   0.0800 
 38 H       -0.1100    -2.6680     0.4980 H     1 <1>   0.1500 
 39 H       -2.5140    -0.7540    -2.4780 H     1 <1>   0.1500 
 40 H       -4.3770    -4.2750     0.6010 H     1 <1>   0.0800 
 41 H       -3.6590    -3.3370     1.8980 H     1 <1>   0.0800 
 42 H        3.7350     3.0250    -0.2080 H     1 <1>   0.0800 
 43 H        2.3070     3.9480    -0.5510 H     1 <1>   0.0800 
 44 H        0.6990     4.5260     1.5230 H     1 <1>   0.0800 
 45 H        1.1870     3.9440     3.0830 H     1 <1>   0.0800 
 46 H        1.6120    -3.1000    -1.1850 H     1 <1>   0.1500 
 47 H       -0.7840    -1.2040    -4.1510 H     1 <1>   0.1500 
 48 H       -2.3430    -4.6660    -0.2160 H     1 <1>   0.4000 
 49 H        3.1790     2.8970     2.1570 H     1 <1>   0.0800 
 50 H        1.2860    -2.3660    -3.5090 H     1 <1>   0.1500 
 51 H        2.8980     5.7430     1.1450 H     1 <1>   0.0800 
 52 H        4.4030     4.9010     1.4180 H     1 <1>   0.0800 
 53 H        3.3610     5.2760     2.7630 H     1 <1>   0.0800 
@<TRIPOS>BOND
  1   1   2  2   
  2   2   3  am  
  3   2   4  1   
  4   3   5  1   
  5   3   6  1   
  6   4   7  1   
  7   4  25  1   
  8   4  26  1   
  9   5   8  1   
 10   5   9  1   
 11   5  27  1   
 12   6  10  1   
 13   6  28  1   
 14   6  29  1   
 15   7  11  1   
 16   7  12  1   
 17   7  30  1   
 18   8  13  ar  
 19   8  14  ar  
 20   9  15  1   
 21   9  16  1   
 22   9  31  1   
 23  10  15  1   
 24  10  32  1   
 25  10  33  1   
 26  11  17  1   
 27  11  34  1   
 28  11  35  1   
 29  12  18  1   
 30  12  36  1   
 31  12  37  1   
 32  13  19  ar  
 33  13  38  1   
 34  14  20  ar  
 35  14  39  1   
 36  16  21  1   
 37  16  40  1   
 38  16  41  1   
 39  17  22  1   
 40  17  42  1   
 41  17  43  1   
 42  18  22  1   
 43  18  44  1   
 44  18  45  1   
 45  19  23  ar  
 46  19  46  1   
 47  20  23  ar  
 48  20  47  1   
 49  21  48  1   
 50  22  24  1   
 51  22  49  1   
 52  23  50  1   
 53  24  51  1   
 54  24  52  1   
 55  24  53  1   
@<TRIPOS>SUBSTRUCTURE
  1 ****   4 GROUP 4 **** **** 0

# MOE 2024.06 (io_trps.svl 2023.06)
