@<TRIPOS>MOLECULE
NONAME
33 34 1 0 0 
SMALL
USER_CHARGES


@<TRIPOS>ATOM
  1 F       -0.3040    -0.1570     1.0280 F     1 <1>  -0.1900 
  2 C       -1.4190    -0.8230     0.8020 C.ar  1 <1>   0.1900 
  3 C       -2.5840    -0.1860     0.3740 C.ar  1 <1>   0.4100 
  4 C       -1.4310    -2.1750     1.0030 C.ar  1 <1>   0.1600 
  5 N       -3.6790    -0.9010     0.1820 N.ar  1 <1>  -0.6200 
  6 N       -2.6780     1.1830     0.1280 N.pl3 1 <1>  -0.8380 
  7 N       -2.5200    -2.8930     0.8030 N.ar  1 <1>  -0.6200 
  8 C       -3.5840    -2.1990     0.4110 C.ar  1 <1>   0.7200 
  9 C       -3.9880     1.8850     0.2250 C.3   1 <1>   0.1290 
 10 C       -1.6260     1.9050    -0.6370 C.3   1 <1>   0.1290 
 11 N       -4.7400    -2.8720     0.1970 N.pl3 1 <1>  -0.8690 
 12 C       -4.8010    -4.3180    -0.1270 C.3   1 <1>   0.2090 
 13 C       -6.2010    -4.8600     0.1620 C.3   1 <1>   0.0210 
 14 C       -6.3350    -6.3340    -0.1920 C.2   1 <1>  -0.1810 
 15 C       -7.5160    -7.0700    -0.1310 C.2   1 <1>   0.1390 
 16 C       -5.4070    -7.2190    -0.6170 C.2   1 <1>  -0.3020 
 17 N       -7.3470    -8.3060    -0.4880 N.2   1 <1>  -0.7070 
 18 N       -6.0390    -8.3970    -0.7880 N.pl3 1 <1>   0.3000 
 19 H       -0.5390    -2.6770     1.3320 H     1 <1>   0.1500 
 20 H       -4.6110     1.4080     0.9630 H     1 <1>   0.0800 
 21 H       -4.4890     1.8520    -0.7270 H     1 <1>   0.0800 
 22 H       -3.8360     2.9100     0.5160 H     1 <1>   0.0800 
 23 H       -0.9210     1.2090    -1.0590 H     1 <1>   0.0800 
 24 H       -1.1040     2.5800     0.0180 H     1 <1>   0.0800 
 25 H       -2.0710     2.4650    -1.4410 H     1 <1>   0.0800 
 26 H       -5.4180    -2.2750    -0.2750 H     1 <1>   0.4000 
 27 H       -4.0850    -4.8590     0.4690 H     1 <1>   0.0800 
 28 H       -4.5590    -4.4590    -1.1660 H     1 <1>   0.0800 
 29 H       -6.9210    -4.3020    -0.4090 H     1 <1>   0.0800 
 30 H       -6.4160    -4.7320     1.2080 H     1 <1>   0.0800 
 31 H       -8.4690    -6.6710     0.1760 H     1 <1>   0.1500 
 32 H       -4.3570    -7.0900    -0.8050 H     1 <1>   0.1500 
 33 H       -5.6120    -9.2760    -1.1040 H     1 <1>   0.2700 
@<TRIPOS>BOND
  1   1   2  1   
  2   2   3  ar  
  3   2   4  ar  
  4   3   5  ar  
  5   3   6  1   
  6   4   7  ar  
  7   4  19  1   
  8   5   8  ar  
  9   6   9  1   
 10   6  10  1   
 11   7   8  ar  
 12   8  11  1   
 13   9  20  1   
 14   9  21  1   
 15   9  22  1   
 16  10  23  1   
 17  10  24  1   
 18  10  25  1   
 19  11  12  1   
 20  11  26  1   
 21  12  13  1   
 22  12  27  1   
 23  12  28  1   
 24  13  14  1   
 25  13  29  1   
 26  13  30  1   
 27  14  15  1   
 28  14  16  2   
 29  15  17  2   
 30  15  31  1   
 31  16  18  1   
 32  16  32  1   
 33  17  18  1   
 34  18  33  1   
@<TRIPOS>SUBSTRUCTURE
  1 ****  11 GROUP 4 **** **** 0

# MOE 2024.06 (io_trps.svl 2023.06)
