@<TRIPOS>MOLECULE
NONAME
49 51 1 0 0 
SMALL
USER_CHARGES


@<TRIPOS>ATOM
  1 O        0.3950    -0.4670     1.2130 O.2   1 <1>  -0.5700 
  2 C        1.3530    -1.1360     0.8510 C.2   1 <1>   0.7670 
  3 N        2.5990    -0.6380     1.1230 N.2   1 <1>  -0.6610 
  4 C        1.1880    -2.3680     0.1400 C.2   1 <1>  -0.1240 
  5 C        3.6080    -1.3030     0.7080 C.2   1 <1>   0.4390 
  6 C        2.2990    -3.0210    -0.2960 C.2   1 <1>  -0.0380 
  7 C       -0.2350    -2.8940    -0.0860 C.3   1 <1>   0.0390 
  8 N        3.5090    -2.4640     0.0060 N.pl3 1 <1>  -0.5500 
  9 C        5.0020    -0.8020     0.9910 C.3   1 <1>  -0.1790 
 10 C        2.3520    -4.3250    -1.0780 C.3   1 <1>  -0.1020 
 11 C       -0.4380    -4.3060     0.4510 C.2   1 <1>   0.5690 
 12 O        0.1150    -4.6020     1.4850 O.2   1 <1>  -0.5700 
 13 N       -1.2080    -5.2110    -0.2340 N.am  1 <1>  -0.6600 
 14 C       -1.1290    -6.6590     0.1630 C.3   1 <1>   0.3640 
 15 C       -2.2220    -4.8100    -1.2610 C.3   1 <1>   0.1400 
 16 C        0.1060    -7.2780    -0.4990 C.ar  1 <1>  -0.1430 
 17 C       -2.4000    -7.5080    -0.1350 C.3   1 <1>   0.2000 
 18 C       -3.1660    -5.9430    -1.6910 C.3   1 <1>   0.1200 
 19 C        1.1000    -7.8260     0.2990 C.ar  1 <1>  -0.1500 
 20 C        0.2670    -7.3040    -1.8790 C.ar  1 <1>  -0.1500 
 21 O       -3.4820    -6.7460    -0.6020 O.3   1 <1>  -0.5600 
 22 C       -2.8890    -8.2680     1.1060 C.3   1 <1>   0.1200 
 23 C        2.2270    -8.3960    -0.2660 C.ar  1 <1>  -0.1500 
 24 C        1.3930    -7.8730    -2.4480 C.ar  1 <1>  -0.1500 
 25 O       -1.8970    -9.1170     1.5890 O.3   1 <1>  -0.6800 
 26 C        2.3740    -8.4210    -1.6410 C.ar  1 <1>  -0.1500 
 27 H       -0.4240    -2.8610    -1.1400 H     1 <1>   0.0800 
 28 H       -0.9680    -2.2720     0.3920 H     1 <1>   0.0800 
 29 H        4.3710    -2.9380    -0.2680 H     1 <1>   0.4000 
 30 H        5.5390    -1.5270     1.5740 H     1 <1>   0.0800 
 31 H        4.9560     0.1190     1.5440 H     1 <1>   0.0800 
 32 H        5.5220    -0.6240     0.0680 H     1 <1>   0.0800 
 33 H        3.0730    -4.2560    -1.8720 H     1 <1>   0.0800 
 34 H        1.4040    -4.5650    -1.5190 H     1 <1>   0.0800 
 35 H        2.6320    -5.1310    -0.4230 H     1 <1>   0.0800 
 36 H       -0.9760    -6.6970     1.2290 H     1 <1>   0.0800 
 37 H       -2.8210    -4.0130    -0.8550 H     1 <1>   0.0800 
 38 H       -1.7210    -4.4330    -2.1350 H     1 <1>   0.0800 
 39 H       -2.1770    -8.2310    -0.8990 H     1 <1>   0.0800 
 40 H       -2.7230    -6.5530    -2.4580 H     1 <1>   0.0800 
 41 H       -4.0830    -5.5310    -2.0750 H     1 <1>   0.0800 
 42 H        0.9990    -7.8090     1.3720 H     1 <1>   0.1500 
 43 H       -0.4800    -6.8780    -2.5210 H     1 <1>   0.1500 
 44 H       -3.7540    -8.8620     0.8680 H     1 <1>   0.0800 
 45 H       -3.1350    -7.5730     1.8910 H     1 <1>   0.0800 
 46 H        2.9880    -8.8180     0.3660 H     1 <1>   0.1500 
 47 H        1.5080    -7.8900    -3.5180 H     1 <1>   0.1500 
 48 H       -1.7020    -9.8330     0.9510 H     1 <1>   0.4000 
 49 H        3.2500    -8.8660    -2.0810 H     1 <1>   0.1500 
@<TRIPOS>BOND
  1   1   2  2   
  2   2   3  1   
  3   2   4  1   
  4   3   5  2   
  5   4   6  2   
  6   4   7  1   
  7   5   8  1   
  8   5   9  1   
  9   6   8  1   
 10   6  10  1   
 11   7  11  1   
 12   7  27  1   
 13   7  28  1   
 14   8  29  1   
 15   9  30  1   
 16   9  31  1   
 17   9  32  1   
 18  10  33  1   
 19  10  34  1   
 20  10  35  1   
 21  11  12  2   
 22  11  13  am  
 23  13  14  1   
 24  13  15  1   
 25  14  16  1   
 26  14  17  1   
 27  14  36  1   
 28  15  18  1   
 29  15  37  1   
 30  15  38  1   
 31  16  19  ar  
 32  16  20  ar  
 33  17  21  1   
 34  17  22  1   
 35  17  39  1   
 36  18  21  1   
 37  18  40  1   
 38  18  41  1   
 39  19  23  ar  
 40  19  42  1   
 41  20  24  ar  
 42  20  43  1   
 43  22  25  1   
 44  22  44  1   
 45  22  45  1   
 46  23  26  ar  
 47  23  46  1   
 48  24  26  ar  
 49  24  47  1   
 50  25  48  1   
 51  26  49  1   
@<TRIPOS>SUBSTRUCTURE
  1 ****  11 GROUP 4 **** **** 0

# MOE 2024.06 (io_trps.svl 2023.06)
