@<TRIPOS>MOLECULE
NONAME
40 42 1 0 0 
SMALL
USER_CHARGES


@<TRIPOS>ATOM
  1 CL      -2.1760     1.0720     0.5920 Cl    1 <1>  -0.1770 
  2 C       -1.0080     2.2860     0.1490 C.ar  1 <1>   0.1770 
  3 C       -1.2570     3.6110     0.4470 C.ar  1 <1>  -0.1500 
  4 C        0.1540     1.9110    -0.4970 C.ar  1 <1>  -0.1500 
  5 C       -0.3250     4.5720     0.0950 C.ar  1 <1>  -0.1500 
  6 C        1.0780     2.8810    -0.8440 C.ar  1 <1>  -0.1500 
  7 C        0.8680     4.2330    -0.5540 C.ar  1 <1>   0.0860 
  8 C        1.8560     5.2370    -0.9140 C.2   1 <1>   0.5440 
  9 O        2.8060     4.9790    -1.6320 O.2   1 <1>  -0.5700 
 10 N        1.8130     6.5140    -0.4170 N.am  1 <1>  -0.6600 
 11 C        2.4260     6.7400     0.9400 C.3   1 <1>   0.2200 
 12 C        1.7700     7.6460    -1.3950 C.3   1 <1>   0.1400 
 13 C        1.9140     8.0180     1.6240 C.3   1 <1>   0.1200 
 14 C        3.9760     6.7370     0.8670 C.3   1 <1>   0.3430 
 15 C        2.7900     8.7720    -1.1420 C.3   1 <1>  -0.0800 
 16 O        2.6850     9.1190     1.2490 O.3   1 <1>  -0.5600 
 17 N        4.5000     6.9580    -0.5250 N.4   1 <1>  -0.9590 
 18 C        2.3730     9.6860     0.0220 C.3   1 <1>   0.1200 
 19 C        4.2690     8.3400    -1.0510 C.3   1 <1>   0.3430 
 20 C        5.9260     6.5500    -0.6500 C.3   1 <1>   0.2630 
 21 H       -2.1720     3.8790     0.9450 H     1 <1>   0.1500 
 22 H        0.3260     0.8740    -0.7240 H     1 <1>   0.1500 
 23 H       -0.5340     5.6030     0.3240 H     1 <1>   0.1500 
 24 H        1.9810     2.5850    -1.3520 H     1 <1>   0.1500 
 25 H        2.1270     5.9200     1.5710 H     1 <1>   0.0800 
 26 H        1.9300     7.2560    -2.3870 H     1 <1>   0.0800 
 27 H        0.7760     8.0620    -1.3850 H     1 <1>   0.0800 
 28 H        2.0280     7.9170     2.6890 H     1 <1>   0.0800 
 29 H        0.8740     8.2000     1.4130 H     1 <1>   0.0800 
 30 H        4.3170     5.7780     1.2190 H     1 <1>   0.0800 
 31 H        4.3710     7.4850     1.5360 H     1 <1>   0.0800 
 32 H        2.7290     9.4080    -2.0070 H     1 <1>   0.0800 
 33 H        3.9240     6.3130    -1.1150 H     1 <1>   0.4500 
 34 H        1.3190     9.9130    -0.0040 H     1 <1>   0.0800 
 35 H        2.9130    10.6170    -0.0350 H     1 <1>   0.0800 
 36 H        4.8020     9.0500    -0.4400 H     1 <1>   0.0800 
 37 H        4.6860     8.3920    -2.0440 H     1 <1>   0.0800 
 38 H        6.5510     7.1750    -0.0330 H     1 <1>   0.0800 
 39 H        6.2500     6.6360    -1.6750 H     1 <1>   0.0800 
 40 H        6.0470     5.5240    -0.3410 H     1 <1>   0.0800 
@<TRIPOS>BOND
  1   1   2  1   
  2   2   3  ar  
  3   2   4  ar  
  4   3   5  ar  
  5   3  21  1   
  6   4   6  ar  
  7   4  22  1   
  8   5   7  ar  
  9   5  23  1   
 10   6   7  ar  
 11   6  24  1   
 12   7   8  1   
 13   8   9  2   
 14   8  10  am  
 15  10  11  1   
 16  10  12  1   
 17  11  13  1   
 18  11  14  1   
 19  11  25  1   
 20  12  15  1   
 21  12  26  1   
 22  12  27  1   
 23  13  16  1   
 24  13  28  1   
 25  13  29  1   
 26  14  17  1   
 27  14  30  1   
 28  14  31  1   
 29  15  18  1   
 30  15  19  1   
 31  15  32  1   
 32  16  18  1   
 33  17  19  1   
 34  17  20  1   
 35  17  33  1   
 36  18  34  1   
 37  18  35  1   
 38  19  36  1   
 39  19  37  1   
 40  20  38  1   
 41  20  39  1   
 42  20  40  1   
@<TRIPOS>SUBSTRUCTURE
  1 ****  10 GROUP 4 **** **** 0

# MOE 2024.06 (io_trps.svl 2023.06)
