@<TRIPOS>MOLECULE
NONAME
52 55 1 0 0 
SMALL
USER_CHARGES


@<TRIPOS>ATOM
  1 O        3.2320    -1.5680     2.4560 O.2   1 <1>  -0.5700 
  2 C        3.2970    -1.9460     1.3090 C.2   1 <1>   0.6300 
  3 N        4.2270    -1.3940     0.4590 N.am  1 <1>  -0.6600 
  4 C        2.2140    -2.9100     0.8090 C.3   1 <1>   0.0320 
  5 C        5.1950    -0.3520     0.9710 C.3   1 <1>   0.1400 
  6 C        4.1130    -1.4470    -1.0290 C.3   1 <1>   0.1400 
  7 C        1.0620    -2.1430     0.1700 C.ar  1 <1>  -0.0320 
  8 C        1.8510    -4.0980     1.6550 C.3   1 <1>  -0.2000 
  9 C        2.5770    -4.3030     0.3650 C.3   1 <1>  -0.2000 
 10 C        4.6730     1.0950     0.7480 C.3   1 <1>   0.4230 
 11 C        3.5440    -0.1450    -1.6560 C.3   1 <1>  -0.0800 
 12 C        0.7600    -2.2630    -1.1790 C.ar  1 <1>  -0.1500 
 13 C        0.3220    -1.2670     0.9490 C.ar  1 <1>  -0.1500 
 14 N        3.1680     1.0410     0.6050 N.4   1 <1>  -0.9590 
 15 C        5.4390     1.7920    -0.4080 C.3   1 <1>   0.1200 
 16 C        4.6310     0.7020    -2.3340 C.3   1 <1>   0.1200 
 17 C        2.6520     0.7530    -0.7730 C.3   1 <1>   0.3430 
 18 C       -0.2430    -1.4940    -1.7440 C.ar  1 <1>  -0.1500 
 19 C       -0.6800    -0.4990     0.3850 C.ar  1 <1>  -0.1500 
 20 C        2.5080     2.2980     1.1530 C.3   1 <1>   0.2370 
 21 O        5.6980     0.9240    -1.4770 O.3   1 <1>  -0.5600 
 22 C       -0.9620    -0.6030    -0.9660 C.ar  1 <1>  -0.1430 
 23 C        2.9160     3.5990     0.4610 C.2   1 <1>   0.9060 
 24 C       -2.0570     0.2530    -1.5780 C.3   1 <1>  -0.0970 
 25 O        3.8740     4.2200     0.9290 O.co2 1 <1>  -0.9000 
 26 O        2.3800     3.8770    -0.6160 O.co2 1 <1>  -0.9000 
 27 H        5.3520    -0.4940     2.0260 H     1 <1>   0.0800 
 28 H        6.1540    -0.4870     0.5030 H     1 <1>   0.0800 
 29 H        5.0880    -1.6490    -1.4400 H     1 <1>   0.0800 
 30 H        3.4930    -2.2750    -1.3170 H     1 <1>   0.0800 
 31 H        2.3780    -4.2470     2.5820 H     1 <1>   0.1000 
 32 H        0.8160    -4.3860     1.7190 H     1 <1>   0.1000 
 33 H        2.0380    -4.7760    -0.4360 H     1 <1>   0.1000 
 34 H        3.6080    -4.6080     0.4050 H     1 <1>   0.1000 
 35 H        4.8970     1.6620     1.6360 H     1 <1>   0.0800 
 36 H        2.9100    -0.4560    -2.4660 H     1 <1>   0.0800 
 37 H        1.3040    -2.9520    -1.8000 H     1 <1>   0.1500 
 38 H        0.5300    -1.1810     2.0030 H     1 <1>   0.1500 
 39 H        2.8970     0.2410     1.1960 H     1 <1>   0.4500 
 40 H        6.3970     2.1050    -0.0350 H     1 <1>   0.0800 
 41 H        4.9380     2.6710    -0.7730 H     1 <1>   0.0800 
 42 H        4.2480     1.6520    -2.6720 H     1 <1>   0.0800 
 43 H        5.0240     0.1760    -3.1870 H     1 <1>   0.0800 
 44 H        1.6810     0.2950    -0.6830 H     1 <1>   0.0800 
 45 H        2.5060     1.6870    -1.2940 H     1 <1>   0.0800 
 46 H       -0.4640    -1.5960    -2.7930 H     1 <1>   0.1500 
 47 H       -1.2430     0.1800     1.0030 H     1 <1>   0.1500 
 48 H        1.4400     2.2130     1.0660 H     1 <1>   0.0800 
 49 H        2.7530     2.4100     2.1940 H     1 <1>   0.0800 
 50 H       -2.3420    -0.1220    -2.5450 H     1 <1>   0.0800 
 51 H       -1.7120     1.2650    -1.6890 H     1 <1>   0.0800 
 52 H       -2.9260     0.2500    -0.9450 H     1 <1>   0.0800 
@<TRIPOS>BOND
  1   1   2  2   
  2   2   3  am  
  3   2   4  1   
  4   3   5  1   
  5   3   6  1   
  6   4   7  1   
  7   4   8  1   
  8   4   9  1   
  9   5  10  1   
 10   5  27  1   
 11   5  28  1   
 12   6  11  1   
 13   6  29  1   
 14   6  30  1   
 15   7  12  ar  
 16   7  13  ar  
 17   8   9  1   
 18   8  31  1   
 19   8  32  1   
 20   9  33  1   
 21   9  34  1   
 22  10  14  1   
 23  10  15  1   
 24  10  35  1   
 25  11  16  1   
 26  11  17  1   
 27  11  36  1   
 28  12  18  ar  
 29  12  37  1   
 30  13  19  ar  
 31  13  38  1   
 32  14  17  1   
 33  14  20  1   
 34  14  39  1   
 35  15  21  1   
 36  15  40  1   
 37  15  41  1   
 38  16  21  1   
 39  16  42  1   
 40  16  43  1   
 41  17  44  1   
 42  17  45  1   
 43  18  22  ar  
 44  18  46  1   
 45  19  22  ar  
 46  19  47  1   
 47  20  23  1   
 48  20  48  1   
 49  20  49  1   
 50  22  24  1   
 51  23  25  ar  
 52  23  26  ar  
 53  24  50  1   
 54  24  51  1   
 55  24  52  1   
@<TRIPOS>SUBSTRUCTURE
  1 ****  17 GROUP 4 **** **** 0

# MOE 2024.06 (io_trps.svl 2023.06)
