@<TRIPOS>MOLECULE
NONAME
54 57 1 0 0 
SMALL
USER_CHARGES


@<TRIPOS>ATOM
  1 O        0.2530     1.2100    -1.6650 O.2   1 <1>  -0.5700 
  2 C       -0.2640     1.8810    -0.7900 C.2   1 <1>   0.5440 
  3 N       -1.6010     1.6880    -0.5050 N.am  1 <1>  -0.6600 
  4 C        0.5360     2.8780    -0.1050 C.ar  1 <1>   0.0860 
  5 C       -2.4640     2.7060     0.1770 C.3   1 <1>   0.1400 
  6 C       -2.3570     0.5160    -1.0320 C.3   1 <1>   0.1400 
  7 C        0.5380     2.9890     1.2850 C.ar  1 <1>  -0.1500 
  8 C        1.3430     3.7630    -0.8230 C.ar  1 <1>  -0.1500 
  9 C       -3.5610     3.2240    -0.7720 C.3   1 <1>   0.1440 
 10 C       -3.4550     0.9900    -1.9930 C.3   1 <1>  -0.1600 
 11 C        1.2890     3.9600     1.9160 C.ar  1 <1>   0.0820 
 12 C        2.1040     4.7340    -0.1950 C.ar  1 <1>  -0.1500 
 13 C       -4.4250     4.2070    -0.0050 C.ar  1 <1>   0.1660 
 14 C       -4.3720     2.0370    -1.3360 C.3   1 <1>  -0.1600 
 15 C       -2.9690     4.1120    -1.9010 C.3   1 <1>  -0.1600 
 16 O        1.2560     4.0530     3.2550 O.3   1 <1>  -0.5320 
 17 C        2.0810     4.8460     1.1920 C.ar  1 <1>   0.0820 
 18 N       -5.2970     3.8890     0.9190 N.ar  1 <1>  -0.6200 
 19 C       -4.1710     5.4920    -0.3760 C.ar  1 <1>  -0.1430 
 20 C       -3.1060     5.5730    -1.4400 C.3   1 <1>  -0.0170 
 21 O        2.7920     5.7730     1.8900 O.3   1 <1>  -0.3620 
 22 C       -5.9410     4.9200     1.4730 C.ar  1 <1>   0.7200 
 23 C       -4.8810     6.4870     0.2470 C.ar  1 <1>   0.1600 
 24 C        3.6730     6.6640     1.2400 C.3   1 <1>   0.0400 
 25 N       -5.7700     6.2120     1.1720 N.ar  1 <1>  -0.6200 
 26 N       -6.8680     4.6230     2.4530 N.pl3 1 <1>  -0.8380 
 27 C       -6.9450     3.2820     3.0950 C.3   1 <1>   0.1290 
 28 C       -7.8520     5.6300     2.9390 C.3   1 <1>   0.1290 
 29 H       -1.8830     3.5420     0.5210 H     1 <1>   0.0800 
 30 H       -2.9250     2.2520     1.0360 H     1 <1>   0.0800 
 31 H       -2.8000    -0.0110    -0.2050 H     1 <1>   0.0800 
 32 H       -1.6980    -0.1660    -1.5420 H     1 <1>   0.0800 
 33 H       -0.0510     2.3130     1.8770 H     1 <1>   0.1500 
 34 H        1.3700     3.6740    -1.8960 H     1 <1>   0.1500 
 35 H       -4.0410     0.1420    -2.3020 H     1 <1>   0.0800 
 36 H       -2.9900     1.4000    -2.8720 H     1 <1>   0.0800 
 37 H        2.7040     5.3880    -0.7980 H     1 <1>   0.1500 
 38 H       -5.1030     2.3890    -2.0430 H     1 <1>   0.0800 
 39 H       -4.9090     1.5690    -0.5290 H     1 <1>   0.0800 
 40 H       -3.5540     3.9900    -2.7950 H     1 <1>   0.0800 
 41 H       -1.9490     3.8620    -2.1340 H     1 <1>   0.0800 
 42 H        1.8380     4.7850     3.5440 H     1 <1>   0.4500 
 43 H       -3.3980     6.2180    -2.2500 H     1 <1>   0.0800 
 44 H       -2.1860     5.9230    -1.0050 H     1 <1>   0.0800 
 45 H       -4.7170     7.5180    -0.0130 H     1 <1>   0.1500 
 46 H        4.1390     7.2800     1.9870 H     1 <1>   0.0800 
 47 H        3.1100     7.2780     0.5600 H     1 <1>   0.0800 
 48 H        4.4220     6.0960     0.7160 H     1 <1>   0.0800 
 49 H       -5.9820     2.8010     3.0840 H     1 <1>   0.0800 
 50 H       -7.6490     2.6680     2.5610 H     1 <1>   0.0800 
 51 H       -7.2610     3.3790     4.1190 H     1 <1>   0.0800 
 52 H       -8.0950     6.3270     2.1550 H     1 <1>   0.0800 
 53 H       -7.4310     6.1710     3.7690 H     1 <1>   0.0800 
 54 H       -8.7580     5.1440     3.2520 H     1 <1>   0.0800 
@<TRIPOS>BOND
  1   1   2  2   
  2   2   3  am  
  3   2   4  1   
  4   3   5  1   
  5   3   6  1   
  6   4   7  ar  
  7   4   8  ar  
  8   5   9  1   
  9   5  29  1   
 10   5  30  1   
 11   6  10  1   
 12   6  31  1   
 13   6  32  1   
 14   7  11  ar  
 15   7  33  1   
 16   8  12  ar  
 17   8  34  1   
 18   9  13  1   
 19   9  14  1   
 20   9  15  1   
 21  10  14  1   
 22  10  35  1   
 23  10  36  1   
 24  11  16  1   
 25  11  17  ar  
 26  12  17  ar  
 27  12  37  1   
 28  13  18  ar  
 29  13  19  ar  
 30  14  38  1   
 31  14  39  1   
 32  15  20  1   
 33  15  40  1   
 34  15  41  1   
 35  16  42  1   
 36  17  21  1   
 37  18  22  ar  
 38  19  20  1   
 39  19  23  ar  
 40  20  43  1   
 41  20  44  1   
 42  21  24  1   
 43  22  25  ar  
 44  22  26  1   
 45  23  25  ar  
 46  23  45  1   
 47  24  46  1   
 48  24  47  1   
 49  24  48  1   
 50  26  27  1   
 51  26  28  1   
 52  27  49  1   
 53  27  50  1   
 54  27  51  1   
 55  28  52  1   
 56  28  53  1   
 57  28  54  1   
@<TRIPOS>SUBSTRUCTURE
  1 ****   5 GROUP 4 **** **** 0

# MOE 2024.06 (io_trps.svl 2023.06)
