@<TRIPOS>MOLECULE
NONAME
40 42 1 0 0 
SMALL
USER_CHARGES


@<TRIPOS>ATOM
  1 S       -0.5690     0.6390    -1.9010 S.3   1 <1>  -0.0800 
  2 C       -0.3110     1.8200    -0.6350 C.2   1 <1>  -0.1400 
  3 C        0.9730     1.0580    -2.6320 C.2   1 <1>  -0.1100 
  4 C        0.8600     2.4550    -0.7730 C.2   1 <1>  -0.1810 
  5 C       -1.3120     2.0690     0.4610 C.3   1 <1>   0.0200 
  6 C        1.5970     2.0220    -1.9260 C.2   1 <1>  -0.1500 
  7 C        1.3020     3.5200     0.2320 C.3   1 <1>   0.4610 
  8 C       -0.9720     3.4320     1.0840 C.3   1 <1>   0.1200 
  9 O        0.4100     3.5510     1.3310 O.3   1 <1>  -0.5600 
 10 C        1.3390     4.9120    -0.4180 C.3   1 <1>  -0.1600 
 11 C        2.6750     3.1660     0.8160 C.3   1 <1>  -0.1600 
 12 C        1.8580     5.9700     0.5550 C.3   1 <1>   0.1400 
 13 C        3.1870     4.2530     1.7620 C.3   1 <1>   0.1400 
 14 N        3.2050     5.5560     1.0380 N.am  1 <1>  -0.6600 
 15 C        4.3760     6.2400     0.8330 C.2   1 <1>   0.5690 
 16 O        5.4350     5.8300     1.2480 O.2   1 <1>  -0.5700 
 17 C        4.3720     7.5490     0.0530 C.3   1 <1>  -0.0990 
 18 C        5.7760     8.1670    -0.1440 C.3   1 <1>  -0.1600 
 19 C        5.7650     9.4660    -0.9460 C.3   1 <1>   1.0200 
 20 F        5.2660     9.2980    -2.1630 F     1 <1>  -0.3400 
 21 F        6.9780     9.9730    -1.0990 F     1 <1>  -0.3400 
 22 F        5.0280    10.4050    -0.3690 F     1 <1>  -0.3400 
 23 H        1.2530     0.5310    -3.5260 H     1 <1>   0.1500 
 24 H       -1.2470     1.2920     1.2010 H     1 <1>   0.0800 
 25 H       -2.3100     2.0880     0.0620 H     1 <1>   0.0800 
 26 H        2.5540     2.4480    -2.1720 H     1 <1>   0.1500 
 27 H       -1.4850     3.5490     2.0230 H     1 <1>   0.0800 
 28 H       -1.2720     4.2290     0.4270 H     1 <1>   0.0800 
 29 H        0.3610     5.1790    -0.7720 H     1 <1>   0.0800 
 30 H        1.9880     4.8840    -1.2740 H     1 <1>   0.0800 
 31 H        3.3900     3.0440     0.0240 H     1 <1>   0.0800 
 32 H        2.6050     2.2290     1.3380 H     1 <1>   0.0800 
 33 H        1.1930     6.0490     1.3990 H     1 <1>   0.0800 
 34 H        1.8880     6.9270     0.0680 H     1 <1>   0.0800 
 35 H        4.1720     3.9930     2.1120 H     1 <1>   0.0800 
 36 H        2.5400     4.3330     2.6190 H     1 <1>   0.0800 
 37 H        3.7490     8.2480     0.5820 H     1 <1>   0.0800 
 38 H        3.9340     7.3600    -0.9100 H     1 <1>   0.0800 
 39 H        6.4080     7.4640    -0.6550 H     1 <1>   0.0800 
 40 H        6.2160     8.3690     0.8160 H     1 <1>   0.0800 
@<TRIPOS>BOND
  1   1   2  1   
  2   1   3  1   
  3   2   4  2   
  4   2   5  1   
  5   3   6  2   
  6   3  23  1   
  7   4   6  1   
  8   4   7  1   
  9   5   8  1   
 10   5  24  1   
 11   5  25  1   
 12   6  26  1   
 13   7   9  1   
 14   7  10  1   
 15   7  11  1   
 16   8   9  1   
 17   8  27  1   
 18   8  28  1   
 19  10  12  1   
 20  10  29  1   
 21  10  30  1   
 22  11  13  1   
 23  11  31  1   
 24  11  32  1   
 25  12  14  1   
 26  12  33  1   
 27  12  34  1   
 28  13  14  1   
 29  13  35  1   
 30  13  36  1   
 31  14  15  am  
 32  15  16  2   
 33  15  17  1   
 34  17  18  1   
 35  17  37  1   
 36  17  38  1   
 37  18  19  1   
 38  18  39  1   
 39  18  40  1   
 40  19  20  1   
 41  19  21  1   
 42  19  22  1   
@<TRIPOS>SUBSTRUCTURE
  1 ****  10 GROUP 4 **** **** 0

# MOE 2024.06 (io_trps.svl 2023.06)
