@<TRIPOS>MOLECULE
NONAME
51 54 1 0 0 
SMALL
USER_CHARGES


@<TRIPOS>ATOM
  1 O        0.1170     0.9930     1.1340 O.2   1 <1>  -0.5700 
  2 C        0.0450     2.1920     1.0450 C.2   1 <1>   0.5690 
  3 N       -1.1380     2.8250     1.1970 N.am  1 <1>  -0.7300 
  4 C        1.2950     3.0120     0.7140 C.3   1 <1>   0.1810 
  5 C       -1.3050     4.2950     1.0920 C.3   1 <1>   0.3640 
  6 O        1.1520     4.3860     1.0030 O.3   1 <1>  -0.5600 
  7 C       -2.5220     4.5830     0.2140 C.ar  1 <1>  -0.1440 
  8 C       -0.0400     4.9820     0.5090 C.3   1 <1>   0.2610 
  9 C       -3.4350     5.5540     0.6010 C.ar  1 <1>  -0.1500 
 10 C       -2.7340     3.8990    -0.9770 C.ar  1 <1>  -0.1500 
 11 C       -0.0360     6.5010     0.7700 C.2   1 <1>   0.5690 
 12 C       -4.5380     5.8380    -0.1850 C.ar  1 <1>  -0.1500 
 13 C       -3.8360     4.1820    -1.7650 C.ar  1 <1>  -0.1500 
 14 O       -0.7570     6.9390     1.6420 O.2   1 <1>  -0.5700 
 15 N        0.7630     7.3490     0.0300 N.am  1 <1>  -0.6600 
 16 C       -4.7390     5.1520    -1.3690 C.ar  1 <1>  -0.1500 
 17 C        0.7350     8.8230     0.2530 C.3   1 <1>   0.1400 
 18 C        1.8130     6.9020    -0.9300 C.3   1 <1>   0.1400 
 19 C        2.0980     9.2890     0.7690 C.3   1 <1>  -0.1600 
 20 C        3.1850     7.3470    -0.4210 C.3   1 <1>  -0.1600 
 21 C        3.2170     8.8600    -0.1880 C.3   1 <1>   0.2000 
 22 O        4.4700     9.1730     0.3820 O.3   1 <1>  -0.3630 
 23 C        4.9800    10.4330     0.4150 C.ar  1 <1>   0.0830 
 24 C        6.1350    10.6350     1.1630 C.ar  1 <1>   0.1600 
 25 C        4.4240    11.5170    -0.2470 C.ar  1 <1>  -0.1500 
 26 N        6.7640    11.7930     1.3040 N.ar  1 <1>  -0.6200 
 27 C        5.0680    12.7290    -0.1100 C.ar  1 <1>  -0.1500 
 28 C        6.2140    12.8120     0.6640 C.ar  1 <1>   0.1600 
 29 H       -1.9730     2.2760     1.4090 H     1 <1>   0.3700 
 30 H        1.5240     2.9070    -0.3300 H     1 <1>   0.0800 
 31 H        2.1230     2.6420     1.2900 H     1 <1>   0.0800 
 32 H       -1.4850     4.6710     2.0840 H     1 <1>   0.0800 
 33 H       -0.0530     4.8380    -0.5550 H     1 <1>   0.0800 
 34 H       -3.2900     6.1030     1.5170 H     1 <1>   0.1500 
 35 H       -2.0440     3.1380    -1.3010 H     1 <1>   0.1500 
 36 H       -5.2370     6.5940     0.1250 H     1 <1>   0.1500 
 37 H       -3.9930     3.6460    -2.6850 H     1 <1>   0.1500 
 38 H       -5.5970     5.3730    -1.9810 H     1 <1>   0.1500 
 39 H        0.5030     9.3140    -0.6760 H     1 <1>   0.0800 
 40 H       -0.0280     9.0900     0.9650 H     1 <1>   0.0800 
 41 H        1.8150     5.8340    -1.0470 H     1 <1>   0.0800 
 42 H        1.6170     7.3420    -1.8930 H     1 <1>   0.0800 
 43 H        2.2630     8.8540     1.7400 H     1 <1>   0.0800 
 44 H        2.0850    10.3570     0.8750 H     1 <1>   0.0800 
 45 H        3.9350     7.0800    -1.1420 H     1 <1>   0.0800 
 46 H        3.3950     6.8320     0.5000 H     1 <1>   0.0800 
 47 H        3.1310     9.3590    -1.1370 H     1 <1>   0.0800 
 48 H        6.5550     9.7850     1.6700 H     1 <1>   0.1500 
 49 H        3.5370    11.4460    -0.8460 H     1 <1>   0.1500 
 50 H        4.6880    13.6090    -0.5980 H     1 <1>   0.1500 
 51 H        6.7050    13.7660     0.7610 H     1 <1>   0.1500 
@<TRIPOS>BOND
  1   1   2  2   
  2   2   3  am  
  3   2   4  1   
  4   3   5  1   
  5   3  29  1   
  6   4   6  1   
  7   4  30  1   
  8   4  31  1   
  9   5   7  1   
 10   5   8  1   
 11   5  32  1   
 12   6   8  1   
 13   7   9  ar  
 14   7  10  ar  
 15   8  11  1   
 16   8  33  1   
 17   9  12  ar  
 18   9  34  1   
 19  10  13  ar  
 20  10  35  1   
 21  11  14  2   
 22  11  15  am  
 23  12  16  ar  
 24  12  36  1   
 25  13  16  ar  
 26  13  37  1   
 27  15  17  1   
 28  15  18  1   
 29  16  38  1   
 30  17  19  1   
 31  17  39  1   
 32  17  40  1   
 33  18  20  1   
 34  18  41  1   
 35  18  42  1   
 36  19  21  1   
 37  19  43  1   
 38  19  44  1   
 39  20  21  1   
 40  20  45  1   
 41  20  46  1   
 42  21  22  1   
 43  21  47  1   
 44  22  23  1   
 45  23  24  ar  
 46  23  25  ar  
 47  24  26  ar  
 48  24  48  1   
 49  25  27  ar  
 50  25  49  1   
 51  26  28  ar  
 52  27  28  ar  
 53  27  50  1   
 54  28  51  1   
@<TRIPOS>SUBSTRUCTURE
  1 ****  15 GROUP 4 **** **** 0

# MOE 2024.06 (io_trps.svl 2023.06)
