@<TRIPOS>MOLECULE
NONAME
53 55 1 0 0 
SMALL
USER_CHARGES


@<TRIPOS>ATOM
  1 O        0.2970     0.7560     1.1850 O.2   1 <1>  -0.5700 
  2 C        0.8870    -0.2370     1.5290 C.2   1 <1>   0.5690 
  3 N        2.0890    -0.1450     2.1910 N.am  1 <1>  -0.6600 
  4 C        0.2360    -1.5520     1.1500 C.3   1 <1>  -0.0990 
  5 C        3.0420    -1.2600     2.4700 C.3   1 <1>   0.1400 
  6 C        2.6420     1.1990     2.5060 C.3   1 <1>   0.1400 
  7 C        0.2960    -1.7780    -0.3680 C.3   1 <1>   0.0960 
  8 C        4.0900    -1.4470     1.3520 C.3   1 <1>   0.3430 
  9 C        3.3040     1.7960     1.2610 C.3   1 <1>  -0.1600 
 10 N        1.5760    -2.3770    -0.8060 N.pl3 1 <1>   0.3140 
 11 N        4.7510    -0.1940     0.8300 N.4   1 <1>  -0.9590 
 12 C        3.7690     0.7680     0.2290 C.3   1 <1>   0.3430 
 13 N        2.5300    -1.7050    -1.4890 N.2   1 <1>  -0.7070 
 14 C        1.8890    -3.6840    -0.7050 C.2   1 <1>  -0.3020 
 15 C        5.7610    -0.5790    -0.1890 C.3   1 <1>   0.5240 
 16 C        3.3780    -2.6180    -1.8600 C.2   1 <1>   0.1390 
 17 C        3.0430    -3.8750    -1.3740 C.2   1 <1>  -0.1810 
 18 C        6.5400     0.6430    -0.6090 C.2   1 <1>  -0.1810 
 19 C        3.7970    -5.1720    -1.5960 C.3   1 <1>  -0.0590 
 20 C        7.4680     1.3550     0.0520 C.2   1 <1>  -0.0400 
 21 C        6.4340     1.3040    -1.8340 C.2   1 <1>   0.1080 
 22 O        7.8370     2.3390    -0.7210 O.3   1 <1>  -0.0190 
 23 C        8.1100     1.2250     1.4190 C.3   1 <1>  -0.0600 
 24 N        7.2170     2.3190    -1.8630 N.2   1 <1>  -0.4100 
 25 C        5.5480     0.9180    -3.0040 C.3   1 <1>  -0.0590 
 26 H       -0.7990    -1.4670     1.4270 H     1 <1>   0.0800 
 27 H        0.6310    -2.3920     1.6850 H     1 <1>   0.0800 
 28 H        2.5100    -2.1830     2.6070 H     1 <1>   0.0800 
 29 H        3.5490    -1.0660     3.3990 H     1 <1>   0.0800 
 30 H        3.3570     1.1230     3.3080 H     1 <1>   0.0800 
 31 H        1.8510     1.8500     2.8440 H     1 <1>   0.0800 
 32 H        0.1470    -0.8520    -0.8950 H     1 <1>   0.0800 
 33 H       -0.4910    -2.4500    -0.6590 H     1 <1>   0.0800 
 34 H        3.6080    -1.9530     0.5380 H     1 <1>   0.0800 
 35 H        4.8480    -2.1180     1.7230 H     1 <1>   0.0800 
 36 H        4.1170     2.4390     1.5450 H     1 <1>   0.0800 
 37 H        2.5750     2.4230     0.7770 H     1 <1>   0.0800 
 38 H        5.2380     0.3030     1.5800 H     1 <1>   0.4500 
 39 H        4.2170     1.3050    -0.5900 H     1 <1>   0.0800 
 40 H        2.9170     0.2340    -0.1610 H     1 <1>   0.0800 
 41 H        1.2690    -4.4020    -0.1980 H     1 <1>   0.1500 
 42 H        5.2740    -1.0130    -1.0460 H     1 <1>   0.0800 
 43 H        6.4430    -1.3050     0.2220 H     1 <1>   0.0800 
 44 H        4.2380    -2.4230    -2.4800 H     1 <1>   0.1500 
 45 H        3.2870    -5.9860    -1.1130 H     1 <1>   0.0800 
 46 H        4.7920    -5.1020    -1.1960 H     1 <1>   0.0800 
 47 H        3.8580    -5.3850    -2.6480 H     1 <1>   0.0800 
 48 H        7.7440     0.3610     1.9400 H     1 <1>   0.0800 
 49 H        7.9030     2.1050     2.0030 H     1 <1>   0.0800 
 50 H        9.1760     1.1350     1.3070 H     1 <1>   0.0800 
 51 H        4.5760     0.6040    -2.6730 H     1 <1>   0.0800 
 52 H        6.0080     0.1230    -3.5610 H     1 <1>   0.0800 
 53 H        5.4270     1.7630    -3.6590 H     1 <1>   0.0800 
@<TRIPOS>BOND
  1   1   2  2   
  2   2   3  am  
  3   2   4  1   
  4   3   5  1   
  5   3   6  1   
  6   4   7  1   
  7   4  26  1   
  8   4  27  1   
  9   5   8  1   
 10   5  28  1   
 11   5  29  1   
 12   6   9  1   
 13   6  30  1   
 14   6  31  1   
 15   7  10  1   
 16   7  32  1   
 17   7  33  1   
 18   8  11  1   
 19   8  34  1   
 20   8  35  1   
 21   9  12  1   
 22   9  36  1   
 23   9  37  1   
 24  10  13  1   
 25  10  14  1   
 26  11  12  1   
 27  11  15  1   
 28  11  38  1   
 29  12  39  1   
 30  12  40  1   
 31  13  16  2   
 32  14  17  2   
 33  14  41  1   
 34  15  18  1   
 35  15  42  1   
 36  15  43  1   
 37  16  17  1   
 38  16  44  1   
 39  17  19  1   
 40  18  20  2   
 41  18  21  1   
 42  19  45  1   
 43  19  46  1   
 44  19  47  1   
 45  20  22  1   
 46  20  23  1   
 47  21  24  2   
 48  21  25  1   
 49  22  24  1   
 50  23  48  1   
 51  23  49  1   
 52  23  50  1   
 53  25  51  1   
 54  25  52  1   
 55  25  53  1   
@<TRIPOS>SUBSTRUCTURE
  1 ****  11 GROUP 4 **** **** 0

# MOE 2024.06 (io_trps.svl 2023.06)
