@<TRIPOS>MOLECULE
NONAME
39 40 1 0 0 
SMALL
USER_CHARGES


@<TRIPOS>ATOM
  1 O       -5.1320     0.0950     0.4650 O.2   1 <1>  -0.5700 
  2 C       -4.1660     0.4710    -0.1940 C.2   1 <1>   0.6160 
  3 N       -3.1510    -0.4170    -0.5250 N.am  1 <1>  -0.4690 
  4 C       -4.0590     1.8150    -0.6460 C.2   1 <1>  -0.1360 
  5 C       -2.0760     0.0090    -1.2830 C.2   1 <1>  -0.0410 
  6 C       -3.2140    -1.8260    -0.0620 C.3   1 <1>   0.1400 
  7 C       -2.9980     2.2280    -1.3890 C.2   1 <1>  -0.1500 
  8 C       -1.9850     1.2950    -1.7150 C.2   1 <1>  -0.1500 
  9 C       -4.0070    -2.6680    -1.0610 C.3   1 <1>  -0.0990 
 10 C       -4.3920    -3.9940    -0.4370 C.2   1 <1>   0.5690 
 11 O       -3.7410    -4.9590    -0.7630 O.2   1 <1>  -0.5700 
 12 N       -5.4300    -4.1060     0.4530 N.am  1 <1>  -0.6600 
 13 C       -5.7500    -5.4370     1.0510 C.3   1 <1>   0.3200 
 14 C       -6.4360    -3.0400     0.7620 C.3   1 <1>   0.1400 
 15 C       -6.5830    -6.2630     0.0880 C.2   1 <1>   0.0060 
 16 C       -6.2330    -2.4830     2.1760 C.3   1 <1>   0.1200 
 17 N       -7.7940    -6.6700     0.3050 N.2   1 <1>  -0.5650 
 18 N       -6.0910    -6.6430    -1.1100 N.pl3 1 <1>   0.0330 
 19 O       -6.7620    -1.2050     2.2430 O.3   1 <1>  -0.6800 
 20 C       -8.1070    -7.3520    -0.8150 C.2   1 <1>   0.0770 
 21 C       -7.0790    -7.3450    -1.6920 C.2   1 <1>  -0.3020 
 22 H       -4.8570     2.4760    -0.3690 H     1 <1>   0.1500 
 23 H       -1.3140    -0.7160    -1.5200 H     1 <1>   0.1500 
 24 H       -3.6800    -1.8560     0.9070 H     1 <1>   0.0800 
 25 H       -2.2200    -2.2230     0.0440 H     1 <1>   0.0800 
 26 H       -2.9040     3.2420    -1.7390 H     1 <1>   0.1500 
 27 H       -1.1490     1.6310    -2.3050 H     1 <1>   0.1500 
 28 H       -3.3930    -2.8550    -1.9230 H     1 <1>   0.0800 
 29 H       -4.8830    -2.1500    -1.3970 H     1 <1>   0.0800 
 30 H       -6.2930    -5.3110     1.9710 H     1 <1>   0.0800 
 31 H       -4.8390    -5.9650     1.2760 H     1 <1>   0.0800 
 32 H       -7.4270    -3.4530     0.6820 H     1 <1>   0.0800 
 33 H       -6.3650    -2.2370     0.0540 H     1 <1>   0.0800 
 34 H       -5.1890    -2.4150     2.4240 H     1 <1>   0.0800 
 35 H       -6.7410    -3.0910     2.9030 H     1 <1>   0.0800 
 36 H       -5.1550    -6.4000    -1.4630 H     1 <1>   0.2700 
 37 H       -6.2520    -0.5990     1.6420 H     1 <1>   0.4000 
 38 H       -9.0710    -7.8180    -0.9330 H     1 <1>   0.1500 
 39 H       -6.9970    -7.7870    -2.6680 H     1 <1>   0.1500 
@<TRIPOS>BOND
  1   1   2  2   
  2   2   3  am  
  3   2   4  1   
  4   3   5  1   
  5   3   6  1   
  6   4   7  2   
  7   4  22  1   
  8   5   8  2   
  9   5  23  1   
 10   6   9  1   
 11   6  24  1   
 12   6  25  1   
 13   7   8  1   
 14   7  26  1   
 15   8  27  1   
 16   9  10  1   
 17   9  28  1   
 18   9  29  1   
 19  10  11  2   
 20  10  12  am  
 21  12  13  1   
 22  12  14  1   
 23  13  15  1   
 24  13  30  1   
 25  13  31  1   
 26  14  16  1   
 27  14  32  1   
 28  14  33  1   
 29  15  17  2   
 30  15  18  1   
 31  16  19  1   
 32  16  34  1   
 33  16  35  1   
 34  17  20  1   
 35  18  21  1   
 36  18  36  1   
 37  19  37  1   
 38  20  21  2   
 39  20  38  1   
 40  21  39  1   
@<TRIPOS>SUBSTRUCTURE
  1 ****   9 GROUP 4 **** **** 0

# MOE 2024.06 (io_trps.svl 2023.06)
