@<TRIPOS>MOLECULE
NONAME
48 49 1 0 0 
SMALL
USER_CHARGES


@<TRIPOS>ATOM
  1 O        0.7400     1.3830     1.4470 O.3   1 <1>  -0.3630 
  2 C        1.7160     1.6670     0.5380 C.ar  1 <1>   0.0830 
  3 C       -0.0080     0.1900     1.3750 C.3   1 <1>   0.0400 
  4 C        2.5190     0.7280    -0.1310 C.ar  1 <1>   0.0830 
  5 C        1.8960     3.0180     0.2920 C.ar  1 <1>  -0.1500 
  6 O        2.3790    -0.6030     0.1350 O.3   1 <1>  -0.3630 
  7 C        3.4640     1.1880    -1.0470 C.ar  1 <1>  -0.1500 
  8 C        2.8490     3.4670    -0.6070 C.ar  1 <1>  -0.1430 
  9 C        3.2170    -1.5810    -0.4420 C.3   1 <1>   0.0400 
 10 C        3.6270     2.5420    -1.2810 C.ar  1 <1>  -0.1500 
 11 C        3.0380     4.9560    -0.8340 C.3   1 <1>  -0.0170 
 12 C        3.7120     5.5740     0.3910 C.3   1 <1>   0.2090 
 13 N        4.0820     6.9850     0.1110 N.pl3 1 <1>  -0.8690 
 14 C        5.2260     7.6650     0.2330 C.ar  1 <1>   0.7710 
 15 N        5.1920     8.9210    -0.1490 N.ar  1 <1>  -0.6200 
 16 N        6.3290     7.0770     0.7200 N.ar  1 <1>  -0.1790 
 17 C        6.2970     9.6350    -0.0290 C.ar  1 <1>   0.4100 
 18 C        7.4920     7.7620     0.8240 C.ar  1 <1>   0.2110 
 19 N        6.2060    10.9410    -0.3870 N.pl3 1 <1>  -0.8380 
 20 C        7.5080     9.0640     0.4430 C.ar  1 <1>  -0.1430 
 21 C        6.5290    12.0560     0.5470 C.3   1 <1>   0.1290 
 22 C        5.4240    11.3670    -1.5830 C.3   1 <1>   0.1290 
 23 C        8.8110     9.8620     0.4910 C.3   1 <1>  -0.0970 
 24 H       -0.9130     0.3280     1.9370 H     1 <1>   0.0800 
 25 H        0.5690    -0.6080     1.8060 H     1 <1>   0.0800 
 26 H       -0.2400    -0.0180     0.3450 H     1 <1>   0.0800 
 27 H        1.2690     3.7140     0.8190 H     1 <1>   0.1500 
 28 H        4.0890     0.5070    -1.5920 H     1 <1>   0.1500 
 29 H        2.9290    -2.5400    -0.0500 H     1 <1>   0.0800 
 30 H        4.2370    -1.3700    -0.1740 H     1 <1>   0.0800 
 31 H        3.0840    -1.5690    -1.5090 H     1 <1>   0.0800 
 32 H        4.3640     2.8640    -1.9960 H     1 <1>   0.1500 
 33 H        2.0790     5.4160    -0.9980 H     1 <1>   0.0800 
 34 H        3.6460     5.1160    -1.7070 H     1 <1>   0.0800 
 35 H        4.5810     4.9920     0.6420 H     1 <1>   0.0800 
 36 H        3.0320     5.5400     1.2280 H     1 <1>   0.0800 
 37 H        3.3060     7.5610    -0.2390 H     1 <1>   0.4000 
 38 H        6.2360     6.1050     0.9930 H     1 <1>   0.4570 
 39 H        8.3660     7.2520     1.1970 H     1 <1>   0.1500 
 40 H        6.7760    11.6730     1.5210 H     1 <1>   0.0800 
 41 H        5.6790    12.7080     0.6480 H     1 <1>   0.0800 
 42 H        7.3610    12.6230     0.1650 H     1 <1>   0.0800 
 43 H        5.2910    10.5390    -2.2580 H     1 <1>   0.0800 
 44 H        5.9450    12.1520    -2.1020 H     1 <1>   0.0800 
 45 H        4.4550    11.7240    -1.2780 H     1 <1>   0.0800 
 46 H        8.9290    10.4300    -0.4160 H     1 <1>   0.0800 
 47 H        9.6640     9.2150     0.5890 H     1 <1>   0.0800 
 48 H        8.8060    10.5420     1.3240 H     1 <1>   0.0800 
@<TRIPOS>BOND
  1   1   2  1   
  2   1   3  1   
  3   2   4  ar  
  4   2   5  ar  
  5   3  24  1   
  6   3  25  1   
  7   3  26  1   
  8   4   6  1   
  9   4   7  ar  
 10   5   8  ar  
 11   5  27  1   
 12   6   9  1   
 13   7  10  ar  
 14   7  28  1   
 15   8  10  ar  
 16   8  11  1   
 17   9  29  1   
 18   9  30  1   
 19   9  31  1   
 20  10  32  1   
 21  11  12  1   
 22  11  33  1   
 23  11  34  1   
 24  12  13  1   
 25  12  35  1   
 26  12  36  1   
 27  13  14  1   
 28  13  37  1   
 29  14  15  ar  
 30  14  16  ar  
 31  15  17  ar  
 32  16  18  ar  
 33  16  38  1   
 34  17  19  1   
 35  17  20  ar  
 36  18  20  ar  
 37  18  39  1   
 38  19  21  1   
 39  19  22  1   
 40  20  23  1   
 41  21  40  1   
 42  21  41  1   
 43  21  42  1   
 44  22  43  1   
 45  22  44  1   
 46  22  45  1   
 47  23  46  1   
 48  23  47  1   
 49  23  48  1   
@<TRIPOS>SUBSTRUCTURE
  1 ****  12 GROUP 4 **** **** 0

# MOE 2024.06 (io_trps.svl 2023.06)
