@<TRIPOS>MOLECULE
NONAME
47 49 1 0 0 
SMALL
USER_CHARGES


@<TRIPOS>ATOM
  1 O       -0.6270     0.6210     0.8820 O.2   1 <1>  -0.5700 
  2 C       -1.7310     1.1180     0.8510 C.2   1 <1>   0.5690 
  3 N       -2.8590     0.3380     0.7760 N.am  1 <1>  -0.6600 
  4 C       -1.8340     2.6490     0.9040 C.3   1 <1>   0.2010 
  5 C       -2.7770    -1.1580     0.7290 C.3   1 <1>   0.1400 
  6 C       -4.2690     0.8330     0.6770 C.3   1 <1>   0.1400 
  7 N       -0.5190     3.3310     0.7520 N.am  1 <1>  -0.7300 
  8 C       -3.5980    -1.7250    -0.4440 C.3   1 <1>   0.3440 
  9 C       -5.0070     0.1670    -0.5090 C.3   1 <1>   0.2950 
 10 C       -0.3560     4.5830     0.2680 C.2   1 <1>   0.5690 
 11 O       -4.9100    -1.2230    -0.4060 O.3   1 <1>  -0.5600 
 12 C       -3.6320    -3.2490    -0.3850 C.ar  1 <1>  -0.1440 
 13 C       -6.5060     0.5020    -0.6040 C.3   1 <1>  -0.1950 
 14 O       -1.3000     5.2830    -0.0030 O.2   1 <1>  -0.5700 
 15 C        1.0530     5.1050     0.0580 C.3   1 <1>  -0.0990 
 16 C       -2.6610    -3.9830    -1.0530 C.ar  1 <1>  -0.1500 
 17 C       -4.6080    -3.9250     0.3360 C.ar  1 <1>  -0.1500 
 18 C       -7.0960     1.8140    -0.1810 C.3   1 <1>  -0.2000 
 19 C       -7.4260     0.5570     0.5770 C.3   1 <1>  -0.2000 
 20 C        1.7750     4.4100    -1.1070 C.3   1 <1>  -0.2400 
 21 C       -2.6640    -5.3660    -0.9990 C.ar  1 <1>  -0.1500 
 22 C       -4.6120    -5.3080     0.3900 C.ar  1 <1>  -0.1500 
 23 C       -3.6390    -6.0300    -0.2770 C.ar  1 <1>  -0.1500 
 24 H       -2.2640     2.9330     1.8470 H     1 <1>   0.0800 
 25 H       -2.4830     2.9870     0.1160 H     1 <1>   0.0800 
 26 H       -1.7570    -1.4830     0.6270 H     1 <1>   0.0800 
 27 H       -3.1570    -1.5640     1.6500 H     1 <1>   0.0800 
 28 H       -4.7820     0.5960     1.5910 H     1 <1>   0.0800 
 29 H       -4.2960     1.8980     0.5500 H     1 <1>   0.0800 
 30 H        0.2830     2.7060     0.8880 H     1 <1>   0.3700 
 31 H       -3.1550    -1.4190    -1.3750 H     1 <1>   0.0800 
 32 H       -4.5350     0.4680    -1.4280 H     1 <1>   0.0800 
 33 H       -6.9180     0.0740    -1.5010 H     1 <1>   0.1000 
 34 H        0.9990     6.1610    -0.1360 H     1 <1>   0.0800 
 35 H        1.6100     4.9670     0.9660 H     1 <1>   0.0800 
 36 H       -1.8940    -3.4820    -1.6180 H     1 <1>   0.1500 
 37 H       -5.3720    -3.3730     0.8560 H     1 <1>   0.1500 
 38 H       -6.5020     2.5590     0.3180 H     1 <1>   0.1000 
 39 H       -7.8610     2.2550    -0.7980 H     1 <1>   0.1000 
 40 H       -8.4080     0.1280     0.4720 H     1 <1>   0.1000 
 41 H       -7.0320     0.4240     1.5690 H     1 <1>   0.1000 
 42 H        1.2220     4.5530    -2.0200 H     1 <1>   0.0800 
 43 H        1.8660     3.3550    -0.9220 H     1 <1>   0.0800 
 44 H        2.7590     4.8250    -1.2330 H     1 <1>   0.0800 
 45 H       -1.9070    -5.9260    -1.5200 H     1 <1>   0.1500 
 46 H       -5.3740    -5.8200     0.9510 H     1 <1>   0.1500 
 47 H       -3.6420    -7.1050    -0.2360 H     1 <1>   0.1500 
@<TRIPOS>BOND
  1   1   2  2   
  2   2   3  am  
  3   2   4  1   
  4   3   5  1   
  5   3   6  1   
  6   4   7  1   
  7   4  24  1   
  8   4  25  1   
  9   5   8  1   
 10   5  26  1   
 11   5  27  1   
 12   6   9  1   
 13   6  28  1   
 14   6  29  1   
 15   7  10  am  
 16   7  30  1   
 17   8  11  1   
 18   8  12  1   
 19   8  31  1   
 20   9  11  1   
 21   9  13  1   
 22   9  32  1   
 23  10  14  2   
 24  10  15  1   
 25  12  16  ar  
 26  12  17  ar  
 27  13  18  1   
 28  13  19  1   
 29  13  33  1   
 30  15  20  1   
 31  15  34  1   
 32  15  35  1   
 33  16  21  ar  
 34  16  36  1   
 35  17  22  ar  
 36  17  37  1   
 37  18  19  1   
 38  18  38  1   
 39  18  39  1   
 40  19  40  1   
 41  19  41  1   
 42  20  42  1   
 43  20  43  1   
 44  20  44  1   
 45  21  23  ar  
 46  21  45  1   
 47  22  23  ar  
 48  22  46  1   
 49  23  47  1   
@<TRIPOS>SUBSTRUCTURE
  1 ****   3 GROUP 4 **** **** 0

# MOE 2024.06 (io_trps.svl 2023.06)
