@<TRIPOS>MOLECULE
NONAME
48 50 1 0 0 
SMALL
USER_CHARGES


@<TRIPOS>ATOM
  1 O        0.6130     0.4410    -1.1060 O.2   1 <1>  -0.5700 
  2 C        1.7450     0.1110    -0.7620 C.2   1 <1>   0.6900 
  3 N        2.7220     0.9480    -0.3700 N.am  1 <1>  -0.4200 
  4 N        2.2570    -1.1460    -0.6900 N.am  1 <1>  -0.2980 
  5 C        3.7890     0.1380    -0.0570 C.2   1 <1>   0.4490 
  6 C        2.6070     2.3890    -0.0730 C.3   1 <1>   0.1400 
  7 N        3.5550    -1.1050    -0.2370 N.2   1 <1>  -0.5120 
  8 C        1.5750    -2.4140    -1.0090 C.3   1 <1>   0.0600 
  9 C        5.0920     0.7450     0.4300 C.3   1 <1>  -0.0990 
 10 C        4.0050     3.0170     0.0570 C.3   1 <1>  -0.0190 
 11 C        4.9050     2.1700     0.9850 C.3   1 <1>  -0.1600 
 12 C        3.8790     4.4490     0.5600 C.2   1 <1>   0.5690 
 13 O        3.2310     4.6490     1.5590 O.2   1 <1>  -0.5700 
 14 N        4.5120     5.4320    -0.1390 N.am  1 <1>  -0.4930 
 15 C        4.5540     6.8270     0.1090 C.2   1 <1>   0.0630 
 16 C        3.5330     7.7010     0.4980 C.2   1 <1>   0.1080 
 17 C        5.6460     7.6110    -0.0240 C.2   1 <1>  -0.3320 
 18 N        3.9500     8.9230     0.5990 N.2   1 <1>  -0.7070 
 19 C        2.0890     7.3420     0.7690 C.3   1 <1>  -0.0590 
 20 N        5.2540     8.8750     0.2830 N.pl3 1 <1>   0.3140 
 21 C        7.0660     7.2320    -0.4210 C.3   1 <1>  -0.0600 
 22 C        6.0810    10.1000     0.3000 C.3   1 <1>   0.0960 
 23 C        6.1060    10.7680    -1.0820 C.3   1 <1>  -0.1600 
 24 C        6.9700    12.0340    -1.0760 C.3   1 <1>  -0.2400 
 25 H        2.0630     2.4990     0.8500 H     1 <1>   0.0800 
 26 H        2.0460     2.8720    -0.8550 H     1 <1>   0.0800 
 27 H        0.5720    -2.2150    -1.3410 H     1 <1>   0.0800 
 28 H        1.5460    -3.0320    -0.1300 H     1 <1>   0.0800 
 29 H        2.1170    -2.9220    -1.7860 H     1 <1>   0.0800 
 30 H        5.7710     0.7710    -0.4030 H     1 <1>   0.0800 
 31 H        5.5190     0.1070     1.1840 H     1 <1>   0.0800 
 32 H        4.4460     3.0410    -0.9230 H     1 <1>   0.0800 
 33 H        5.8660     2.6410     1.1030 H     1 <1>   0.0800 
 34 H        4.4470     2.1130     1.9600 H     1 <1>   0.0800 
 35 H        5.1070     5.1440    -0.9110 H     1 <1>   0.3700 
 36 H        1.7730     6.5480     0.1200 H     1 <1>   0.0800 
 37 H        1.4630     8.1990     0.6020 H     1 <1>   0.0800 
 38 H        1.9850     7.0280     1.7910 H     1 <1>   0.0800 
 39 H        7.1460     6.1740    -0.5920 H     1 <1>   0.0800 
 40 H        7.7510     7.4970     0.3650 H     1 <1>   0.0800 
 41 H        7.3510     7.7460    -1.3210 H     1 <1>   0.0800 
 42 H        7.0740     9.8440     0.6150 H     1 <1>   0.0800 
 43 H        5.6580    10.7730     1.0240 H     1 <1>   0.0800 
 44 H        5.0980    11.0280    -1.3630 H     1 <1>   0.0800 
 45 H        6.4930    10.0780    -1.8110 H     1 <1>   0.0800 
 46 H        6.5860    12.7490    -0.3700 H     1 <1>   0.0800 
 47 H        6.9660    12.4860    -2.0530 H     1 <1>   0.0800 
 48 H        7.9870    11.7980    -0.8140 H     1 <1>   0.0800 
@<TRIPOS>BOND
  1   1   2  2   
  2   2   3  am  
  3   2   4  am  
  4   3   5  1   
  5   3   6  1   
  6   4   7  1   
  7   4   8  1   
  8   5   7  2   
  9   5   9  1   
 10   6  10  1   
 11   6  25  1   
 12   6  26  1   
 13   8  27  1   
 14   8  28  1   
 15   8  29  1   
 16   9  11  1   
 17   9  30  1   
 18   9  31  1   
 19  10  11  1   
 20  10  12  1   
 21  10  32  1   
 22  11  33  1   
 23  11  34  1   
 24  12  13  2   
 25  12  14  am  
 26  14  15  1   
 27  14  35  1   
 28  15  16  1   
 29  15  17  2   
 30  16  18  2   
 31  16  19  1   
 32  17  20  1   
 33  17  21  1   
 34  18  20  1   
 35  19  36  1   
 36  19  37  1   
 37  19  38  1   
 38  20  22  1   
 39  21  39  1   
 40  21  40  1   
 41  21  41  1   
 42  22  23  1   
 43  22  42  1   
 44  22  43  1   
 45  23  24  1   
 46  23  44  1   
 47  23  45  1   
 48  24  46  1   
 49  24  47  1   
 50  24  48  1   
@<TRIPOS>SUBSTRUCTURE
  1 ****  12 GROUP 4 **** **** 0

# MOE 2024.06 (io_trps.svl 2023.06)
