@<TRIPOS>MOLECULE
NONAME
47 48 1 0 0 
SMALL
USER_CHARGES


@<TRIPOS>ATOM
  1 F       -0.2830     0.8110    -0.0310 F     1 <1>  -0.3400 
  2 C       -0.2420     2.0300     0.4860 C.3   1 <1>   0.8800 
  3 F       -1.4990     2.3480     0.7680 F     1 <1>  -0.3400 
  4 O        0.2350     2.9080    -0.5060 O.3   1 <1>  -0.3630 
  5 C        0.5970     4.1790    -0.2170 C.ar  1 <1>   0.0830 
  6 C        0.4600     4.7680     1.0380 C.ar  1 <1>  -0.1500 
  7 C        1.1340     4.9250    -1.2540 C.ar  1 <1>  -0.1500 
  8 C        0.8670     6.0750     1.2350 C.ar  1 <1>  -0.1500 
  9 C        1.5330     6.2320    -1.0470 C.ar  1 <1>  -0.1500 
 10 C        1.4190     6.8390     0.2050 C.ar  1 <1>   0.0860 
 11 C        1.8280     8.2130     0.4360 C.2   1 <1>   0.5440 
 12 O        1.1030     8.9410     1.0890 O.2   1 <1>  -0.5700 
 13 N        3.0130     8.7300    -0.0530 N.am  1 <1>  -0.6600 
 14 C        4.2110     7.8840    -0.3590 C.3   1 <1>   0.1400 
 15 C        3.1910    10.2050    -0.1840 C.3   1 <1>   0.1400 
 16 C        5.4300     8.2480     0.4990 C.3   1 <1>   0.1400 
 17 C        3.9770    10.7590     1.0100 C.3   1 <1>  -0.1600 
 18 N        6.0070     9.5630     0.0880 N.am  1 <1>  -0.6600 
 19 C        5.5000    10.7640     0.8130 C.3   1 <1>   0.1400 
 20 C        6.9920     9.6070    -0.8730 C.2   1 <1>   0.5690 
 21 O        7.2900     8.6150    -1.5010 O.2   1 <1>  -0.5700 
 22 C        7.7310    10.9000    -1.2420 C.3   1 <1>   0.1810 
 23 O        8.2260    11.5910    -0.1200 O.3   1 <1>  -0.5600 
 24 C        9.0000    12.6980    -0.4340 C.3   1 <1>   0.1200 
 25 C        9.4080    13.3560     0.8780 C.3   1 <1>  -0.2400 
 26 H        0.3570     2.0310     1.3790 H     1 <1>   0.0800 
 27 H        0.0320     4.2400     1.8690 H     1 <1>   0.1500 
 28 H        1.2310     4.4760    -2.2270 H     1 <1>   0.1500 
 29 H        0.7500     6.5320     2.2040 H     1 <1>   0.1500 
 30 H        1.9350     6.8020    -1.8670 H     1 <1>   0.1500 
 31 H        4.4660     7.9800    -1.4000 H     1 <1>   0.0800 
 32 H        3.9830     6.8500    -0.1730 H     1 <1>   0.0800 
 33 H        2.2220    10.6750    -0.2120 H     1 <1>   0.0800 
 34 H        3.6900    10.4340    -1.1100 H     1 <1>   0.0800 
 35 H        6.1790     7.4850     0.3740 H     1 <1>   0.0800 
 36 H        5.1600     8.2650     1.5400 H     1 <1>   0.0800 
 37 H        3.7160    10.2130     1.9000 H     1 <1>   0.0800 
 38 H        3.6710    11.7750     1.1760 H     1 <1>   0.0800 
 39 H        5.9910    10.8310     1.7690 H     1 <1>   0.0800 
 40 H        5.7530    11.6490     0.2570 H     1 <1>   0.0800 
 41 H        7.0620    11.5490    -1.7750 H     1 <1>   0.0800 
 42 H        8.5620    10.6490    -1.8760 H     1 <1>   0.0800 
 43 H        8.4170    13.3770    -1.0340 H     1 <1>   0.0800 
 44 H        9.8690    12.3720    -0.9810 H     1 <1>   0.0800 
 45 H        8.5350    13.6660     1.4240 H     1 <1>   0.0800 
 46 H       10.0160    14.2200     0.6800 H     1 <1>   0.0800 
 47 H        9.9770    12.6650     1.4750 H     1 <1>   0.0800 
@<TRIPOS>BOND
  1   1   2  1   
  2   2   3  1   
  3   2   4  1   
  4   2  26  1   
  5   4   5  1   
  6   5   6  ar  
  7   5   7  ar  
  8   6   8  ar  
  9   6  27  1   
 10   7   9  ar  
 11   7  28  1   
 12   8  10  ar  
 13   8  29  1   
 14   9  10  ar  
 15   9  30  1   
 16  10  11  1   
 17  11  12  2   
 18  11  13  am  
 19  13  14  1   
 20  13  15  1   
 21  14  16  1   
 22  14  31  1   
 23  14  32  1   
 24  15  17  1   
 25  15  33  1   
 26  15  34  1   
 27  16  18  1   
 28  16  35  1   
 29  16  36  1   
 30  17  19  1   
 31  17  37  1   
 32  17  38  1   
 33  18  19  1   
 34  18  20  am  
 35  19  39  1   
 36  19  40  1   
 37  20  21  2   
 38  20  22  1   
 39  22  23  1   
 40  22  41  1   
 41  22  42  1   
 42  23  24  1   
 43  24  25  1   
 44  24  43  1   
 45  24  44  1   
 46  25  45  1   
 47  25  46  1   
 48  25  47  1   
@<TRIPOS>SUBSTRUCTURE
  1 ****  14 GROUP 4 **** **** 0

# MOE 2024.06 (io_trps.svl 2023.06)
