@<TRIPOS>MOLECULE
NONAME
53 56 1 0 0 
SMALL
USER_CHARGES


@<TRIPOS>ATOM
  1 O        4.3140     3.3790    -0.9030 O.2   1 <1>  -0.5700 
  2 C        3.4500     2.6250    -0.4580 C.2   1 <1>   0.5440 
  3 N        2.4780     3.2340     0.3090 N.am  1 <1>  -0.6600 
  4 C        3.4650     1.2190    -0.7900 C.ar  1 <1>   0.0860 
  5 C        1.0410     2.8290     0.1770 C.3   1 <1>   0.2200 
  6 C        2.9190     3.5460     1.6980 C.3   1 <1>   0.1400 
  7 C        3.0940     0.1750     0.1080 C.ar  1 <1>  -0.1710 
  8 C        3.8650     0.8570    -2.0840 C.ar  1 <1>  -0.1500 
  9 C        0.0700     3.8470     0.8450 C.3   1 <1>   0.1380 
 10 C        0.5980     2.5280    -1.2640 C.3   1 <1>  -0.1600 
 11 C        1.7880     3.4300     2.7300 C.3   1 <1>  -0.1600 
 12 O        2.8410     0.4610     1.3120 O.3   1 <1>  -0.8290 
 13 C        3.0570    -1.1710    -0.3790 C.ar  1 <1>   0.0820 
 14 C        3.8630    -0.4430    -2.5250 C.ar  1 <1>  -0.1500 
 15 C       -0.1060     5.1950     0.0750 C.2   1 <1>  -0.2760 
 16 C       -1.2620     3.0490     0.9170 C.3   1 <1>   0.1200 
 17 C        0.5300     4.1970     2.2900 C.3   1 <1>  -0.1600 
 18 C       -0.9230     2.6630    -1.4440 C.3   1 <1>   0.1200 
 19 O        2.6510    -2.2680     0.3400 O.3   1 <1>  -0.3630 
 20 C        3.4460    -1.4520    -1.6630 C.ar  1 <1>  -0.1500 
 21 C       -1.2710     5.7980    -0.2120 C.2   1 <1>  -0.2880 
 22 C        1.1810     5.8840    -0.3860 C.3   1 <1>  -0.0220 
 23 O       -1.6090     2.3510    -0.2630 O.3   1 <1>  -0.5600 
 24 C        1.8920    -2.0960     1.5140 C.3   1 <1>   0.0400 
 25 C       -1.3940     7.1020    -0.9890 C.3   1 <1>   0.2580 
 26 C        0.9330     7.3380    -0.8060 C.3   1 <1>   0.1200 
 27 O       -0.1930     7.4160    -1.6270 O.3   1 <1>  -0.5600 
 28 H        0.9390     1.8990     0.7110 H     1 <1>   0.0800 
 29 H        3.7080     2.8640     1.9740 H     1 <1>   0.0800 
 30 H        3.3250     4.5410     1.7070 H     1 <1>   0.0800 
 31 H        4.1800     1.6400    -2.7490 H     1 <1>   0.1500 
 32 H        0.8780     1.5200    -1.5070 H     1 <1>   0.0800 
 33 H        1.0860     3.1880    -1.9560 H     1 <1>   0.0800 
 34 H        1.5610     2.3850     2.8630 H     1 <1>   0.0800 
 35 H        2.1350     3.8030     3.6760 H     1 <1>   0.0800 
 36 H        4.1740    -0.6890    -3.5230 H     1 <1>   0.1500 
 37 H       -2.0870     3.6760     1.1950 H     1 <1>   0.0800 
 38 H       -1.1680     2.2950     1.6790 H     1 <1>   0.0800 
 39 H        0.7480     5.2470     2.3550 H     1 <1>   0.0800 
 40 H       -0.2590     4.0080     2.9950 H     1 <1>   0.0800 
 41 H       -1.2670     1.9910    -2.2100 H     1 <1>   0.0800 
 42 H       -1.1890     3.6630    -1.7330 H     1 <1>   0.0800 
 43 H        3.4270    -2.4690    -2.0060 H     1 <1>   0.1500 
 44 H       -2.2360     5.4230     0.0690 H     1 <1>   0.1500 
 45 H        1.6080     5.3520    -1.2160 H     1 <1>   0.0800 
 46 H        1.9110     5.8920     0.4000 H     1 <1>   0.0800 
 47 H        1.4810    -3.0460     1.7960 H     1 <1>   0.0800 
 48 H        1.1080    -1.3860     1.3180 H     1 <1>   0.0800 
 49 H        2.5420    -1.7250     2.2860 H     1 <1>   0.0800 
 50 H       -1.6570     7.9140    -0.3340 H     1 <1>   0.0800 
 51 H       -2.1440     7.0090    -1.7550 H     1 <1>   0.0800 
 52 H        1.7760     7.7160    -1.3580 H     1 <1>   0.0800 
 53 H        0.7690     7.9610     0.0560 H     1 <1>   0.0800 
@<TRIPOS>BOND
  1   1   2  2   
  2   2   3  am  
  3   2   4  1   
  4   3   5  1   
  5   3   6  1   
  6   4   7  ar  
  7   4   8  ar  
  8   5   9  1   
  9   5  10  1   
 10   5  28  1   
 11   6  11  1   
 12   6  29  1   
 13   6  30  1   
 14   7  12  1   
 15   7  13  ar  
 16   8  14  ar  
 17   8  31  1   
 18   9  15  1   
 19   9  16  1   
 20   9  17  1   
 21  10  18  1   
 22  10  32  1   
 23  10  33  1   
 24  11  17  1   
 25  11  34  1   
 26  11  35  1   
 27  13  19  1   
 28  13  20  ar  
 29  14  20  ar  
 30  14  36  1   
 31  15  21  2   
 32  15  22  1   
 33  16  23  1   
 34  16  37  1   
 35  16  38  1   
 36  17  39  1   
 37  17  40  1   
 38  18  23  1   
 39  18  41  1   
 40  18  42  1   
 41  19  24  1   
 42  20  43  1   
 43  21  25  1   
 44  21  44  1   
 45  22  26  1   
 46  22  45  1   
 47  22  46  1   
 48  24  47  1   
 49  24  48  1   
 50  24  49  1   
 51  25  27  1   
 52  25  50  1   
 53  25  51  1   
 54  26  27  1   
 55  26  52  1   
 56  26  53  1   
@<TRIPOS>SUBSTRUCTURE
  1 ****   5 GROUP 4 **** **** 0

# MOE 2024.06 (io_trps.svl 2023.06)
