@<TRIPOS>MOLECULE
NONAME
50 52 1 0 0 
SMALL
USER_CHARGES


@<TRIPOS>ATOM
  1 O        0.1580     0.8340    -1.2210 O.2   1 <1>  -0.5700 
  2 C        0.0350     1.9880    -0.8860 C.2   1 <1>   0.5690 
  3 N       -1.0970     2.4640    -0.2830 N.am  1 <1>  -0.6600 
  4 C        1.1910     2.9430    -1.1850 C.3   1 <1>   0.1810 
  5 C       -1.2230     3.8990     0.1370 C.3   1 <1>   0.3640 
  6 C       -2.2300     1.5680     0.0930 C.3   1 <1>   0.0600 
  7 O        1.1890     4.1010    -0.3800 O.3   1 <1>  -0.5600 
  8 C       -2.5610     4.4560    -0.3790 C.ar  1 <1>  -0.1430 
  9 C       -0.0510     4.7900    -0.3670 C.3   1 <1>   0.2610 
 10 C       -3.5500     4.9600     0.4670 C.ar  1 <1>  -0.1430 
 11 C       -2.7940     4.4450    -1.7510 C.ar  1 <1>  -0.1500 
 12 C        0.0910     6.0830     0.4520 C.2   1 <1>   0.5690 
 13 C       -4.7210     5.4680    -0.0760 C.ar  1 <1>  -0.1500 
 14 C       -3.4160     4.9740     1.9860 C.3   1 <1>  -0.0960 
 15 C       -3.9660     4.9490    -2.2820 C.ar  1 <1>  -0.1500 
 16 O       -0.3170     6.1170     1.5910 O.2   1 <1>  -0.5700 
 17 N        0.7440     7.1830    -0.0630 N.am  1 <1>  -0.6600 
 18 C       -4.9300     5.4670    -1.4420 C.ar  1 <1>  -0.1500 
 19 C        0.8360     8.4350     0.7450 C.3   1 <1>   0.1400 
 20 C        1.8410     7.0770    -1.0690 C.3   1 <1>   0.1400 
 21 C        2.1770     8.4520     1.5010 C.3   1 <1>   0.3430 
 22 C        3.2000     7.0880    -0.3370 C.3   1 <1>   0.3430 
 23 N        3.3570     8.2910     0.5680 N.4   1 <1>  -0.9590 
 24 C        4.6300     8.2040     1.3460 C.3   1 <1>   0.2630 
 25 H        1.1450     3.2410    -2.2160 H     1 <1>   0.0800 
 26 H        2.1200     2.4290    -1.0150 H     1 <1>   0.0800 
 27 H       -1.2070     3.9060     1.2100 H     1 <1>   0.0800 
 28 H       -2.4700     1.6970     1.1330 H     1 <1>   0.0800 
 29 H       -1.9730     0.5360    -0.0740 H     1 <1>   0.0800 
 30 H       -3.0970     1.8040    -0.5010 H     1 <1>   0.0800 
 31 H       -0.2570     5.0790    -1.3800 H     1 <1>   0.0800 
 32 H       -2.0640     4.0300    -2.4230 H     1 <1>   0.1500 
 33 H       -5.4870     5.8690     0.5640 H     1 <1>   0.1500 
 34 H       -4.3580     5.2000     2.4510 H     1 <1>   0.0800 
 35 H       -2.7090     5.7210     2.2930 H     1 <1>   0.0800 
 36 H       -3.1000     4.0130     2.3490 H     1 <1>   0.0800 
 37 H       -4.1300     4.9360    -3.3460 H     1 <1>   0.1500 
 38 H       -5.8440     5.8650    -1.8480 H     1 <1>   0.1500 
 39 H        0.7590     9.2920     0.0980 H     1 <1>   0.0800 
 40 H        0.0230     8.4900     1.4500 H     1 <1>   0.0800 
 41 H        1.7550     6.1750    -1.6480 H     1 <1>   0.0800 
 42 H        1.7830     7.9050    -1.7530 H     1 <1>   0.0800 
 43 H        2.1650     7.6440     2.2150 H     1 <1>   0.0800 
 44 H        2.2630     9.3760     2.0490 H     1 <1>   0.0800 
 45 H        3.9940     7.0700    -1.0640 H     1 <1>   0.0800 
 46 H        3.2690     6.1850     0.2490 H     1 <1>   0.0800 
 47 H        3.3930     9.1290    -0.0300 H     1 <1>   0.4500 
 48 H        4.6200     7.3350     1.9840 H     1 <1>   0.0800 
 49 H        4.7550     9.0810     1.9610 H     1 <1>   0.0800 
 50 H        5.4740     8.1320     0.6790 H     1 <1>   0.0800 
@<TRIPOS>BOND
  1   1   2  2   
  2   2   3  am  
  3   2   4  1   
  4   3   5  1   
  5   3   6  1   
  6   4   7  1   
  7   4  25  1   
  8   4  26  1   
  9   5   8  1   
 10   5   9  1   
 11   5  27  1   
 12   6  28  1   
 13   6  29  1   
 14   6  30  1   
 15   7   9  1   
 16   8  10  ar  
 17   8  11  ar  
 18   9  12  1   
 19   9  31  1   
 20  10  13  ar  
 21  10  14  1   
 22  11  15  ar  
 23  11  32  1   
 24  12  16  2   
 25  12  17  am  
 26  13  18  ar  
 27  13  33  1   
 28  14  34  1   
 29  14  35  1   
 30  14  36  1   
 31  15  18  ar  
 32  15  37  1   
 33  17  19  1   
 34  17  20  1   
 35  18  38  1   
 36  19  21  1   
 37  19  39  1   
 38  19  40  1   
 39  20  22  1   
 40  20  41  1   
 41  20  42  1   
 42  21  23  1   
 43  21  43  1   
 44  21  44  1   
 45  22  23  1   
 46  22  45  1   
 47  22  46  1   
 48  23  24  1   
 49  23  47  1   
 50  24  48  1   
 51  24  49  1   
 52  24  50  1   
@<TRIPOS>SUBSTRUCTURE
  1 ****   9 GROUP 4 **** **** 0

# MOE 2024.06 (io_trps.svl 2023.06)
