@<TRIPOS>MOLECULE
NONAME
19 21 1 0 0 
SMALL
USER_CHARGES


@<TRIPOS>ATOM
  1 O        0.2130     0.4510     1.1520 O.co2 1 <1>  -0.9000 
  2 C       -0.4150     1.5340     1.2020 C.2   1 <1>   1.0330 
  3 O       -1.5840     1.4890     1.6420 O.co2 1 <1>  -0.9000 
  4 C        0.2330     2.7840     0.7510 C.2   1 <1>   0.0560 
  5 N       -0.2410     4.0340     0.7000 N.2   1 <1>  -0.7070 
  6 C        1.5520     2.8000     0.2770 C.2   1 <1>  -0.1810 
  7 N        0.7580     4.7930     0.2090 N.pl3 1 <1>   0.3000 
  8 C        1.8440     4.0520    -0.0530 C.2   1 <1>  -0.2370 
  9 C        2.6980     1.8450     0.0420 C.3   1 <1>   0.1160 
 10 C        3.2420     4.2010    -0.5720 C.3   1 <1>  -0.0150 
 11 C        3.7930     2.7990    -0.5070 C.3   1 <1>  -0.1950 
 12 C        4.4270     3.9030     0.2870 C.3   1 <1>  -0.2000 
 13 H        0.6660     5.8030     0.0710 H     1 <1>   0.2700 
 14 H        2.9950     1.3680     0.9580 H     1 <1>   0.0800 
 15 H        2.4090     1.1050    -0.6830 H     1 <1>   0.0800 
 16 H        3.3360     4.7140    -1.5140 H     1 <1>   0.1000 
 17 H        4.3270     2.4110    -1.3560 H     1 <1>   0.1000 
 18 H        5.3870     4.2810    -0.0180 H     1 <1>   0.1000 
 19 H        4.2980     3.9160     1.3550 H     1 <1>   0.1000 
@<TRIPOS>BOND
  1   1   2  ar  
  2   2   3  ar  
  3   2   4  1   
  4   4   5  2   
  5   4   6  1   
  6   5   7  1   
  7   6   8  2   
  8   6   9  1   
  9   7   8  1   
 10   7  13  1   
 11   8  10  1   
 12   9  11  1   
 13   9  14  1   
 14   9  15  1   
 15  10  11  1   
 16  10  12  1   
 17  10  16  1   
 18  11  12  1   
 19  11  17  1   
 20  12  18  1   
 21  12  19  1   
@<TRIPOS>SUBSTRUCTURE
  1 ****   6 GROUP 4 **** **** 0

# MOE 2024.06 (io_trps.svl 2023.06)
