@<TRIPOS>MOLECULE
NONAME
54 55 1 0 0 
SMALL
USER_CHARGES


@<TRIPOS>ATOM
  1 O       -1.7130     0.1580    -1.4820 O.2   1 <1>  -0.5700 
  2 C       -2.5840     0.7170    -0.8540 C.2   1 <1>   0.5690 
  3 N       -3.7830     0.0930    -0.6050 N.am  1 <1>  -0.6600 
  4 C       -2.2990     2.1390    -0.3440 C.3   1 <1>  -0.0190 
  5 C       -4.0550    -1.2620    -1.1640 C.3   1 <1>   0.3200 
  6 C       -4.9310     0.7040     0.1330 C.3   1 <1>   0.1400 
  7 C       -2.6690     3.1840    -1.4090 C.3   1 <1>  -0.1600 
  8 C       -0.8300     2.3330     0.0790 C.3   1 <1>  -0.1600 
  9 C       -4.1140    -2.2770    -0.0400 C.2   1 <1>  -0.3320 
 10 C       -4.8220     0.4510     1.6420 C.3   1 <1>   0.1200 
 11 C       -2.4130     4.6150    -0.9140 C.3   1 <1>  -0.1600 
 12 C       -0.5720     3.7600     0.5850 C.3   1 <1>  -0.1600 
 13 N       -3.0510    -2.6840     0.6830 N.pl3 1 <1>   0.0480 
 14 C       -5.1840    -2.9510     0.4380 C.2   1 <1>   0.0770 
 15 O       -5.7260     1.2670     2.3080 O.3   1 <1>  -0.6800 
 16 C       -0.9440     4.8270    -0.4730 C.3   1 <1>  -0.0800 
 17 C       -3.5580    -3.5780     1.5610 C.2   1 <1>   0.0360 
 18 C       -1.6410    -2.2730     0.5500 C.3   1 <1>   0.0160 
 19 N       -4.8330    -3.7650     1.4480 N.2   1 <1>  -0.5650 
 20 C       -0.6180     6.2960    -0.0350 C.3   1 <1>   0.0000 
 21 C       -0.9220     7.2840    -1.1780 C.3   1 <1>  -0.2400 
 22 C        0.8810     6.4460     0.2910 C.3   1 <1>  -0.2400 
 23 C       -1.4180     6.7440     1.2020 C.3   1 <1>  -0.2400 
 24 H       -2.8920     2.3220     0.5300 H     1 <1>   0.0800 
 25 H       -3.2980    -1.5520    -1.8730 H     1 <1>   0.0800 
 26 H       -4.9940    -1.2450    -1.6890 H     1 <1>   0.0800 
 27 H       -5.8560     0.2850    -0.2230 H     1 <1>   0.0800 
 28 H       -4.9580     1.7620    -0.0580 H     1 <1>   0.0800 
 29 H       -3.7060     3.0800    -1.6760 H     1 <1>   0.0800 
 30 H       -2.0850     3.0050    -2.2960 H     1 <1>   0.0800 
 31 H       -0.1840     2.1360    -0.7600 H     1 <1>   0.0800 
 32 H       -0.5840     1.6270     0.8530 H     1 <1>   0.0800 
 33 H       -3.8350     0.6730     2.0090 H     1 <1>   0.0800 
 34 H       -5.0690    -0.5710     1.8740 H     1 <1>   0.0800 
 35 H       -3.0750     4.8210    -0.0930 H     1 <1>   0.0800 
 36 H       -2.6630     5.2840    -1.7160 H     1 <1>   0.0800 
 37 H        0.4700     3.8290     0.8370 H     1 <1>   0.0800 
 38 H       -1.1410     3.9180     1.4830 H     1 <1>   0.0800 
 39 H       -6.2080    -2.8910     0.1070 H     1 <1>   0.1500 
 40 H       -5.4240     2.1960     2.3220 H     1 <1>   0.4000 
 41 H       -0.3330     4.6250    -1.3380 H     1 <1>   0.0800 
 42 H       -2.9390    -4.0810     2.2820 H     1 <1>   0.1500 
 43 H       -1.3560    -2.3000    -0.4860 H     1 <1>   0.0800 
 44 H       -1.0130    -2.9400     1.1100 H     1 <1>   0.0800 
 45 H       -1.5270    -1.2720     0.9240 H     1 <1>   0.0800 
 46 H       -0.4320     6.9750    -2.0840 H     1 <1>   0.0800 
 47 H       -0.5750     8.2710    -0.9300 H     1 <1>   0.0800 
 48 H       -1.9780     7.3550    -1.3640 H     1 <1>   0.0800 
 49 H        1.4820     6.0850    -0.5250 H     1 <1>   0.0800 
 50 H        1.1450     5.9040     1.1800 H     1 <1>   0.0800 
 51 H        1.1320     7.4780     0.4610 H     1 <1>   0.0800 
 52 H       -2.4740     6.7140     1.0130 H     1 <1>   0.0800 
 53 H       -1.1610     7.7540     1.4650 H     1 <1>   0.0800 
 54 H       -1.2020     6.1200     2.0500 H     1 <1>   0.0800 
@<TRIPOS>BOND
  1   1   2  2   
  2   2   3  am  
  3   2   4  1   
  4   3   5  1   
  5   3   6  1   
  6   4   7  1   
  7   4   8  1   
  8   4  24  1   
  9   5   9  1   
 10   5  25  1   
 11   5  26  1   
 12   6  10  1   
 13   6  27  1   
 14   6  28  1   
 15   7  11  1   
 16   7  29  1   
 17   7  30  1   
 18   8  12  1   
 19   8  31  1   
 20   8  32  1   
 21   9  13  1   
 22   9  14  2   
 23  10  15  1   
 24  10  33  1   
 25  10  34  1   
 26  11  16  1   
 27  11  35  1   
 28  11  36  1   
 29  12  16  1   
 30  12  37  1   
 31  12  38  1   
 32  13  17  1   
 33  13  18  1   
 34  14  19  1   
 35  14  39  1   
 36  15  40  1   
 37  16  20  1   
 38  16  41  1   
 39  17  19  2   
 40  17  42  1   
 41  18  43  1   
 42  18  44  1   
 43  18  45  1   
 44  20  21  1   
 45  20  22  1   
 46  20  23  1   
 47  21  46  1   
 48  21  47  1   
 49  21  48  1   
 50  22  49  1   
 51  22  50  1   
 52  22  51  1   
 53  23  52  1   
 54  23  53  1   
 55  23  54  1   
@<TRIPOS>SUBSTRUCTURE
  1 ****   4 GROUP 4 **** **** 0

# MOE 2024.06 (io_trps.svl 2023.06)
