@<TRIPOS>MOLECULE
NONAME
40 42 1 0 0 
SMALL
USER_CHARGES


@<TRIPOS>ATOM
  1 F        0.0740     0.7020     0.1220 F     1 <1>  -0.1900 
  2 C       -1.0920     1.2210    -0.2050 C.ar  1 <1>   0.1900 
  3 C       -1.3150     2.5920    -0.0730 C.ar  1 <1>   0.4100 
  4 C       -2.0920     0.4120    -0.6880 C.ar  1 <1>   0.1660 
  5 N       -2.4840     3.0980    -0.4310 N.ar  1 <1>  -0.6200 
  6 N       -0.3740     3.4850     0.4220 N.pl3 1 <1>  -0.8380 
  7 N       -3.2620     0.9270    -1.0330 N.ar  1 <1>  -0.6200 
  8 C       -1.9270    -1.0930    -0.8560 C.3   1 <1>  -0.0170 
  9 C       -3.3810     2.2360    -0.8820 C.ar  1 <1>   0.4700 
 10 C       -0.4190     4.9340     0.0390 C.3   1 <1>   0.3890 
 11 C        0.2990     3.2180     1.7270 C.3   1 <1>   0.1290 
 12 C       -2.5280    -1.8570     0.3300 C.3   1 <1>  -0.2400 
 13 C        0.9880     5.4520    -0.2110 C.2   1 <1>   0.0060 
 14 N        1.8820     4.7050    -0.9020 N.pl3 1 <1>   0.0330 
 15 N        1.4550     6.5850     0.1910 N.2   1 <1>  -0.5650 
 16 C        3.0270     5.4300    -0.9420 C.ar  1 <1>  -0.1520 
 17 C        2.7450     6.5990    -0.2590 C.ar  1 <1>   0.2270 
 18 C        4.2860     5.1950    -1.4970 C.ar  1 <1>  -0.1500 
 19 C        3.7320     7.5800    -0.1150 C.ar  1 <1>  -0.1430 
 20 C        5.2530     6.1630    -1.3520 C.ar  1 <1>  -0.1500 
 21 C        4.9770     7.3520    -0.6640 C.ar  1 <1>  -0.1500 
 22 C        3.4120     8.8620     0.6360 C.3   1 <1>  -0.0970 
 23 H       -0.8860    -1.3470    -0.9530 H     1 <1>   0.0800 
 24 H       -2.4190    -1.3980    -1.7630 H     1 <1>   0.0800 
 25 H       -4.3330     2.6550    -1.1640 H     1 <1>   0.1500 
 26 H       -0.8840     5.5050     0.8230 H     1 <1>   0.0800 
 27 H       -0.9940     5.0680    -0.8610 H     1 <1>   0.0800 
 28 H       -0.0790     2.3130     2.1720 H     1 <1>   0.0800 
 29 H        0.1220     4.0310     2.4100 H     1 <1>   0.0800 
 30 H        1.3600     3.1160     1.5770 H     1 <1>   0.0800 
 31 H       -2.0360    -1.5750     1.2430 H     1 <1>   0.0800 
 32 H       -2.4120    -2.9170     0.1860 H     1 <1>   0.0800 
 33 H       -3.5770    -1.6340     0.4180 H     1 <1>   0.0800 
 34 H        1.7170     3.7590    -1.2530 H     1 <1>   0.2700 
 35 H        4.4860     4.2790    -2.0240 H     1 <1>   0.1500 
 36 H        6.2350     6.0160    -1.7680 H     1 <1>   0.1500 
 37 H        5.7570     8.0870    -0.5700 H     1 <1>   0.1500 
 38 H        2.5980     9.3700     0.1510 H     1 <1>   0.0800 
 39 H        4.2640     9.5170     0.6660 H     1 <1>   0.0800 
 40 H        3.1180     8.6260     1.6430 H     1 <1>   0.0800 
@<TRIPOS>BOND
  1   1   2  1   
  2   2   3  ar  
  3   2   4  ar  
  4   3   5  ar  
  5   3   6  1   
  6   4   7  ar  
  7   4   8  1   
  8   5   9  ar  
  9   6  10  1   
 10   6  11  1   
 11   7   9  ar  
 12   8  12  1   
 13   8  23  1   
 14   8  24  1   
 15   9  25  1   
 16  10  13  1   
 17  10  26  1   
 18  10  27  1   
 19  11  28  1   
 20  11  29  1   
 21  11  30  1   
 22  12  31  1   
 23  12  32  1   
 24  12  33  1   
 25  13  14  1   
 26  13  15  2   
 27  14  16  1   
 28  14  34  1   
 29  15  17  1   
 30  16  17  ar  
 31  16  18  ar  
 32  17  19  ar  
 33  18  20  ar  
 34  18  35  1   
 35  19  21  ar  
 36  19  22  1   
 37  20  21  ar  
 38  20  36  1   
 39  21  37  1   
 40  22  38  1   
 41  22  39  1   
 42  22  40  1   
@<TRIPOS>SUBSTRUCTURE
  1 ****   6 GROUP 4 **** **** 0

# MOE 2024.06 (io_trps.svl 2023.06)
