@<TRIPOS>MOLECULE
NONAME
46 48 1 0 0 
SMALL
USER_CHARGES


@<TRIPOS>ATOM
  1 O       -0.4480     0.2010    -0.0560 O.2   1 <1>  -0.5700 
  2 C       -1.5250     0.7460    -0.0980 C.2   1 <1>   0.5690 
  3 N       -2.6810     0.0310    -0.2340 N.am  1 <1>  -0.6600 
  4 C       -1.5960     2.2630     0.0030 C.3   1 <1>  -0.0990 
  5 C       -4.0620     0.5740    -0.2540 C.3   1 <1>   0.1400 
  6 C       -2.6990    -1.4480    -0.3350 C.3   1 <1>   0.1400 
  7 C       -0.2190     2.9310     0.0980 C.3   1 <1>   0.0210 
  8 C       -4.9690    -0.6490    -0.3990 C.3   1 <1>   0.2000 
  9 C       -4.1290    -1.8510     0.0300 C.3   1 <1>  -0.0800 
 10 C       -0.2380     4.4550     0.1910 C.2   1 <1>  -0.1810 
 11 O       -6.0920    -0.5460     0.4070 O.3   1 <1>  -0.6800 
 12 C       -4.6020    -3.1630    -0.6190 C.3   1 <1>  -0.0170 
 13 C       -1.1980     5.4040     0.2170 C.2   1 <1>  -0.0400 
 14 C        0.9390     5.2050     0.2770 C.2   1 <1>   0.1080 
 15 C       -3.7800    -4.3550    -0.1540 C.ar  1 <1>   0.1670 
 16 O       -0.6060     6.5660     0.3080 O.3   1 <1>  -0.0190 
 17 C       -2.7140     5.4270     0.1670 C.3   1 <1>  -0.0600 
 18 N        0.6860     6.4600     0.3460 N.2   1 <1>  -0.4100 
 19 C        2.3470     4.6460     0.2920 C.3   1 <1>  -0.0590 
 20 N       -2.6240    -4.5500    -0.7660 N.ar  1 <1>  -0.6200 
 21 C       -4.2560    -5.1740     0.8690 C.ar  1 <1>   0.1600 
 22 C       -1.9800    -5.6030    -0.2900 C.ar  1 <1>   0.1600 
 23 N       -3.6150    -6.2270     1.3470 N.ar  1 <1>  -0.6200 
 24 C       -2.4590    -6.4130     0.7320 C.ar  1 <1>   0.1600 
 25 H       -2.0990     2.6310    -0.8710 H     1 <1>   0.0800 
 26 H       -2.1650     2.5120     0.8780 H     1 <1>   0.0800 
 27 H       -4.2570     1.0920     0.6690 H     1 <1>   0.0800 
 28 H       -4.1890     1.2380    -1.0910 H     1 <1>   0.0800 
 29 H       -2.4630    -1.7330    -1.3470 H     1 <1>   0.0800 
 30 H       -1.9780    -1.8930     0.3320 H     1 <1>   0.0800 
 31 H        0.3580     2.6510    -0.7660 H     1 <1>   0.0800 
 32 H        0.2900     2.5450     0.9650 H     1 <1>   0.0800 
 33 H       -5.2930    -0.7410    -1.4220 H     1 <1>   0.0800 
 34 H       -4.1630    -1.9500     1.1010 H     1 <1>   0.0800 
 35 H       -5.8360    -0.5140     1.3490 H     1 <1>   0.4000 
 36 H       -4.5330    -3.0900    -1.6910 H     1 <1>   0.0800 
 37 H       -5.6370    -3.3240    -0.3740 H     1 <1>   0.0800 
 38 H       -3.1360     4.4470     0.0960 H     1 <1>   0.0800 
 39 H       -3.0330     6.0000    -0.6850 H     1 <1>   0.0800 
 40 H       -3.0920     5.8990     1.0560 H     1 <1>   0.0800 
 41 H        2.4720     3.9920     1.1340 H     1 <1>   0.0800 
 42 H        3.0580     5.4480     0.3670 H     1 <1>   0.0800 
 43 H        2.5340     4.1020    -0.6150 H     1 <1>   0.0800 
 44 H       -5.2090    -4.9470     1.3140 H     1 <1>   0.1500 
 45 H       -1.0260    -5.8360    -0.7300 H     1 <1>   0.1500 
 46 H       -1.8610    -7.2480     1.0520 H     1 <1>   0.1500 
@<TRIPOS>BOND
  1   1   2  2   
  2   2   3  am  
  3   2   4  1   
  4   3   5  1   
  5   3   6  1   
  6   4   7  1   
  7   4  25  1   
  8   4  26  1   
  9   5   8  1   
 10   5  27  1   
 11   5  28  1   
 12   6   9  1   
 13   6  29  1   
 14   6  30  1   
 15   7  10  1   
 16   7  31  1   
 17   7  32  1   
 18   8   9  1   
 19   8  11  1   
 20   8  33  1   
 21   9  12  1   
 22   9  34  1   
 23  10  13  2   
 24  10  14  1   
 25  11  35  1   
 26  12  15  1   
 27  12  36  1   
 28  12  37  1   
 29  13  16  1   
 30  13  17  1   
 31  14  18  2   
 32  14  19  1   
 33  15  20  ar  
 34  15  21  ar  
 35  16  18  1   
 36  17  38  1   
 37  17  39  1   
 38  17  40  1   
 39  19  41  1   
 40  19  42  1   
 41  19  43  1   
 42  20  22  ar  
 43  21  23  ar  
 44  21  44  1   
 45  22  24  ar  
 46  22  45  1   
 47  23  24  ar  
 48  24  46  1   
@<TRIPOS>SUBSTRUCTURE
  1 ****   3 GROUP 4 **** **** 0

# MOE 2024.06 (io_trps.svl 2023.06)
