@<TRIPOS>MOLECULE
NONAME
55 58 1 0 0 
SMALL
USER_CHARGES


@<TRIPOS>ATOM
  1 O       -1.6430     2.4120    -2.0970 O.2   1 <1>  -0.5700 
  2 C       -2.5310     2.3850    -1.2750 C.2   1 <1>   0.5690 
  3 N       -3.6110     1.5450    -1.4130 N.am  1 <1>  -0.6600 
  4 C       -2.3850     3.3060    -0.0560 C.3   1 <1>   0.1810 
  5 C       -4.6880     1.3720    -0.4000 C.3   1 <1>   0.1400 
  6 C       -3.7190     0.5860    -2.5460 C.3   1 <1>   0.1400 
  7 O       -2.2370     2.6020     1.1600 O.3   1 <1>  -0.5600 
  8 C       -4.5790    -0.0340     0.1910 C.3   1 <1>  -0.1600 
  9 C       -3.6040    -0.8370    -1.9970 C.3   1 <1>  -0.1600 
 10 C       -1.0820     1.8180     1.2570 C.3   1 <1>   0.2630 
 11 C       -4.6440    -1.1190    -0.9010 C.3   1 <1>   0.4240 
 12 C        0.1590     2.6990     1.2890 C.ar  1 <1>  -0.1440 
 13 O       -5.8930    -1.0120    -1.5440 O.3   1 <1>  -0.5600 
 14 C       -4.4230    -2.5250    -0.3010 C.ar  1 <1>  -0.1440 
 15 C        0.4560     3.4420     2.4210 C.ar  1 <1>  -0.1500 
 16 C        1.0000     2.7690     0.1880 C.ar  1 <1>  -0.1500 
 17 C       -6.9800    -1.6530    -0.9530 C.3   1 <1>   0.1200 
 18 C       -5.4200    -3.4940    -0.3500 C.ar  1 <1>  -0.1440 
 19 C       -3.2150    -2.8480     0.3090 C.ar  1 <1>  -0.1500 
 20 C        1.5860     4.2410     2.4570 C.ar  1 <1>  -0.1500 
 21 C        2.1290     3.5680     0.2220 C.ar  1 <1>  -0.1500 
 22 C       -6.7490    -3.1600    -0.9980 C.3   1 <1>  -0.0170 
 23 C       -5.2110    -4.7540     0.1890 C.ar  1 <1>  -0.1500 
 24 C       -3.0060    -4.1030     0.8490 C.ar  1 <1>  -0.1500 
 25 C        2.4240     4.3040     1.3570 C.ar  1 <1>  -0.1500 
 26 C       -3.9980    -5.0650     0.7930 C.ar  1 <1>   0.0820 
 27 O       -3.7110    -6.2720     1.3440 O.3   1 <1>  -0.3620 
 28 C       -4.6440    -7.3280     1.3200 C.3   1 <1>   0.0400 
 29 H       -3.2630     3.9180     0.0280 H     1 <1>   0.0800 
 30 H       -1.5400     3.9570    -0.1890 H     1 <1>   0.0800 
 31 H       -5.6450     1.4970    -0.8790 H     1 <1>   0.0800 
 32 H       -4.6140     2.1020     0.3850 H     1 <1>   0.0800 
 33 H       -2.9430     0.7610    -3.2710 H     1 <1>   0.0800 
 34 H       -4.6680     0.7200    -3.0350 H     1 <1>   0.0800 
 35 H       -5.3540    -0.1910     0.9150 H     1 <1>   0.0800 
 36 H       -3.6440    -0.1030     0.7140 H     1 <1>   0.0800 
 37 H       -2.6110    -0.9630    -1.6100 H     1 <1>   0.0800 
 38 H       -3.7310    -1.5470    -2.7930 H     1 <1>   0.0800 
 39 H       -1.0510     1.1230     0.4360 H     1 <1>   0.0800 
 40 H       -1.1510     1.2570     2.1720 H     1 <1>   0.0800 
 41 H       -0.1970     3.4010     3.2750 H     1 <1>   0.1500 
 42 H        0.7750     2.2070    -0.7030 H     1 <1>   0.1500 
 43 H       -7.8610    -1.3910    -1.5130 H     1 <1>   0.0800 
 44 H       -7.0900    -1.3080     0.0600 H     1 <1>   0.0800 
 45 H       -2.4230    -2.1240     0.3710 H     1 <1>   0.1500 
 46 H        1.8110     4.8150     3.3380 H     1 <1>   0.1500 
 47 H        2.7770     3.6190    -0.6360 H     1 <1>   0.1500 
 48 H       -6.7460    -3.4920    -2.0210 H     1 <1>   0.0800 
 49 H       -7.5510    -3.6570    -0.4830 H     1 <1>   0.0800 
 50 H       -5.9970    -5.4810     0.1310 H     1 <1>   0.1500 
 51 H       -2.0700    -4.3460     1.3180 H     1 <1>   0.1500 
 52 H        3.3020     4.9240     1.3830 H     1 <1>   0.1500 
 53 H       -4.1970    -8.1790     1.8020 H     1 <1>   0.0800 
 54 H       -4.8750    -7.5670     0.2970 H     1 <1>   0.0800 
 55 H       -5.5270    -7.0260     1.8560 H     1 <1>   0.0800 
@<TRIPOS>BOND
  1   1   2  2   
  2   2   3  am  
  3   2   4  1   
  4   3   5  1   
  5   3   6  1   
  6   4   7  1   
  7   4  29  1   
  8   4  30  1   
  9   5   8  1   
 10   5  31  1   
 11   5  32  1   
 12   6   9  1   
 13   6  33  1   
 14   6  34  1   
 15   7  10  1   
 16   8  11  1   
 17   8  35  1   
 18   8  36  1   
 19   9  11  1   
 20   9  37  1   
 21   9  38  1   
 22  10  12  1   
 23  10  39  1   
 24  10  40  1   
 25  11  13  1   
 26  11  14  1   
 27  12  15  ar  
 28  12  16  ar  
 29  13  17  1   
 30  14  18  ar  
 31  14  19  ar  
 32  15  20  ar  
 33  15  41  1   
 34  16  21  ar  
 35  16  42  1   
 36  17  22  1   
 37  17  43  1   
 38  17  44  1   
 39  18  22  1   
 40  18  23  ar  
 41  19  24  ar  
 42  19  45  1   
 43  20  25  ar  
 44  20  46  1   
 45  21  25  ar  
 46  21  47  1   
 47  22  48  1   
 48  22  49  1   
 49  23  26  ar  
 50  23  50  1   
 51  24  26  ar  
 52  24  51  1   
 53  25  52  1   
 54  26  27  1   
 55  27  28  1   
 56  28  53  1   
 57  28  54  1   
 58  28  55  1   
@<TRIPOS>SUBSTRUCTURE
  1 ****   8 GROUP 4 **** **** 0

# MOE 2024.06 (io_trps.svl 2023.06)
