@<TRIPOS>MOLECULE
NONAME
54 57 1 0 0 
SMALL
USER_CHARGES


@<TRIPOS>ATOM
  1 O       -2.7810     2.6440     1.9850 O.2   1 <1>  -0.5700 
  2 C       -3.5310     1.9390     1.3180 C.2   1 <1>   0.5410 
  3 C       -4.1930     0.8200     1.8800 C.2   1 <1>  -0.1360 
  4 C       -3.7810     2.2110    -0.0500 C.2   1 <1>  -0.1360 
  5 C       -5.0410     0.0630     1.1350 C.2   1 <1>  -0.0500 
  6 C       -4.6340     1.4390    -0.7730 C.2   1 <1>  -0.0500 
  7 N       -5.2880     0.3700    -0.1900 N.pl3 1 <1>  -0.5690 
  8 C       -6.2190    -0.4880    -1.0030 C.3   1 <1>   0.2700 
  9 C       -7.6670    -0.6110    -0.4880 C.2   1 <1>   0.5690 
 10 O       -8.3940    -1.4100    -1.0340 O.2   1 <1>  -0.5700 
 11 N       -8.2030     0.1620     0.5110 N.am  1 <1>  -0.6600 
 12 C       -9.2270    -0.4160     1.4510 C.3   1 <1>   0.1400 
 13 C       -8.0760     1.6460     0.5240 C.3   1 <1>   0.1400 
 14 C      -10.6860    -0.1050     1.0290 C.3   1 <1>   0.4230 
 15 C       -9.3840     2.3610     0.1070 C.3   1 <1>  -0.0800 
 16 N      -10.7260     0.2110    -0.4480 N.4   1 <1>  -0.9590 
 17 C      -11.3370     0.9730     1.9210 C.3   1 <1>   0.1200 
 18 C      -10.1650     2.9450     1.2950 C.3   1 <1>   0.1200 
 19 C      -10.3140     1.5950    -0.8580 C.3   1 <1>   0.3430 
 20 C      -11.9680    -0.2270    -1.1460 C.3   1 <1>   0.4860 
 21 O      -10.4380     1.9850     2.2580 O.3   1 <1>  -0.5600 
 22 C      -12.3480    -1.6350    -0.7260 C.ar  1 <1>  -0.1430 
 23 C      -13.5070    -1.8540     0.0070 C.ar  1 <1>  -0.1500 
 24 C      -11.5340    -2.7120    -1.0560 C.ar  1 <1>  -0.1500 
 25 C      -13.8310    -3.1380     0.4150 C.ar  1 <1>   0.0820 
 26 C      -11.8640    -3.9910    -0.6440 C.ar  1 <1>  -0.1500 
 27 O      -14.9450    -3.3680     1.1240 O.3   1 <1>  -0.5330 
 28 C      -13.0120    -4.2050     0.0950 C.ar  1 <1>  -0.1500 
 29 H       -3.9860     0.6070     2.9110 H     1 <1>   0.1500 
 30 H       -3.2600     3.0470    -0.4750 H     1 <1>   0.1500 
 31 H       -5.5430    -0.7920     1.5580 H     1 <1>   0.1500 
 32 H       -4.8160     1.6400    -1.8160 H     1 <1>   0.1500 
 33 H       -6.2570    -0.1130    -2.0080 H     1 <1>   0.0800 
 34 H       -5.8020    -1.4770    -1.0490 H     1 <1>   0.0800 
 35 H       -9.1100    -1.4870     1.4720 H     1 <1>   0.0800 
 36 H       -9.0370    -0.0690     2.4520 H     1 <1>   0.0800 
 37 H       -7.7650     1.9680     1.5050 H     1 <1>   0.0800 
 38 H       -7.3030     1.9400    -0.1630 H     1 <1>   0.0800 
 39 H      -11.2430    -1.0100     1.2040 H     1 <1>   0.0800 
 40 H       -9.0690     3.2300    -0.4420 H     1 <1>   0.0800 
 41 H       -9.9690    -0.4140    -0.7970 H     1 <1>   0.4500 
 42 H      -11.6290     0.5140     2.8490 H     1 <1>   0.0800 
 43 H      -12.2150     1.3980     1.4690 H     1 <1>   0.0800 
 44 H      -11.0910     3.3990     0.9840 H     1 <1>   0.0800 
 45 H       -9.5710     3.7020     1.7780 H     1 <1>   0.0800 
 46 H       -9.8220     1.5290    -1.8160 H     1 <1>   0.0800 
 47 H      -11.1980     2.1940    -0.9990 H     1 <1>   0.0800 
 48 H      -12.7750     0.4450    -0.9080 H     1 <1>   0.0800 
 49 H      -11.8150    -0.2060    -2.2130 H     1 <1>   0.0800 
 50 H      -14.1610    -1.0400     0.2650 H     1 <1>   0.1500 
 51 H      -10.6350    -2.5750    -1.6350 H     1 <1>   0.1500 
 52 H      -11.2290    -4.8230    -0.9000 H     1 <1>   0.1500 
 53 H      -15.5280    -2.5960     1.2310 H     1 <1>   0.4500 
 54 H      -13.2810    -5.1950     0.4210 H     1 <1>   0.1500 
@<TRIPOS>BOND
  1   1   2  2   
  2   2   3  1   
  3   2   4  1   
  4   3   5  2   
  5   3  29  1   
  6   4   6  2   
  7   4  30  1   
  8   5   7  1   
  9   5  31  1   
 10   6   7  1   
 11   6  32  1   
 12   7   8  1   
 13   8   9  1   
 14   8  33  1   
 15   8  34  1   
 16   9  10  2   
 17   9  11  am  
 18  11  12  1   
 19  11  13  1   
 20  12  14  1   
 21  12  35  1   
 22  12  36  1   
 23  13  15  1   
 24  13  37  1   
 25  13  38  1   
 26  14  16  1   
 27  14  17  1   
 28  14  39  1   
 29  15  18  1   
 30  15  19  1   
 31  15  40  1   
 32  16  19  1   
 33  16  20  1   
 34  16  41  1   
 35  17  21  1   
 36  17  42  1   
 37  17  43  1   
 38  18  21  1   
 39  18  44  1   
 40  18  45  1   
 41  19  46  1   
 42  19  47  1   
 43  20  22  1   
 44  20  48  1   
 45  20  49  1   
 46  22  23  ar  
 47  22  24  ar  
 48  23  25  ar  
 49  23  50  1   
 50  24  26  ar  
 51  24  51  1   
 52  25  27  1   
 53  25  28  ar  
 54  26  28  ar  
 55  26  52  1   
 56  27  53  1   
 57  28  54  1   
@<TRIPOS>SUBSTRUCTURE
  1 ****  11 GROUP 4 **** **** 0

# MOE 2024.06 (io_trps.svl 2023.06)
