@<TRIPOS>MOLECULE
NONAME
49 53 1 0 0 
SMALL
USER_CHARGES


@<TRIPOS>ATOM
  1 S       -0.0060    -0.0340    -1.0200 S.3   1 <1>  -0.0800 
  2 C       -0.4250    -1.5630    -1.7980 C.ar  1 <1>   0.2970 
  3 C       -1.3000    -0.2370     0.1580 C.2   1 <1>  -0.1400 
  4 N        0.2210    -2.0270    -2.8470 N.ar  1 <1>  -0.5670 
  5 C       -1.4910    -2.1600    -1.1640 C.ar  1 <1>   0.0000 
  6 C       -1.9640    -1.3860    -0.0380 C.2   1 <1>  -0.1810 
  7 C       -1.5400     0.8150     1.2170 C.3   1 <1>   0.0200 
  8 C       -0.2680    -3.1760    -3.2690 C.ar  1 <1>   0.4700 
  9 C       -1.8980    -3.3700    -1.7310 C.ar  1 <1>   0.4100 
 10 C       -3.1150    -1.7950     0.8680 C.3   1 <1>   0.0210 
 11 C       -2.9090     0.5570     1.8750 C.3   1 <1>  -0.1600 
 12 N       -1.2850    -3.8760    -2.7860 N.ar  1 <1>  -0.6200 
 13 N       -2.9610    -4.0880    -1.2370 N.pl3 1 <1>  -0.8380 
 14 C       -3.1440    -0.9420     2.1530 C.3   1 <1>  -0.1600 
 15 C       -4.2040    -4.1120    -2.0540 C.3   1 <1>   0.2090 
 16 C       -2.7060    -5.4690    -0.7310 C.3   1 <1>   0.2090 
 17 C       -4.9810    -5.3200    -1.5370 C.3   1 <1>   0.2000 
 18 C       -3.8730    -6.3270    -1.2300 C.3   1 <1>  -0.0800 
 19 O       -5.6050    -4.9450    -0.3560 O.3   1 <1>  -0.6800 
 20 C       -4.2590    -7.4700    -0.2740 C.3   1 <1>   0.0210 
 21 C       -3.0700    -8.3680     0.0080 C.2   1 <1>   0.1080 
 22 N       -2.4240    -8.9970    -0.9240 N.2   1 <1>  -0.7070 
 23 C       -2.5370    -8.6100     1.2700 C.2   1 <1>  -0.1500 
 24 N       -1.4520    -9.6650    -0.2750 N.pl3 1 <1>   0.3000 
 25 C       -1.4990    -9.4450     1.0560 C.2   1 <1>  -0.3320 
 26 C       -0.5350   -10.0570     2.0550 C.3   1 <1>  -0.0600 
 27 H       -0.7570     0.7540     1.9520 H     1 <1>   0.0800 
 28 H       -1.5240     1.7960     0.7760 H     1 <1>   0.0800 
 29 H        0.2240    -3.6050    -4.1250 H     1 <1>   0.1500 
 30 H       -4.0370    -1.6770     0.3260 H     1 <1>   0.0800 
 31 H       -3.0120    -2.8310     1.1390 H     1 <1>   0.0800 
 32 H       -2.9770     1.1170     2.7910 H     1 <1>   0.0800 
 33 H       -3.6820     0.9100     1.2140 H     1 <1>   0.0800 
 34 H       -4.0890    -1.0780     2.6490 H     1 <1>   0.0800 
 35 H       -2.3720    -1.2940     2.8160 H     1 <1>   0.0800 
 36 H       -4.7650    -3.2000    -1.9470 H     1 <1>   0.0800 
 37 H       -3.9500    -4.2570    -3.0910 H     1 <1>   0.0800 
 38 H       -1.7670    -5.8580    -1.0900 H     1 <1>   0.0800 
 39 H       -2.6830    -5.4460     0.3450 H     1 <1>   0.0800 
 40 H       -5.7210    -5.6850    -2.2270 H     1 <1>   0.0800 
 41 H       -3.5600    -6.7650    -2.1620 H     1 <1>   0.0800 
 42 H       -4.9510    -4.4350     0.1640 H     1 <1>   0.4000 
 43 H       -5.0390    -8.0610    -0.7190 H     1 <1>   0.0800 
 44 H       -4.6280    -7.0800     0.6570 H     1 <1>   0.0800 
 45 H       -2.8970    -8.2050     2.1990 H     1 <1>   0.1500 
 46 H       -0.7760   -10.2600    -0.7680 H     1 <1>   0.2700 
 47 H       -0.7780    -9.7310     3.0510 H     1 <1>   0.0800 
 48 H        0.4730    -9.7570     1.8330 H     1 <1>   0.0800 
 49 H       -0.5980   -11.1310     2.0220 H     1 <1>   0.0800 
@<TRIPOS>BOND
  1   1   2  1   
  2   1   3  1   
  3   2   4  ar  
  4   2   5  ar  
  5   3   6  2   
  6   3   7  1   
  7   4   8  ar  
  8   5   6  1   
  9   5   9  ar  
 10   6  10  1   
 11   7  11  1   
 12   7  27  1   
 13   7  28  1   
 14   8  12  ar  
 15   8  29  1   
 16   9  12  ar  
 17   9  13  1   
 18  10  14  1   
 19  10  30  1   
 20  10  31  1   
 21  11  14  1   
 22  11  32  1   
 23  11  33  1   
 24  13  15  1   
 25  13  16  1   
 26  14  34  1   
 27  14  35  1   
 28  15  17  1   
 29  15  36  1   
 30  15  37  1   
 31  16  18  1   
 32  16  38  1   
 33  16  39  1   
 34  17  18  1   
 35  17  19  1   
 36  17  40  1   
 37  18  20  1   
 38  18  41  1   
 39  19  42  1   
 40  20  21  1   
 41  20  43  1   
 42  20  44  1   
 43  21  22  2   
 44  21  23  1   
 45  22  24  1   
 46  23  25  2   
 47  23  45  1   
 48  24  25  1   
 49  24  46  1   
 50  25  26  1   
 51  26  47  1   
 52  26  48  1   
 53  26  49  1   
@<TRIPOS>SUBSTRUCTURE
  1 ****  13 GROUP 4 **** **** 0

# MOE 2024.06 (io_trps.svl 2023.06)
