@<TRIPOS>MOLECULE
NONAME
44 46 1 0 0 
SMALL
USER_CHARGES


@<TRIPOS>ATOM
  1 O        2.0440    -0.7860     1.3140 O.2   1 <1>  -0.5700 
  2 C        2.8310    -0.8100     0.3940 C.2   1 <1>   0.5690 
  3 N        3.6260    -1.8980     0.1280 N.am  1 <1>  -0.6600 
  4 C        2.9020     0.4280    -0.5170 C.3   1 <1>   0.1710 
  5 C        4.5830    -1.9180    -1.0230 C.3   1 <1>   0.1400 
  6 C        3.7870    -3.0490     1.1070 C.3   1 <1>   0.0340 
  7 N        4.1070     0.4700    -1.3870 N.3   1 <1>  -0.8100 
  8 C        4.3060    -0.8160    -2.0630 C.3   1 <1>   0.1100 
  9 C        5.2160    -3.5610     1.3380 C.2   1 <1>   0.9060 
 10 C        4.2210     1.6680    -2.2250 C.3   1 <1>   0.2900 
 11 O        5.8380    -3.2200     2.3530 O.co2 1 <1>  -0.9000 
 12 O        5.7310    -4.3060     0.4920 O.co2 1 <1>  -0.9000 
 13 C        4.5710     2.8850    -1.3780 C.2   1 <1>   0.0060 
 14 N        3.9240     4.0090    -1.4380 N.2   1 <1>  -0.5650 
 15 N        5.6120     2.8830    -0.4920 N.pl3 1 <1>   0.3260 
 16 C        4.5620     4.7890    -0.5460 C.2   1 <1>   0.0770 
 17 C        6.5390     1.8540    -0.1750 C.ar  1 <1>  -0.0230 
 18 C        5.5840     4.1270     0.0330 C.2   1 <1>  -0.3020 
 19 C        6.2250     0.8990     0.7860 C.ar  1 <1>  -0.1500 
 20 C        7.7570     1.7620    -0.8390 C.ar  1 <1>  -0.1500 
 21 C        7.0830    -0.1520     1.0490 C.ar  1 <1>  -0.1500 
 22 C        8.6230     0.7150    -0.5720 C.ar  1 <1>  -0.1500 
 23 C        8.2840    -0.2570     0.3570 C.ar  1 <1>   0.0820 
 24 O        9.1520    -1.2850     0.5310 O.3   1 <1>  -0.3630 
 25 C        8.6630    -2.5220     1.0220 C.3   1 <1>   0.0400 
 26 H        2.8870     1.3010     0.1120 H     1 <1>   0.0800 
 27 H        2.0170     0.4420    -1.1260 H     1 <1>   0.0800 
 28 H        4.5460    -2.8820    -1.5000 H     1 <1>   0.0800 
 29 H        5.5820    -1.7840    -0.6450 H     1 <1>   0.0800 
 30 H        3.2080    -3.8790     0.7540 H     1 <1>   0.0800 
 31 H        3.3980    -2.7580     2.0640 H     1 <1>   0.0800 
 32 H        3.4350    -1.0710    -2.6420 H     1 <1>   0.0800 
 33 H        5.1520    -0.7560    -2.7250 H     1 <1>   0.0800 
 34 H        3.2990     1.8390    -2.7550 H     1 <1>   0.0800 
 35 H        5.0070     1.5270    -2.9460 H     1 <1>   0.0800 
 36 H        4.2440     5.8040    -0.3670 H     1 <1>   0.1500 
 37 H        6.2870     4.4490     0.7770 H     1 <1>   0.1500 
 38 H        5.2900     0.9550     1.3170 H     1 <1>   0.1500 
 39 H        8.0240     2.5020    -1.5730 H     1 <1>   0.1500 
 40 H        6.7940    -0.8860     1.7820 H     1 <1>   0.1500 
 41 H        9.5620     0.6330    -1.0870 H     1 <1>   0.1500 
 42 H        9.4460    -3.2530     0.9490 H     1 <1>   0.0800 
 43 H        7.8220    -2.8320     0.4270 H     1 <1>   0.0800 
 44 H        8.3650    -2.4110     2.0500 H     1 <1>   0.0800 
@<TRIPOS>BOND
  1   1   2  2   
  2   2   3  am  
  3   2   4  1   
  4   3   5  1   
  5   3   6  1   
  6   4   7  1   
  7   4  26  1   
  8   4  27  1   
  9   5   8  1   
 10   5  28  1   
 11   5  29  1   
 12   6   9  1   
 13   6  30  1   
 14   6  31  1   
 15   7   8  1   
 16   7  10  1   
 17   8  32  1   
 18   8  33  1   
 19   9  11  ar  
 20   9  12  ar  
 21  10  13  1   
 22  10  34  1   
 23  10  35  1   
 24  13  14  2   
 25  13  15  1   
 26  14  16  1   
 27  15  17  1   
 28  15  18  1   
 29  16  18  2   
 30  16  36  1   
 31  17  19  ar  
 32  17  20  ar  
 33  18  37  1   
 34  19  21  ar  
 35  19  38  1   
 36  20  22  ar  
 37  20  39  1   
 38  21  23  ar  
 39  21  40  1   
 40  22  23  ar  
 41  22  41  1   
 42  23  24  1   
 43  24  25  1   
 44  25  42  1   
 45  25  43  1   
 46  25  44  1   
@<TRIPOS>SUBSTRUCTURE
  1 ****  19 GROUP 4 **** **** 0

# MOE 2024.06 (io_trps.svl 2023.06)
