@<TRIPOS>MOLECULE
NONAME
45 47 1 0 0 
SMALL
USER_CHARGES


@<TRIPOS>ATOM
  1 F       -1.7610     1.4610    -1.0070 F     1 <1>  -0.3400 
  2 C       -1.3260     2.5580    -0.3900 C.3   1 <1>   1.1640 
  3 F       -1.6100     2.3630     0.8930 F     1 <1>  -0.3400 
  4 F       -2.1200     3.5320    -0.8240 F     1 <1>  -0.3400 
  5 C        0.1620     2.8100    -0.6590 C.ar  1 <1>  -0.1440 
  6 C        0.7780     3.9320    -0.0600 C.ar  1 <1>   0.3100 
  7 C        0.8930     1.9680    -1.4700 C.ar  1 <1>  -0.1500 
  8 N        0.0300     4.7650     0.7090 N.ar  1 <1>  -0.6200 
  9 C        2.1580     4.1590    -0.2870 C.ar  1 <1>   0.0000 
 10 C        2.2450     2.2060    -1.7130 C.ar  1 <1>  -0.1500 
 11 C        0.6210     5.7960     1.2380 C.ar  1 <1>   0.1600 
 12 C        2.7740     5.2740     0.3400 C.ar  1 <1>   0.1000 
 13 C        2.8580     3.2800    -1.1360 C.ar  1 <1>  -0.1500 
 14 C        1.9700     6.0880     1.0860 C.ar  1 <1>  -0.1500 
 15 N        4.1250     5.5630     0.2340 N.pl3 1 <1>  -0.8380 
 16 C        4.5790     6.4810    -0.8600 C.3   1 <1>   0.2090 
 17 C        5.1200     4.6580     0.8580 C.3   1 <1>   0.2090 
 18 C        4.8290     7.9270    -0.3820 C.3   1 <1>   0.2000 
 19 C        5.9340     5.4260     1.8920 C.3   1 <1>  -0.2400 
 20 O        3.6200     8.5820    -0.1240 O.3   1 <1>  -0.5600 
 21 C        5.6070     8.7560    -1.4250 C.3   1 <1>  -0.1600 
 22 C        3.7330     9.7760     0.5980 C.3   1 <1>   0.1200 
 23 C        5.3550    10.2700    -1.2940 C.3   1 <1>  -0.1600 
 24 C        4.9410    10.6180     0.1400 C.3   1 <1>  -0.1600 
 25 H        0.4480     1.1060    -1.9410 H     1 <1>   0.1500 
 26 H        2.7910     1.5380    -2.3580 H     1 <1>   0.1500 
 27 H        0.0260     6.4640     1.8360 H     1 <1>   0.1500 
 28 H        3.8970     3.4700    -1.3310 H     1 <1>   0.1500 
 29 H        2.3860     6.9570     1.5580 H     1 <1>   0.1500 
 30 H        3.8400     6.5020    -1.6430 H     1 <1>   0.0800 
 31 H        5.4880     6.0910    -1.2810 H     1 <1>   0.0800 
 32 H        5.7660     4.2400     0.1050 H     1 <1>   0.0800 
 33 H        4.6030     3.8480     1.3460 H     1 <1>   0.0800 
 34 H        5.3850     7.8940     0.5380 H     1 <1>   0.0800 
 35 H        6.5550     6.1600     1.4140 H     1 <1>   0.0800 
 36 H        6.5680     4.7460     2.4300 H     1 <1>   0.0800 
 37 H        5.2740     5.9080     2.5910 H     1 <1>   0.0800 
 38 H        5.3350     8.4450    -2.4180 H     1 <1>   0.0800 
 39 H        6.6560     8.5520    -1.3010 H     1 <1>   0.0800 
 40 H        3.8110     9.5320     1.6440 H     1 <1>   0.0800 
 41 H        2.8190    10.3210     0.4380 H     1 <1>   0.0800 
 42 H        4.5490    10.5450    -1.9530 H     1 <1>   0.0800 
 43 H        6.2300    10.8250    -1.5860 H     1 <1>   0.0800 
 44 H        5.7660    10.4310     0.8050 H     1 <1>   0.0800 
 45 H        4.6990    11.6630     0.2180 H     1 <1>   0.0800 
@<TRIPOS>BOND
  1   1   2  1   
  2   2   3  1   
  3   2   4  1   
  4   2   5  1   
  5   5   6  ar  
  6   5   7  ar  
  7   6   8  ar  
  8   6   9  ar  
  9   7  10  ar  
 10   7  25  1   
 11   8  11  ar  
 12   9  12  ar  
 13   9  13  ar  
 14  10  13  ar  
 15  10  26  1   
 16  11  14  ar  
 17  11  27  1   
 18  12  14  ar  
 19  12  15  1   
 20  13  28  1   
 21  14  29  1   
 22  15  16  1   
 23  15  17  1   
 24  16  18  1   
 25  16  30  1   
 26  16  31  1   
 27  17  19  1   
 28  17  32  1   
 29  17  33  1   
 30  18  20  1   
 31  18  21  1   
 32  18  34  1   
 33  19  35  1   
 34  19  36  1   
 35  19  37  1   
 36  20  22  1   
 37  21  23  1   
 38  21  38  1   
 39  21  39  1   
 40  22  24  1   
 41  22  40  1   
 42  22  41  1   
 43  23  24  1   
 44  23  42  1   
 45  23  43  1   
 46  24  44  1   
 47  24  45  1   
@<TRIPOS>SUBSTRUCTURE
  1 ****  12 GROUP 4 **** **** 0

# MOE 2024.06 (io_trps.svl 2023.06)
