@<TRIPOS>MOLECULE
NONAME
43 46 1 0 0 
SMALL
USER_CHARGES


@<TRIPOS>ATOM
  1 S       -2.3350     0.6990     1.8020 S.3   1 <1>  -0.0800 
  2 C       -2.2600     1.1610     0.1170 C.2   1 <1>   0.1980 
  3 C       -2.3390    -0.9690     1.3130 C.2   1 <1>  -0.1100 
  4 N       -2.2460     0.1840    -0.6970 N.2   1 <1>  -0.5650 
  5 C       -2.2210     2.6380    -0.1970 C.3   1 <1>  -0.0600 
  6 C       -2.2880    -1.0300    -0.0280 C.2   1 <1>   0.0460 
  7 C       -2.2770    -2.2830    -0.8880 C.3   1 <1>   0.0820 
  8 C       -2.7190    -3.5220    -0.1270 C.2   1 <1>   0.5690 
  9 O       -1.8710    -4.3500     0.1160 O.2   1 <1>  -0.5700 
 10 N       -4.0280    -3.6990     0.2590 N.am  1 <1>  -0.6600 
 11 C       -4.4620    -4.9190     0.9970 C.3   1 <1>   0.1400 
 12 C       -5.1360    -2.7270     0.0290 C.3   1 <1>   0.1400 
 13 C       -5.5590    -5.6250     0.1990 C.3   1 <1>  -0.1600 
 14 C       -6.2340    -3.4090    -0.7880 C.3   1 <1>  -0.1600 
 15 C       -6.7350    -4.6890    -0.1030 C.3   1 <1>   0.4610 
 16 O       -7.2950    -4.3510     1.1540 O.3   1 <1>  -0.5600 
 17 C       -7.7790    -5.4030    -0.9650 C.2   1 <1>  -0.1810 
 18 C       -8.6110    -3.8500     1.1940 C.3   1 <1>   0.1200 
 19 C       -9.0570    -5.4830    -0.5740 C.2   1 <1>  -0.1400 
 20 C       -7.5390    -6.0430    -2.2270 C.2   1 <1>  -0.1500 
 21 C       -9.6200    -4.8940     0.6910 C.3   1 <1>   0.0200 
 22 S      -10.0390    -6.3660    -1.7240 S.3   1 <1>  -0.0800 
 23 C       -8.6410    -6.6050    -2.7620 C.2   1 <1>  -0.1100 
 24 H       -2.3780    -1.7230     2.0780 H     1 <1>   0.1500 
 25 H       -3.1040     3.1150     0.1840 H     1 <1>   0.0800 
 26 H       -2.1750     2.7820    -1.2610 H     1 <1>   0.0800 
 27 H       -1.3530     3.0820     0.2540 H     1 <1>   0.0800 
 28 H       -1.2810    -2.4320    -1.2620 H     1 <1>   0.0800 
 29 H       -2.9220    -2.1470    -1.7340 H     1 <1>   0.0800 
 30 H       -4.8370    -4.6330     1.9650 H     1 <1>   0.0800 
 31 H       -3.6360    -5.5930     1.1470 H     1 <1>   0.0800 
 32 H       -4.7950    -1.8500    -0.4890 H     1 <1>   0.0800 
 33 H       -5.5290    -2.4140     0.9820 H     1 <1>   0.0800 
 34 H       -5.9180    -6.4780     0.7450 H     1 <1>   0.0800 
 35 H       -5.1310    -5.9840    -0.7190 H     1 <1>   0.0800 
 36 H       -5.8360    -3.6590    -1.7540 H     1 <1>   0.0800 
 37 H       -7.0500    -2.7320    -0.9490 H     1 <1>   0.0800 
 38 H       -8.6570    -2.9620     0.5890 H     1 <1>   0.0800 
 39 H       -8.8300    -3.5830     2.2130 H     1 <1>   0.0800 
 40 H       -6.5610    -6.0540    -2.6730 H     1 <1>   0.1500 
 41 H      -10.5670    -4.4240     0.4980 H     1 <1>   0.0800 
 42 H       -9.7580    -5.6660     1.4260 H     1 <1>   0.0800 
 43 H       -8.7960    -7.1490    -3.6770 H     1 <1>   0.1500 
@<TRIPOS>BOND
  1   1   2  1   
  2   1   3  1   
  3   2   4  2   
  4   2   5  1   
  5   3   6  2   
  6   3  24  1   
  7   4   6  1   
  8   5  25  1   
  9   5  26  1   
 10   5  27  1   
 11   6   7  1   
 12   7   8  1   
 13   7  28  1   
 14   7  29  1   
 15   8   9  2   
 16   8  10  am  
 17  10  11  1   
 18  10  12  1   
 19  11  13  1   
 20  11  30  1   
 21  11  31  1   
 22  12  14  1   
 23  12  32  1   
 24  12  33  1   
 25  13  15  1   
 26  13  34  1   
 27  13  35  1   
 28  14  15  1   
 29  14  36  1   
 30  14  37  1   
 31  15  16  1   
 32  15  17  1   
 33  16  18  1   
 34  17  19  2   
 35  17  20  1   
 36  18  21  1   
 37  18  38  1   
 38  18  39  1   
 39  19  21  1   
 40  19  22  1   
 41  20  23  2   
 42  20  40  1   
 43  21  41  1   
 44  21  42  1   
 45  22  23  1   
 46  23  43  1   
@<TRIPOS>SUBSTRUCTURE
  1 ****  12 GROUP 4 **** **** 0

# MOE 2024.06 (io_trps.svl 2023.06)
