@<TRIPOS>MOLECULE
NONAME
52 55 1 0 0 
SMALL
USER_CHARGES


@<TRIPOS>ATOM
  1 S        1.5610    -0.6540    -1.9680 S.3   1 <1>  -0.0800 
  2 C        0.4910    -0.5840    -0.5890 C.2   1 <1>   0.1980 
  3 C        1.4270    -2.3820    -1.9440 C.2   1 <1>  -0.1100 
  4 N        0.0980    -1.7190    -0.1780 N.2   1 <1>  -0.5650 
  5 C        0.1440     0.7820    -0.0310 C.3   1 <1>   0.0200 
  6 C        0.6100    -2.7850    -0.9440 C.2   1 <1>   0.1410 
  7 C       -0.9170     1.4840    -0.8910 C.3   1 <1>  -0.1600 
  8 C        0.2920    -4.1880    -0.6680 C.2   1 <1>   0.7160 
  9 C       -1.2980     2.8510    -0.3140 C.3   1 <1>  -0.2400 
 10 O        1.0280    -5.0520    -1.1180 O.2   1 <1>  -0.5700 
 11 N       -0.8080    -4.6040     0.0600 N.am  1 <1>  -0.6600 
 12 C       -1.9520    -3.7470     0.4460 C.3   1 <1>   0.1400 
 13 C       -1.0890    -6.0200     0.3740 C.3   1 <1>   0.1400 
 14 C       -3.1160    -4.7040     0.7410 C.3   1 <1>  -0.0800 
 15 C       -2.6130    -6.1310     0.4270 C.3   1 <1>  -0.0800 
 16 C       -4.4610    -4.3090     0.0780 C.3   1 <1>   0.4240 
 17 C       -3.1930    -6.7010    -0.8790 C.3   1 <1>  -0.1600 
 18 O       -4.2380    -3.9120    -1.2290 O.3   1 <1>  -0.6800 
 19 C       -5.1230    -3.1510     0.8550 C.ar  1 <1>  -0.1440 
 20 C       -5.3570    -5.5550    -0.0370 C.3   1 <1>  -0.1600 
 21 C       -4.7360    -6.6900    -0.8860 C.3   1 <1>  -0.1600 
 22 C       -5.7460    -3.3880     2.0770 C.ar  1 <1>  -0.1500 
 23 C       -5.1030    -1.8420     0.3800 C.ar  1 <1>  -0.1500 
 24 C       -6.3350    -2.3600     2.7930 C.ar  1 <1>  -0.1500 
 25 C       -5.6900    -0.8110     1.0920 C.ar  1 <1>  -0.1500 
 26 C       -6.3090    -1.0690     2.3010 C.ar  1 <1>  -0.1500 
 27 H        1.9690    -2.9480    -2.6790 H     1 <1>   0.1500 
 28 H       -0.2320     0.6550     0.9680 H     1 <1>   0.0800 
 29 H        1.0370     1.3790     0.0210 H     1 <1>   0.0800 
 30 H       -0.5420     1.6110    -1.8920 H     1 <1>   0.0800 
 31 H       -1.7940     0.8610    -0.9430 H     1 <1>   0.0800 
 32 H       -0.4380     3.4970    -0.2710 H     1 <1>   0.0800 
 33 H       -1.7020     2.7430     0.6780 H     1 <1>   0.0800 
 34 H       -2.0430     3.3170    -0.9350 H     1 <1>   0.0800 
 35 H       -1.7010    -3.1800     1.3260 H     1 <1>   0.0800 
 36 H       -2.1760    -3.0580    -0.3490 H     1 <1>   0.0800 
 37 H       -0.6640    -6.6800    -0.3640 H     1 <1>   0.0800 
 38 H       -0.6640    -6.2480     1.3360 H     1 <1>   0.0800 
 39 H       -3.2690    -4.6700     1.8050 H     1 <1>   0.0800 
 40 H       -2.8860    -6.7990     1.2260 H     1 <1>   0.0800 
 41 H       -2.8210    -6.1220    -1.7080 H     1 <1>   0.0800 
 42 H       -2.8450    -7.7100    -1.0240 H     1 <1>   0.0800 
 43 H       -3.8530    -4.6700    -1.7030 H     1 <1>   0.4000 
 44 H       -5.5310    -5.9440     0.9490 H     1 <1>   0.0800 
 45 H       -6.3160    -5.2730    -0.4360 H     1 <1>   0.0800 
 46 H       -5.1010    -7.6320    -0.5120 H     1 <1>   0.0800 
 47 H       -5.0760    -6.6030    -1.9040 H     1 <1>   0.0800 
 48 H       -5.7780    -4.3770     2.4950 H     1 <1>   0.1500 
 49 H       -4.6270    -1.6080    -0.5570 H     1 <1>   0.1500 
 50 H       -6.8140    -2.5640     3.7350 H     1 <1>   0.1500 
 51 H       -5.6640     0.1910     0.7030 H     1 <1>   0.1500 
 52 H       -6.7670    -0.2680     2.8550 H     1 <1>   0.1500 
@<TRIPOS>BOND
  1   1   2  1   
  2   1   3  1   
  3   2   4  2   
  4   2   5  1   
  5   3   6  2   
  6   3  27  1   
  7   4   6  1   
  8   5   7  1   
  9   5  28  1   
 10   5  29  1   
 11   6   8  1   
 12   7   9  1   
 13   7  30  1   
 14   7  31  1   
 15   8  10  2   
 16   8  11  am  
 17   9  32  1   
 18   9  33  1   
 19   9  34  1   
 20  11  12  1   
 21  11  13  1   
 22  12  14  1   
 23  12  35  1   
 24  12  36  1   
 25  13  15  1   
 26  13  37  1   
 27  13  38  1   
 28  14  15  1   
 29  14  16  1   
 30  14  39  1   
 31  15  17  1   
 32  15  40  1   
 33  16  18  1   
 34  16  19  1   
 35  16  20  1   
 36  17  21  1   
 37  17  41  1   
 38  17  42  1   
 39  18  43  1   
 40  19  22  ar  
 41  19  23  ar  
 42  20  21  1   
 43  20  44  1   
 44  20  45  1   
 45  21  46  1   
 46  21  47  1   
 47  22  24  ar  
 48  22  48  1   
 49  23  25  ar  
 50  23  49  1   
 51  24  26  ar  
 52  24  50  1   
 53  25  26  ar  
 54  25  51  1   
 55  26  52  1   
@<TRIPOS>SUBSTRUCTURE
  1 ****  12 GROUP 4 **** **** 0

# MOE 2024.06 (io_trps.svl 2023.06)
