@<TRIPOS>MOLECULE
NONAME
47 50 1 0 0 
SMALL
USER_CHARGES


@<TRIPOS>ATOM
  1 O        1.0590    -0.9250    -1.5120 O.3   1 <1>  -0.5600 
  2 C        2.0130    -1.2260    -0.5170 C.3   1 <1>   0.4240 
  3 C       -0.2800    -1.1060    -1.1950 C.3   1 <1>   0.1200 
  4 C        1.6160    -2.5060     0.2760 C.ar  1 <1>  -0.1440 
  5 C        3.2970    -1.4540    -1.3290 C.3   1 <1>  -0.1600 
  6 C        2.1080     0.0250     0.3880 C.3   1 <1>  -0.1600 
  7 C       -0.5250    -2.6000    -1.0530 C.3   1 <1>  -0.0160 
  8 C        2.4280    -3.0290     1.2890 C.ar  1 <1>   0.0820 
  9 C        0.4170    -3.1610    -0.0080 C.ar  1 <1>  -0.1440 
 10 C        3.8000    -0.1400    -1.9250 C.3   1 <1>   0.2090 
 11 C        3.5200     0.6090     0.4980 C.3   1 <1>   0.2090 
 12 O        3.5720    -2.3710     1.6120 O.3   1 <1>  -0.3630 
 13 C        2.0560    -4.1940     1.9580 C.ar  1 <1>  -0.1500 
 14 C        0.0570    -4.3180     0.6610 C.ar  1 <1>  -0.1500 
 15 N        4.1120     0.8460    -0.8490 N.pl3 1 <1>  -0.8380 
 16 C        4.5270    -2.8940     2.5090 C.3   1 <1>   0.0400 
 17 C        0.8780    -4.8380     1.6410 C.ar  1 <1>  -0.1500 
 18 C        5.0010     1.8760    -1.0760 C.ar  1 <1>   0.7200 
 19 N        5.4960     2.5030    -0.0070 N.ar  1 <1>  -0.6200 
 20 N        5.2940     2.1560    -2.3470 N.ar  1 <1>  -0.6200 
 21 C        6.3380     3.4780    -0.2330 C.ar  1 <1>   0.1670 
 22 C        6.1370     3.1370    -2.5450 C.ar  1 <1>   0.1600 
 23 C        6.6970     3.8410    -1.5080 C.ar  1 <1>  -0.1500 
 24 C        6.9010     4.1920     0.9780 C.3   1 <1>  -0.0970 
 25 H       -0.8690    -0.6960    -1.9960 H     1 <1>   0.0800 
 26 H       -0.5030    -0.5820    -0.2810 H     1 <1>   0.0800 
 27 H        3.0970    -2.1600    -2.1130 H     1 <1>   0.0800 
 28 H        4.0800    -1.8670    -0.7250 H     1 <1>   0.0800 
 29 H        1.7670    -0.2200     1.3760 H     1 <1>   0.0800 
 30 H        1.4720     0.8040     0.0110 H     1 <1>   0.0800 
 31 H       -0.3550    -3.0850    -1.9980 H     1 <1>   0.0800 
 32 H       -1.5470    -2.7650    -0.7630 H     1 <1>   0.0800 
 33 H        3.0530     0.2810    -2.5770 H     1 <1>   0.0800 
 34 H        4.6840    -0.3330    -2.5070 H     1 <1>   0.0800 
 35 H        4.1640    -0.0580     1.0430 H     1 <1>   0.0800 
 36 H        3.4650     1.5330     1.0470 H     1 <1>   0.0800 
 37 H        2.6670    -4.6150     2.7320 H     1 <1>   0.1500 
 38 H       -0.8650    -4.8190     0.4240 H     1 <1>   0.1500 
 39 H        5.3630    -2.2190     2.5350 H     1 <1>   0.0800 
 40 H        4.8470    -3.8580     2.1540 H     1 <1>   0.0800 
 41 H        4.0850    -2.9670     3.4870 H     1 <1>   0.0800 
 42 H        0.5960    -5.7390     2.1580 H     1 <1>   0.1500 
 43 H        6.3890     3.3860    -3.5610 H     1 <1>   0.1500 
 44 H        7.3860     4.6420    -1.6940 H     1 <1>   0.1500 
 45 H        7.4150     3.4850     1.6020 H     1 <1>   0.0800 
 46 H        6.0970     4.6300     1.5410 H     1 <1>   0.0800 
 47 H        7.5860     4.9660     0.6870 H     1 <1>   0.0800 
@<TRIPOS>BOND
  1   1   2  1   
  2   1   3  1   
  3   2   4  1   
  4   2   5  1   
  5   2   6  1   
  6   3   7  1   
  7   3  25  1   
  8   3  26  1   
  9   4   8  ar  
 10   4   9  ar  
 11   5  10  1   
 12   5  27  1   
 13   5  28  1   
 14   6  11  1   
 15   6  29  1   
 16   6  30  1   
 17   7   9  1   
 18   7  31  1   
 19   7  32  1   
 20   8  12  1   
 21   8  13  ar  
 22   9  14  ar  
 23  10  15  1   
 24  10  33  1   
 25  10  34  1   
 26  11  15  1   
 27  11  35  1   
 28  11  36  1   
 29  12  16  1   
 30  13  17  ar  
 31  13  37  1   
 32  14  17  ar  
 33  14  38  1   
 34  15  18  1   
 35  16  39  1   
 36  16  40  1   
 37  16  41  1   
 38  17  42  1   
 39  18  19  ar  
 40  18  20  ar  
 41  19  21  ar  
 42  20  22  ar  
 43  21  23  ar  
 44  21  24  1   
 45  22  23  ar  
 46  22  43  1   
 47  23  44  1   
 48  24  45  1   
 49  24  46  1   
 50  24  47  1   
@<TRIPOS>SUBSTRUCTURE
  1 ****   6 GROUP 4 **** **** 0

# MOE 2024.06 (io_trps.svl 2023.06)
