@<TRIPOS>MOLECULE
NONAME
51 53 1 0 0 
SMALL
USER_CHARGES


@<TRIPOS>ATOM
  1 S       -0.7340    -0.7180     1.0080 S.3   1 <1>  -0.0800 
  2 C        0.7260    -1.3840     0.3270 C.2   1 <1>  -0.1400 
  3 C        0.2210     0.5480     1.7450 C.2   1 <1>   0.2280 
  4 C        1.7630    -0.6170     0.7050 C.2   1 <1>   0.0460 
  5 C        0.5830    -2.6300    -0.5270 C.3   1 <1>   0.0200 
  6 N        1.4680     0.4720     1.5070 N.2   1 <1>  -0.5650 
  7 C        3.2250    -0.8050     0.3570 C.3   1 <1>  -0.0590 
  8 C        0.3170    -3.8570     0.3530 C.3   1 <1>  -0.0990 
  9 C       -0.1570    -5.0350    -0.4750 C.2   1 <1>   0.5690 
 10 O        0.6440    -5.9030    -0.7130 O.2   1 <1>  -0.5700 
 11 N       -1.4510    -5.1230    -0.9320 N.am  1 <1>  -0.6600 
 12 C       -2.5690    -4.1780    -0.6030 C.3   1 <1>   0.1400 
 13 C       -1.8720    -6.2790    -1.7980 C.3   1 <1>   0.1400 
 14 C       -3.7530    -4.9060     0.0890 C.3   1 <1>   0.4230 
 15 C       -3.2580    -6.8370    -1.4050 C.3   1 <1>   0.3430 
 16 N       -3.6410    -6.4180    -0.0090 N.4   1 <1>  -0.9590 
 17 C       -5.1010    -4.4040    -0.4780 C.3   1 <1>   0.1200 
 18 C       -4.8700    -7.0760     0.5560 C.3   1 <1>   0.4230 
 19 O       -6.1700    -5.0820     0.1120 O.3   1 <1>  -0.5600 
 20 C       -6.1580    -6.4730    -0.0530 C.3   1 <1>   0.1200 
 21 C       -4.7910    -8.6030     0.4020 C.3   1 <1>  -0.1600 
 22 C       -5.8160    -9.3350     1.2820 C.3   1 <1>  -0.1600 
 23 C       -5.6520   -10.8530     1.1630 C.3   1 <1>  -0.2400 
 24 H       -0.3030     1.2820     2.3320 H     1 <1>   0.1500 
 25 H       -0.2210    -2.4770    -1.2240 H     1 <1>   0.0800 
 26 H        1.4800    -2.7930    -1.0990 H     1 <1>   0.0800 
 27 H        3.3710    -1.6820    -0.2440 H     1 <1>   0.0800 
 28 H        3.7980    -0.9040     1.2610 H     1 <1>   0.0800 
 29 H        3.5790     0.0530    -0.1840 H     1 <1>   0.0800 
 30 H       -0.4000    -3.6390     1.1190 H     1 <1>   0.0800 
 31 H        1.2310    -4.1270     0.8510 H     1 <1>   0.0800 
 32 H       -2.2390    -3.3740     0.0280 H     1 <1>   0.0800 
 33 H       -2.9050    -3.7270    -1.5210 H     1 <1>   0.0800 
 34 H       -1.8880    -5.9670    -2.8290 H     1 <1>   0.0800 
 35 H       -1.1540    -7.0780    -1.7240 H     1 <1>   0.0800 
 36 H       -3.7340    -4.6320     1.1310 H     1 <1>   0.0800 
 37 H       -3.2260    -7.9110    -1.4840 H     1 <1>   0.0800 
 38 H       -3.9940    -6.4800    -2.1060 H     1 <1>   0.0800 
 39 H       -2.8380    -6.6760     0.5810 H     1 <1>   0.4500 
 40 H       -5.1570    -4.5400    -1.5440 H     1 <1>   0.0800 
 41 H       -5.2270    -3.3560    -0.2620 H     1 <1>   0.0800 
 42 H       -4.9030    -6.8660     1.6130 H     1 <1>   0.0800 
 43 H       -7.0260    -6.8590     0.4520 H     1 <1>   0.0800 
 44 H       -6.2450    -6.7010    -1.1010 H     1 <1>   0.0800 
 45 H       -4.9590    -8.8850    -0.6230 H     1 <1>   0.0800 
 46 H       -3.8090    -8.9350     0.6940 H     1 <1>   0.0800 
 47 H       -5.6860    -9.0530     2.3140 H     1 <1>   0.0800 
 48 H       -6.8210    -9.0780     0.9900 H     1 <1>   0.0800 
 49 H       -4.6700   -11.1580     1.4820 H     1 <1>   0.0800 
 50 H       -5.8020   -11.1750     0.1470 H     1 <1>   0.0800 
 51 H       -6.3760   -11.3500     1.7840 H     1 <1>   0.0800 
@<TRIPOS>BOND
  1   1   2  1   
  2   1   3  1   
  3   2   4  2   
  4   2   5  1   
  5   3   6  2   
  6   3  24  1   
  7   4   6  1   
  8   4   7  1   
  9   5   8  1   
 10   5  25  1   
 11   5  26  1   
 12   7  27  1   
 13   7  28  1   
 14   7  29  1   
 15   8   9  1   
 16   8  30  1   
 17   8  31  1   
 18   9  10  2   
 19   9  11  am  
 20  11  12  1   
 21  11  13  1   
 22  12  14  1   
 23  12  32  1   
 24  12  33  1   
 25  13  15  1   
 26  13  34  1   
 27  13  35  1   
 28  14  16  1   
 29  14  17  1   
 30  14  36  1   
 31  15  16  1   
 32  15  37  1   
 33  15  38  1   
 34  16  18  1   
 35  16  39  1   
 36  17  19  1   
 37  17  40  1   
 38  17  41  1   
 39  18  20  1   
 40  18  21  1   
 41  18  42  1   
 42  19  20  1   
 43  20  43  1   
 44  20  44  1   
 45  21  22  1   
 46  21  45  1   
 47  21  46  1   
 48  22  23  1   
 49  22  47  1   
 50  22  48  1   
 51  23  49  1   
 52  23  50  1   
 53  23  51  1   
@<TRIPOS>SUBSTRUCTURE
  1 ****  12 GROUP 4 **** **** 0

# MOE 2024.06 (io_trps.svl 2023.06)
