@<TRIPOS>MOLECULE
NONAME
45 48 1 0 0 
SMALL
USER_CHARGES


@<TRIPOS>ATOM
  1 O       -1.1410     0.5480    -2.6350 O.2   1 <1>  -0.5700 
  2 C       -1.7640     1.0610    -1.7280 C.2   1 <1>   0.5440 
  3 N       -2.7180     0.3180    -1.0740 N.am  1 <1>  -0.6600 
  4 C       -1.4270     2.4080    -1.3200 C.ar  1 <1>   0.0860 
  5 C       -3.5960     0.7770     0.0320 C.3   1 <1>   0.1400 
  6 C       -2.7700    -1.1580    -1.1530 C.3   1 <1>   0.1400 
  7 C       -0.7200     2.6610    -0.1340 C.ar  1 <1>  -0.0230 
  8 C       -1.7900     3.4900    -2.1180 C.ar  1 <1>  -0.1500 
  9 C       -3.8160    -0.4540     0.9200 C.3   1 <1>   0.2000 
 10 C       -3.0240    -1.6040     0.2870 C.3   1 <1>  -0.0800 
 11 N       -0.3400     1.5940     0.7200 N.pl3 1 <1>   0.3260 
 12 C       -0.4070     3.9690     0.2190 C.ar  1 <1>  -0.1500 
 13 C       -1.4770     4.7860    -1.7580 C.ar  1 <1>  -0.1500 
 14 O       -3.3450    -0.2270     2.2030 O.3   1 <1>  -0.6800 
 15 C       -3.7460    -2.9550     0.3910 C.3   1 <1>   0.0200 
 16 C       -0.6690     1.4220     2.0080 C.2   1 <1>   0.0370 
 17 C        0.2500     0.4200     0.4420 C.2   1 <1>   0.0360 
 18 C       -0.7840     5.0270    -0.5860 C.ar  1 <1>  -0.1500 
 19 C       -2.9240    -4.1010    -0.1740 C.2   1 <1>  -0.0400 
 20 N       -0.3350     0.2630     2.4560 N.2   1 <1>  -0.3380 
 21 N        0.2570    -0.3810     1.4500 N.2   1 <1>  -0.3380 
 22 O       -3.5150    -5.2320    -0.4490 O.3   1 <1>  -0.0190 
 23 C       -1.6230    -4.2350    -0.4770 C.2   1 <1>  -0.1500 
 24 N       -2.6830    -6.1130    -0.9260 N.2   1 <1>  -0.4100 
 25 C       -1.5340    -5.5390    -0.9520 C.2   1 <1>   0.1080 
 26 C       -0.2620    -6.1990    -1.4360 C.3   1 <1>  -0.0590 
 27 H       -3.1590     1.5880     0.5850 H     1 <1>   0.0800 
 28 H       -4.5360     1.0950    -0.3830 H     1 <1>   0.0800 
 29 H       -3.5820    -1.4450    -1.8000 H     1 <1>   0.0800 
 30 H       -1.8500    -1.5660    -1.5360 H     1 <1>   0.0800 
 31 H       -2.3200     3.3030    -3.0370 H     1 <1>   0.1500 
 32 H       -4.8680    -0.6710     0.9870 H     1 <1>   0.0800 
 33 H       -2.0670    -1.6860     0.7710 H     1 <1>   0.0800 
 34 H        0.1380     4.1710     1.1270 H     1 <1>   0.1500 
 35 H       -1.7680     5.6090    -2.3910 H     1 <1>   0.1500 
 36 H       -2.3610    -0.2930     2.2330 H     1 <1>   0.4000 
 37 H       -4.6810    -2.9050    -0.1390 H     1 <1>   0.0800 
 38 H       -3.9640    -3.1700     1.4230 H     1 <1>   0.0800 
 39 H       -1.1720     2.1810     2.5790 H     1 <1>   0.1500 
 40 H        0.6480     0.1940    -0.5320 H     1 <1>   0.1500 
 41 H       -0.5370     6.0380    -0.3060 H     1 <1>   0.1500 
 42 H       -0.8110    -3.5350    -0.3860 H     1 <1>   0.1500 
 43 H        0.4790    -6.1740    -0.6590 H     1 <1>   0.0800 
 44 H        0.1100    -5.6810    -2.3000 H     1 <1>   0.0800 
 45 H       -0.4570    -7.2230    -1.6990 H     1 <1>   0.0800 
@<TRIPOS>BOND
  1   1   2  2   
  2   2   3  am  
  3   2   4  1   
  4   3   5  1   
  5   3   6  1   
  6   4   7  ar  
  7   4   8  ar  
  8   5   9  1   
  9   5  27  1   
 10   5  28  1   
 11   6  10  1   
 12   6  29  1   
 13   6  30  1   
 14   7  11  1   
 15   7  12  ar  
 16   8  13  ar  
 17   8  31  1   
 18   9  10  1   
 19   9  14  1   
 20   9  32  1   
 21  10  15  1   
 22  10  33  1   
 23  11  16  1   
 24  11  17  1   
 25  12  18  ar  
 26  12  34  1   
 27  13  18  ar  
 28  13  35  1   
 29  14  36  1   
 30  15  19  1   
 31  15  37  1   
 32  15  38  1   
 33  16  20  2   
 34  16  39  1   
 35  17  21  2   
 36  17  40  1   
 37  18  41  1   
 38  19  22  1   
 39  19  23  2   
 40  20  21  1   
 41  22  24  1   
 42  23  25  1   
 43  23  42  1   
 44  24  25  2   
 45  25  26  1   
 46  26  43  1   
 47  26  44  1   
 48  26  45  1   
@<TRIPOS>SUBSTRUCTURE
  1 ****   3 GROUP 4 **** **** 0

# MOE 2024.06 (io_trps.svl 2023.06)
