@<TRIPOS>MOLECULE
NONAME
44 46 1 0 0 
SMALL
USER_CHARGES


@<TRIPOS>ATOM
  1 CL       1.4760     4.1700     2.3410 Cl    1 <1>  -0.1770 
  2 C        0.7170     3.3740     0.9800 C.ar  1 <1>   0.1770 
  3 C        1.4150     2.4480     0.2140 C.ar  1 <1>  -0.1440 
  4 C       -0.5970     3.7020     0.7010 C.ar  1 <1>  -0.1500 
  5 C        0.7530     1.8500    -0.8530 C.ar  1 <1>  -0.1500 
  6 C        2.8700     2.1000     0.5210 C.3   1 <1>   0.3640 
  7 C       -1.2410     3.0980    -0.3630 C.ar  1 <1>  -0.1500 
  8 C       -0.5640     2.1720    -1.1380 C.ar  1 <1>  -0.1500 
  9 N        3.0160     0.6240     0.5150 N.am  1 <1>  -0.7300 
 10 C        3.8470     2.7670    -0.4790 C.3   1 <1>   0.2610 
 11 C        4.0600    -0.0220    -0.0510 C.2   1 <1>   0.5690 
 12 O        5.1310     2.1590    -0.4010 O.3   1 <1>  -0.5600 
 13 C        3.9330     4.2660    -0.1930 C.2   1 <1>   0.5690 
 14 O        4.1280    -1.2240    -0.0180 O.2   1 <1>  -0.5700 
 15 C        5.1450     0.7930    -0.7620 C.3   1 <1>   0.1810 
 16 O        3.1050     5.0030    -0.6730 O.2   1 <1>  -0.5700 
 17 N        4.9370     4.7350     0.5970 N.am  1 <1>  -0.7300 
 18 C        5.1220     6.1400     1.0110 C.3   1 <1>   0.1400 
 19 C        6.3980     6.6860     0.3730 C.3   1 <1>  -0.1600 
 20 C        6.6270     8.1520     0.7650 C.3   1 <1>   0.0200 
 21 C        7.8950     8.7260     0.1600 C.2   1 <1>  -0.0400 
 22 O        8.2160     9.9660     0.4720 O.3   1 <1>  -0.2800 
 23 C        8.8160     8.2010    -0.6800 C.2   1 <1>  -0.1500 
 24 C        9.3380    10.2610    -0.1540 C.2   1 <1>  -0.0100 
 25 C        9.7640     9.2110    -0.8860 C.2   1 <1>  -0.1500 
 26 H       -1.1070     4.4250     1.3120 H     1 <1>   0.1500 
 27 H        1.2570     1.1270    -1.4730 H     1 <1>   0.1500 
 28 H        3.1280     2.4380     1.5080 H     1 <1>   0.0800 
 29 H       -2.2640     3.3480    -0.5890 H     1 <1>   0.1500 
 30 H       -1.0640     1.7010    -1.9680 H     1 <1>   0.1500 
 31 H        2.2980     0.0770     0.9920 H     1 <1>   0.3700 
 32 H        3.4830     2.6420    -1.4820 H     1 <1>   0.0800 
 33 H        5.0080     0.7210    -1.8250 H     1 <1>   0.0800 
 34 H        6.1110     0.3950    -0.5090 H     1 <1>   0.0800 
 35 H        5.6740     4.0750     0.8630 H     1 <1>   0.3700 
 36 H        4.2730     6.7270     0.6990 H     1 <1>   0.0800 
 37 H        5.1880     6.1870     2.0850 H     1 <1>   0.0800 
 38 H        7.2390     6.0990     0.6940 H     1 <1>   0.0800 
 39 H        6.3100     6.6190    -0.6980 H     1 <1>   0.0800 
 40 H        6.6970     8.2330     1.8360 H     1 <1>   0.0800 
 41 H        5.7940     8.7490     0.4390 H     1 <1>   0.0800 
 42 H        8.8500     7.2210    -1.1210 H     1 <1>   0.1500 
 43 H        9.7630    11.2400    -0.0230 H     1 <1>   0.1500 
 44 H       10.6380     9.1300    -1.5070 H     1 <1>   0.1500 
@<TRIPOS>BOND
  1   1   2  1   
  2   2   3  ar  
  3   2   4  ar  
  4   3   5  ar  
  5   3   6  1   
  6   4   7  ar  
  7   4  26  1   
  8   5   8  ar  
  9   5  27  1   
 10   6   9  1   
 11   6  10  1   
 12   6  28  1   
 13   7   8  ar  
 14   7  29  1   
 15   8  30  1   
 16   9  11  am  
 17   9  31  1   
 18  10  12  1   
 19  10  13  1   
 20  10  32  1   
 21  11  14  2   
 22  11  15  1   
 23  12  15  1   
 24  13  16  2   
 25  13  17  am  
 26  15  33  1   
 27  15  34  1   
 28  17  18  1   
 29  17  35  1   
 30  18  19  1   
 31  18  36  1   
 32  18  37  1   
 33  19  20  1   
 34  19  38  1   
 35  19  39  1   
 36  20  21  1   
 37  20  40  1   
 38  20  41  1   
 39  21  22  1   
 40  21  23  2   
 41  22  24  1   
 42  23  25  1   
 43  23  42  1   
 44  24  25  2   
 45  24  43  1   
 46  25  44  1   
@<TRIPOS>SUBSTRUCTURE
  1 ****  13 GROUP 4 **** **** 0

# MOE 2024.06 (io_trps.svl 2023.06)
