@<TRIPOS>MOLECULE
NONAME
53 56 1 0 0 
SMALL
USER_CHARGES


@<TRIPOS>ATOM
  1 O       -1.7410     1.3160     1.4970 O.2   1 <1>  -0.5700 
  2 C       -1.4530     2.4170     1.0660 C.2   1 <1>   0.5440 
  3 N       -2.5030     3.2720     0.8300 N.am  1 <1>  -0.6600 
  4 C       -0.0880     2.7980     0.7730 C.ar  1 <1>   0.0860 
  5 C       -3.6980     3.2700     1.7430 C.3   1 <1>   0.1400 
  6 C       -2.6780     3.8930    -0.5120 C.3   1 <1>   0.1400 
  7 C        0.8620     1.9430     0.1910 C.ar  1 <1>   0.0000 
  8 C        0.3740     4.0760     1.0440 C.ar  1 <1>  -0.1500 
  9 C       -4.8130     2.2770     1.3150 C.3   1 <1>   0.4230 
 10 C       -3.9540     3.4050    -1.2300 C.3   1 <1>  -0.0800 
 11 C        2.1150     2.4450    -0.0680 C.ar  1 <1>   0.3970 
 12 C        0.9760     0.6180    -0.2830 C.2   1 <1>   0.1080 
 13 C        1.6790     4.4630     0.7390 C.ar  1 <1>   0.1660 
 14 N       -4.3000     1.3250     0.2630 N.4   1 <1>  -0.9590 
 15 C       -6.1360     2.9980     0.9400 C.3   1 <1>   0.1200 
 16 C       -5.2020     4.2360    -0.8640 C.3   1 <1>   0.1200 
 17 C       -4.2070     1.8830    -1.1350 C.3   1 <1>   0.3430 
 18 O        2.8320     1.4920    -0.6330 O.3   1 <1>  -0.0190 
 19 N        2.5640     3.6750     0.1800 N.ar  1 <1>  -0.5670 
 20 N        2.1380     0.3890    -0.7640 N.2   1 <1>  -0.4100 
 21 C       -0.0980    -0.4500    -0.2590 C.3   1 <1>  -0.0590 
 22 C        2.1460     5.8690     1.0560 C.3   1 <1>  -0.0970 
 23 C       -5.0120     0.0250     0.3000 C.3   1 <1>   0.3430 
 24 O       -6.2160     3.4040    -0.3980 O.3   1 <1>  -0.5600 
 25 C       -4.1430    -1.0670    -0.3230 C.3   1 <1>  -0.1600 
 26 C       -4.8270    -2.4350    -0.2260 C.3   1 <1>  -0.2400 
 27 H       -3.3700     2.9880     2.7300 H     1 <1>   0.0800 
 28 H       -4.0860     4.2690     1.8290 H     1 <1>   0.0800 
 29 H       -2.6930     4.9660    -0.4100 H     1 <1>   0.0800 
 30 H       -1.8270     3.6450    -1.1250 H     1 <1>   0.0800 
 31 H       -0.2860     4.7890     1.5030 H     1 <1>   0.1500 
 32 H       -5.0320     1.7060     2.2020 H     1 <1>   0.0800 
 33 H       -3.7860     3.6130    -2.2720 H     1 <1>   0.0800 
 34 H       -3.3230     1.1590     0.5810 H     1 <1>   0.4500 
 35 H       -6.2970     3.8580     1.5660 H     1 <1>   0.0800 
 36 H       -6.9590     2.3250     1.1050 H     1 <1>   0.0800 
 37 H       -5.5830     4.7210    -1.7470 H     1 <1>   0.0800 
 38 H       -5.0000     4.9990    -0.1310 H     1 <1>   0.0800 
 39 H       -3.4230     1.3660    -1.6630 H     1 <1>   0.0800 
 40 H       -5.1320     1.6770    -1.6510 H     1 <1>   0.0800 
 41 H       -0.9950    -0.0830    -0.7190 H     1 <1>   0.0800 
 42 H       -0.3010    -0.7390     0.7560 H     1 <1>   0.0800 
 43 H        0.2360    -1.3180    -0.7990 H     1 <1>   0.0800 
 44 H        1.3670     6.4500     1.5130 H     1 <1>   0.0800 
 45 H        2.4580     6.3570     0.1500 H     1 <1>   0.0800 
 46 H        2.9850     5.8260     1.7260 H     1 <1>   0.0800 
 47 H       -5.2200    -0.2450     1.3230 H     1 <1>   0.0800 
 48 H       -5.9510     0.1020    -0.2260 H     1 <1>   0.0800 
 49 H       -3.9570    -0.8540    -1.3610 H     1 <1>   0.0800 
 50 H       -3.2020    -1.1180     0.1970 H     1 <1>   0.0800 
 51 H       -5.7670    -2.4320    -0.7510 H     1 <1>   0.0800 
 52 H       -5.0040    -2.7030     0.8020 H     1 <1>   0.0800 
 53 H       -4.2000    -3.1930    -0.6650 H     1 <1>   0.0800 
@<TRIPOS>BOND
  1   1   2  2   
  2   2   3  am  
  3   2   4  1   
  4   3   5  1   
  5   3   6  1   
  6   4   7  ar  
  7   4   8  ar  
  8   5   9  1   
  9   5  27  1   
 10   5  28  1   
 11   6  10  1   
 12   6  29  1   
 13   6  30  1   
 14   7  11  ar  
 15   7  12  1   
 16   8  13  ar  
 17   8  31  1   
 18   9  14  1   
 19   9  15  1   
 20   9  32  1   
 21  10  16  1   
 22  10  17  1   
 23  10  33  1   
 24  11  18  1   
 25  11  19  ar  
 26  12  20  2   
 27  12  21  1   
 28  13  19  ar  
 29  13  22  1   
 30  14  17  1   
 31  14  23  1   
 32  14  34  1   
 33  15  24  1   
 34  15  35  1   
 35  15  36  1   
 36  16  24  1   
 37  16  37  1   
 38  16  38  1   
 39  17  39  1   
 40  17  40  1   
 41  18  20  1   
 42  21  41  1   
 43  21  42  1   
 44  21  43  1   
 45  22  44  1   
 46  22  45  1   
 47  22  46  1   
 48  23  25  1   
 49  23  47  1   
 50  23  48  1   
 51  25  26  1   
 52  25  49  1   
 53  25  50  1   
 54  26  51  1   
 55  26  52  1   
 56  26  53  1   
@<TRIPOS>SUBSTRUCTURE
  1 ****   2 GROUP 4 **** **** 0

# MOE 2024.06 (io_trps.svl 2023.06)
