@<TRIPOS>MOLECULE
NONAME
45 47 1 0 0 
SMALL
USER_CHARGES


@<TRIPOS>ATOM
  1 O       -0.5370     0.2400    -0.2810 O.2   1 <1>  -0.5700 
  2 C       -1.5760     0.8380    -0.5000 C.2   1 <1>   0.7150 
  3 N       -2.7560     0.1350    -0.4600 N.am  1 <1>  -0.6600 
  4 C       -1.5530     2.2530    -0.7820 C.2   1 <1>  -0.2370 
  5 C       -4.0980     0.7360    -0.3040 C.3   1 <1>   0.1400 
  6 C       -2.8080    -1.3240    -0.2300 C.3   1 <1>   0.1400 
  7 N       -0.6800     3.1370    -0.1980 N.pl3 1 <1>   0.0480 
  8 C       -2.3370     2.9740    -1.6480 C.2   1 <1>  -0.1500 
  9 C       -4.9240    -0.3160     0.4470 C.3   1 <1>  -0.0800 
 10 C       -4.2770    -1.6570     0.0510 C.3   1 <1>  -0.0800 
 11 C       -0.9360     4.3710    -0.6890 C.2   1 <1>  -0.3020 
 12 C        0.3650     2.8240     0.7980 C.3   1 <1>   0.0160 
 13 C       -1.9580     4.3170    -1.5940 C.2   1 <1>   0.0190 
 14 C       -6.4700    -0.2450     0.2500 C.3   1 <1>   0.2800 
 15 C       -4.9850    -2.2710    -1.1670 C.3   1 <1>  -0.1600 
 16 C       -2.5450     5.3870    -2.3500 C.1   1 <1>   0.5380 
 17 O       -6.7730     0.3290    -0.9700 O.3   1 <1>  -0.6800 
 18 C       -7.0680    -1.6640     0.2260 C.3   1 <1>  -0.1600 
 19 C       -7.1710     0.6050     1.3330 C.3   1 <1>  -0.1600 
 20 C       -6.4660    -2.5690    -0.8710 C.3   1 <1>  -0.1600 
 21 N       -3.0140     6.2370    -2.9490 N.1   1 <1>  -0.5570 
 22 C       -6.7310     2.0770     1.4150 C.3   1 <1>  -0.2400 
 23 H       -4.0500     1.6630     0.2400 H     1 <1>   0.0800 
 24 H       -4.4930     0.9180    -1.2880 H     1 <1>   0.0800 
 25 H       -2.4330    -1.8510    -1.0910 H     1 <1>   0.0800 
 26 H       -2.2000    -1.5670     0.6250 H     1 <1>   0.0800 
 27 H       -3.1170     2.5880    -2.2810 H     1 <1>   0.1500 
 28 H       -4.7180    -0.1870     1.4940 H     1 <1>   0.0800 
 29 H       -4.3310    -2.3590     0.8660 H     1 <1>   0.0800 
 30 H       -0.3840     5.2410    -0.3830 H     1 <1>   0.1500 
 31 H        0.7930     3.7340     1.1760 H     1 <1>   0.0800 
 32 H        1.1300     2.2320     0.3320 H     1 <1>   0.0800 
 33 H       -0.0700     2.2680     1.6080 H     1 <1>   0.0800 
 34 H       -4.9260    -1.5740    -1.9870 H     1 <1>   0.0800 
 35 H       -4.4890    -3.1750    -1.4730 H     1 <1>   0.0800 
 36 H       -7.7360     0.2990    -1.1090 H     1 <1>   0.4000 
 37 H       -6.8730    -2.1190     1.1810 H     1 <1>   0.0800 
 38 H       -8.1370    -1.6230     0.1150 H     1 <1>   0.0800 
 39 H       -8.2340     0.5760     1.1640 H     1 <1>   0.0800 
 40 H       -7.0000     0.1490     2.2930 H     1 <1>   0.0800 
 41 H       -6.5730    -3.5960    -0.5660 H     1 <1>   0.0800 
 42 H       -7.0240    -2.4460    -1.7840 H     1 <1>   0.0800 
 43 H       -6.8350     2.5610     0.4590 H     1 <1>   0.0800 
 44 H       -5.7080     2.1550     1.7350 H     1 <1>   0.0800 
 45 H       -7.3430     2.6020     2.1270 H     1 <1>   0.0800 
@<TRIPOS>BOND
  1   1   2  2   
  2   2   3  am  
  3   2   4  1   
  4   3   5  1   
  5   3   6  1   
  6   4   7  1   
  7   4   8  2   
  8   5   9  1   
  9   5  23  1   
 10   5  24  1   
 11   6  10  1   
 12   6  25  1   
 13   6  26  1   
 14   7  11  1   
 15   7  12  1   
 16   8  13  1   
 17   8  27  1   
 18   9  10  1   
 19   9  14  1   
 20   9  28  1   
 21  10  15  1   
 22  10  29  1   
 23  11  13  2   
 24  11  30  1   
 25  12  31  1   
 26  12  32  1   
 27  12  33  1   
 28  13  16  1   
 29  14  17  1   
 30  14  18  1   
 31  14  19  1   
 32  15  20  1   
 33  15  34  1   
 34  15  35  1   
 35  16  21  3   
 36  17  36  1   
 37  18  20  1   
 38  18  37  1   
 39  18  38  1   
 40  19  22  1   
 41  19  39  1   
 42  19  40  1   
 43  20  41  1   
 44  20  42  1   
 45  22  43  1   
 46  22  44  1   
 47  22  45  1   
@<TRIPOS>SUBSTRUCTURE
  1 ****   5 GROUP 4 **** **** 0

# MOE 2024.06 (io_trps.svl 2023.06)
