@<TRIPOS>MOLECULE
NONAME
37 39 1 0 0 
SMALL
USER_CHARGES


@<TRIPOS>ATOM
  1 O        1.1000     3.1990     1.2130 O.co2 1 <1>  -0.9000 
  2 C        2.0680     2.5720     1.6670 C.2   1 <1>   0.9470 
  3 O        2.4130     2.6950     2.8490 O.co2 1 <1>  -0.9000 
  4 C        2.9810     1.8240     0.6960 C.3   1 <1>  -0.2420 
  5 C        3.2190     0.3610     0.4050 C.3   1 <1>  -0.2420 
  6 C        4.3160     2.5340     0.5990 C.3   1 <1>   0.2350 
  7 C        2.3520     1.1830    -0.5150 C.3   1 <1>  -0.2000 
  8 C        2.6340    -0.9040     1.0430 C.2   1 <1>   0.9470 
  9 C        4.7020     0.1900     0.1050 C.3   1 <1>   0.2350 
 10 N        5.2090     1.5740    -0.1110 N.am  1 <1>  -0.6600 
 11 O        1.6050    -1.4100     0.5730 O.co2 1 <1>  -0.9000 
 12 O        3.2830    -1.4860     1.9240 O.co2 1 <1>  -0.9000 
 13 C        6.1690     1.8880    -1.0280 C.2   1 <1>   0.5690 
 14 O        6.8340     1.0360    -1.5770 O.2   1 <1>  -0.5700 
 15 C        6.4260     3.3370    -1.4230 C.3   1 <1>   0.0440 
 16 C        7.0370     4.1940    -0.3080 C.ar  1 <1>  -0.1430 
 17 C        6.5890     5.4810    -0.0090 C.ar  1 <1>  -0.1430 
 18 C        8.0880     3.6560     0.4240 C.ar  1 <1>  -0.1500 
 19 C        7.1920     6.1910     1.0180 C.ar  1 <1>  -0.1500 
 20 C        5.4500     6.1490    -0.7690 C.3   1 <1>  -0.0970 
 21 C        8.6840     4.3730     1.4440 C.ar  1 <1>  -0.1500 
 22 C        8.2340     5.6440     1.7440 C.ar  1 <1>  -0.1500 
 23 H        4.7040     2.7230     1.5860 H     1 <1>   0.0800 
 24 H        4.2030     3.4600     0.0710 H     1 <1>   0.0800 
 25 H        2.7070     1.4360    -1.4960 H     1 <1>   0.1000 
 26 H        1.2880     1.0100    -0.4930 H     1 <1>   0.1000 
 27 H        4.8510    -0.4250    -0.7640 H     1 <1>   0.0800 
 28 H        5.2080    -0.2460     0.9500 H     1 <1>   0.0800 
 29 H        7.1040     3.3430    -2.2560 H     1 <1>   0.0800 
 30 H        5.4970     3.7390    -1.7730 H     1 <1>   0.0800 
 31 H        8.4470     2.6650     0.2050 H     1 <1>   0.1500 
 32 H        6.8510     7.1810     1.2650 H     1 <1>   0.1500 
 33 H        5.3540     7.1820    -0.4890 H     1 <1>   0.0800 
 34 H        4.5200     5.6560    -0.5490 H     1 <1>   0.0800 
 35 H        5.6320     6.1070    -1.8270 H     1 <1>   0.0800 
 36 H        9.4930     3.9390     2.0050 H     1 <1>   0.1500 
 37 H        8.6900     6.2040     2.5400 H     1 <1>   0.1500 
@<TRIPOS>BOND
  1   1   2  ar  
  2   2   3  ar  
  3   2   4  1   
  4   4   5  1   
  5   4   6  1   
  6   4   7  1   
  7   5   7  1   
  8   5   8  1   
  9   5   9  1   
 10   6  10  1   
 11   6  23  1   
 12   6  24  1   
 13   7  25  1   
 14   7  26  1   
 15   8  11  ar  
 16   8  12  ar  
 17   9  10  1   
 18   9  27  1   
 19   9  28  1   
 20  10  13  am  
 21  13  14  2   
 22  13  15  1   
 23  15  16  1   
 24  15  29  1   
 25  15  30  1   
 26  16  17  ar  
 27  16  18  ar  
 28  17  19  ar  
 29  17  20  1   
 30  18  21  ar  
 31  18  31  1   
 32  19  22  ar  
 33  19  32  1   
 34  20  33  1   
 35  20  34  1   
 36  20  35  1   
 37  21  22  ar  
 38  21  36  1   
 39  22  37  1   
@<TRIPOS>SUBSTRUCTURE
  1 ****   6 GROUP 4 **** **** 0

# MOE 2024.06 (io_trps.svl 2023.06)
