@<TRIPOS>MOLECULE
NONAME
46 49 1 0 0 
SMALL
USER_CHARGES


@<TRIPOS>ATOM
  1 CL      -1.7410    -0.5740     2.2260 Cl    1 <1>  -0.1770 
  2 C       -2.4430    -1.2890     0.7970 C.ar  1 <1>   0.1770 
  3 C       -3.8010    -1.1550     0.5730 C.ar  1 <1>  -0.1500 
  4 C       -1.6320    -1.9750    -0.0860 C.ar  1 <1>  -0.1500 
  5 C       -4.3670    -1.7160    -0.5630 C.ar  1 <1>  -0.1440 
  6 C       -2.1960    -2.5400    -1.2170 C.ar  1 <1>  -0.1500 
  7 C       -3.5560    -2.4100    -1.4510 C.ar  1 <1>  -0.1500 
  8 C       -5.8620    -1.5690    -0.8380 C.3   1 <1>   0.0450 
  9 C       -6.7200    -2.7640    -0.4210 C.2   1 <1>   0.5690 
 10 O       -6.1730    -3.8050    -0.1400 O.2   1 <1>  -0.5700 
 11 N       -8.0900    -2.6580    -0.3830 N.am  1 <1>  -0.6600 
 12 C       -8.8890    -1.4520    -0.7670 C.3   1 <1>   0.1400 
 13 C       -8.9060    -3.8430     0.0330 C.3   1 <1>   0.1400 
 14 C       -9.7730    -0.9710     0.4070 C.3   1 <1>   0.1430 
 15 C      -10.3590    -3.4670     0.3720 C.3   1 <1>  -0.1600 
 16 C      -10.8040    -0.0170    -0.1730 C.ar  1 <1>   0.1670 
 17 C      -10.4160    -2.1580     1.1750 C.3   1 <1>  -0.1600 
 18 C       -8.9840    -0.0460     1.3720 C.3   1 <1>  -0.1600 
 19 N      -11.8530    -0.3650    -0.8790 N.ar  1 <1>  -0.6200 
 20 C      -10.4980     1.2830     0.1080 C.ar  1 <1>  -0.1440 
 21 C       -9.2290     1.4020     0.9130 C.3   1 <1>  -0.0170 
 22 C      -12.5910     0.6550    -1.2890 C.ar  1 <1>   0.7200 
 23 C      -11.3440     2.2570    -0.3640 C.ar  1 <1>   0.1600 
 24 N      -12.4100     1.9500    -1.0680 N.ar  1 <1>  -0.6200 
 25 N      -13.6740     0.3370    -1.9990 N.pl3 1 <1>  -0.9000 
 26 H       -4.3970    -0.6180     1.2870 H     1 <1>   0.1500 
 27 H       -0.5800    -2.0660     0.1130 H     1 <1>   0.1500 
 28 H       -1.5800    -3.0840    -1.9130 H     1 <1>   0.1500 
 29 H       -3.9850    -2.8630    -2.3280 H     1 <1>   0.1500 
 30 H       -6.0080    -1.4080    -1.8890 H     1 <1>   0.0800 
 31 H       -6.2110    -0.6970    -0.3210 H     1 <1>   0.0800 
 32 H       -9.5250    -1.7260    -1.5920 H     1 <1>   0.0800 
 33 H       -8.2660    -0.6480    -1.1110 H     1 <1>   0.0800 
 34 H       -8.4470    -4.2840     0.9020 H     1 <1>   0.0800 
 35 H       -8.8910    -4.5780    -0.7540 H     1 <1>   0.0800 
 36 H      -10.8060    -4.2650     0.9380 H     1 <1>   0.0800 
 37 H      -10.9260    -3.3610    -0.5360 H     1 <1>   0.0800 
 38 H      -11.4370    -1.9260     1.4280 H     1 <1>   0.0800 
 39 H       -9.8860    -2.3270     2.0960 H     1 <1>   0.0800 
 40 H       -7.9380    -0.2910     1.4120 H     1 <1>   0.0800 
 41 H       -9.3870    -0.1390     2.3660 H     1 <1>   0.0800 
 42 H       -8.4280     1.7450     0.2820 H     1 <1>   0.0800 
 43 H       -9.3470     2.0680     1.7500 H     1 <1>   0.0800 
 44 H      -11.1470     3.2970    -0.1630 H     1 <1>   0.1500 
 45 H      -14.3860     1.0610    -2.0450 H     1 <1>   0.4000 
 46 H      -13.9960    -0.6190    -1.8900 H     1 <1>   0.4000 
@<TRIPOS>BOND
  1   1   2  1   
  2   2   3  ar  
  3   2   4  ar  
  4   3   5  ar  
  5   3  26  1   
  6   4   6  ar  
  7   4  27  1   
  8   5   7  ar  
  9   5   8  1   
 10   6   7  ar  
 11   6  28  1   
 12   7  29  1   
 13   8   9  1   
 14   8  30  1   
 15   8  31  1   
 16   9  10  2   
 17   9  11  am  
 18  11  12  1   
 19  11  13  1   
 20  12  14  1   
 21  12  32  1   
 22  12  33  1   
 23  13  15  1   
 24  13  34  1   
 25  13  35  1   
 26  14  16  1   
 27  14  17  1   
 28  14  18  1   
 29  15  17  1   
 30  15  36  1   
 31  15  37  1   
 32  16  19  ar  
 33  16  20  ar  
 34  17  38  1   
 35  17  39  1   
 36  18  21  1   
 37  18  40  1   
 38  18  41  1   
 39  19  22  ar  
 40  20  21  1   
 41  20  23  ar  
 42  21  42  1   
 43  21  43  1   
 44  22  24  ar  
 45  22  25  1   
 46  23  24  ar  
 47  23  44  1   
 48  25  45  1   
 49  25  46  1   
@<TRIPOS>SUBSTRUCTURE
  1 ****  12 GROUP 4 **** **** 0

# MOE 2024.06 (io_trps.svl 2023.06)
