@<TRIPOS>MOLECULE
NONAME
51 54 1 0 0 
SMALL
USER_CHARGES


@<TRIPOS>ATOM
  1 O       -2.0670     1.1170     2.1850 O.2   1 <1>  -0.5700 
  2 C       -2.2720     1.2360     0.9880 C.2   1 <1>   0.5440 
  3 N       -3.1060     0.3180     0.4010 N.am  1 <1>  -0.6600 
  4 C       -1.6570     2.3040     0.1940 C.ar  1 <1>   0.3960 
  5 C       -2.7390    -1.1310     0.4400 C.3   1 <1>   0.3640 
  6 C       -4.5520     0.6280     0.3070 C.3   1 <1>   0.1400 
  7 N       -2.4360     2.9970    -0.6330 N.ar  1 <1>  -0.6200 
  8 C       -0.2930     2.5870     0.2730 C.ar  1 <1>  -0.1440 
  9 C       -1.2860    -1.2600    -0.0360 C.ar  1 <1>  -0.1440 
 10 C       -3.6710    -2.0190    -0.4430 C.3   1 <1>   0.2000 
 11 C       -5.2200    -0.2610    -0.7420 C.3   1 <1>   0.1200 
 12 C       -1.8390     3.9210    -1.3440 C.ar  1 <1>   0.7200 
 13 C        0.1970     3.6020    -0.5260 C.ar  1 <1>   0.1660 
 14 C        0.6360     1.8050     1.2080 C.3   1 <1>  -0.0170 
 15 C       -0.8850    -0.7280    -1.2560 C.ar  1 <1>  -0.1500 
 16 C       -0.3450    -1.9040     0.7550 C.ar  1 <1>  -0.1500 
 17 O       -5.0140    -1.6010    -0.4120 O.3   1 <1>  -0.5600 
 18 C       -3.6940    -3.5020    -0.0270 C.3   1 <1>   0.1200 
 19 N       -0.5740     4.2760    -1.3390 N.ar  1 <1>  -0.6200 
 20 N       -2.6230     4.6150    -2.1690 N.pl3 1 <1>  -0.9000 
 21 C        1.6670     3.9990    -0.5380 C.3   1 <1>  -0.0170 
 22 C        2.1170     1.9540     0.8490 C.3   1 <1>  -0.1600 
 23 C        0.4280    -0.8410    -1.6770 C.ar  1 <1>  -0.1500 
 24 C        0.9680    -2.0210     0.3340 C.ar  1 <1>  -0.1500 
 25 O       -2.4210    -4.0460     0.1080 O.3   1 <1>  -0.6800 
 26 C        2.4650     3.4280     0.6400 C.3   1 <1>  -0.1600 
 27 C        1.3560    -1.4900    -0.8830 C.ar  1 <1>  -0.1500 
 28 H       -2.8130    -1.4660     1.4610 H     1 <1>   0.0800 
 29 H       -5.0150     0.4640     1.2650 H     1 <1>   0.0800 
 30 H       -4.6850     1.6620     0.0410 H     1 <1>   0.0800 
 31 H       -3.3520    -1.9570    -1.4670 H     1 <1>   0.0800 
 32 H       -4.8170    -0.0710    -1.7220 H     1 <1>   0.0800 
 33 H       -6.2800    -0.0850    -0.7580 H     1 <1>   0.0800 
 34 H        0.4790     2.1560     2.2140 H     1 <1>   0.0800 
 35 H        0.3910     0.7590     1.1890 H     1 <1>   0.0800 
 36 H       -1.5950    -0.2110    -1.8800 H     1 <1>   0.1500 
 37 H       -0.6340    -2.3210     1.7050 H     1 <1>   0.1500 
 38 H       -4.2210    -4.0790    -0.7660 H     1 <1>   0.0800 
 39 H       -4.1890    -3.6100     0.9220 H     1 <1>   0.0800 
 40 H       -3.6090     4.6330    -1.9290 H     1 <1>   0.4000 
 41 H       -2.2200     5.4870    -2.4990 H     1 <1>   0.4000 
 42 H        2.0940     3.6450    -1.4600 H     1 <1>   0.0800 
 43 H        1.7460     5.0710    -0.5330 H     1 <1>   0.0800 
 44 H        2.7200     1.5400     1.6390 H     1 <1>   0.0800 
 45 H        2.3230     1.4010    -0.0520 H     1 <1>   0.0800 
 46 H        0.7270    -0.4210    -2.6220 H     1 <1>   0.1500 
 47 H        1.6870    -2.5260     0.9550 H     1 <1>   0.1500 
 48 H       -1.8390    -3.7890    -0.6370 H     1 <1>   0.4000 
 49 H        3.5190     3.5380     0.4500 H     1 <1>   0.0800 
 50 H        2.2280     3.9820     1.5330 H     1 <1>   0.0800 
 51 H        2.3770    -1.5810    -1.2100 H     1 <1>   0.1500 
@<TRIPOS>BOND
  1   1   2  2   
  2   2   3  am  
  3   2   4  1   
  4   3   5  1   
  5   3   6  1   
  6   4   7  ar  
  7   4   8  ar  
  8   5   9  1   
  9   5  10  1   
 10   5  28  1   
 11   6  11  1   
 12   6  29  1   
 13   6  30  1   
 14   7  12  ar  
 15   8  13  ar  
 16   8  14  1   
 17   9  15  ar  
 18   9  16  ar  
 19  10  17  1   
 20  10  18  1   
 21  10  31  1   
 22  11  17  1   
 23  11  32  1   
 24  11  33  1   
 25  12  19  ar  
 26  12  20  1   
 27  13  19  ar  
 28  13  21  1   
 29  14  22  1   
 30  14  34  1   
 31  14  35  1   
 32  15  23  ar  
 33  15  36  1   
 34  16  24  ar  
 35  16  37  1   
 36  18  25  1   
 37  18  38  1   
 38  18  39  1   
 39  20  40  1   
 40  20  41  1   
 41  21  26  1   
 42  21  42  1   
 43  21  43  1   
 44  22  26  1   
 45  22  44  1   
 46  22  45  1   
 47  23  27  ar  
 48  23  46  1   
 49  24  27  ar  
 50  24  47  1   
 51  25  48  1   
 52  26  49  1   
 53  26  50  1   
 54  27  51  1   
@<TRIPOS>SUBSTRUCTURE
  1 ****   2 GROUP 4 **** **** 0

# MOE 2024.06 (io_trps.svl 2023.06)
