@<TRIPOS>MOLECULE
NONAME
57 60 1 0 0 
SMALL
USER_CHARGES


@<TRIPOS>ATOM
  1 O        0.0830    -1.1030     0.0000 O.3   1 <1>  -0.5600 
  2 C       -1.0720    -1.7010     0.5150 C.3   1 <1>   0.1200 
  3 C        0.8090    -1.9200    -0.8680 C.3   1 <1>   0.1200 
  4 C       -0.7130    -2.9640     1.3170 C.3   1 <1>   0.2090 
  5 C        1.2810    -3.1930    -0.1390 C.3   1 <1>   0.2090 
  6 N        0.1240    -3.9170     0.4960 N.pl3 1 <1>  -0.8380 
  7 C       -0.2040    -5.2320     0.3710 C.ar  1 <1>   0.7710 
  8 N       -1.3560    -5.6660     0.8650 N.ar  1 <1>  -0.6200 
  9 N        0.6530    -6.0650    -0.2480 N.ar  1 <1>  -0.1790 
 10 C       -1.6580    -6.9360     0.7230 C.ar  1 <1>   0.4100 
 11 C        0.3850    -7.3810    -0.4160 C.ar  1 <1>   0.2180 
 12 N       -2.8480    -7.2790     1.2480 N.pl3 1 <1>  -0.8690 
 13 C       -0.7910    -7.8350     0.0730 C.ar  1 <1>  -0.1500 
 14 C        1.3960    -8.2700    -1.1280 C.3   1 <1>  -0.0170 
 15 C       -3.5800    -8.5660     1.2860 C.3   1 <1>   0.2890 
 16 C        1.5690    -7.8800    -2.6010 C.3   1 <1>  -0.2400 
 17 C       -2.8000    -9.5950     2.1170 C.3   1 <1>  -0.1600 
 18 C       -3.9350    -9.0080    -0.1400 C.3   1 <1>  -0.1600 
 19 C       -3.3740   -11.0040     1.9800 C.3   1 <1>   0.2090 
 20 C       -4.5200   -10.4150    -0.1610 C.3   1 <1>   0.2090 
 21 N       -3.5880   -11.3250     0.5470 N.pl3 1 <1>  -0.8380 
 22 C       -2.6450   -12.0500    -0.1630 C.ar  1 <1>   0.4100 
 23 N       -1.3860   -11.6280    -0.0440 N.ar  1 <1>  -0.6200 
 24 C       -3.0200   -13.1550    -0.9450 C.ar  1 <1>   0.0730 
 25 C       -0.4700   -12.3260    -0.6910 C.ar  1 <1>   0.1600 
 26 C       -4.3890   -13.5560    -1.0420 C.1   1 <1>   0.4840 
 27 C       -2.0370   -13.8560    -1.6190 C.ar  1 <1>  -0.1500 
 28 C       -0.7350   -13.4280    -1.4810 C.ar  1 <1>  -0.1500 
 29 N       -5.4770   -13.8790    -1.1620 N.1   1 <1>  -0.5570 
 30 H       -1.7340    -1.9410    -0.2990 H     1 <1>   0.0800 
 31 H       -1.5560    -0.9820     1.1520 H     1 <1>   0.0800 
 32 H        1.6540    -1.3530    -1.2160 H     1 <1>   0.0800 
 33 H        0.1860    -2.1660    -1.7110 H     1 <1>   0.0800 
 34 H       -1.6270    -3.4170     1.6600 H     1 <1>   0.0800 
 35 H       -0.1580    -2.6690     2.1920 H     1 <1>   0.0800 
 36 H        1.9840    -2.9060     0.6260 H     1 <1>   0.0800 
 37 H        1.7970    -3.8130    -0.8490 H     1 <1>   0.0800 
 38 H        1.5190    -5.6560    -0.5670 H     1 <1>   0.4570 
 39 H       -3.3550    -6.5130     1.6990 H     1 <1>   0.4000 
 40 H       -1.0660    -8.8660    -0.0290 H     1 <1>   0.1500 
 41 H        1.0630    -9.2930    -1.0800 H     1 <1>   0.0800 
 42 H        2.3450    -8.2200    -0.6220 H     1 <1>   0.0800 
 43 H       -4.5130    -8.3980     1.7990 H     1 <1>   0.0800 
 44 H        0.6260    -7.9380    -3.1180 H     1 <1>   0.0800 
 45 H        2.2540    -8.5600    -3.0800 H     1 <1>   0.0800 
 46 H        1.9610    -6.8840    -2.7040 H     1 <1>   0.0800 
 47 H       -2.8290    -9.3090     3.1520 H     1 <1>   0.0800 
 48 H       -1.7720    -9.6390     1.8280 H     1 <1>   0.0800 
 49 H       -3.0760    -9.0070    -0.7790 H     1 <1>   0.0800 
 50 H       -4.6530    -8.3250    -0.5540 H     1 <1>   0.0800 
 51 H       -4.3150   -11.0740     2.4990 H     1 <1>   0.0800 
 52 H       -2.6970   -11.7200     2.4170 H     1 <1>   0.0800 
 53 H       -4.6560   -10.7360    -1.1800 H     1 <1>   0.0800 
 54 H       -5.4780   -10.4340     0.3300 H     1 <1>   0.0800 
 55 H        0.5520   -12.0060    -0.5860 H     1 <1>   0.1500 
 56 H       -2.2800   -14.7100    -2.2290 H     1 <1>   0.1500 
 57 H        0.0670   -13.9450    -1.9790 H     1 <1>   0.1500 
@<TRIPOS>BOND
  1   1   2  1   
  2   1   3  1   
  3   2   4  1   
  4   2  30  1   
  5   2  31  1   
  6   3   5  1   
  7   3  32  1   
  8   3  33  1   
  9   4   6  1   
 10   4  34  1   
 11   4  35  1   
 12   5   6  1   
 13   5  36  1   
 14   5  37  1   
 15   6   7  1   
 16   7   8  ar  
 17   7   9  ar  
 18   8  10  ar  
 19   9  11  ar  
 20   9  38  1   
 21  10  12  1   
 22  10  13  ar  
 23  11  13  ar  
 24  11  14  1   
 25  12  15  1   
 26  12  39  1   
 27  13  40  1   
 28  14  16  1   
 29  14  41  1   
 30  14  42  1   
 31  15  17  1   
 32  15  18  1   
 33  15  43  1   
 34  16  44  1   
 35  16  45  1   
 36  16  46  1   
 37  17  19  1   
 38  17  47  1   
 39  17  48  1   
 40  18  20  1   
 41  18  49  1   
 42  18  50  1   
 43  19  21  1   
 44  19  51  1   
 45  19  52  1   
 46  20  21  1   
 47  20  53  1   
 48  20  54  1   
 49  21  22  1   
 50  22  23  ar  
 51  22  24  ar  
 52  23  25  ar  
 53  24  26  1   
 54  24  27  ar  
 55  25  28  ar  
 56  25  55  1   
 57  26  29  3   
 58  27  28  ar  
 59  27  56  1   
 60  28  57  1   
@<TRIPOS>SUBSTRUCTURE
  1 ****  13 GROUP 4 **** **** 0

# MOE 2024.06 (io_trps.svl 2023.06)
