@<TRIPOS>MOLECULE
NONAME
49 51 1 0 0 
SMALL
USER_CHARGES


@<TRIPOS>ATOM
  1 S        0.9620    -1.2050     2.4560 S.o2  1 <1>   1.4470 
  2 O        1.9440    -2.2640     2.5280 O.2   1 <1>  -0.6500 
  3 O        0.5520    -0.5180     3.6570 O.2   1 <1>  -0.6500 
  4 N       -0.4460    -1.9020     1.8740 N.am  1 <1>  -0.9140 
  5 C        1.3800    -0.0220     1.1460 C.ar  1 <1>  -0.0090 
  6 C       -0.2390    -2.9930     0.9300 C.3   1 <1>   0.2760 
  7 C        2.5850    -0.1000     0.4570 C.ar  1 <1>  -0.1500 
  8 C        0.4920     0.9840     0.7860 C.ar  1 <1>  -0.1500 
  9 C       -1.4970    -3.2050     0.1010 C.3   1 <1>  -0.0800 
 10 C       -0.1810    -4.3250     1.6760 C.3   1 <1>   0.1200 
 11 C        2.8900     0.7910    -0.5580 C.ar  1 <1>  -0.1500 
 12 C        0.7910     1.8780    -0.2270 C.ar  1 <1>  -0.1500 
 13 C       -2.3600    -4.0940     1.0050 C.3   1 <1>   0.1200 
 14 C       -2.2010    -1.9240    -0.3870 C.3   1 <1>  -0.0170 
 15 O       -1.5090    -4.6210     1.9820 O.3   1 <1>  -0.5600 
 16 C        1.9920     1.7850    -0.9080 C.ar  1 <1>  -0.1430 
 17 C       -3.3860    -2.2630    -1.2740 C.ar  1 <1>  -0.1430 
 18 C        2.3260     2.7670    -2.0210 C.3   1 <1>  -0.0170 
 19 C       -4.6800    -2.2750    -0.7930 C.ar  1 <1>  -0.1500 
 20 C       -3.2280    -2.5780    -2.6090 C.ar  1 <1>  -0.1500 
 21 C        3.0550     3.9930    -1.4580 C.3   1 <1>  -0.1600 
 22 C       -5.7230    -2.6000    -1.6440 C.ar  1 <1>   0.1600 
 23 C       -4.3390    -2.8880    -3.3750 C.ar  1 <1>   0.1600 
 24 C        3.4020     4.9990    -2.5610 C.3   1 <1>  -0.2400 
 25 N       -5.5820    -2.9090    -2.9230 N.ar  1 <1>  -0.6200 
 26 H       -0.8870    -2.3210     2.6940 H     1 <1>   0.4200 
 27 H        0.6260    -2.8200     0.3100 H     1 <1>   0.0800 
 28 H        3.2960    -0.8660     0.7170 H     1 <1>   0.1500 
 29 H       -0.4460     1.0680     1.3090 H     1 <1>   0.1500 
 30 H       -1.2290    -3.7900    -0.7610 H     1 <1>   0.0800 
 31 H        0.4010    -4.2890     2.5800 H     1 <1>   0.0800 
 32 H        0.1920    -5.1050     1.0360 H     1 <1>   0.0800 
 33 H        3.8320     0.7090    -1.0730 H     1 <1>   0.1500 
 34 H        0.0840     2.6500    -0.4820 H     1 <1>   0.1500 
 35 H       -2.8110    -4.9030     0.4570 H     1 <1>   0.0800 
 36 H       -3.1220    -3.5270     1.5110 H     1 <1>   0.0800 
 37 H       -1.5030    -1.3190    -0.9400 H     1 <1>   0.0800 
 38 H       -2.5410    -1.3380     0.4490 H     1 <1>   0.0800 
 39 H        2.9440     2.2830    -2.7560 H     1 <1>   0.0800 
 40 H        1.4190     3.0780    -2.5110 H     1 <1>   0.0800 
 41 H       -4.8880    -2.0360     0.2340 H     1 <1>   0.1500 
 42 H       -2.2530    -2.5860    -3.0600 H     1 <1>   0.1500 
 43 H        2.4310     4.4710    -0.7220 H     1 <1>   0.0800 
 44 H        3.9590     3.6750    -0.9670 H     1 <1>   0.0800 
 45 H       -6.7260    -2.6060    -1.2530 H     1 <1>   0.1500 
 46 H       -4.1990    -3.1320    -4.4140 H     1 <1>   0.1500 
 47 H        2.5080     5.3480    -3.0480 H     1 <1>   0.0800 
 48 H        4.0450     4.5470    -3.2960 H     1 <1>   0.0800 
 49 H        3.9110     5.8460    -2.1370 H     1 <1>   0.0800 
@<TRIPOS>BOND
  1   1   2  2   
  2   1   3  2   
  3   1   4  am  
  4   1   5  1   
  5   4   6  1   
  6   4  26  1   
  7   5   7  ar  
  8   5   8  ar  
  9   6   9  1   
 10   6  10  1   
 11   6  27  1   
 12   7  11  ar  
 13   7  28  1   
 14   8  12  ar  
 15   8  29  1   
 16   9  13  1   
 17   9  14  1   
 18   9  30  1   
 19  10  15  1   
 20  10  31  1   
 21  10  32  1   
 22  11  16  ar  
 23  11  33  1   
 24  12  16  ar  
 25  12  34  1   
 26  13  15  1   
 27  13  35  1   
 28  13  36  1   
 29  14  17  1   
 30  14  37  1   
 31  14  38  1   
 32  16  18  1   
 33  17  19  ar  
 34  17  20  ar  
 35  18  21  1   
 36  18  39  1   
 37  18  40  1   
 38  19  22  ar  
 39  19  41  1   
 40  20  23  ar  
 41  20  42  1   
 42  21  24  1   
 43  21  43  1   
 44  21  44  1   
 45  22  25  ar  
 46  22  45  1   
 47  23  25  ar  
 48  23  46  1   
 49  24  47  1   
 50  24  48  1   
 51  24  49  1   
@<TRIPOS>SUBSTRUCTURE
  1 ****  14 GROUP 4 **** **** 0

# MOE 2024.06 (io_trps.svl 2023.06)
