@<TRIPOS>MOLECULE
NONAME
55 59 1 0 0 
SMALL
USER_CHARGES


@<TRIPOS>ATOM
  1 O       -3.5200     2.3790     1.6950 O.2   1 <1>  -0.5700 
  2 C       -2.4630     2.4360     1.0880 C.2   1 <1>   0.5440 
  3 N       -1.7930     1.2400     0.8850 N.am  1 <1>  -0.6600 
  4 C       -2.0010     3.7400     0.6000 C.ar  1 <1>   0.3960 
  5 C       -2.3460    -0.0660     1.3070 C.3   1 <1>   0.1400 
  6 C       -0.5490     1.0540     0.1030 C.3   1 <1>   0.1400 
  7 N       -0.6940     4.0040     0.4310 N.ar  1 <1>  -0.6200 
  8 C       -2.9740     4.7080     0.3230 C.ar  1 <1>   0.1600 
  9 C       -1.6210    -1.0900     0.4440 C.3   1 <1>  -0.1600 
 10 C       -0.2710    -0.4460     0.1410 C.3   1 <1>  -0.1600 
 11 C       -0.4420     5.2230    -0.0120 C.ar  1 <1>   0.4100 
 12 N       -2.7450     5.9340    -0.1290 N.ar  1 <1>  -0.6200 
 13 N        0.8900     5.5600    -0.1830 N.pl3 1 <1>  -0.8380 
 14 C       -1.4560     6.1520    -0.2870 C.ar  1 <1>   0.1600 
 15 C        1.4820     6.5030     0.8010 C.3   1 <1>   0.2090 
 16 C        1.8360     4.5230    -0.6670 C.3   1 <1>   0.2090 
 17 C        2.7070     7.2120     0.1990 C.3   1 <1>  -0.0800 
 18 C        3.0460     5.2040    -1.3100 C.3   1 <1>  -0.1600 
 19 C        3.7250     6.1890    -0.3470 C.3   1 <1>  -0.1600 
 20 C        3.3320     8.1530     1.2460 C.3   1 <1>   0.0200 
 21 C        4.4430     9.0090     0.6660 C.2   1 <1>   0.0060 
 22 N        4.2380    10.1300     0.0690 N.2   1 <1>  -0.5650 
 23 N        5.7540     8.6590     0.7380 N.pl3 1 <1>   0.0330 
 24 C        5.4820    10.5580    -0.2880 C.ar  1 <1>   0.2270 
 25 C        6.4410     9.6510     0.1220 C.ar  1 <1>  -0.1520 
 26 C        5.8640    11.7150    -0.9650 C.ar  1 <1>  -0.1500 
 27 C        7.7980     9.8660    -0.1290 C.ar  1 <1>  -0.1500 
 28 C        7.2010    11.9360    -1.2170 C.ar  1 <1>  -0.1500 
 29 C        8.1660    11.0110    -0.7990 C.ar  1 <1>  -0.1500 
 30 H       -3.4120    -0.1050     1.1590 H     1 <1>   0.0800 
 31 H       -2.1210    -0.2190     2.3490 H     1 <1>   0.0800 
 32 H        0.2660     1.6040     0.5420 H     1 <1>   0.0800 
 33 H       -0.7120     1.3860    -0.9080 H     1 <1>   0.0800 
 34 H       -4.0050     4.4450     0.4850 H     1 <1>   0.1500 
 35 H       -2.1740    -1.2290    -0.4690 H     1 <1>   0.0800 
 36 H       -1.5230    -2.0370     0.9440 H     1 <1>   0.0800 
 37 H        0.4170    -0.6510     0.9420 H     1 <1>   0.0800 
 38 H        0.1530    -0.7970    -0.7830 H     1 <1>   0.0800 
 39 H       -1.1520     7.1140    -0.6570 H     1 <1>   0.1500 
 40 H        1.7720     5.9500     1.6790 H     1 <1>   0.0800 
 41 H        0.7470     7.2340     1.0930 H     1 <1>   0.0800 
 42 H        1.3440     3.8940    -1.3910 H     1 <1>   0.0800 
 43 H        2.1480     3.9100     0.1610 H     1 <1>   0.0800 
 44 H        2.3590     7.8190    -0.6200 H     1 <1>   0.0800 
 45 H        2.7160     5.7280    -2.1910 H     1 <1>   0.0800 
 46 H        3.7520     4.4550    -1.6210 H     1 <1>   0.0800 
 47 H        4.1610     5.6390     0.4680 H     1 <1>   0.0800 
 48 H        4.5120     6.6990    -0.8750 H     1 <1>   0.0800 
 49 H        3.7050     7.5880     2.0810 H     1 <1>   0.0800 
 50 H        2.5710     8.8180     1.6170 H     1 <1>   0.0800 
 51 H        6.1510     7.8190     1.1630 H     1 <1>   0.2700 
 52 H        5.1020    12.4050    -1.2730 H     1 <1>   0.1500 
 53 H        8.5320     9.1500     0.1960 H     1 <1>   0.1500 
 54 H        7.5130    12.8240    -1.7390 H     1 <1>   0.1500 
 55 H        9.2040    11.2080    -1.0080 H     1 <1>   0.1500 
@<TRIPOS>BOND
  1   1   2  2   
  2   2   3  am  
  3   2   4  1   
  4   3   5  1   
  5   3   6  1   
  6   4   7  ar  
  7   4   8  ar  
  8   5   9  1   
  9   5  30  1   
 10   5  31  1   
 11   6  10  1   
 12   6  32  1   
 13   6  33  1   
 14   7  11  ar  
 15   8  12  ar  
 16   8  34  1   
 17   9  10  1   
 18   9  35  1   
 19   9  36  1   
 20  10  37  1   
 21  10  38  1   
 22  11  13  1   
 23  11  14  ar  
 24  12  14  ar  
 25  13  15  1   
 26  13  16  1   
 27  14  39  1   
 28  15  17  1   
 29  15  40  1   
 30  15  41  1   
 31  16  18  1   
 32  16  42  1   
 33  16  43  1   
 34  17  19  1   
 35  17  20  1   
 36  17  44  1   
 37  18  19  1   
 38  18  45  1   
 39  18  46  1   
 40  19  47  1   
 41  19  48  1   
 42  20  21  1   
 43  20  49  1   
 44  20  50  1   
 45  21  22  2   
 46  21  23  1   
 47  22  24  1   
 48  23  25  1   
 49  23  51  1   
 50  24  25  ar  
 51  24  26  ar  
 52  25  27  ar  
 53  26  28  ar  
 54  26  52  1   
 55  27  29  ar  
 56  27  53  1   
 57  28  29  ar  
 58  28  54  1   
 59  29  55  1   
@<TRIPOS>SUBSTRUCTURE
  1 ****  15 GROUP 4 **** **** 0

# MOE 2024.06 (io_trps.svl 2023.06)
