@<TRIPOS>MOLECULE
NONAME
51 54 1 0 0 
SMALL
USER_CHARGES


@<TRIPOS>ATOM
  1 O       -1.2510    -0.0240     1.4950 O.2   1 <1>  -0.5700 
  2 C       -1.6160     0.8260     0.6980 C.2   1 <1>   0.5440 
  3 N       -2.6230     0.4750    -0.1760 N.am  1 <1>  -0.6600 
  4 C       -1.0430     2.1600     0.7130 C.ar  1 <1>   0.0860 
  5 C       -2.9130    -0.9500    -0.4190 C.3   1 <1>   0.1400 
  6 C       -3.8520     1.3010    -0.2900 C.3   1 <1>   0.1400 
  7 C       -0.9770     2.9380    -0.4490 C.ar  1 <1>  -0.1500 
  8 C       -0.5370     2.7100     1.8990 C.ar  1 <1>  -0.1500 
  9 C       -3.9840    -1.3120     0.6250 C.3   1 <1>   0.4230 
 10 C       -4.9980     0.6900     0.5610 C.3   1 <1>  -0.1600 
 11 C       -0.4440     4.2100    -0.4030 C.ar  1 <1>  -0.1440 
 12 C       -0.0010     3.9870     1.9410 C.ar  1 <1>  -0.1500 
 13 N       -3.8270    -2.6810     1.2440 N.4   1 <1>  -0.9590 
 14 C       -5.4250    -0.8180     0.1250 C.3   1 <1>   0.0000 
 15 C        0.0320     4.7230     0.7740 C.ar  1 <1>   0.0830 
 16 C       -0.2600     5.2380    -1.4800 C.3   1 <1>  -0.0170 
 17 C       -3.8450    -3.7570     0.2380 C.3   1 <1>   0.3430 
 18 C       -2.5940    -2.7360     2.0950 C.3   1 <1>   0.2630 
 19 C       -5.8630    -2.2880    -0.3910 C.3   1 <1>  -0.1600 
 20 C       -6.8740    -0.2800    -0.2950 C.3   1 <1>   0.1200 
 21 O        0.5130     5.9650     0.6460 O.3   1 <1>  -0.3630 
 22 C        0.3980     6.3940    -0.7030 C.3   1 <1>   0.1200 
 23 C       -4.8530    -3.3780    -0.8320 C.3   1 <1>  -0.1600 
 24 O       -6.7930     0.3250    -1.5470 O.3   1 <1>  -0.6800 
 25 H       -3.2820    -1.0710    -1.4220 H     1 <1>   0.0800 
 26 H       -2.0160    -1.5300    -0.2990 H     1 <1>   0.0800 
 27 H       -3.6540     2.3070     0.0430 H     1 <1>   0.0800 
 28 H       -4.1530     1.3500    -1.3240 H     1 <1>   0.0800 
 29 H       -1.3390     2.5430    -1.3820 H     1 <1>   0.1500 
 30 H       -0.5640     2.1230     2.8000 H     1 <1>   0.1500 
 31 H       -3.7040    -0.6990     1.4620 H     1 <1>   0.0800 
 32 H       -4.7490     0.7560     1.6080 H     1 <1>   0.0800 
 33 H       -5.7270     1.4800     0.4860 H     1 <1>   0.0800 
 34 H        0.3850     4.4090     2.8510 H     1 <1>   0.1500 
 35 H       -4.6460    -2.8080     1.8500 H     1 <1>   0.4500 
 36 H       -1.2020     5.5420    -1.8970 H     1 <1>   0.0800 
 37 H        0.3890     4.8790    -2.2580 H     1 <1>   0.0800 
 38 H       -2.8710    -3.8760    -0.2090 H     1 <1>   0.0800 
 39 H       -4.1270    -4.6870     0.7040 H     1 <1>   0.0800 
 40 H       -1.7100    -2.5990     1.4920 H     1 <1>   0.0800 
 41 H       -2.5250    -3.6850     2.6020 H     1 <1>   0.0800 
 42 H       -2.6130    -1.9500     2.8330 H     1 <1>   0.0800 
 43 H       -6.4970    -2.7330     0.3600 H     1 <1>   0.0800 
 44 H       -6.4460    -2.2400    -1.3020 H     1 <1>   0.0800 
 45 H       -7.3100     0.4180     0.4010 H     1 <1>   0.0800 
 46 H       -7.6700    -1.0080    -0.3540 H     1 <1>   0.0800 
 47 H       -0.2080     7.2820    -0.7230 H     1 <1>   0.0800 
 48 H        1.3860     6.6070    -1.0710 H     1 <1>   0.0800 
 49 H       -4.3270    -3.0490    -1.7120 H     1 <1>   0.0800 
 50 H       -5.3870    -4.2670    -1.1220 H     1 <1>   0.0800 
 51 H       -7.6690     0.6490    -1.8420 H     1 <1>   0.4000 
@<TRIPOS>BOND
  1   1   2  2   
  2   2   3  am  
  3   2   4  1   
  4   3   5  1   
  5   3   6  1   
  6   4   7  ar  
  7   4   8  ar  
  8   5   9  1   
  9   5  25  1   
 10   5  26  1   
 11   6  10  1   
 12   6  27  1   
 13   6  28  1   
 14   7  11  ar  
 15   7  29  1   
 16   8  12  ar  
 17   8  30  1   
 18   9  13  1   
 19   9  14  1   
 20   9  31  1   
 21  10  14  1   
 22  10  32  1   
 23  10  33  1   
 24  11  15  ar  
 25  11  16  1   
 26  12  15  ar  
 27  12  34  1   
 28  13  17  1   
 29  13  18  1   
 30  13  35  1   
 31  14  19  1   
 32  14  20  1   
 33  15  21  1   
 34  16  22  1   
 35  16  36  1   
 36  16  37  1   
 37  17  23  1   
 38  17  38  1   
 39  17  39  1   
 40  18  40  1   
 41  18  41  1   
 42  18  42  1   
 43  19  23  1   
 44  19  43  1   
 45  19  44  1   
 46  20  24  1   
 47  20  45  1   
 48  20  46  1   
 49  21  22  1   
 50  22  47  1   
 51  22  48  1   
 52  23  49  1   
 53  23  50  1   
 54  24  51  1   
@<TRIPOS>SUBSTRUCTURE
  1 ****   3 GROUP 4 **** **** 0

# MOE 2024.06 (io_trps.svl 2023.06)
