@<TRIPOS>MOLECULE
NONAME
54 56 1 0 0 
SMALL
USER_CHARGES


@<TRIPOS>ATOM
  1 F        5.3080     4.1330     0.8120 F     1 <1>  -0.1900 
  2 C        4.0350     4.1670     0.5090 C.ar  1 <1>   0.1900 
  3 C        3.5530     3.4540    -0.5750 C.ar  1 <1>   0.1900 
  4 C        3.1860     4.9310     1.2880 C.ar  1 <1>  -0.1500 
  5 F        4.3630     2.7360    -1.3110 F     1 <1>  -0.1900 
  6 C        2.2110     3.4910    -0.9030 C.ar  1 <1>  -0.1500 
  7 C        1.8330     4.9760     0.9690 C.ar  1 <1>  -0.1440 
  8 C        1.3550     4.2570    -0.1240 C.ar  1 <1>  -0.1500 
  9 C        0.8780     5.8250     1.8080 C.3   1 <1>   0.0440 
 10 C        0.8220     7.2810     1.3740 C.2   1 <1>   0.5690 
 11 O        0.1440     8.0470     2.0130 O.2   1 <1>  -0.5700 
 12 N        1.5300     7.6800     0.2860 N.am  1 <1>  -0.7300 
 13 C        1.6530     9.0670    -0.2130 C.3   1 <1>   0.1400 
 14 C        3.1190     9.3970    -0.5250 C.3   1 <1>  -0.0800 
 15 C        3.2190    10.8580    -0.9890 C.3   1 <1>   0.2090 
 16 C        3.7250     8.4460    -1.5810 C.3   1 <1>  -0.1600 
 17 N        4.6300    11.1960    -1.3280 N.pl3 1 <1>  -0.8380 
 18 C        5.1590     8.8680    -1.9330 C.3   1 <1>  -0.1600 
 19 C        5.2960    12.2690    -0.7680 C.ar  1 <1>   0.7200 
 20 C        5.2400    10.3320    -2.3750 C.3   1 <1>   0.2090 
 21 N        6.3610    12.7320    -1.4200 N.ar  1 <1>  -0.6200 
 22 N        4.8140    12.7530     0.3760 N.ar  1 <1>  -0.6200 
 23 C        6.9810    13.7500    -0.8760 C.ar  1 <1>   0.1600 
 24 C        5.4560    13.7700     0.8950 C.ar  1 <1>   0.1600 
 25 C        6.5680    14.3220     0.3040 C.ar  1 <1>  -0.1430 
 26 C        7.3000    15.5040     0.9210 C.3   1 <1>  -0.0170 
 27 C        6.7220    16.8250     0.3990 C.3   1 <1>  -0.1600 
 28 C        7.4450    18.0320     1.0060 C.3   1 <1>  -0.2400 
 29 H        3.5830     5.4800     2.1240 H     1 <1>   0.1500 
 30 H        1.8470     2.9330    -1.7470 H     1 <1>   0.1500 
 31 H        0.3070     4.2900    -0.3750 H     1 <1>   0.1500 
 32 H        1.1790     5.7950     2.8390 H     1 <1>   0.0800 
 33 H       -0.1160     5.4220     1.7540 H     1 <1>   0.0800 
 34 H        2.0830     6.9800    -0.2140 H     1 <1>   0.3700 
 35 H        1.2760     9.7500     0.5310 H     1 <1>   0.0800 
 36 H        1.0520     9.1720    -1.1000 H     1 <1>   0.0800 
 37 H        3.6800     9.3180     0.3900 H     1 <1>   0.0800 
 38 H        2.8350    11.5060    -0.2210 H     1 <1>   0.0800 
 39 H        2.6140    11.0050    -1.8670 H     1 <1>   0.0800 
 40 H        3.1220     8.4650    -2.4720 H     1 <1>   0.0800 
 41 H        3.7470     7.4370    -1.2100 H     1 <1>   0.0800 
 42 H        5.5390     8.2410    -2.7200 H     1 <1>   0.0800 
 43 H        5.7950     8.7380    -1.0750 H     1 <1>   0.0800 
 44 H        6.2720    10.5870    -2.5440 H     1 <1>   0.0800 
 45 H        4.7070    10.4720    -3.2990 H     1 <1>   0.0800 
 46 H        7.8430    14.1410    -1.3880 H     1 <1>   0.1500 
 47 H        5.0820    14.1760     1.8200 H     1 <1>   0.1500 
 48 H        8.3470    15.4440     0.6790 H     1 <1>   0.0800 
 49 H        7.2090    15.4650     1.9930 H     1 <1>   0.0800 
 50 H        5.6750    16.8790     0.6420 H     1 <1>   0.0800 
 51 H        6.8140    16.8580    -0.6730 H     1 <1>   0.0800 
 52 H        7.3450    18.0340     2.0770 H     1 <1>   0.0800 
 53 H        7.0200    18.9430     0.6230 H     1 <1>   0.0800 
 54 H        8.4910    18.0120     0.7540 H     1 <1>   0.0800 
@<TRIPOS>BOND
  1   1   2  1   
  2   2   3  ar  
  3   2   4  ar  
  4   3   5  1   
  5   3   6  ar  
  6   4   7  ar  
  7   4  29  1   
  8   6   8  ar  
  9   6  30  1   
 10   7   8  ar  
 11   7   9  1   
 12   8  31  1   
 13   9  10  1   
 14   9  32  1   
 15   9  33  1   
 16  10  11  2   
 17  10  12  am  
 18  12  13  1   
 19  12  34  1   
 20  13  14  1   
 21  13  35  1   
 22  13  36  1   
 23  14  15  1   
 24  14  16  1   
 25  14  37  1   
 26  15  17  1   
 27  15  38  1   
 28  15  39  1   
 29  16  18  1   
 30  16  40  1   
 31  16  41  1   
 32  17  19  1   
 33  17  20  1   
 34  18  20  1   
 35  18  42  1   
 36  18  43  1   
 37  19  21  ar  
 38  19  22  ar  
 39  20  44  1   
 40  20  45  1   
 41  21  23  ar  
 42  22  24  ar  
 43  23  25  ar  
 44  23  46  1   
 45  24  25  ar  
 46  24  47  1   
 47  25  26  1   
 48  26  27  1   
 49  26  48  1   
 50  26  49  1   
 51  27  28  1   
 52  27  50  1   
 53  27  51  1   
 54  28  52  1   
 55  28  53  1   
 56  28  54  1   
@<TRIPOS>SUBSTRUCTURE
  1 ****  14 GROUP 4 **** **** 0

# MOE 2024.06 (io_trps.svl 2023.06)
