@<TRIPOS>MOLECULE
NONAME
46 47 1 0 0 
SMALL
USER_CHARGES


@<TRIPOS>ATOM
  1 S       -0.0320     0.3350    -1.1320 S.o2  1 <1>   1.3330 
  2 O       -0.8490    -0.8350    -0.9110 O.2   1 <1>  -0.6500 
  3 O       -0.1230     1.0430    -2.3890 O.2   1 <1>  -0.6500 
  4 N        1.5890    -0.1180    -0.9030 N.am  1 <1>  -0.8490 
  5 C       -0.3300     1.5130     0.1880 C.3   1 <1>  -0.0550 
  6 C        1.7680    -1.1130     0.1590 C.3   1 <1>   0.1160 
  7 C        2.2040    -0.6010    -2.1440 C.3   1 <1>   0.1160 
  8 C        0.6620     2.6910     0.2280 C.3   1 <1>  -0.0800 
  9 C        0.4180     3.6000     1.4290 C.3   1 <1>   0.2000 
 10 C        0.5820     3.6390    -0.9700 C.3   1 <1>   0.1400 
 11 O        1.0240     3.0690     2.5550 O.3   1 <1>  -0.6800 
 12 C        1.0150     4.9510     1.0430 C.3   1 <1>   0.1400 
 13 N        1.0040     4.9590    -0.4420 N.am  1 <1>  -0.6600 
 14 C        1.4330     5.9740    -1.2570 C.2   1 <1>   0.5690 
 15 O        1.4270     5.8560    -2.4600 O.2   1 <1>  -0.5700 
 16 C        1.9270     7.2940    -0.6790 C.3   1 <1>   0.0820 
 17 C        3.1380     7.1300     0.2320 C.2   1 <1>  -0.1810 
 18 C        4.2650     6.4230     0.0410 C.2   1 <1>  -0.0400 
 19 C        3.3200     7.6800     1.5020 C.2   1 <1>   0.1080 
 20 O        5.0040     6.5480     1.1090 O.3   1 <1>  -0.0190 
 21 C        4.7700     5.5750    -1.1100 C.3   1 <1>  -0.0600 
 22 N        4.4410     7.3060     2.0040 N.2   1 <1>  -0.4100 
 23 C        2.3550     8.5950     2.2270 C.3   1 <1>  -0.0590 
 24 H       -1.3290     1.8950     0.0930 H     1 <1>   0.0800 
 25 H       -0.2750     0.9950     1.1250 H     1 <1>   0.0800 
 26 H        2.8160    -1.3050     0.3140 H     1 <1>   0.0800 
 27 H        1.2780    -2.0370    -0.1030 H     1 <1>   0.0800 
 28 H        1.3500    -0.7510     1.0830 H     1 <1>   0.0800 
 29 H        3.2320    -0.8680    -1.9730 H     1 <1>   0.0800 
 30 H        2.1780     0.1730    -2.8940 H     1 <1>   0.0800 
 31 H        1.6700    -1.4600    -2.5160 H     1 <1>   0.0800 
 32 H        1.6700     2.3160     0.2700 H     1 <1>   0.0800 
 33 H       -0.6350     3.7090     1.6290 H     1 <1>   0.0800 
 34 H       -0.4270     3.7160    -1.3410 H     1 <1>   0.0800 
 35 H        1.2280     3.3200    -1.7720 H     1 <1>   0.0800 
 36 H        1.9940     3.0300     2.4370 H     1 <1>   0.4000 
 37 H        2.0300     5.0260     1.3950 H     1 <1>   0.0800 
 38 H        0.4210     5.7590     1.4330 H     1 <1>   0.0800 
 39 H        2.1900     7.9510    -1.4870 H     1 <1>   0.0800 
 40 H        1.1140     7.7460    -0.1450 H     1 <1>   0.0800 
 41 H        4.1040     5.6290    -1.9500 H     1 <1>   0.0800 
 42 H        4.8540     4.5510    -0.7970 H     1 <1>   0.0800 
 43 H        5.7390     5.9260    -1.4180 H     1 <1>   0.0800 
 44 H        2.1370     9.4530     1.6190 H     1 <1>   0.0800 
 45 H        2.7920     8.9290     3.1500 H     1 <1>   0.0800 
 46 H        1.4440     8.0700     2.4460 H     1 <1>   0.0800 
@<TRIPOS>BOND
  1   1   2  2   
  2   1   3  2   
  3   1   4  am  
  4   1   5  1   
  5   4   6  1   
  6   4   7  1   
  7   5   8  1   
  8   5  24  1   
  9   5  25  1   
 10   6  26  1   
 11   6  27  1   
 12   6  28  1   
 13   7  29  1   
 14   7  30  1   
 15   7  31  1   
 16   8   9  1   
 17   8  10  1   
 18   8  32  1   
 19   9  11  1   
 20   9  12  1   
 21   9  33  1   
 22  10  13  1   
 23  10  34  1   
 24  10  35  1   
 25  11  36  1   
 26  12  13  1   
 27  12  37  1   
 28  12  38  1   
 29  13  14  am  
 30  14  15  2   
 31  14  16  1   
 32  16  17  1   
 33  16  39  1   
 34  16  40  1   
 35  17  18  2   
 36  17  19  1   
 37  18  20  1   
 38  18  21  1   
 39  19  22  2   
 40  19  23  1   
 41  20  22  1   
 42  21  41  1   
 43  21  42  1   
 44  21  43  1   
 45  23  44  1   
 46  23  45  1   
 47  23  46  1   
@<TRIPOS>SUBSTRUCTURE
  1 ****  13 GROUP 4 **** **** 0

# MOE 2024.06 (io_trps.svl 2023.06)
