@<TRIPOS>MOLECULE
NONAME
43 45 1 0 0 
SMALL
USER_CHARGES


@<TRIPOS>ATOM
  1 S        0.5510     0.1920    -0.2880 S.o2  1 <1>   1.3330 
  2 O       -0.0510     1.4170     0.1870 O.2   1 <1>  -0.6500 
  3 O        0.2010    -1.0650     0.3350 O.2   1 <1>  -0.6500 
  4 N        0.2380     0.0510    -1.9510 N.am  1 <1>  -0.8490 
  5 C        2.3300     0.3860    -0.2370 C.3   1 <1>  -0.0550 
  6 C       -1.0770     0.5860    -2.3180 C.3   1 <1>   0.1160 
  7 C        0.3810    -1.3170    -2.4590 C.3   1 <1>   0.1160 
  8 C        2.8750     0.6520     1.1760 C.3   1 <1>  -0.0800 
  9 C        4.3900     0.8340     1.1840 C.3   1 <1>   0.2890 
 10 C        2.6420    -0.4860     2.1690 C.3   1 <1>   0.1200 
 11 N        4.7160     2.2460     1.4850 N.pl3 1 <1>  -0.8690 
 12 C        4.8680    -0.1010     2.2960 C.3   1 <1>   0.1200 
 13 O        3.7340    -0.4460     3.0260 O.3   1 <1>  -0.5600 
 14 C        4.7860     3.2380     0.5420 C.ar  1 <1>   0.4100 
 15 N        4.7260     2.8860    -0.7300 N.ar  1 <1>  -0.6200 
 16 C        4.9030     4.5760     0.9130 C.ar  1 <1>   0.0000 
 17 C        4.7780     3.8660    -1.6230 C.ar  1 <1>   0.4770 
 18 C        4.9420     5.4640    -0.1320 C.ar  1 <1>   0.2970 
 19 C        4.9890     5.2150     2.2010 C.2   1 <1>  -0.1500 
 20 N        4.8830     5.1630    -1.4110 N.ar  1 <1>  -0.5670 
 21 C        4.7010     3.4290    -3.0670 C.3   1 <1>  -0.0970 
 22 S        5.0840     7.1150     0.4720 S.3   1 <1>  -0.0800 
 23 C        5.0890     6.5550     2.1470 C.2   1 <1>  -0.1100 
 24 H        2.7960    -0.4900    -0.6410 H     1 <1>   0.0800 
 25 H        2.5970     1.2160    -0.8630 H     1 <1>   0.0800 
 26 H       -1.2380     0.4920    -3.3780 H     1 <1>   0.0800 
 27 H       -1.1350     1.6310    -2.0610 H     1 <1>   0.0800 
 28 H       -1.8560     0.0580    -1.7920 H     1 <1>   0.0800 
 29 H        0.2630    -1.3290    -3.5300 H     1 <1>   0.0800 
 30 H       -0.3620    -1.9620    -2.0180 H     1 <1>   0.0800 
 31 H        1.3570    -1.7020    -2.2210 H     1 <1>   0.0800 
 32 H        2.3960     1.5320     1.5710 H     1 <1>   0.0800 
 33 H        4.8470     0.5400     0.2540 H     1 <1>   0.0800 
 34 H        2.6340    -1.4480     1.6840 H     1 <1>   0.0800 
 35 H        1.7370    -0.3580     2.7400 H     1 <1>   0.0800 
 36 H        4.5180     2.5130     2.4520 H     1 <1>   0.4000 
 37 H        5.5870     0.3620     2.9480 H     1 <1>   0.0800 
 38 H        5.2760    -1.0050     1.8800 H     1 <1>   0.0800 
 39 H        4.9730     4.6290     3.1020 H     1 <1>   0.1500 
 40 H        5.4630     2.6990    -3.2620 H     1 <1>   0.0800 
 41 H        4.8430     4.2670    -3.7240 H     1 <1>   0.0800 
 42 H        3.7380     2.9950    -3.2560 H     1 <1>   0.0800 
 43 H        5.1680     7.3070     2.9130 H     1 <1>   0.1500 
@<TRIPOS>BOND
  1   1   2  2   
  2   1   3  2   
  3   1   4  am  
  4   1   5  1   
  5   4   6  1   
  6   4   7  1   
  7   5   8  1   
  8   5  24  1   
  9   5  25  1   
 10   6  26  1   
 11   6  27  1   
 12   6  28  1   
 13   7  29  1   
 14   7  30  1   
 15   7  31  1   
 16   8   9  1   
 17   8  10  1   
 18   8  32  1   
 19   9  11  1   
 20   9  12  1   
 21   9  33  1   
 22  10  13  1   
 23  10  34  1   
 24  10  35  1   
 25  11  14  1   
 26  11  36  1   
 27  12  13  1   
 28  12  37  1   
 29  12  38  1   
 30  14  15  ar  
 31  14  16  ar  
 32  15  17  ar  
 33  16  18  ar  
 34  16  19  1   
 35  17  20  ar  
 36  17  21  1   
 37  18  20  ar  
 38  18  22  1   
 39  19  23  2   
 40  19  39  1   
 41  21  40  1   
 42  21  41  1   
 43  21  42  1   
 44  22  23  1   
 45  23  43  1   
@<TRIPOS>SUBSTRUCTURE
  1 ****  15 GROUP 4 **** **** 0

# MOE 2024.06 (io_trps.svl 2023.06)
