@<TRIPOS>MOLECULE
NONAME
51 54 1 0 0 
SMALL
USER_CHARGES


@<TRIPOS>ATOM
  1 O       -0.8350    -0.3220     2.3900 O.2   1 <1>  -0.5700 
  2 C       -0.6750    -0.1310     1.2090 C.2   1 <1>   0.5690 
  3 N       -1.2150    -0.9880     0.2770 N.am  1 <1>  -0.6600 
  4 C        0.0970     1.1200     0.8030 C.3   1 <1>   0.0440 
  5 C       -1.1920    -0.7760    -1.2040 C.3   1 <1>   0.1400 
  6 C       -2.2940    -1.9450     0.6810 C.3   1 <1>   0.1400 
  7 C       -0.6830     2.0930    -0.0930 C.ar  1 <1>  -0.1440 
  8 C       -2.5400    -0.1890    -1.7030 C.3   1 <1>   0.4230 
  9 C       -3.6700    -1.4870     0.1410 C.3   1 <1>   0.3430 
 10 C       -2.0110     2.4580     0.1420 C.ar  1 <1>   0.0830 
 11 C       -0.0370     2.6340    -1.1960 C.ar  1 <1>  -0.1500 
 12 N       -3.5920    -0.1810    -0.6130 N.4   1 <1>  -0.9590 
 13 C       -3.0530    -0.9330    -2.9560 C.3   1 <1>   0.1200 
 14 O       -2.7230     1.9390     1.1620 O.3   1 <1>  -0.3630 
 15 C       -2.6670     3.3320    -0.7100 C.ar  1 <1>  -0.1500 
 16 C       -0.6950     3.5020    -2.0500 C.ar  1 <1>  -0.1500 
 17 C       -4.8860     0.3390    -1.1420 C.3   1 <1>   0.5180 
 18 O       -4.2830    -0.4110    -3.3760 O.3   1 <1>  -0.5600 
 19 C       -2.5700     2.5700     2.4170 C.3   1 <1>   0.0400 
 20 C       -2.0110     3.8520    -1.8090 C.ar  1 <1>  -0.1500 
 21 C       -5.9340     0.3470    -0.0120 C.3   1 <1>  -0.1950 
 22 C       -5.3060    -0.4360    -2.4150 C.3   1 <1>   0.1200 
 23 C       -6.8240    -0.8090     0.3390 C.3   1 <1>  -0.2000 
 24 C       -7.4090     0.4350    -0.2680 C.3   1 <1>  -0.2000 
 25 H        0.3930     1.6420     1.6950 H     1 <1>   0.0800 
 26 H        0.9990     0.8020     0.3170 H     1 <1>   0.0800 
 27 H       -0.3840    -0.1280    -1.4930 H     1 <1>   0.0800 
 28 H       -1.0060    -1.7240    -1.6800 H     1 <1>   0.0800 
 29 H       -2.0630    -2.9240     0.3000 H     1 <1>   0.0800 
 30 H       -2.3490    -2.0320     1.7530 H     1 <1>   0.0800 
 31 H       -2.3520     0.8300    -2.0000 H     1 <1>   0.0800 
 32 H       -4.3410    -1.3830     0.9770 H     1 <1>   0.0800 
 33 H       -4.0690    -2.2560    -0.4990 H     1 <1>   0.0800 
 34 H        0.9920     2.3910    -1.4010 H     1 <1>   0.1500 
 35 H       -3.2510     0.5110     0.0810 H     1 <1>   0.4500 
 36 H       -3.1760    -1.9850    -2.7640 H     1 <1>   0.0800 
 37 H       -2.3580    -0.8120    -3.7690 H     1 <1>   0.0800 
 38 H       -3.6860     3.6110    -0.5090 H     1 <1>   0.1500 
 39 H       -0.1790     3.9150    -2.9010 H     1 <1>   0.1500 
 40 H       -4.7390     1.3640    -1.4430 H     1 <1>   0.0800 
 41 H       -3.2090     2.0760     3.1260 H     1 <1>   0.0800 
 42 H       -2.8490     3.6060     2.3250 H     1 <1>   0.0800 
 43 H       -1.5460     2.4870     2.7350 H     1 <1>   0.0800 
 44 H       -2.5160     4.5350    -2.4720 H     1 <1>   0.1500 
 45 H       -5.5910     0.9620     0.8030 H     1 <1>   0.1000 
 46 H       -6.1700     0.0240    -2.8590 H     1 <1>   0.0800 
 47 H       -5.5410    -1.4610    -2.1910 H     1 <1>   0.0800 
 48 H       -6.8540    -1.7050    -0.2570 H     1 <1>   0.1000 
 49 H       -7.0390    -1.0090     1.3760 H     1 <1>   0.1000 
 50 H       -8.0070     1.0750     0.3610 H     1 <1>   0.1000 
 51 H       -7.8130     0.3660    -1.2630 H     1 <1>   0.1000 
@<TRIPOS>BOND
  1   1   2  2   
  2   2   3  am  
  3   2   4  1   
  4   3   5  1   
  5   3   6  1   
  6   4   7  1   
  7   4  25  1   
  8   4  26  1   
  9   5   8  1   
 10   5  27  1   
 11   5  28  1   
 12   6   9  1   
 13   6  29  1   
 14   6  30  1   
 15   7  10  ar  
 16   7  11  ar  
 17   8  12  1   
 18   8  13  1   
 19   8  31  1   
 20   9  12  1   
 21   9  32  1   
 22   9  33  1   
 23  10  14  1   
 24  10  15  ar  
 25  11  16  ar  
 26  11  34  1   
 27  12  17  1   
 28  12  35  1   
 29  13  18  1   
 30  13  36  1   
 31  13  37  1   
 32  14  19  1   
 33  15  20  ar  
 34  15  38  1   
 35  16  20  ar  
 36  16  39  1   
 37  17  21  1   
 38  17  22  1   
 39  17  40  1   
 40  18  22  1   
 41  19  41  1   
 42  19  42  1   
 43  19  43  1   
 44  20  44  1   
 45  21  23  1   
 46  21  24  1   
 47  21  45  1   
 48  22  46  1   
 49  22  47  1   
 50  23  24  1   
 51  23  48  1   
 52  23  49  1   
 53  24  50  1   
 54  24  51  1   
@<TRIPOS>SUBSTRUCTURE
  1 ****  12 GROUP 4 **** **** 0

# MOE 2024.06 (io_trps.svl 2023.06)
