@<TRIPOS>MOLECULE
NONAME
54 56 1 0 0 
SMALL
USER_CHARGES


@<TRIPOS>ATOM
  1 F       -0.2890     0.9250    -0.2460 F     1 <1>  -0.1900 
  2 C       -1.5930     1.0380    -0.2730 C.ar  1 <1>   0.1900 
  3 C       -2.2460     2.2100     0.1260 C.ar  1 <1>   0.0830 
  4 C       -2.2960    -0.0640    -0.7210 C.ar  1 <1>  -0.1500 
  5 O       -1.6670     3.3580     0.5820 O.3   1 <1>  -0.3630 
  6 C       -3.6290     2.2290     0.0590 C.ar  1 <1>  -0.1500 
  7 C       -3.6760    -0.0110    -0.7760 C.ar  1 <1>  -0.1500 
  8 C       -0.2740     3.5080     0.7370 C.3   1 <1>   0.0400 
  9 C       -4.3730     1.1330    -0.3810 C.ar  1 <1>   0.0530 
 10 C       -5.8100     1.2060    -0.4330 C.2   1 <1>   0.0870 
 11 O       -6.3830     2.2650    -0.9480 O.3   1 <1>  -0.0190 
 12 C       -6.8100     0.3790    -0.0210 C.2   1 <1>  -0.0860 
 13 N       -7.6880     2.2040    -0.9260 N.2   1 <1>  -0.4100 
 14 C       -7.9700     1.0750    -0.3800 C.2   1 <1>   0.3720 
 15 C       -6.7960    -0.8870     0.6420 C.2   1 <1>   0.7160 
 16 N       -9.2880     0.6190    -0.2000 N.pl3 1 <1>  -0.8210 
 17 O       -5.9370    -1.7200     0.4320 O.2   1 <1>  -0.5700 
 18 N       -7.8030    -1.1860     1.5050 N.am  1 <1>  -0.7300 
 19 C      -10.1250     1.5620     0.5980 C.3   1 <1>   0.1290 
 20 C       -9.9510     0.3090    -1.5000 C.3   1 <1>   0.1290 
 21 C       -8.3100    -2.5520     1.7980 C.3   1 <1>   0.1400 
 22 C       -9.5630    -2.8990     0.9510 C.3   1 <1>   0.2800 
 23 O      -10.4090    -1.7980     0.9400 O.3   1 <1>  -0.6800 
 24 C       -9.2140    -3.1950    -0.5290 C.3   1 <1>  -0.1600 
 25 C      -10.3420    -4.0580     1.6100 C.3   1 <1>  -0.1600 
 26 C       -9.0940    -4.7000    -0.8100 C.3   1 <1>  -0.1600 
 27 C      -11.2440    -4.7910     0.6070 C.3   1 <1>  -0.1600 
 28 C      -10.4170    -5.4340    -0.5230 C.3   1 <1>  -0.1600 
 29 H       -1.7680    -0.9510    -1.0230 H     1 <1>   0.1500 
 30 H       -4.1440     3.1230     0.3610 H     1 <1>   0.1500 
 31 H       -4.2210    -0.8670    -1.1340 H     1 <1>   0.1500 
 32 H       -0.0840     4.4940     1.1210 H     1 <1>   0.0800 
 33 H        0.2010     3.3940    -0.2210 H     1 <1>   0.0800 
 34 H        0.0820     2.7710     1.4350 H     1 <1>   0.0800 
 35 H       -8.5410    -0.4750     1.5450 H     1 <1>   0.3700 
 36 H       -9.6020     1.8510     1.4940 H     1 <1>   0.0800 
 37 H      -11.0520     1.0900     0.8760 H     1 <1>   0.0800 
 38 H      -10.3370     2.4490     0.0250 H     1 <1>   0.0800 
 39 H       -9.3390    -0.3690    -2.0710 H     1 <1>   0.0800 
 40 H      -10.0890     1.2120    -2.0720 H     1 <1>   0.0800 
 41 H      -10.9090    -0.1510    -1.3300 H     1 <1>   0.0800 
 42 H       -8.5640    -2.6040     2.8420 H     1 <1>   0.0800 
 43 H       -7.5380    -3.2810     1.6150 H     1 <1>   0.0800 
 44 H       -9.9630    -1.0510     0.4710 H     1 <1>   0.4000 
 45 H       -8.2930    -2.7150    -0.8030 H     1 <1>   0.0800 
 46 H       -9.9880    -2.8110    -1.1700 H     1 <1>   0.0800 
 47 H      -10.9260    -3.6840     2.4330 H     1 <1>   0.0800 
 48 H       -9.6460    -4.7740     2.0100 H     1 <1>   0.0800 
 49 H       -8.3150    -5.1090    -0.1870 H     1 <1>   0.0800 
 50 H       -8.8060    -4.8630    -1.8340 H     1 <1>   0.0800 
 51 H      -11.9340    -4.0790     0.1850 H     1 <1>   0.0800 
 52 H      -11.8230    -5.5460     1.1100 H     1 <1>   0.0800 
 53 H      -10.1930    -6.4560    -0.2670 H     1 <1>   0.0800 
 54 H      -11.0180    -5.4520    -1.4160 H     1 <1>   0.0800 
@<TRIPOS>BOND
  1   1   2  1   
  2   2   3  ar  
  3   2   4  ar  
  4   3   5  1   
  5   3   6  ar  
  6   4   7  ar  
  7   4  29  1   
  8   5   8  1   
  9   6   9  ar  
 10   6  30  1   
 11   7   9  ar  
 12   7  31  1   
 13   8  32  1   
 14   8  33  1   
 15   8  34  1   
 16   9  10  1   
 17  10  11  1   
 18  10  12  2   
 19  11  13  1   
 20  12  14  1   
 21  12  15  1   
 22  13  14  2   
 23  14  16  1   
 24  15  17  2   
 25  15  18  am  
 26  16  19  1   
 27  16  20  1   
 28  18  21  1   
 29  18  35  1   
 30  19  36  1   
 31  19  37  1   
 32  19  38  1   
 33  20  39  1   
 34  20  40  1   
 35  20  41  1   
 36  21  22  1   
 37  21  42  1   
 38  21  43  1   
 39  22  23  1   
 40  22  24  1   
 41  22  25  1   
 42  23  44  1   
 43  24  26  1   
 44  24  45  1   
 45  24  46  1   
 46  25  27  1   
 47  25  47  1   
 48  25  48  1   
 49  26  28  1   
 50  26  49  1   
 51  26  50  1   
 52  27  28  1   
 53  27  51  1   
 54  27  52  1   
 55  28  53  1   
 56  28  54  1   
@<TRIPOS>SUBSTRUCTURE
  1 ****  12 GROUP 4 **** **** 0

# MOE 2024.06 (io_trps.svl 2023.06)
