@<TRIPOS>MOLECULE
NONAME
44 46 1 0 0 
SMALL
USER_CHARGES


@<TRIPOS>ATOM
  1 S       -0.7540    -0.0690    -0.8120 S.3   1 <1>  -0.3320 
  2 C       -0.5970    -1.8340    -0.5950 C.ar  1 <1>   0.7220 
  3 C       -1.8210     0.4990     0.5870 C.3   1 <1>  -0.0100 
  4 N       -1.2500    -2.3590     0.4310 N.ar  1 <1>  -0.6200 
  5 N        0.1580    -2.4420    -1.4950 N.ar  1 <1>  -0.6200 
  6 C       -1.1150    -3.6580     0.5610 C.ar  1 <1>   0.1600 
  7 C        0.2730    -3.7380    -1.3360 C.ar  1 <1>   0.1600 
  8 C       -0.3640    -4.4100    -0.3160 C.ar  1 <1>  -0.1430 
  9 C       -0.2520    -5.9090    -0.1530 C.3   1 <1>   0.4870 
 10 N       -1.1120    -6.6100    -1.1570 N.4   1 <1>  -0.9590 
 11 C       -2.5570    -6.2180    -1.0420 C.3   1 <1>   0.3430 
 12 C       -1.0760    -8.0850    -0.8970 C.3   1 <1>   0.3430 
 13 C       -3.1630    -7.1860    -0.0240 C.3   1 <1>   0.2000 
 14 C       -2.4570    -8.5000    -0.3650 C.3   1 <1>  -0.0800 
 15 O       -2.8060    -6.7600     1.2550 O.3   1 <1>  -0.6800 
 16 C       -2.3690    -9.5380     0.7710 C.3   1 <1>   0.0210 
 17 C       -1.6970   -10.8130     0.2960 C.2   1 <1>   0.1080 
 18 N       -0.4920   -10.8430    -0.1860 N.2   1 <1>  -0.7070 
 19 C       -2.2830   -12.0730     0.3280 C.2   1 <1>  -0.1500 
 20 N       -0.2710   -12.1460    -0.4650 N.pl3 1 <1>   0.3000 
 21 C       -1.3450   -12.9060    -0.1670 C.2   1 <1>  -0.3320 
 22 C       -1.4070   -14.4090    -0.3710 C.3   1 <1>  -0.0600 
 23 H       -1.9370     1.5640     0.4990 H     1 <1>   0.0800 
 24 H       -1.3260     0.2390     1.5060 H     1 <1>   0.0800 
 25 H       -2.7690    -0.0010     0.5040 H     1 <1>   0.0800 
 26 H       -1.6250    -4.1270     1.3880 H     1 <1>   0.1500 
 27 H        0.8910    -4.2640    -2.0450 H     1 <1>   0.1500 
 28 H       -0.5580    -6.1830     0.8450 H     1 <1>   0.0800 
 29 H        0.7760    -6.2090    -0.2770 H     1 <1>   0.0800 
 30 H       -0.7650    -6.4030    -2.1010 H     1 <1>   0.4500 
 31 H       -2.6920    -5.1930    -0.7410 H     1 <1>   0.0800 
 32 H       -3.0420    -6.3670    -1.9930 H     1 <1>   0.0800 
 33 H       -0.8530    -8.6360    -1.7970 H     1 <1>   0.0800 
 34 H       -0.3190    -8.3230    -0.1650 H     1 <1>   0.0800 
 35 H       -4.2380    -7.2370    -0.0910 H     1 <1>   0.0800 
 36 H       -2.9820    -8.9570    -1.1850 H     1 <1>   0.0800 
 37 H       -3.3530    -7.2040     1.9390 H     1 <1>   0.4000 
 38 H       -3.3550    -9.7740     1.1270 H     1 <1>   0.0800 
 39 H       -1.7980    -9.1520     1.5970 H     1 <1>   0.0800 
 40 H       -3.2710   -12.3140     0.6800 H     1 <1>   0.1500 
 41 H        0.6170   -12.4910    -0.8510 H     1 <1>   0.2700 
 42 H       -2.3640   -14.7860    -0.0560 H     1 <1>   0.0800 
 43 H       -0.6420   -14.8960     0.2070 H     1 <1>   0.0800 
 44 H       -1.2700   -14.6520    -1.4100 H     1 <1>   0.0800 
@<TRIPOS>BOND
  1   1   2  1   
  2   1   3  1   
  3   2   4  ar  
  4   2   5  ar  
  5   3  23  1   
  6   3  24  1   
  7   3  25  1   
  8   4   6  ar  
  9   5   7  ar  
 10   6   8  ar  
 11   6  26  1   
 12   7   8  ar  
 13   7  27  1   
 14   8   9  1   
 15   9  10  1   
 16   9  28  1   
 17   9  29  1   
 18  10  11  1   
 19  10  12  1   
 20  10  30  1   
 21  11  13  1   
 22  11  31  1   
 23  11  32  1   
 24  12  14  1   
 25  12  33  1   
 26  12  34  1   
 27  13  14  1   
 28  13  15  1   
 29  13  35  1   
 30  14  16  1   
 31  14  36  1   
 32  15  37  1   
 33  16  17  1   
 34  16  38  1   
 35  16  39  1   
 36  17  18  2   
 37  17  19  1   
 38  18  20  1   
 39  19  21  2   
 40  19  40  1   
 41  20  21  1   
 42  20  41  1   
 43  21  22  1   
 44  22  42  1   
 45  22  43  1   
 46  22  44  1   
@<TRIPOS>SUBSTRUCTURE
  1 ****  10 GROUP 4 **** **** 0

# MOE 2024.06 (io_trps.svl 2023.06)
