@<TRIPOS>MOLECULE
NONAME
50 52 1 0 0 
SMALL
USER_CHARGES


@<TRIPOS>ATOM
  1 S       -0.2620     0.3150     1.4560 S.o2  1 <1>   1.5760 
  2 O        0.9840     0.2800     2.1910 O.2   1 <1>  -0.6500 
  3 O       -1.4890     0.6980     2.1170 O.2   1 <1>  -0.6500 
  4 N       -0.5030    -1.1750     0.6980 N.am  1 <1>  -0.8490 
  5 N       -0.0320     1.3020     0.1060 N.am  1 <1>  -0.8490 
  6 C       -1.7840    -1.1860    -0.0330 C.3   1 <1>   0.1960 
  7 C       -0.4390    -2.2710     1.6610 C.3   1 <1>   0.1960 
  8 C       -0.1270     2.7140     0.4750 C.3   1 <1>   0.1960 
  9 C        1.2430     1.0150    -0.5570 C.3   1 <1>   0.1960 
 10 C       -1.9930    -2.4190    -0.9340 C.3   1 <1>   0.2090 
 11 C       -0.0630    -3.5680     0.9450 C.3   1 <1>  -0.1600 
 12 C       -0.0570     3.5940    -0.7790 C.3   1 <1>  -0.1600 
 13 C        1.3570     1.8240    -1.8530 C.3   1 <1>  -0.1600 
 14 N       -2.3460    -3.6720    -0.1820 N.pl3 1 <1>  -0.8380 
 15 C       -1.2570    -4.4210     0.5130 C.3   1 <1>   0.2090 
 16 C        1.2210     3.3270    -1.5830 C.3   1 <1>  -0.1600 
 17 C       -3.6730    -3.9490     0.1300 C.ar  1 <1>   0.4100 
 18 N       -4.4070    -2.8790     0.4370 N.ar  1 <1>  -0.6200 
 19 C       -4.1950    -5.2620     0.1420 C.ar  1 <1>   0.0860 
 20 C       -5.6450    -3.0890     0.8360 C.ar  1 <1>   0.1600 
 21 C       -3.4460    -6.4060    -0.3110 C.2   1 <1>   0.5440 
 22 C       -5.4980    -5.4440     0.5850 C.ar  1 <1>  -0.1500 
 23 C       -6.2310    -4.3360     0.9380 C.ar  1 <1>  -0.1500 
 24 O       -3.3260    -7.3980     0.3770 O.2   1 <1>  -0.5700 
 25 N       -2.8690    -6.4510    -1.5340 N.am  1 <1>  -0.8000 
 26 H       -1.8180    -0.3240    -0.6760 H     1 <1>   0.0800 
 27 H       -2.6060    -1.0950     0.6560 H     1 <1>   0.0800 
 28 H       -1.3710    -2.3700     2.1970 H     1 <1>   0.0800 
 29 H        0.3350    -2.0690     2.3830 H     1 <1>   0.0800 
 30 H        0.6700     2.9700     1.1540 H     1 <1>   0.0800 
 31 H       -1.0650     2.8970     0.9730 H     1 <1>   0.0800 
 32 H        1.3020    -0.0350    -0.7920 H     1 <1>   0.0800 
 33 H        2.0640     1.2570     0.0990 H     1 <1>   0.0800 
 34 H       -1.1140    -2.5810    -1.5310 H     1 <1>   0.0800 
 35 H       -2.8020    -2.1980    -1.6080 H     1 <1>   0.0800 
 36 H        0.5180    -4.1660     1.6230 H     1 <1>   0.0800 
 37 H        0.5710    -3.3560     0.1020 H     1 <1>   0.0800 
 38 H       -0.0950     4.6290    -0.4900 H     1 <1>   0.0800 
 39 H       -0.9200     3.3910    -1.3890 H     1 <1>   0.0800 
 40 H        0.5850     1.5020    -2.5290 H     1 <1>   0.0800 
 41 H        2.3070     1.6230    -2.3160 H     1 <1>   0.0800 
 42 H       -1.6710    -4.8910     1.3900 H     1 <1>   0.0800 
 43 H       -0.9000    -5.2030    -0.1350 H     1 <1>   0.0800 
 44 H        2.0740     3.6670    -1.0210 H     1 <1>   0.0800 
 45 H        1.1920     3.8680    -2.5130 H     1 <1>   0.0800 
 46 H       -6.2260    -2.2210     1.0990 H     1 <1>   0.1500 
 47 H       -5.9180    -6.4340     0.6400 H     1 <1>   0.1500 
 48 H       -7.2460    -4.4330     1.2820 H     1 <1>   0.1500 
 49 H       -2.3560    -7.2850    -1.8170 H     1 <1>   0.3700 
 50 H       -2.7420    -5.6050    -2.0920 H     1 <1>   0.3700 
@<TRIPOS>BOND
  1   1   2  2   
  2   1   3  2   
  3   1   4  am  
  4   1   5  am  
  5   4   6  1   
  6   4   7  1   
  7   5   8  1   
  8   5   9  1   
  9   6  10  1   
 10   6  26  1   
 11   6  27  1   
 12   7  11  1   
 13   7  28  1   
 14   7  29  1   
 15   8  12  1   
 16   8  30  1   
 17   8  31  1   
 18   9  13  1   
 19   9  32  1   
 20   9  33  1   
 21  10  14  1   
 22  10  34  1   
 23  10  35  1   
 24  11  15  1   
 25  11  36  1   
 26  11  37  1   
 27  12  16  1   
 28  12  38  1   
 29  12  39  1   
 30  13  16  1   
 31  13  40  1   
 32  13  41  1   
 33  14  15  1   
 34  14  17  1   
 35  15  42  1   
 36  15  43  1   
 37  16  44  1   
 38  16  45  1   
 39  17  18  ar  
 40  17  19  ar  
 41  18  20  ar  
 42  19  21  1   
 43  19  22  ar  
 44  20  23  ar  
 45  20  46  1   
 46  21  24  2   
 47  21  25  am  
 48  22  23  ar  
 49  22  47  1   
 50  23  48  1   
 51  25  49  1   
 52  25  50  1   
@<TRIPOS>SUBSTRUCTURE
  1 ****   6 GROUP 4 **** **** 0

# MOE 2024.06 (io_trps.svl 2023.06)
