@<TRIPOS>MOLECULE
NONAME
47 49 1 0 0 
SMALL
USER_CHARGES


@<TRIPOS>ATOM
  1 O       -0.6030    -0.0610     0.0480 O.3   1 <1>  -0.2800 
  2 C       -1.6380    -0.8620    -0.1130 C.2   1 <1>  -0.0400 
  3 C       -0.9840     1.1580    -0.2730 C.2   1 <1>  -0.0400 
  4 C       -2.7090    -0.1630    -0.5470 C.2   1 <1>  -0.1500 
  5 C       -1.4530    -2.3400     0.1910 C.3   1 <1>   0.2900 
  6 C       -2.2800     1.1650    -0.6510 C.2   1 <1>  -0.1500 
  7 C        0.0230     2.2820    -0.1750 C.3   1 <1>  -0.0600 
  8 N       -2.7470    -3.0560     0.2350 N.3   1 <1>  -0.8100 
  9 C       -2.6190    -4.5010    -0.0420 C.3   1 <1>   0.1100 
 10 C       -3.5290    -2.7410     1.4450 C.3   1 <1>   0.1100 
 11 C       -3.8740    -5.2930     0.4130 C.3   1 <1>   0.4230 
 12 C       -4.9790    -3.2650     1.3260 C.3   1 <1>  -0.1600 
 13 N       -4.0100    -6.7250    -0.0990 N.4   1 <1>  -0.9590 
 14 C       -5.1630    -4.4300     0.3140 C.3   1 <1>   0.0000 
 15 C       -5.2230    -6.9780    -0.9290 C.3   1 <1>   0.3430 
 16 C       -2.7910    -7.2740    -0.7740 C.3   1 <1>   0.2630 
 17 C       -6.3470    -5.3310     0.7360 C.3   1 <1>  -0.1600 
 18 C       -5.3830    -3.8180    -1.1070 C.3   1 <1>   0.1200 
 19 C       -6.5010    -6.5600    -0.1850 C.3   1 <1>  -0.1600 
 20 O       -6.6310    -3.2190    -1.2100 O.3   1 <1>  -0.6800 
 21 H       -3.6960    -0.5240    -0.7760 H     1 <1>   0.1500 
 22 H       -0.9420    -2.4480     1.1320 H     1 <1>   0.0800 
 23 H       -0.8290    -2.7530    -0.5810 H     1 <1>   0.0800 
 24 H       -2.8880     1.9920    -0.9710 H     1 <1>   0.1500 
 25 H       -0.4290     3.2120    -0.4670 H     1 <1>   0.0800 
 26 H        0.8570     2.0780    -0.8220 H     1 <1>   0.0800 
 27 H        0.3760     2.3650     0.8360 H     1 <1>   0.0800 
 28 H       -2.4750    -4.6140    -1.1020 H     1 <1>   0.0800 
 29 H       -1.7580    -4.8870     0.4760 H     1 <1>   0.0800 
 30 H       -3.0480    -3.1810     2.3030 H     1 <1>   0.0800 
 31 H       -3.5570    -1.6740     1.6030 H     1 <1>   0.0800 
 32 H       -3.7220    -5.4020     1.4740 H     1 <1>   0.0800 
 33 H       -5.2900    -3.5670     2.3110 H     1 <1>   0.0800 
 34 H       -5.6160    -2.4400     1.0560 H     1 <1>   0.0800 
 35 H       -4.1590    -7.2880     0.7510 H     1 <1>   0.4500 
 36 H       -5.1450    -6.4270    -1.8510 H     1 <1>   0.0800 
 37 H       -5.2890    -8.0240    -1.1840 H     1 <1>   0.0800 
 38 H       -2.5990    -6.7410    -1.6920 H     1 <1>   0.0800 
 39 H       -2.9300    -8.3180    -1.0080 H     1 <1>   0.0800 
 40 H       -1.9300    -7.1810    -0.1320 H     1 <1>   0.0800 
 41 H       -6.1700    -5.6840     1.7390 H     1 <1>   0.0800 
 42 H       -7.2680    -4.7740     0.7710 H     1 <1>   0.0800 
 43 H       -5.3150    -4.5460    -1.8900 H     1 <1>   0.0800 
 44 H       -4.6600    -3.0500    -1.3210 H     1 <1>   0.0800 
 45 H       -7.2550    -6.3540    -0.9260 H     1 <1>   0.0800 
 46 H       -6.8640    -7.3910     0.3940 H     1 <1>   0.0800 
 47 H       -7.3540    -3.8460    -1.0210 H     1 <1>   0.4000 
@<TRIPOS>BOND
  1   1   2  1   
  2   1   3  1   
  3   2   4  2   
  4   2   5  1   
  5   3   6  2   
  6   3   7  1   
  7   4   6  1   
  8   4  21  1   
  9   5   8  1   
 10   5  22  1   
 11   5  23  1   
 12   6  24  1   
 13   7  25  1   
 14   7  26  1   
 15   7  27  1   
 16   8   9  1   
 17   8  10  1   
 18   9  11  1   
 19   9  28  1   
 20   9  29  1   
 21  10  12  1   
 22  10  30  1   
 23  10  31  1   
 24  11  13  1   
 25  11  14  1   
 26  11  32  1   
 27  12  14  1   
 28  12  33  1   
 29  12  34  1   
 30  13  15  1   
 31  13  16  1   
 32  13  35  1   
 33  14  17  1   
 34  14  18  1   
 35  15  19  1   
 36  15  36  1   
 37  15  37  1   
 38  16  38  1   
 39  16  39  1   
 40  16  40  1   
 41  17  19  1   
 42  17  41  1   
 43  17  42  1   
 44  18  20  1   
 45  18  43  1   
 46  18  44  1   
 47  19  45  1   
 48  19  46  1   
 49  20  47  1   
@<TRIPOS>SUBSTRUCTURE
  1 ****   8 GROUP 4 **** **** 0

# MOE 2024.06 (io_trps.svl 2023.06)
