@<TRIPOS>MOLECULE
NONAME
51 54 1 0 0 
SMALL
USER_CHARGES


@<TRIPOS>ATOM
  1 O        1.4940     1.3230    -1.9480 O.2   1 <1>  -0.5700 
  2 C        1.8900     2.3260    -1.4170 C.2   1 <1>   0.4230 
  3 C        2.4610     2.4710    -0.1150 C.ar  1 <1>   0.0860 
  4 C        1.8520     3.6790    -2.0970 C.3   1 <1>  -0.0990 
  5 C        2.8120     3.7840     0.1230 C.ar  1 <1>  -0.1440 
  6 C        2.6830     1.5110     0.8650 C.ar  1 <1>  -0.1500 
  7 C        2.4690     4.6560    -1.0740 C.3   1 <1>  -0.0160 
  8 C        3.3910     4.1940     1.3220 C.ar  1 <1>   0.0860 
  9 C        3.2480     1.8870     2.0700 C.ar  1 <1>  -0.1500 
 10 C        3.7620     5.5760     1.5590 C.2   1 <1>   0.5440 
 11 C        3.5920     3.2110     2.2940 C.ar  1 <1>  -0.1500 
 12 O        2.8960     6.4310     1.5500 O.2   1 <1>  -0.5700 
 13 N        5.0700     5.9550     1.7770 N.am  1 <1>  -0.6600 
 14 C        6.2600     5.0740     1.5560 C.3   1 <1>   0.1400 
 15 C        5.4070     7.3350     2.2180 C.3   1 <1>   0.1400 
 16 C        7.0080     5.4240     0.2620 C.3   1 <1>   0.1400 
 17 C        5.5110     8.2950     1.0270 C.3   1 <1>  -0.1600 
 18 N        7.4240     6.8640     0.2090 N.am  1 <1>  -0.6600 
 19 C        6.3250     7.7960    -0.1760 C.3   1 <1>   0.1400 
 20 C        8.7520     7.2320     0.2610 C.2   1 <1>   0.7150 
 21 O        9.6040     6.3650     0.3120 O.2   1 <1>  -0.5700 
 22 C        9.1600     8.6120     0.2320 C.2   1 <1>  -0.2370 
 23 N       10.0630     9.1080    -0.6710 N.pl3 1 <1>   0.0480 
 24 C        8.7860     9.6500     1.0460 C.2   1 <1>  -0.1500 
 25 C       10.2210    10.4280    -0.4270 C.2   1 <1>  -0.3020 
 26 C       10.7630     8.3400    -1.7200 C.3   1 <1>   0.0160 
 27 C        9.4460    10.8090     0.6320 C.2   1 <1>   0.0190 
 28 C        9.3130    12.1090     1.2270 C.1   1 <1>   0.5380 
 29 N        9.1960    13.1400     1.7020 N.1   1 <1>  -0.5570 
 30 H        0.8340     3.9430    -2.3210 H     1 <1>   0.0800 
 31 H        2.4270     3.6470    -3.0040 H     1 <1>   0.0800 
 32 H        2.4070     0.4880     0.6720 H     1 <1>   0.1500 
 33 H        1.7600     5.4160    -0.7920 H     1 <1>   0.0800 
 34 H        3.3550     5.1220    -1.4690 H     1 <1>   0.0800 
 35 H        3.4150     1.1490     2.8370 H     1 <1>   0.1500 
 36 H        4.0220     3.4970     3.2380 H     1 <1>   0.1500 
 37 H        5.9630     4.0430     1.5050 H     1 <1>   0.0800 
 38 H        6.9360     5.1700     2.3880 H     1 <1>   0.0800 
 39 H        6.3420     7.3220     2.7510 H     1 <1>   0.0800 
 40 H        4.6500     7.6890     2.8970 H     1 <1>   0.0800 
 41 H        6.3770     5.2010    -0.5800 H     1 <1>   0.0800 
 42 H        7.8680     4.7810     0.1860 H     1 <1>   0.0800 
 43 H        5.9260     9.2210     1.3750 H     1 <1>   0.0800 
 44 H        4.5160     8.5240     0.6880 H     1 <1>   0.0800 
 45 H        6.7220     8.6390    -0.7170 H     1 <1>   0.0800 
 46 H        5.6580     7.2810    -0.8460 H     1 <1>   0.0800 
 47 H        8.1090     9.6010     1.8810 H     1 <1>   0.1500 
 48 H       10.8810    11.0490    -1.0070 H     1 <1>   0.1500 
 49 H       10.0430     7.8210    -2.3240 H     1 <1>   0.0800 
 50 H       11.4200     7.6270    -1.2560 H     1 <1>   0.0800 
 51 H       11.3370     9.0060    -2.3380 H     1 <1>   0.0800 
@<TRIPOS>BOND
  1   1   2  2   
  2   2   3  1   
  3   2   4  1   
  4   3   5  ar  
  5   3   6  ar  
  6   4   7  1   
  7   4  30  1   
  8   4  31  1   
  9   5   7  1   
 10   5   8  ar  
 11   6   9  ar  
 12   6  32  1   
 13   7  33  1   
 14   7  34  1   
 15   8  10  1   
 16   8  11  ar  
 17   9  11  ar  
 18   9  35  1   
 19  10  12  2   
 20  10  13  am  
 21  11  36  1   
 22  13  14  1   
 23  13  15  1   
 24  14  16  1   
 25  14  37  1   
 26  14  38  1   
 27  15  17  1   
 28  15  39  1   
 29  15  40  1   
 30  16  18  1   
 31  16  41  1   
 32  16  42  1   
 33  17  19  1   
 34  17  43  1   
 35  17  44  1   
 36  18  19  1   
 37  18  20  am  
 38  19  45  1   
 39  19  46  1   
 40  20  21  2   
 41  20  22  1   
 42  22  23  1   
 43  22  24  2   
 44  23  25  1   
 45  23  26  1   
 46  24  27  1   
 47  24  47  1   
 48  25  27  2   
 49  25  48  1   
 50  26  49  1   
 51  26  50  1   
 52  26  51  1   
 53  27  28  1   
 54  28  29  3   
@<TRIPOS>SUBSTRUCTURE
  1 ****  16 GROUP 4 **** **** 0

# MOE 2024.06 (io_trps.svl 2023.06)
