@<TRIPOS>MOLECULE
NONAME
54 57 1 0 0 
SMALL
USER_CHARGES


@<TRIPOS>ATOM
  1 F        0.1670     1.6020    -1.5250 F     1 <1>  -0.3400 
  2 C       -0.4650     2.0770    -0.4540 C.3   1 <1>   1.1640 
  3 F        0.0320     1.4220     0.5920 F     1 <1>  -0.3400 
  4 F       -1.7250     1.6600    -0.5690 F     1 <1>  -0.3400 
  5 C       -0.3450     3.6170    -0.3200 C.ar  1 <1>   0.1660 
  6 N        0.8390     4.1710    -0.0880 N.ar  1 <1>  -0.6200 
  7 C       -1.4590     4.4100    -0.4420 C.ar  1 <1>  -0.1500 
  8 C        0.8740     5.4960     0.0120 C.ar  1 <1>   0.7200 
  9 C       -1.3190     5.7750    -0.3130 C.ar  1 <1>   0.4100 
 10 N       -0.1520     6.3260    -0.0910 N.ar  1 <1>  -0.6200 
 11 N        2.1050     6.0580     0.2560 N.pl3 1 <1>  -0.8380 
 12 N       -2.4190     6.5940    -0.4140 N.pl3 1 <1>  -0.8380 
 13 C        2.3680     7.5100     0.1650 C.3   1 <1>   0.2090 
 14 C        3.3630     5.2830     0.2700 C.3   1 <1>   0.2090 
 15 C       -3.5680     6.4090     0.5160 C.3   1 <1>   0.2090 
 16 C       -2.2840     7.9750    -0.9410 C.3   1 <1>   0.2090 
 17 C        3.8670     7.6160    -0.0970 C.3   1 <1>  -0.1600 
 18 C        4.4540     6.3270     0.4740 C.3   1 <1>  -0.1600 
 19 C       -4.9070     6.7510    -0.1770 C.3   1 <1>   0.0000 
 20 C       -3.5810     8.3710    -1.6540 C.3   1 <1>  -0.1600 
 21 C       -6.0500     6.5690     0.8420 C.3   1 <1>   0.2000 
 22 C       -4.8180     8.1860    -0.7560 C.3   1 <1>  -0.1600 
 23 C       -5.2430     5.7030    -1.2540 C.3   1 <1>  -0.1600 
 24 O       -7.1940     7.2320     0.3860 O.3   1 <1>  -0.5600 
 25 C       -6.3370     5.0620     0.8500 C.3   1 <1>  -0.1600 
 26 C       -5.8980     4.5270    -0.5200 C.3   1 <1>  -0.1600 
 27 C       -8.1030     7.5930     1.3760 C.3   1 <1>   0.0400 
 28 H       -2.4340     4.0130    -0.6430 H     1 <1>   0.1500 
 29 H        1.7980     7.9640    -0.6280 H     1 <1>   0.0800 
 30 H        2.1120     7.9690     1.1050 H     1 <1>   0.0800 
 31 H        3.3540     4.5540     1.0630 H     1 <1>   0.0800 
 32 H        3.4830     4.7870    -0.6780 H     1 <1>   0.0800 
 33 H       -3.5820     5.3990     0.8840 H     1 <1>   0.0800 
 34 H       -3.4260     7.0620     1.3610 H     1 <1>   0.0800 
 35 H       -2.0850     8.6480    -0.1240 H     1 <1>   0.0800 
 36 H       -1.4590     8.0240    -1.6310 H     1 <1>   0.0800 
 37 H        4.0290     7.6510    -1.1600 H     1 <1>   0.0800 
 38 H        4.2890     8.4960     0.3530 H     1 <1>   0.0800 
 39 H        4.6290     6.4410     1.5290 H     1 <1>   0.0800 
 40 H        5.3720     6.0430    -0.0080 H     1 <1>   0.0800 
 41 H       -3.5120     9.3980    -1.9650 H     1 <1>   0.0800 
 42 H       -3.6820     7.7700    -2.5400 H     1 <1>   0.0800 
 43 H       -5.7830     6.9520     1.8130 H     1 <1>   0.0800 
 44 H       -5.7040     8.4130    -1.3230 H     1 <1>   0.0800 
 45 H       -4.7670     8.8870     0.0580 H     1 <1>   0.0800 
 46 H       -5.9640     6.1210    -1.9360 H     1 <1>   0.0800 
 47 H       -4.3800     5.3970    -1.8200 H     1 <1>   0.0800 
 48 H       -5.7440     4.5950     1.6150 H     1 <1>   0.0800 
 49 H       -7.3730     4.8490     1.0440 H     1 <1>   0.0800 
 50 H       -5.1960     3.7220    -0.3960 H     1 <1>   0.0800 
 51 H       -6.7450     4.1680    -1.0800 H     1 <1>   0.0800 
 52 H       -8.9470     8.0580     0.8990 H     1 <1>   0.0800 
 53 H       -7.6360     8.2930     2.0470 H     1 <1>   0.0800 
 54 H       -8.4270     6.7160     1.9080 H     1 <1>   0.0800 
@<TRIPOS>BOND
  1   1   2  1   
  2   2   3  1   
  3   2   4  1   
  4   2   5  1   
  5   5   6  ar  
  6   5   7  ar  
  7   6   8  ar  
  8   7   9  ar  
  9   7  28  1   
 10   8  10  ar  
 11   8  11  1   
 12   9  10  ar  
 13   9  12  1   
 14  11  13  1   
 15  11  14  1   
 16  12  15  1   
 17  12  16  1   
 18  13  17  1   
 19  13  29  1   
 20  13  30  1   
 21  14  18  1   
 22  14  31  1   
 23  14  32  1   
 24  15  19  1   
 25  15  33  1   
 26  15  34  1   
 27  16  20  1   
 28  16  35  1   
 29  16  36  1   
 30  17  18  1   
 31  17  37  1   
 32  17  38  1   
 33  18  39  1   
 34  18  40  1   
 35  19  21  1   
 36  19  22  1   
 37  19  23  1   
 38  20  22  1   
 39  20  41  1   
 40  20  42  1   
 41  21  24  1   
 42  21  25  1   
 43  21  43  1   
 44  22  44  1   
 45  22  45  1   
 46  23  26  1   
 47  23  46  1   
 48  23  47  1   
 49  24  27  1   
 50  25  26  1   
 51  25  48  1   
 52  25  49  1   
 53  26  50  1   
 54  26  51  1   
 55  27  52  1   
 56  27  53  1   
 57  27  54  1   
@<TRIPOS>SUBSTRUCTURE
  1 ****   9 GROUP 4 **** **** 0

# MOE 2024.06 (io_trps.svl 2023.06)
