@<TRIPOS>MOLECULE
NONAME
43 45 1 0 0 
SMALL
USER_CHARGES


@<TRIPOS>ATOM
  1 O       -2.1940     0.7600     0.3920 O.3   1 <1>  -0.5600 
  2 C       -2.5280     0.1510     1.6100 C.3   1 <1>   0.1200 
  3 C       -1.1610     1.6920     0.4910 C.3   1 <1>   0.0400 
  4 C       -3.5990    -0.9240     1.3510 C.3   1 <1>   0.3430 
  5 N       -4.4830    -0.4830     0.2350 N.4   1 <1>  -0.9590 
  6 C       -5.4740     0.5560     0.6690 C.3   1 <1>   0.3430 
  7 C       -5.1320    -1.6150    -0.4810 C.3   1 <1>   0.3430 
  8 C       -6.2300     1.1500    -0.5300 C.3   1 <1>   0.1430 
  9 C       -5.8730    -1.0890    -1.7150 C.3   1 <1>  -0.1600 
 10 C       -7.2850     2.0940    -0.0090 C.ar  1 <1>   0.1670 
 11 C       -6.8800     0.0240    -1.3630 C.3   1 <1>  -0.1600 
 12 C       -5.3430     2.0840    -1.3990 C.3   1 <1>  -0.1600 
 13 N       -8.1170     1.8140     0.9680 N.ar  1 <1>  -0.6200 
 14 C       -7.2670     3.2890    -0.6610 C.ar  1 <1>  -0.1430 
 15 C       -6.1950     3.3280    -1.7220 C.3   1 <1>  -0.0170 
 16 C       -8.9600     2.7980     1.2580 C.ar  1 <1>   0.4770 
 17 C       -8.1800     4.2380    -0.2750 C.ar  1 <1>   0.1600 
 18 N       -9.0380     3.9960     0.6950 N.ar  1 <1>  -0.6200 
 19 C       -9.9490     2.5300     2.3670 C.3   1 <1>  -0.0970 
 20 H       -2.9060     0.9050     2.2780 H     1 <1>   0.0800 
 21 H       -1.6470    -0.2960     2.0400 H     1 <1>   0.0800 
 22 H       -0.9840     2.1080    -0.4850 H     1 <1>   0.0800 
 23 H       -0.2670     1.2000     0.8370 H     1 <1>   0.0800 
 24 H       -1.4460     2.4760     1.1720 H     1 <1>   0.0800 
 25 H       -4.1670    -1.1190     2.2450 H     1 <1>   0.0800 
 26 H       -3.0950    -1.8340     1.0700 H     1 <1>   0.0800 
 27 H       -3.8200    -0.0090    -0.4070 H     1 <1>   0.4500 
 28 H       -4.9740     1.3530     1.1920 H     1 <1>   0.0800 
 29 H       -6.1920     0.1140     1.3410 H     1 <1>   0.0800 
 30 H       -5.8320    -2.1060     0.1760 H     1 <1>   0.0800 
 31 H       -4.3890    -2.3340    -0.7880 H     1 <1>   0.0800 
 32 H       -6.4000    -1.9050    -2.1770 H     1 <1>   0.0800 
 33 H       -5.1550    -0.7310    -2.4320 H     1 <1>   0.0800 
 34 H       -7.3120     0.4300    -2.2610 H     1 <1>   0.0800 
 35 H       -7.6850    -0.4080    -0.7910 H     1 <1>   0.0800 
 36 H       -4.9910     1.6140    -2.3000 H     1 <1>   0.0800 
 37 H       -4.4880     2.4050    -0.8290 H     1 <1>   0.0800 
 38 H       -6.6480     3.2410    -2.6950 H     1 <1>   0.0800 
 39 H       -5.6150     4.2330    -1.6700 H     1 <1>   0.0800 
 40 H       -8.2110     5.2000    -0.7580 H     1 <1>   0.1500 
 41 H      -10.0400     1.4750     2.5440 H     1 <1>   0.0800 
 42 H      -10.9120     2.9210     2.0960 H     1 <1>   0.0800 
 43 H       -9.6140     3.0130     3.2650 H     1 <1>   0.0800 
@<TRIPOS>BOND
  1   1   2  1   
  2   1   3  1   
  3   2   4  1   
  4   2  20  1   
  5   2  21  1   
  6   3  22  1   
  7   3  23  1   
  8   3  24  1   
  9   4   5  1   
 10   4  25  1   
 11   4  26  1   
 12   5   6  1   
 13   5   7  1   
 14   5  27  1   
 15   6   8  1   
 16   6  28  1   
 17   6  29  1   
 18   7   9  1   
 19   7  30  1   
 20   7  31  1   
 21   8  10  1   
 22   8  11  1   
 23   8  12  1   
 24   9  11  1   
 25   9  32  1   
 26   9  33  1   
 27  10  13  ar  
 28  10  14  ar  
 29  11  34  1   
 30  11  35  1   
 31  12  15  1   
 32  12  36  1   
 33  12  37  1   
 34  13  16  ar  
 35  14  15  1   
 36  14  17  ar  
 37  15  38  1   
 38  15  39  1   
 39  16  18  ar  
 40  16  19  1   
 41  17  18  ar  
 42  17  40  1   
 43  19  41  1   
 44  19  42  1   
 45  19  43  1   
@<TRIPOS>SUBSTRUCTURE
  1 ****   8 GROUP 4 **** **** 0

# MOE 2024.06 (io_trps.svl 2023.06)
