@<TRIPOS>MOLECULE
NONAME
53 55 1 0 0 
SMALL
USER_CHARGES


@<TRIPOS>ATOM
  1 O       -0.1590     0.0390    -0.0710 O.2   1 <1>  -0.5700 
  2 C       -1.2100     0.5770     0.2020 C.2   1 <1>   0.5440 
  3 N       -1.1240     1.8630     0.6160 N.am  1 <1>  -0.8000 
  4 C       -2.4790    -0.1260     0.1080 C.ar  1 <1>   0.0860 
  5 C       -3.6990     0.5480     0.0120 C.ar  1 <1>  -0.1500 
  6 C       -2.5250    -1.5220     0.1070 C.ar  1 <1>  -0.1500 
  7 C       -4.8980    -0.1360    -0.0660 C.ar  1 <1>  -0.1500 
  8 C       -3.7190    -2.2150     0.0280 C.ar  1 <1>  -0.1500 
  9 C       -4.9220    -1.5210    -0.0570 C.ar  1 <1>   0.0830 
 10 O       -6.1340    -2.1140    -0.1350 O.3   1 <1>  -0.3630 
 11 C       -6.2800    -3.5110    -0.1440 C.3   1 <1>   0.1200 
 12 C       -7.7770    -3.8040    -0.2400 C.3   1 <1>  -0.1600 
 13 C       -8.0410    -5.3080    -0.2430 C.3   1 <1>   0.3430 
 14 N       -9.4830    -5.6300    -0.4850 N.4   1 <1>  -0.9590 
 15 C      -10.3620    -5.1900     0.6570 C.3   1 <1>   0.4230 
 16 C       -9.5780    -7.0790    -0.8580 C.3   1 <1>   0.2630 
 17 C      -11.5550    -6.1100     0.9530 C.3   1 <1>  -0.1600 
 18 C      -11.0710    -3.8960     0.2460 C.3   1 <1>  -0.1600 
 19 C      -12.6210    -5.7650    -0.0980 C.3   1 <1>  -0.0800 
 20 C      -12.3060    -4.3370    -0.5550 C.3   1 <1>  -0.0800 
 21 C      -14.0690    -5.7600     0.4090 C.3   1 <1>  -0.1600 
 22 C      -13.5750    -3.5060    -0.3160 C.3   1 <1>  -0.1600 
 23 C      -14.6940    -4.5370    -0.2510 C.3   1 <1>   0.2000 
 24 O      -15.7360    -4.0630     0.5100 O.3   1 <1>  -0.6800 
 25 H       -0.1980     2.2850     0.6930 H     1 <1>   0.3700 
 26 H       -1.9030     2.3900     1.0060 H     1 <1>   0.3700 
 27 H       -3.7140     1.6220    -0.0090 H     1 <1>   0.1500 
 28 H       -1.5980    -2.0680     0.1710 H     1 <1>   0.1500 
 29 H       -5.8270     0.4010    -0.1380 H     1 <1>   0.1500 
 30 H       -3.6880    -3.2880     0.0340 H     1 <1>   0.1500 
 31 H       -5.7480    -3.9000    -0.9960 H     1 <1>   0.0800 
 32 H       -5.8620    -3.8980     0.7700 H     1 <1>   0.0800 
 33 H       -8.2560    -3.3450     0.6060 H     1 <1>   0.0800 
 34 H       -8.1470    -3.3680    -1.1520 H     1 <1>   0.0800 
 35 H       -7.7250    -5.7340     0.6970 H     1 <1>   0.0800 
 36 H       -7.4450    -5.7540    -1.0240 H     1 <1>   0.0800 
 37 H       -9.7970    -5.0850    -1.2990 H     1 <1>   0.4500 
 38 H       -9.7700    -5.0450     1.5470 H     1 <1>   0.0800 
 39 H       -9.2940    -7.7010    -0.0240 H     1 <1>   0.0800 
 40 H       -8.9260    -7.2970    -1.6890 H     1 <1>   0.0800 
 41 H      -10.5860    -7.3290    -1.1460 H     1 <1>   0.0800 
 42 H      -11.3250    -7.1580     1.0010 H     1 <1>   0.0800 
 43 H      -11.9220    -5.8330     1.9260 H     1 <1>   0.0800 
 44 H      -11.3830    -3.3990     1.1480 H     1 <1>   0.0800 
 45 H      -10.4590    -3.2120    -0.3110 H     1 <1>   0.0800 
 46 H      -12.5450    -6.4250    -0.9470 H     1 <1>   0.0800 
 47 H      -12.0840    -4.3530    -1.6090 H     1 <1>   0.0800 
 48 H      -14.1010    -5.6490     1.4790 H     1 <1>   0.0800 
 49 H      -14.5900    -6.6580     0.1280 H     1 <1>   0.0800 
 50 H      -13.7430    -2.8040    -1.1140 H     1 <1>   0.0800 
 51 H      -13.5160    -2.9770     0.6180 H     1 <1>   0.0800 
 52 H      -15.0610    -4.7740    -1.2370 H     1 <1>   0.0800 
 53 H      -15.4330    -3.8420     1.4100 H     1 <1>   0.4000 
@<TRIPOS>BOND
  1   1   2  2   
  2   2   3  am  
  3   2   4  1   
  4   3  25  1   
  5   3  26  1   
  6   4   5  ar  
  7   4   6  ar  
  8   5   7  ar  
  9   5  27  1   
 10   6   8  ar  
 11   6  28  1   
 12   7   9  ar  
 13   7  29  1   
 14   8   9  ar  
 15   8  30  1   
 16   9  10  1   
 17  10  11  1   
 18  11  12  1   
 19  11  31  1   
 20  11  32  1   
 21  12  13  1   
 22  12  33  1   
 23  12  34  1   
 24  13  14  1   
 25  13  35  1   
 26  13  36  1   
 27  14  15  1   
 28  14  16  1   
 29  14  37  1   
 30  15  17  1   
 31  15  18  1   
 32  15  38  1   
 33  16  39  1   
 34  16  40  1   
 35  16  41  1   
 36  17  19  1   
 37  17  42  1   
 38  17  43  1   
 39  18  20  1   
 40  18  44  1   
 41  18  45  1   
 42  19  20  1   
 43  19  21  1   
 44  19  46  1   
 45  20  22  1   
 46  20  47  1   
 47  21  23  1   
 48  21  48  1   
 49  21  49  1   
 50  22  23  1   
 51  22  50  1   
 52  22  51  1   
 53  23  24  1   
 54  23  52  1   
 55  24  53  1   
@<TRIPOS>SUBSTRUCTURE
  1 ****  12 GROUP 4 **** **** 0

# MOE 2024.06 (io_trps.svl 2023.06)
