@<TRIPOS>MOLECULE
NONAME
56 60 1 0 0 
SMALL
USER_CHARGES


@<TRIPOS>ATOM
  1 O        0.1470     0.4030    -0.1870 O.2   1 <1>  -0.5700 
  2 C       -0.6030     1.2940     0.1350 C.2   1 <1>   0.5690 
  3 N       -1.9510     1.2250    -0.1150 N.am  1 <1>  -0.6600 
  4 C       -0.0100     2.5090     0.8440 C.3   1 <1>  -0.0990 
  5 C       -2.9660     2.2570     0.2730 C.3   1 <1>   0.1400 
  6 C       -2.5450     0.0510    -0.8180 C.3   1 <1>   0.1400 
  7 C        1.5310     2.5600     0.8290 C.3   1 <1>  -0.1600 
  8 C       -3.7230     2.7780    -0.9640 C.3   1 <1>   0.1430 
  9 C       -3.3110     0.5160    -2.0620 C.3   1 <1>  -0.1600 
 10 C        2.0600     3.7850     1.5880 C.3   1 <1>   0.0960 
 11 C       -4.7560     3.7890    -0.5020 C.ar  1 <1>   0.1660 
 12 C       -4.3580     1.5910    -1.7200 C.3   1 <1>  -0.1600 
 13 C       -2.8100     3.6310    -1.8890 C.3   1 <1>  -0.1600 
 14 N        3.5200     3.9240     1.4270 N.pl3 1 <1>   0.3140 
 15 N       -5.8540     3.5030     0.1540 N.ar  1 <1>  -0.6200 
 16 C       -4.4020     5.0600    -0.8320 C.ar  1 <1>  -0.1440 
 17 C       -3.0810     5.1090    -1.5580 C.3   1 <1>  -0.0170 
 18 N        4.0680     4.9210     0.7470 N.2   1 <1>  -0.7070 
 19 C        4.4950     3.1480     1.9080 C.2   1 <1>   0.0360 
 20 C       -6.6360     4.5450     0.4720 C.ar  1 <1>   0.6200 
 21 C       -5.2500     6.0730    -0.4690 C.ar  1 <1>   0.1600 
 22 C        5.3310     4.6740     0.8650 C.2   1 <1>   0.3660 
 23 N        5.6560     3.5870     1.5770 N.2   1 <1>  -0.5650 
 24 N       -6.3650     5.8260     0.1800 N.ar  1 <1>  -0.6200 
 25 C       -7.8710     4.2640     1.1920 C.ar  1 <1>   0.0000 
 26 C       -8.0070     3.1340     2.0060 C.ar  1 <1>  -0.1500 
 27 C       -8.9810     5.1100     1.1040 C.ar  1 <1>  -0.1500 
 28 C       -9.1780     2.8640     2.6900 C.ar  1 <1>  -0.1500 
 29 C      -10.1560     4.8470     1.7850 C.ar  1 <1>  -0.1500 
 30 C      -10.2570     3.7220     2.5820 C.ar  1 <1>  -0.1500 
 31 H       -0.3580     2.4980     1.8610 H     1 <1>   0.0800 
 32 H       -0.3790     3.3960     0.3640 H     1 <1>   0.0800 
 33 H       -2.5170     3.0820     0.7930 H     1 <1>   0.0800 
 34 H       -3.6740     1.8030     0.9460 H     1 <1>   0.0800 
 35 H       -3.2160    -0.4560    -0.1440 H     1 <1>   0.0800 
 36 H       -1.7810    -0.6500    -1.1100 H     1 <1>   0.0800 
 37 H        1.8660     2.6010    -0.1950 H     1 <1>   0.0800 
 38 H        1.9220     1.6620     1.2770 H     1 <1>   0.0800 
 39 H       -3.8010    -0.3310    -2.5100 H     1 <1>   0.0800 
 40 H       -2.6060     0.8970    -2.7800 H     1 <1>   0.0800 
 41 H        1.8380     3.7030     2.6370 H     1 <1>   0.0800 
 42 H        1.6010     4.6800     1.2090 H     1 <1>   0.0800 
 43 H       -4.8440     1.9370    -2.6160 H     1 <1>   0.0800 
 44 H       -5.1160     1.1480    -1.0970 H     1 <1>   0.0800 
 45 H       -3.0890     3.4670    -2.9150 H     1 <1>   0.0800 
 46 H       -1.7690     3.3830    -1.7880 H     1 <1>   0.0800 
 47 H       -3.1400     5.7090    -2.4510 H     1 <1>   0.0800 
 48 H       -2.3210     5.5000    -0.9050 H     1 <1>   0.0800 
 49 H        4.3090     2.2680     2.4970 H     1 <1>   0.1500 
 50 H       -5.0150     7.0960    -0.7100 H     1 <1>   0.1500 
 51 H        6.0980     5.2920     0.4260 H     1 <1>   0.1500 
 52 H       -7.1790     2.4540     2.1050 H     1 <1>   0.1500 
 53 H       -8.9230     5.9910     0.4890 H     1 <1>   0.1500 
 54 H       -9.2500     1.9860     3.3080 H     1 <1>   0.1500 
 55 H      -10.9910     5.5190     1.6960 H     1 <1>   0.1500 
 56 H      -11.1700     3.5140     3.1130 H     1 <1>   0.1500 
@<TRIPOS>BOND
  1   1   2  2   
  2   2   3  am  
  3   2   4  1   
  4   3   5  1   
  5   3   6  1   
  6   4   7  1   
  7   4  31  1   
  8   4  32  1   
  9   5   8  1   
 10   5  33  1   
 11   5  34  1   
 12   6   9  1   
 13   6  35  1   
 14   6  36  1   
 15   7  10  1   
 16   7  37  1   
 17   7  38  1   
 18   8  11  1   
 19   8  12  1   
 20   8  13  1   
 21   9  12  1   
 22   9  39  1   
 23   9  40  1   
 24  10  14  1   
 25  10  41  1   
 26  10  42  1   
 27  11  15  ar  
 28  11  16  ar  
 29  12  43  1   
 30  12  44  1   
 31  13  17  1   
 32  13  45  1   
 33  13  46  1   
 34  14  18  1   
 35  14  19  1   
 36  15  20  ar  
 37  16  17  1   
 38  16  21  ar  
 39  17  47  1   
 40  17  48  1   
 41  18  22  2   
 42  19  23  2   
 43  19  49  1   
 44  20  24  ar  
 45  20  25  1   
 46  21  24  ar  
 47  21  50  1   
 48  22  23  1   
 49  22  51  1   
 50  25  26  ar  
 51  25  27  ar  
 52  26  28  ar  
 53  26  52  1   
 54  27  29  ar  
 55  27  53  1   
 56  28  30  ar  
 57  28  54  1   
 58  29  30  ar  
 59  29  55  1   
 60  30  56  1   
@<TRIPOS>SUBSTRUCTURE
  1 ****   5 GROUP 4 **** **** 0

# MOE 2024.06 (io_trps.svl 2023.06)
