@<TRIPOS>MOLECULE
NONAME
42 43 1 0 0 
SMALL
USER_CHARGES


@<TRIPOS>ATOM
  1 F        1.8400     0.9350    -2.5500 F     1 <1>  -0.1900 
  2 C        2.2960     0.9140    -1.3260 C.ar  1 <1>   0.1900 
  3 C        2.2360    -0.2690    -0.6120 C.ar  1 <1>  -0.1440 
  4 C        2.8130     2.0800    -0.7960 C.ar  1 <1>  -0.1500 
  5 C        2.7130    -0.2770     0.6930 C.ar  1 <1>   0.0830 
  6 C        1.6650    -1.5210    -1.2430 C.3   1 <1>   0.4860 
  7 C        3.2890     2.0620     0.5040 C.ar  1 <1>  -0.1500 
  8 O        2.6280    -1.4490     1.3710 O.3   1 <1>  -0.3630 
  9 C        3.2400     0.8920     1.2450 C.ar  1 <1>  -0.1500 
 10 N        0.4620    -1.9490    -0.4920 N.4   1 <1>  -0.9590 
 11 C        3.0800    -1.5720     2.7030 C.3   1 <1>   0.0400 
 12 C        0.0110    -3.3100    -0.8690 C.3   1 <1>   0.5240 
 13 C       -0.6350    -0.9370    -0.4550 C.3   1 <1>   0.3430 
 14 C        0.5350    -4.2510     0.2040 C.2   1 <1>   0.0460 
 15 C       -1.5820    -1.1730     0.7310 C.3   1 <1>   0.1200 
 16 N        0.3990    -3.9120     1.5040 N.2   1 <1>  -0.5650 
 17 C        1.1690    -5.4410     0.0760 C.2   1 <1>  -0.3320 
 18 O       -2.6460    -0.2950     0.6090 O.3   1 <1>  -0.6800 
 19 C        0.9410    -4.9010     2.1390 C.2   1 <1>   0.0360 
 20 N        1.4290    -5.8630     1.3290 N.pl3 1 <1>   0.0330 
 21 C        1.5640    -6.2490    -1.1500 C.3   1 <1>  -0.0600 
 22 H        2.8420     2.9790    -1.3860 H     1 <1>   0.1500 
 23 H        2.4130    -2.2970    -1.2020 H     1 <1>   0.0800 
 24 H        1.4150    -1.3380    -2.2750 H     1 <1>   0.0800 
 25 H        3.6980     2.9590     0.9380 H     1 <1>   0.1500 
 26 H        3.6180     0.9120     2.2510 H     1 <1>   0.1500 
 27 H        0.8000    -2.0850     0.4840 H     1 <1>   0.4500 
 28 H        2.9030    -2.5830     3.0250 H     1 <1>   0.0800 
 29 H        2.5280    -0.8910     3.3270 H     1 <1>   0.0800 
 30 H        4.1340    -1.3580     2.7380 H     1 <1>   0.0800 
 31 H        0.3820    -3.5930    -1.8380 H     1 <1>   0.0800 
 32 H       -1.0650    -3.3600    -0.8750 H     1 <1>   0.0800 
 33 H       -1.1980    -0.9740    -1.3730 H     1 <1>   0.0800 
 34 H       -0.2170     0.0500    -0.3520 H     1 <1>   0.0800 
 35 H       -1.0810    -0.9720     1.6630 H     1 <1>   0.0800 
 36 H       -1.9780    -2.1730     0.7330 H     1 <1>   0.0800 
 37 H       -3.2600    -0.3710     1.3710 H     1 <1>   0.4000 
 38 H        1.0060    -4.9740     3.2120 H     1 <1>   0.1500 
 39 H        1.8930    -6.7320     1.6170 H     1 <1>   0.2700 
 40 H        1.2590    -5.7540    -2.0540 H     1 <1>   0.0800 
 41 H        1.0980    -7.2180    -1.1200 H     1 <1>   0.0800 
 42 H        2.6320    -6.3820    -1.1780 H     1 <1>   0.0800 
@<TRIPOS>BOND
  1   1   2  1   
  2   2   3  ar  
  3   2   4  ar  
  4   3   5  ar  
  5   3   6  1   
  6   4   7  ar  
  7   4  22  1   
  8   5   8  1   
  9   5   9  ar  
 10   6  10  1   
 11   6  23  1   
 12   6  24  1   
 13   7   9  ar  
 14   7  25  1   
 15   8  11  1   
 16   9  26  1   
 17  10  12  1   
 18  10  13  1   
 19  10  27  1   
 20  11  28  1   
 21  11  29  1   
 22  11  30  1   
 23  12  14  1   
 24  12  31  1   
 25  12  32  1   
 26  13  15  1   
 27  13  33  1   
 28  13  34  1   
 29  14  16  1   
 30  14  17  2   
 31  15  18  1   
 32  15  35  1   
 33  15  36  1   
 34  16  19  2   
 35  17  20  1   
 36  17  21  1   
 37  18  37  1   
 38  19  20  1   
 39  19  38  1   
 40  20  39  1   
 41  21  40  1   
 42  21  41  1   
 43  21  42  1   
@<TRIPOS>SUBSTRUCTURE
  1 ****  10 GROUP 4 **** **** 0

# MOE 2024.06 (io_trps.svl 2023.06)
