@<TRIPOS>MOLECULE
NONAME
45 48 1 0 0 
SMALL
USER_CHARGES


@<TRIPOS>ATOM
  1 O       -1.1180    -0.3410    -0.6250 O.2   1 <1>  -0.5700 
  2 C       -1.4110    -1.4930    -0.4410 C.2   1 <1>   0.4230 
  3 C       -2.3910    -2.0230     0.4530 C.ar  1 <1>   0.0860 
  4 C       -0.7480    -2.6310    -1.1870 C.3   1 <1>  -0.0990 
  5 C       -2.4440    -3.4000     0.3640 C.ar  1 <1>  -0.1440 
  6 C       -3.2330    -1.3570     1.3340 C.ar  1 <1>  -0.1500 
  7 C       -1.4310    -3.9070    -0.6510 C.3   1 <1>  -0.0160 
  8 C       -3.3260    -4.1610     1.1280 C.ar  1 <1>   0.0860 
  9 C       -4.1130    -2.0840     2.1150 C.ar  1 <1>  -0.1500 
 10 C       -3.3910    -5.6080     1.0160 C.2   1 <1>   0.5440 
 11 C       -4.1540    -3.4660     2.0120 C.ar  1 <1>  -0.1500 
 12 O       -2.3820    -6.2750     1.1370 O.2   1 <1>  -0.5700 
 13 N       -4.5780    -6.2520     0.7570 N.am  1 <1>  -0.6600 
 14 C       -5.7830    -5.6050     0.1790 C.3   1 <1>   0.1400 
 15 C       -4.6640    -7.7270     0.6320 C.3   1 <1>   0.1400 
 16 C       -6.5210    -6.7330    -0.5400 C.3   1 <1>   0.2000 
 17 C       -6.0940    -8.0160     0.1720 C.3   1 <1>  -0.0800 
 18 O       -7.8950    -6.5750    -0.4630 O.3   1 <1>  -0.6800 
 19 C       -6.2170    -9.2630    -0.7170 C.3   1 <1>  -0.0170 
 20 C       -5.7960   -10.5150     0.0370 C.ar  1 <1>  -0.1430 
 21 C       -4.5220   -11.0380    -0.0580 C.ar  1 <1>  -0.1500 
 22 C       -6.6720   -11.1910     0.8620 C.ar  1 <1>  -0.1500 
 23 C       -4.1940   -12.1770     0.6590 C.ar  1 <1>   0.1600 
 24 C       -6.2440   -12.3240     1.5350 C.ar  1 <1>   0.1600 
 25 N       -5.0250   -12.8320     1.4540 N.ar  1 <1>  -0.6200 
 26 H       -0.9080    -2.5160    -2.2430 H     1 <1>   0.0800 
 27 H        0.3060    -2.6370    -0.9770 H     1 <1>   0.0800 
 28 H       -3.1860    -0.2830     1.3980 H     1 <1>   0.1500 
 29 H       -0.7140    -4.5530    -0.1740 H     1 <1>   0.0800 
 30 H       -1.9240    -4.4440    -1.4430 H     1 <1>   0.0800 
 31 H       -4.7650    -1.5750     2.8050 H     1 <1>   0.1500 
 32 H       -4.8350    -4.0230     2.6320 H     1 <1>   0.1500 
 33 H       -6.3840    -5.2040     0.9760 H     1 <1>   0.0800 
 34 H       -5.5080    -4.8270    -0.5110 H     1 <1>   0.0800 
 35 H       -3.9470    -8.0560    -0.1010 H     1 <1>   0.0800 
 36 H       -4.4480    -8.2020     1.5750 H     1 <1>   0.0800 
 37 H       -6.2370    -6.7480    -1.5790 H     1 <1>   0.0800 
 38 H       -6.6910    -8.1490     1.0570 H     1 <1>   0.0800 
 39 H       -8.1970    -6.6340     0.4640 H     1 <1>   0.4000 
 40 H       -5.6100    -9.1500    -1.5980 H     1 <1>   0.0800 
 41 H       -7.2380    -9.3710    -1.0400 H     1 <1>   0.0800 
 42 H       -3.7790   -10.5740    -0.6800 H     1 <1>   0.1500 
 43 H       -7.6830   -10.8500     0.9870 H     1 <1>   0.1500 
 44 H       -3.1950   -12.5700     0.5740 H     1 <1>   0.1500 
 45 H       -6.9410   -12.8390     2.1730 H     1 <1>   0.1500 
@<TRIPOS>BOND
  1   1   2  2   
  2   2   3  1   
  3   2   4  1   
  4   3   5  ar  
  5   3   6  ar  
  6   4   7  1   
  7   4  26  1   
  8   4  27  1   
  9   5   7  1   
 10   5   8  ar  
 11   6   9  ar  
 12   6  28  1   
 13   7  29  1   
 14   7  30  1   
 15   8  10  1   
 16   8  11  ar  
 17   9  11  ar  
 18   9  31  1   
 19  10  12  2   
 20  10  13  am  
 21  11  32  1   
 22  13  14  1   
 23  13  15  1   
 24  14  16  1   
 25  14  33  1   
 26  14  34  1   
 27  15  17  1   
 28  15  35  1   
 29  15  36  1   
 30  16  17  1   
 31  16  18  1   
 32  16  37  1   
 33  17  19  1   
 34  17  38  1   
 35  18  39  1   
 36  19  20  1   
 37  19  40  1   
 38  19  41  1   
 39  20  21  ar  
 40  20  22  ar  
 41  21  23  ar  
 42  21  42  1   
 43  22  24  ar  
 44  22  43  1   
 45  23  25  ar  
 46  23  44  1   
 47  24  25  ar  
 48  24  45  1   
@<TRIPOS>SUBSTRUCTURE
  1 ****  13 GROUP 4 **** **** 0

# MOE 2024.06 (io_trps.svl 2023.06)
