@<TRIPOS>MOLECULE
NONAME
49 51 1 0 0 
SMALL
USER_CHARGES


@<TRIPOS>ATOM
  1 O       -1.2530     0.7160     2.7150 O.2   1 <1>  -0.5700 
  2 C       -1.5470     0.8960     1.5570 C.2   1 <1>   0.5690 
  3 N       -1.9030    -0.1410     0.7310 N.am  1 <1>  -0.6600 
  4 C       -1.5250     2.3380     1.0880 C.3   1 <1>  -0.0990 
  5 C       -1.9030    -1.5350     1.2560 C.3   1 <1>   0.3200 
  6 C       -2.1510    -0.0160    -0.7360 C.3   1 <1>   0.1400 
  7 C       -0.0920     2.8700     0.9460 C.3   1 <1>   0.2440 
  8 C       -3.3260    -2.0540     1.3330 C.2   1 <1>  -0.3320 
  9 C       -3.6230     0.2920    -1.0360 C.3   1 <1>   0.1200 
 10 C       -0.1080     4.4010     0.8770 C.ar  1 <1>  -0.1440 
 11 C        0.6370     2.2760    -0.2600 C.2   1 <1>  -0.0400 
 12 N       -3.9430    -2.8470     0.4310 N.pl3 1 <1>   0.0480 
 13 C       -4.2250    -1.8170     2.3130 C.2   1 <1>   0.0770 
 14 O       -3.8380     0.1720    -2.4030 O.3   1 <1>  -0.6800 
 15 C        0.6550     5.1370     1.7740 C.ar  1 <1>  -0.1500 
 16 C       -0.8730     5.0790    -0.0650 C.ar  1 <1>  -0.1500 
 17 O        0.8980     0.9810    -0.2750 O.3   1 <1>  -0.2800 
 18 C        1.1170     2.8560    -1.3830 C.2   1 <1>  -0.1500 
 19 C       -5.1850    -3.0310     0.9350 C.2   1 <1>   0.0360 
 20 C       -3.4310    -3.3900    -0.8410 C.3   1 <1>   0.0160 
 21 N       -5.3940    -2.4330     2.0610 N.2   1 <1>  -0.5650 
 22 C        0.6520     6.5200     1.7330 C.ar  1 <1>  -0.1500 
 23 C       -0.8770     6.4620    -0.1070 C.ar  1 <1>  -0.1500 
 24 C        1.5390     0.7090    -1.3940 C.2   1 <1>  -0.0100 
 25 C        1.7050     1.8280    -2.1290 C.2   1 <1>  -0.1500 
 26 C       -0.1150     7.1840     0.7930 C.ar  1 <1>  -0.1500 
 27 H       -2.0300     2.9190     1.8380 H     1 <1>   0.0800 
 28 H       -2.0640     2.4670     0.1730 H     1 <1>   0.0800 
 29 H       -1.4730    -1.5680     2.2420 H     1 <1>   0.0800 
 30 H       -1.2960    -2.1620     0.6280 H     1 <1>   0.0800 
 31 H       -1.8770    -0.9380    -1.2170 H     1 <1>   0.0800 
 32 H       -1.5310     0.7590    -1.1480 H     1 <1>   0.0800 
 33 H        0.4580     2.5790     1.8250 H     1 <1>   0.0800 
 34 H       -3.8880     1.2890    -0.7330 H     1 <1>   0.0800 
 35 H       -4.2740    -0.4080    -0.5430 H     1 <1>   0.0800 
 36 H       -4.0840    -1.2210     3.2000 H     1 <1>   0.1500 
 37 H       -3.4450     0.9240    -2.8870 H     1 <1>   0.4000 
 38 H        1.2590     4.6390     2.5120 H     1 <1>   0.1500 
 39 H       -1.4680     4.5360    -0.7770 H     1 <1>   0.1500 
 40 H        1.0850     3.8920    -1.6750 H     1 <1>   0.1500 
 41 H       -5.9230    -3.6250     0.4260 H     1 <1>   0.1500 
 42 H       -2.4040    -3.6800    -0.7240 H     1 <1>   0.0800 
 43 H       -3.5160    -2.6410    -1.6060 H     1 <1>   0.0800 
 44 H       -4.0110    -4.2510    -1.1210 H     1 <1>   0.0800 
 45 H        1.2470     7.0800     2.4340 H     1 <1>   0.1500 
 46 H       -1.4730     6.9780    -0.8400 H     1 <1>   0.1500 
 47 H        1.8430    -0.3050    -1.5850 H     1 <1>   0.1500 
 48 H        2.1870     1.9440    -3.0840 H     1 <1>   0.1500 
 49 H       -0.1170     8.2600     0.7620 H     1 <1>   0.1500 
@<TRIPOS>BOND
  1   1   2  2   
  2   2   3  am  
  3   2   4  1   
  4   3   5  1   
  5   3   6  1   
  6   4   7  1   
  7   4  27  1   
  8   4  28  1   
  9   5   8  1   
 10   5  29  1   
 11   5  30  1   
 12   6   9  1   
 13   6  31  1   
 14   6  32  1   
 15   7  10  1   
 16   7  11  1   
 17   7  33  1   
 18   8  12  1   
 19   8  13  2   
 20   9  14  1   
 21   9  34  1   
 22   9  35  1   
 23  10  15  ar  
 24  10  16  ar  
 25  11  17  1   
 26  11  18  2   
 27  12  19  1   
 28  12  20  1   
 29  13  21  1   
 30  13  36  1   
 31  14  37  1   
 32  15  22  ar  
 33  15  38  1   
 34  16  23  ar  
 35  16  39  1   
 36  17  24  1   
 37  18  25  1   
 38  18  40  1   
 39  19  21  2   
 40  19  41  1   
 41  20  42  1   
 42  20  43  1   
 43  20  44  1   
 44  22  26  ar  
 45  22  45  1   
 46  23  26  ar  
 47  23  46  1   
 48  24  25  2   
 49  24  47  1   
 50  25  48  1   
 51  26  49  1   
@<TRIPOS>SUBSTRUCTURE
  1 ****   2 GROUP 4 **** **** 0

# MOE 2024.06 (io_trps.svl 2023.06)
