@<TRIPOS>MOLECULE
NONAME
47 49 1 0 0 
SMALL
USER_CHARGES


@<TRIPOS>ATOM
  1 O        2.2040    -1.1200     1.8560 O.2   1 <1>  -0.5700 
  2 C        1.5560    -1.2560     0.8460 C.2   1 <1>   0.5690 
  3 N        1.3450    -0.2680    -0.0660 N.am  1 <1>  -0.5470 
  4 C        0.9080    -2.6120     0.5600 C.3   1 <1>   0.1710 
  5 C        1.7000     1.0590    -0.1350 C.ar  1 <1>   0.4270 
  6 N       -0.3270    -2.5340    -0.2750 N.3   1 <1>  -0.8100 
  7 N        1.0800     1.7090    -1.1080 N.ar  1 <1>  -0.6200 
  8 C        2.6180     1.6610     0.7230 C.ar  1 <1>  -0.1500 
  9 C       -0.8290    -3.8690    -0.6860 C.3   1 <1>   0.1100 
 10 C       -1.4360    -1.8370     0.3980 C.3   1 <1>   0.1100 
 11 C        1.3780     2.9930    -1.2280 C.ar  1 <1>   0.1600 
 12 C        2.9160     2.9970     0.5860 C.ar  1 <1>  -0.1500 
 13 C       -2.2110    -4.0850    -0.0470 C.3   1 <1>   0.4240 
 14 C       -2.6890    -2.6400     0.0660 C.3   1 <1>  -0.1600 
 15 C        2.2720     3.6830    -0.4240 C.ar  1 <1>  -0.1430 
 16 O       -2.0240    -4.5280     1.2510 O.3   1 <1>  -0.6800 
 17 C       -3.1400    -5.0750    -0.7920 C.ar  1 <1>  -0.1440 
 18 C        2.5530     5.1610    -0.6330 C.3   1 <1>  -0.0970 
 19 C       -2.7480    -6.3770    -1.1340 C.ar  1 <1>  -0.1430 
 20 C       -4.4300    -4.6740    -1.1420 C.ar  1 <1>  -0.1500 
 21 C       -3.6180    -7.2030    -1.8310 C.ar  1 <1>  -0.1500 
 22 C       -1.3950    -6.9790    -0.7720 C.3   1 <1>  -0.0970 
 23 C       -5.2900    -5.5070    -1.8310 C.ar  1 <1>  -0.1500 
 24 C       -4.8820    -6.7750    -2.1830 C.ar  1 <1>  -0.1500 
 25 H        0.7080    -0.5400    -0.8170 H     1 <1>   0.3700 
 26 H        0.6910    -3.0940     1.4960 H     1 <1>   0.0800 
 27 H        1.6400    -3.2090     0.0450 H     1 <1>   0.0800 
 28 H        3.0970     1.0870     1.4920 H     1 <1>   0.1500 
 29 H       -0.1430    -4.6520    -0.4200 H     1 <1>   0.0800 
 30 H       -0.9470    -3.8670    -1.7560 H     1 <1>   0.0800 
 31 H       -1.5170    -0.8220     0.0460 H     1 <1>   0.0800 
 32 H       -1.2860    -1.8250     1.4650 H     1 <1>   0.0800 
 33 H        0.8770     3.5270    -2.0170 H     1 <1>   0.1500 
 34 H        3.6200     3.4810     1.2390 H     1 <1>   0.1500 
 35 H       -3.0450    -2.2990    -0.8900 H     1 <1>   0.0800 
 36 H       -3.4670    -2.5150     0.7970 H     1 <1>   0.0800 
 37 H       -1.4240    -3.9040     1.6920 H     1 <1>   0.4000 
 38 H        1.9750     5.5520    -1.4510 H     1 <1>   0.0800 
 39 H        3.5970     5.3080    -0.8500 H     1 <1>   0.0800 
 40 H        2.3030     5.7100     0.2570 H     1 <1>   0.0800 
 41 H       -4.8040    -3.7020    -0.8830 H     1 <1>   0.1500 
 42 H       -3.3180    -8.2000    -2.1040 H     1 <1>   0.1500 
 43 H       -1.1120    -6.7150     0.2300 H     1 <1>   0.0800 
 44 H       -0.6440    -6.6430    -1.4630 H     1 <1>   0.0800 
 45 H       -1.4330    -8.0520    -0.8160 H     1 <1>   0.0800 
 46 H       -6.2770    -5.1690    -2.0920 H     1 <1>   0.1500 
 47 H       -5.5440    -7.4290    -2.7220 H     1 <1>   0.1500 
@<TRIPOS>BOND
  1   1   2  2   
  2   2   3  am  
  3   2   4  1   
  4   3   5  1   
  5   3  25  1   
  6   4   6  1   
  7   4  26  1   
  8   4  27  1   
  9   5   7  ar  
 10   5   8  ar  
 11   6   9  1   
 12   6  10  1   
 13   7  11  ar  
 14   8  12  ar  
 15   8  28  1   
 16   9  13  1   
 17   9  29  1   
 18   9  30  1   
 19  10  14  1   
 20  10  31  1   
 21  10  32  1   
 22  11  15  ar  
 23  11  33  1   
 24  12  15  ar  
 25  12  34  1   
 26  13  14  1   
 27  13  16  1   
 28  13  17  1   
 29  14  35  1   
 30  14  36  1   
 31  15  18  1   
 32  16  37  1   
 33  17  19  ar  
 34  17  20  ar  
 35  18  38  1   
 36  18  39  1   
 37  18  40  1   
 38  19  21  ar  
 39  19  22  1   
 40  20  23  ar  
 41  20  41  1   
 42  21  24  ar  
 43  21  42  1   
 44  22  43  1   
 45  22  44  1   
 46  22  45  1   
 47  23  24  ar  
 48  23  46  1   
 49  24  47  1   
@<TRIPOS>SUBSTRUCTURE
  1 ****   6 GROUP 4 **** **** 0

# MOE 2024.06 (io_trps.svl 2023.06)
