@<TRIPOS>MOLECULE
NONAME
43 44 1 0 0 
SMALL
USER_CHARGES


@<TRIPOS>ATOM
  1 O       -0.2490    -0.1430     0.5600 O.2   1 <1>  -0.5700 
  2 C       -1.3280     0.4010     0.5910 C.2   1 <1>   0.5690 
  3 N       -2.4870    -0.3140     0.7620 N.am  1 <1>  -0.6600 
  4 C       -1.3680     1.9150     0.4500 C.3   1 <1>  -0.0990 
  5 C       -2.4220    -1.7970     0.9320 C.3   1 <1>   0.3200 
  6 C       -3.8320     0.3190     0.9400 C.3   1 <1>   0.1400 
  7 C       -0.0130     2.5020     0.0520 C.3   1 <1>   0.1200 
  8 C       -3.4240    -2.4860     0.0270 C.2   1 <1>  -0.3320 
  9 C       -4.5490     0.5210    -0.4010 C.3   1 <1>   0.1200 
 10 O       -0.1620     3.8970    -0.0890 O.3   1 <1>  -0.3630 
 11 N       -4.6700    -2.8450     0.3920 N.pl3 1 <1>   0.0330 
 12 C       -3.2860    -2.8620    -1.2630 C.2   1 <1>   0.0770 
 13 O       -5.7990     1.0660    -0.1490 O.3   1 <1>  -0.6800 
 14 C        0.8870     4.6800    -0.4460 C.ar  1 <1>   0.0820 
 15 C       -5.2140    -3.4070    -0.7080 C.2   1 <1>   0.0060 
 16 N       -4.4150    -3.4350    -1.7220 N.2   1 <1>  -0.5650 
 17 C        2.1700     4.1940    -0.6870 C.ar  1 <1>  -0.1500 
 18 C        0.6380     6.0380    -0.5710 C.ar  1 <1>  -0.1500 
 19 C       -6.6270    -3.9470    -0.7380 C.3   1 <1>  -0.0600 
 20 C        3.1830     5.0660    -1.0490 C.ar  1 <1>  -0.1500 
 21 C        1.6520     6.9070    -0.9330 C.ar  1 <1>  -0.1500 
 22 C        2.9260     6.4210    -1.1730 C.ar  1 <1>  -0.1500 
 23 H       -1.6640     2.3390     1.3900 H     1 <1>   0.0800 
 24 H       -2.0830     2.1800    -0.3030 H     1 <1>   0.0800 
 25 H       -2.6110    -2.0480     1.9610 H     1 <1>   0.0800 
 26 H       -1.4390    -2.1620     0.6840 H     1 <1>   0.0800 
 27 H       -3.7280     1.2710     1.4290 H     1 <1>   0.0800 
 28 H       -4.4380    -0.3050     1.5740 H     1 <1>   0.0800 
 29 H        0.3130     2.0950    -0.8900 H     1 <1>   0.0800 
 30 H        0.7220     2.3100     0.8140 H     1 <1>   0.0800 
 31 H       -4.6920    -0.4110    -0.9180 H     1 <1>   0.0800 
 32 H       -4.0060     1.2030    -1.0310 H     1 <1>   0.0800 
 33 H       -5.1250    -2.7180     1.3000 H     1 <1>   0.2700 
 34 H       -2.4230    -2.7430    -1.8970 H     1 <1>   0.1500 
 35 H       -6.2940     1.1830    -0.9850 H     1 <1>   0.4000 
 36 H        2.3990     3.1500    -0.5990 H     1 <1>   0.1500 
 37 H       -0.3530     6.4080    -0.3840 H     1 <1>   0.1500 
 38 H       -7.3280    -3.1640    -0.5170 H     1 <1>   0.0800 
 39 H       -6.7350    -4.7400    -0.0210 H     1 <1>   0.0800 
 40 H       -6.8450    -4.3380    -1.7170 H     1 <1>   0.0800 
 41 H        4.1740     4.6890    -1.2350 H     1 <1>   0.1500 
 42 H        1.4510     7.9600    -1.0280 H     1 <1>   0.1500 
 43 H        3.7160     7.0950    -1.4540 H     1 <1>   0.1500 
@<TRIPOS>BOND
  1   1   2  2   
  2   2   3  am  
  3   2   4  1   
  4   3   5  1   
  5   3   6  1   
  6   4   7  1   
  7   4  23  1   
  8   4  24  1   
  9   5   8  1   
 10   5  25  1   
 11   5  26  1   
 12   6   9  1   
 13   6  27  1   
 14   6  28  1   
 15   7  10  1   
 16   7  29  1   
 17   7  30  1   
 18   8  11  1   
 19   8  12  2   
 20   9  13  1   
 21   9  31  1   
 22   9  32  1   
 23  10  14  1   
 24  11  15  1   
 25  11  33  1   
 26  12  16  1   
 27  12  34  1   
 28  13  35  1   
 29  14  17  ar  
 30  14  18  ar  
 31  15  16  2   
 32  15  19  1   
 33  17  20  ar  
 34  17  36  1   
 35  18  21  ar  
 36  18  37  1   
 37  19  38  1   
 38  19  39  1   
 39  19  40  1   
 40  20  22  ar  
 41  20  41  1   
 42  21  22  ar  
 43  21  42  1   
 44  22  43  1   
@<TRIPOS>SUBSTRUCTURE
  1 ****   2 GROUP 4 **** **** 0

# MOE 2024.06 (io_trps.svl 2023.06)
