@<TRIPOS>MOLECULE
NONAME
49 50 1 0 0 
SMALL
USER_CHARGES


@<TRIPOS>ATOM
  1 O       -0.2490     0.5500    -1.6150 O.2   1 <1>  -0.5700 
  2 C       -0.2180     1.5930    -1.0040 C.2   1 <1>   0.5690 
  3 N       -1.3570     2.2560    -0.6290 N.am  1 <1>  -0.6600 
  4 C        1.1570     2.1870    -0.6790 C.3   1 <1>   0.1810 
  5 C       -1.2860     3.5340     0.1550 C.3   1 <1>   0.3640 
  6 C       -2.7170     1.6780    -0.8340 C.3   1 <1>   0.0600 
  7 O        1.1280     3.1610     0.3380 O.3   1 <1>  -0.5600 
  8 C       -2.3000     4.5450    -0.4070 C.ar  1 <1>  -0.1430 
  9 C        0.1340     4.1510     0.1530 C.3   1 <1>   0.2610 
 10 C       -3.3360     5.0790     0.3610 C.ar  1 <1>  -0.1430 
 11 C       -2.1760     4.9420    -1.7350 C.ar  1 <1>  -0.1500 
 12 C        0.2420     5.2630     1.2060 C.2   1 <1>   0.5690 
 13 C       -4.1980     6.0070    -0.2030 C.ar  1 <1>  -0.1500 
 14 C       -3.5730     4.6780     1.8120 C.3   1 <1>  -0.0960 
 15 C       -3.0410     5.8660    -2.2890 C.ar  1 <1>  -0.1500 
 16 O       -0.2220     5.0610     2.3070 O.2   1 <1>  -0.5700 
 17 N        0.8500     6.4540     0.8680 N.am  1 <1>  -0.6600 
 18 C       -4.0530     6.4040    -1.5190 C.ar  1 <1>  -0.1500 
 19 C        0.4390     7.7750     1.4540 C.3   1 <1>   0.3000 
 20 C        2.1110     6.4160     0.0630 C.3   1 <1>   0.0600 
 21 C       -1.0900     7.8540     1.5860 C.3   1 <1>  -0.2400 
 22 C        0.8620     8.9360     0.5380 C.3   1 <1>  -0.2400 
 23 C        1.1030     7.9430     2.8220 C.3   1 <1>  -0.2400 
 24 H        1.5680     2.6340    -1.5640 H     1 <1>   0.0800 
 25 H        1.8120     1.4000    -0.3540 H     1 <1>   0.0800 
 26 H       -1.5310     3.2920     1.1720 H     1 <1>   0.0800 
 27 H       -3.2530     1.6630     0.0980 H     1 <1>   0.0800 
 28 H       -2.6510     0.6700    -1.2080 H     1 <1>   0.0800 
 29 H       -3.2640     2.2720    -1.5460 H     1 <1>   0.0800 
 30 H        0.3100     4.5970    -0.8070 H     1 <1>   0.0800 
 31 H       -1.4020     4.5240    -2.3550 H     1 <1>   0.1500 
 32 H       -4.9960     6.4320     0.3810 H     1 <1>   0.1500 
 33 H       -4.4790     5.1150     2.1900 H     1 <1>   0.0800 
 34 H       -2.7620     5.0130     2.4310 H     1 <1>   0.0800 
 35 H       -3.6630     3.6110     1.8960 H     1 <1>   0.0800 
 36 H       -2.9290     6.1640    -3.3170 H     1 <1>   0.1500 
 37 H       -4.7290     7.1250    -1.9430 H     1 <1>   0.1500 
 38 H        2.8840     6.9710     0.5660 H     1 <1>   0.0800 
 39 H        1.9410     6.8400    -0.9100 H     1 <1>   0.0800 
 40 H        2.4630     5.4050    -0.0520 H     1 <1>   0.0800 
 41 H       -1.3910     8.8440     1.8730 H     1 <1>   0.0800 
 42 H       -1.4550     7.1860     2.3420 H     1 <1>   0.0800 
 43 H       -1.5600     7.6160     0.6480 H     1 <1>   0.0800 
 44 H        0.4820     9.8650     0.9210 H     1 <1>   0.0800 
 45 H        0.4620     8.7960    -0.4500 H     1 <1>   0.0800 
 46 H        1.9300     9.0320     0.4860 H     1 <1>   0.0800 
 47 H        0.8300     8.8880     3.2550 H     1 <1>   0.0800 
 48 H        2.1730     7.9070     2.7300 H     1 <1>   0.0800 
 49 H        0.7850     7.1640     3.4910 H     1 <1>   0.0800 
@<TRIPOS>BOND
  1   1   2  2   
  2   2   3  am  
  3   2   4  1   
  4   3   5  1   
  5   3   6  1   
  6   4   7  1   
  7   4  24  1   
  8   4  25  1   
  9   5   8  1   
 10   5   9  1   
 11   5  26  1   
 12   6  27  1   
 13   6  28  1   
 14   6  29  1   
 15   7   9  1   
 16   8  10  ar  
 17   8  11  ar  
 18   9  12  1   
 19   9  30  1   
 20  10  13  ar  
 21  10  14  1   
 22  11  15  ar  
 23  11  31  1   
 24  12  16  2   
 25  12  17  am  
 26  13  18  ar  
 27  13  32  1   
 28  14  33  1   
 29  14  34  1   
 30  14  35  1   
 31  15  18  ar  
 32  15  36  1   
 33  17  19  1   
 34  17  20  1   
 35  18  37  1   
 36  19  21  1   
 37  19  22  1   
 38  19  23  1   
 39  20  38  1   
 40  20  39  1   
 41  20  40  1   
 42  21  41  1   
 43  21  42  1   
 44  21  43  1   
 45  22  44  1   
 46  22  45  1   
 47  22  46  1   
 48  23  47  1   
 49  23  48  1   
 50  23  49  1   
@<TRIPOS>SUBSTRUCTURE
  1 ****   9 GROUP 4 **** **** 0

# MOE 2024.06 (io_trps.svl 2023.06)
