@<TRIPOS>MOLECULE
NONAME
46 47 1 0 0 
SMALL
USER_CHARGES


@<TRIPOS>ATOM
  1 O        0.2300    -0.4400     0.2040 O.3   1 <1>  -0.3630 
  2 C        1.3250     0.3600     0.1230 C.ar  1 <1>   0.0830 
  3 C        0.2900    -1.7910    -0.1710 C.3   1 <1>   0.1200 
  4 C        1.1600     1.6810     0.5070 C.ar  1 <1>  -0.1500 
  5 C        2.5730    -0.0740    -0.3170 C.ar  1 <1>  -0.1500 
  6 C       -1.1060    -2.3770     0.0350 C.3   1 <1>  -0.1600 
  7 C        2.2200     2.5690     0.4570 C.ar  1 <1>  -0.1500 
  8 C        3.6330     0.8150    -0.3670 C.ar  1 <1>  -0.1500 
  9 C       -1.1390    -3.8500    -0.3640 C.3   1 <1>   0.3430 
 10 C        3.4680     2.1360     0.0170 C.ar  1 <1>   0.0830 
 11 N       -2.4830    -4.4260    -0.0840 N.4   1 <1>  -0.9590 
 12 O        4.5620     2.9360    -0.0650 O.3   1 <1>  -0.3620 
 13 C       -2.5250    -5.9080    -0.2340 C.3   1 <1>   0.3430 
 14 C       -3.5660    -3.8980    -0.9530 C.3   1 <1>   0.3430 
 15 C        4.4970     4.2950     0.3030 C.3   1 <1>   0.0400 
 16 C       -3.9770    -6.2550    -0.5640 C.3   1 <1>  -0.0800 
 17 C       -4.6820    -4.9090    -0.7820 C.3   1 <1>  -0.1600 
 18 C       -4.6310    -7.1060     0.5310 C.3   1 <1>   0.1200 
 19 O       -5.9670    -7.2620     0.1970 O.3   1 <1>  -0.5600 
 20 C       -6.6900    -8.0630     1.0760 C.3   1 <1>   0.0400 
 21 H        1.0180    -2.2820     0.4530 H     1 <1>   0.0800 
 22 H        0.5860    -1.8390    -1.2060 H     1 <1>   0.0800 
 23 H        0.1950     2.0110     0.8470 H     1 <1>   0.1500 
 24 H        2.7450    -1.0870    -0.6230 H     1 <1>   0.1500 
 25 H       -1.7970    -1.8140    -0.5660 H     1 <1>   0.0800 
 26 H       -1.3660    -2.2760     1.0740 H     1 <1>   0.0800 
 27 H        2.0560     3.5850     0.7620 H     1 <1>   0.1500 
 28 H        4.6000     0.4900    -0.7060 H     1 <1>   0.1500 
 29 H       -0.3930    -4.3840     0.2030 H     1 <1>   0.0800 
 30 H       -0.9050    -3.9520    -1.4120 H     1 <1>   0.0800 
 31 H       -2.7440    -4.2040     0.8870 H     1 <1>   0.4500 
 32 H       -2.1950    -6.4000     0.6660 H     1 <1>   0.0800 
 33 H       -1.8960    -6.2130    -1.0550 H     1 <1>   0.0800 
 34 H       -3.2410    -3.8860    -1.9810 H     1 <1>   0.0800 
 35 H       -3.8750    -2.9070    -0.6580 H     1 <1>   0.0800 
 36 H        5.4710     4.7270     0.1570 H     1 <1>   0.0800 
 37 H        4.2180     4.3640     1.3390 H     1 <1>   0.0800 
 38 H        3.7800     4.7930    -0.3250 H     1 <1>   0.0800 
 39 H       -3.9830    -6.8240    -1.4780 H     1 <1>   0.0800 
 40 H       -5.3310    -4.9330    -1.6410 H     1 <1>   0.0800 
 41 H       -5.2730    -4.6390     0.0770 H     1 <1>   0.0800 
 42 H       -4.5770    -6.6200     1.4900 H     1 <1>   0.0800 
 43 H       -4.1740    -8.0800     0.5850 H     1 <1>   0.0800 
 44 H       -7.7070    -8.1120     0.7260 H     1 <1>   0.0800 
 45 H       -6.6680    -7.6270     2.0600 H     1 <1>   0.0800 
 46 H       -6.2670    -9.0530     1.0880 H     1 <1>   0.0800 
@<TRIPOS>BOND
  1   1   2  1   
  2   1   3  1   
  3   2   4  ar  
  4   2   5  ar  
  5   3   6  1   
  6   3  21  1   
  7   3  22  1   
  8   4   7  ar  
  9   4  23  1   
 10   5   8  ar  
 11   5  24  1   
 12   6   9  1   
 13   6  25  1   
 14   6  26  1   
 15   7  10  ar  
 16   7  27  1   
 17   8  10  ar  
 18   8  28  1   
 19   9  11  1   
 20   9  29  1   
 21   9  30  1   
 22  10  12  1   
 23  11  13  1   
 24  11  14  1   
 25  11  31  1   
 26  12  15  1   
 27  13  16  1   
 28  13  32  1   
 29  13  33  1   
 30  14  17  1   
 31  14  34  1   
 32  14  35  1   
 33  15  36  1   
 34  15  37  1   
 35  15  38  1   
 36  16  17  1   
 37  16  18  1   
 38  16  39  1   
 39  17  40  1   
 40  17  41  1   
 41  18  19  1   
 42  18  42  1   
 43  18  43  1   
 44  19  20  1   
 45  20  44  1   
 46  20  45  1   
 47  20  46  1   
@<TRIPOS>SUBSTRUCTURE
  1 ****   6 GROUP 4 **** **** 0

# MOE 2024.06 (io_trps.svl 2023.06)
