@<TRIPOS>MOLECULE
F9995-4356
44 48 1 0 0 
SMALL
USER_CHARGES


@<TRIPOS>ATOM
  1 O        0.3600     0.2370     1.0210 O.2   1 <1>  -0.5700 
  2 C        0.3220     1.3610     0.5900 C.2   1 <1>   0.5690 
  3 N        1.4380     2.0610     0.2060 N.am  1 <1>  -0.6600 
  4 C       -0.9990     2.1000     0.4030 C.3   1 <1>  -0.0190 
  5 C        1.1780     3.4730    -0.2440 C.3   1 <1>   0.3000 
  6 C        2.5920     1.2780    -0.3260 C.3   1 <1>   0.1400 
  7 C       -0.9050     3.3640     1.2790 C.3   1 <1>  -0.0190 
  8 C       -1.0600     2.5130    -1.0860 C.3   1 <1>  -0.1600 
  9 C        2.4850     4.2310    -0.6710 C.3   1 <1>  -0.0800 
 10 C        0.4030     4.1290     0.9440 C.3   1 <1>  -0.0190 
 11 C        0.2010     3.3390    -1.4490 C.3   1 <1>  -0.1600 
 12 C        3.8240     2.1650    -0.5020 C.3   1 <1>  -0.0800 
 13 C       -1.9860     4.4010     1.0400 C.2   1 <1>   0.5690 
 14 C        3.2640     4.9050     0.4880 C.3   1 <1>   0.3430 
 15 C        3.4450     3.3150    -1.4510 C.3   1 <1>  -0.1600 
 16 C       -0.0820     5.5290     0.6490 C.2   1 <1>   0.5690 
 17 C        4.2680     2.6400     0.8980 C.3   1 <1>   0.3430 
 18 O       -3.1610     4.1710     1.1470 O.2   1 <1>  -0.5700 
 19 N       -1.4370     5.6000     0.6980 N.am  1 <1>  -0.4200 
 20 N        4.4630     4.1200     0.9360 N.4   1 <1>  -0.9060 
 21 O        0.6820     6.4330     0.4220 O.2   1 <1>  -0.5700 
 22 C       -2.2310     6.8280     0.4470 C.3   1 <1>   0.0600 
 23 H       -1.8360     1.4830     0.6800 H     1 <1>   0.0800 
 24 H        2.8110     0.4610     0.3430 H     1 <1>   0.0800 
 25 H        2.3100     0.8510    -1.2750 H     1 <1>   0.0800 
 26 H       -0.9220     3.0870     2.3180 H     1 <1>   0.0800 
 27 H       -1.0900     1.6210    -1.6900 H     1 <1>   0.0800 
 28 H       -1.9580     3.0690    -1.2970 H     1 <1>   0.0800 
 29 H        2.1820     5.0340    -1.3210 H     1 <1>   0.0800 
 30 H        1.0080     4.1510     1.8300 H     1 <1>   0.0800 
 31 H       -0.1010     4.3130    -1.7940 H     1 <1>   0.0800 
 32 H        0.6970     2.8620    -2.2750 H     1 <1>   0.0800 
 33 H        4.6070     1.5720    -0.9430 H     1 <1>   0.0800 
 34 H        2.6160     5.0890     1.3250 H     1 <1>   0.0800 
 35 H        3.5980     5.8730     0.1480 H     1 <1>   0.0800 
 36 H        2.9790     2.9310    -2.3440 H     1 <1>   0.0800 
 37 H        4.3210     3.8600    -1.7630 H     1 <1>   0.0800 
 38 H        5.1800     2.1370     1.1770 H     1 <1>   0.0800 
 39 H        3.5100     2.3680     1.6160 H     1 <1>   0.0800 
 40 H        5.2440     4.3490     0.3100 H     1 <1>   0.4500 
 41 H        4.7450     4.4180     1.8790 H     1 <1>   0.4500 
 42 H       -3.1290     6.5770    -0.0900 H     1 <1>   0.0800 
 43 H       -1.6570     7.5290    -0.1340 H     1 <1>   0.0800 
 44 H       -2.4990     7.2810     1.3850 H     1 <1>   0.0800 
@<TRIPOS>BOND
  1   1   2  2   
  2   2   3  am  
  3   2   4  1   
  4   3   5  1   
  5   3   6  1   
  6   4   7  1   
  7   4   8  1   
  8   4  23  1   
  9   5   9  1   
 10   5  10  1   
 11   5  11  1   
 12   6  12  1   
 13   6  24  1   
 14   6  25  1   
 15   7  10  1   
 16   7  13  1   
 17   7  26  1   
 18   8  11  1   
 19   8  27  1   
 20   8  28  1   
 21   9  14  1   
 22   9  15  1   
 23   9  29  1   
 24  10  16  1   
 25  10  30  1   
 26  11  31  1   
 27  11  32  1   
 28  12  15  1   
 29  12  17  1   
 30  12  33  1   
 31  13  18  2   
 32  13  19  am  
 33  14  20  1   
 34  14  34  1   
 35  14  35  1   
 36  15  36  1   
 37  15  37  1   
 38  16  19  am  
 39  16  21  2   
 40  17  20  1   
 41  17  38  1   
 42  17  39  1   
 43  19  22  1   
 44  20  40  1   
 45  20  41  1   
 46  22  42  1   
 47  22  43  1   
 48  22  44  1   
@<TRIPOS>SUBSTRUCTURE
  1 ****   5 GROUP 4 **** **** 0

# MOE 2024.06 (io_trps.svl 2023.06)
