@<TRIPOS>MOLECULE
NONAME
43 46 1 0 0 
SMALL
USER_CHARGES


@<TRIPOS>ATOM
  1 S       -0.2570     0.5940     2.1790 S.3   1 <1>  -0.0800 
  2 C       -0.1410     1.9110     1.0310 C.2   1 <1>  -0.1400 
  3 C        1.4200     0.8310     2.6480 C.2   1 <1>  -0.1100 
  4 C        1.0820     2.4570     1.0170 C.2   1 <1>  -0.1810 
  5 C       -1.3010     2.3530     0.1810 C.3   1 <1>   0.0200 
  6 C        1.9790     1.8400     1.9520 C.2   1 <1>  -0.1500 
  7 C        1.4170     3.6150     0.0760 C.3   1 <1>   0.4610 
  8 C       -0.9740     3.7630    -0.3360 C.3   1 <1>   0.1200 
  9 O        0.3450     3.8350    -0.8250 O.3   1 <1>  -0.5600 
 10 C        1.6790     4.9080     0.8620 C.3   1 <1>  -0.1600 
 11 C        2.6310     3.2620    -0.7920 C.3   1 <1>  -0.1600 
 12 C        2.0950     6.0560    -0.0600 C.3   1 <1>   0.1400 
 13 C        3.0420     4.4290    -1.6900 C.3   1 <1>   0.1400 
 14 N        3.2860     5.6310    -0.8460 N.am  1 <1>  -0.6600 
 15 C        4.5570     6.1110    -0.6470 C.2   1 <1>   0.6900 
 16 O        5.5230     5.4530    -0.9840 O.2   1 <1>  -0.5700 
 17 N        4.7130     7.3430    -0.0830 N.am  1 <1>  -0.5470 
 18 C        5.8510     8.0460     0.3570 C.ar  1 <1>   0.1170 
 19 C        5.7800     9.4270     0.5620 C.ar  1 <1>   0.1900 
 20 C        7.0720     7.4310     0.6260 C.ar  1 <1>  -0.1500 
 21 F        4.6420    10.0390     0.3350 F     1 <1>  -0.1900 
 22 C        6.8460    10.1930     1.0000 C.ar  1 <1>  -0.1500 
 23 C        8.1370     8.1960     1.0630 C.ar  1 <1>   0.1900 
 24 C        8.0540     9.5650     1.2560 C.ar  1 <1>  -0.1500 
 25 F        9.2750     7.6030     1.3110 F     1 <1>  -0.1900 
 26 H        1.8160     0.1790     3.4070 H     1 <1>   0.1500 
 27 H       -2.2060     2.3770     0.7610 H     1 <1>   0.0800 
 28 H       -1.4330     1.6740    -0.6420 H     1 <1>   0.0800 
 29 H        2.9950     2.1780     2.0590 H     1 <1>   0.1500 
 30 H       -1.0850     4.4850     0.4530 H     1 <1>   0.0800 
 31 H       -1.6380     4.0260    -1.1400 H     1 <1>   0.0800 
 32 H        2.4710     4.7350     1.5680 H     1 <1>   0.0800 
 33 H        0.8080     5.1810     1.4260 H     1 <1>   0.0800 
 34 H        2.3980     2.4010    -1.3920 H     1 <1>   0.0800 
 35 H        3.4670     3.0070    -0.1680 H     1 <1>   0.0800 
 36 H        2.3070     6.9280     0.5330 H     1 <1>   0.0800 
 37 H        1.2930     6.2940    -0.7380 H     1 <1>   0.0800 
 38 H        2.2580     4.6460    -2.3950 H     1 <1>   0.0800 
 39 H        3.9250     4.1680    -2.2480 H     1 <1>   0.0800 
 40 H        3.8650     7.9010    -0.1280 H     1 <1>   0.3700 
 41 H        7.2020     6.3720     0.5010 H     1 <1>   0.1500 
 42 H        6.7320    11.2540     1.1370 H     1 <1>   0.1500 
 43 H        8.9130    10.1160     1.5970 H     1 <1>   0.1500 
@<TRIPOS>BOND
  1   1   2  1   
  2   1   3  1   
  3   2   4  2   
  4   2   5  1   
  5   3   6  2   
  6   3  26  1   
  7   4   6  1   
  8   4   7  1   
  9   5   8  1   
 10   5  27  1   
 11   5  28  1   
 12   6  29  1   
 13   7   9  1   
 14   7  10  1   
 15   7  11  1   
 16   8   9  1   
 17   8  30  1   
 18   8  31  1   
 19  10  12  1   
 20  10  32  1   
 21  10  33  1   
 22  11  13  1   
 23  11  34  1   
 24  11  35  1   
 25  12  14  1   
 26  12  36  1   
 27  12  37  1   
 28  13  14  1   
 29  13  38  1   
 30  13  39  1   
 31  14  15  am  
 32  15  16  2   
 33  15  17  am  
 34  17  18  1   
 35  17  40  1   
 36  18  19  ar  
 37  18  20  ar  
 38  19  21  1   
 39  19  22  ar  
 40  20  23  ar  
 41  20  41  1   
 42  22  24  ar  
 43  22  42  1   
 44  23  24  ar  
 45  23  25  1   
 46  24  43  1   
@<TRIPOS>SUBSTRUCTURE
  1 ****  14 GROUP 4 **** **** 0

# MOE 2024.06 (io_trps.svl 2023.06)
