@<TRIPOS>MOLECULE
NONAME
49 51 1 0 0 
SMALL
USER_CHARGES


@<TRIPOS>ATOM
  1 S       -0.2670    -0.3530    -0.9330 S.3   1 <1>  -0.0800 
  2 C        0.6970     0.9610    -0.2970 C.2   1 <1>   0.1980 
  3 C       -1.7090     0.5120    -0.4750 C.2   1 <1>  -0.1400 
  4 N        0.0120     1.9150     0.1960 N.2   1 <1>  -0.5650 
  5 C        2.2060     0.8120    -0.4070 C.3   1 <1>   0.0200 
  6 C       -1.3470     1.6690     0.1020 C.2   1 <1>   0.0460 
  7 C       -3.0410    -0.1380    -0.7840 C.3   1 <1>   0.3890 
  8 C        2.9700     2.0170     0.1610 C.3   1 <1>  -0.1600 
  9 C       -2.2560     2.7390     0.6670 C.3   1 <1>  -0.0590 
 10 N       -3.2240    -1.2840     0.1240 N.pl3 1 <1>  -0.8690 
 11 C        4.4880     1.8390     0.0360 C.3   1 <1>  -0.2400 
 12 C       -4.1790    -2.2430    -0.0910 C.ar  1 <1>   0.4100 
 13 N       -5.1280    -1.9790    -0.9680 N.ar  1 <1>  -0.6200 
 14 C       -4.1480    -3.4350     0.5890 C.ar  1 <1>  -0.1500 
 15 C       -6.0250    -2.9320    -1.1270 C.ar  1 <1>   0.4700 
 16 C       -5.1320    -4.3610     0.3360 C.ar  1 <1>   0.4100 
 17 N       -6.0930    -4.1070    -0.5350 N.ar  1 <1>  -0.6200 
 18 N       -5.1500    -5.5850     0.9790 N.pl3 1 <1>  -0.8380 
 19 C       -6.4420    -6.2640     1.2790 C.3   1 <1>   0.2090 
 20 C       -3.9580    -6.4720     0.9270 C.3   1 <1>   0.2090 
 21 C       -6.6880    -7.3850     0.2690 C.3   1 <1>  -0.1600 
 22 C       -4.1950    -7.5880    -0.0900 C.3   1 <1>  -0.1600 
 23 C       -5.4910    -8.3330     0.2260 C.3   1 <1>   0.2000 
 24 O       -5.7090    -9.2670    -0.7620 O.3   1 <1>  -0.6800 
 25 H        2.4590     0.6850    -1.4440 H     1 <1>   0.0800 
 26 H        2.4980    -0.0780     0.1210 H     1 <1>   0.0800 
 27 H       -3.0580    -0.4720    -1.8080 H     1 <1>   0.0800 
 28 H       -3.8460     0.5600    -0.6380 H     1 <1>   0.0800 
 29 H        2.7090     2.1450     1.1980 H     1 <1>   0.0800 
 30 H        2.6690     2.9070    -0.3650 H     1 <1>   0.0800 
 31 H       -3.2880     2.4580     0.5760 H     1 <1>   0.0800 
 32 H       -2.0950     3.6630     0.1410 H     1 <1>   0.0800 
 33 H       -2.0270     2.8890     1.7060 H     1 <1>   0.0800 
 34 H       -2.3580    -1.5610     0.5880 H     1 <1>   0.4000 
 35 H        4.8110     0.9680     0.5780 H     1 <1>   0.0800 
 36 H        4.9920     2.6990     0.4410 H     1 <1>   0.0800 
 37 H        4.7710     1.7330    -0.9970 H     1 <1>   0.0800 
 38 H       -3.3850    -3.6360     1.3090 H     1 <1>   0.1500 
 39 H       -6.8070    -2.7230    -1.8360 H     1 <1>   0.1500 
 40 H       -7.2520    -5.5540     1.2450 H     1 <1>   0.0800 
 41 H       -6.4000    -6.6690     2.2760 H     1 <1>   0.0800 
 42 H       -3.7890    -6.8910     1.9050 H     1 <1>   0.0800 
 43 H       -3.0850    -5.9100     0.6450 H     1 <1>   0.0800 
 44 H       -6.8480    -6.9390    -0.6960 H     1 <1>   0.0800 
 45 H       -7.5720    -7.9270     0.5520 H     1 <1>   0.0800 
 46 H       -3.3680    -8.2730    -0.0620 H     1 <1>   0.0800 
 47 H       -4.2490    -7.1470    -1.0700 H     1 <1>   0.0800 
 48 H       -5.3990    -8.8600     1.1610 H     1 <1>   0.0800 
 49 H       -5.8310    -8.8130    -1.6170 H     1 <1>   0.4000 
@<TRIPOS>BOND
  1   1   2  1   
  2   1   3  1   
  3   2   4  2   
  4   2   5  1   
  5   3   6  2   
  6   3   7  1   
  7   4   6  1   
  8   5   8  1   
  9   5  25  1   
 10   5  26  1   
 11   6   9  1   
 12   7  10  1   
 13   7  27  1   
 14   7  28  1   
 15   8  11  1   
 16   8  29  1   
 17   8  30  1   
 18   9  31  1   
 19   9  32  1   
 20   9  33  1   
 21  10  12  1   
 22  10  34  1   
 23  11  35  1   
 24  11  36  1   
 25  11  37  1   
 26  12  13  ar  
 27  12  14  ar  
 28  13  15  ar  
 29  14  16  ar  
 30  14  38  1   
 31  15  17  ar  
 32  15  39  1   
 33  16  17  ar  
 34  16  18  1   
 35  18  19  1   
 36  18  20  1   
 37  19  21  1   
 38  19  40  1   
 39  19  41  1   
 40  20  22  1   
 41  20  42  1   
 42  20  43  1   
 43  21  23  1   
 44  21  44  1   
 45  21  45  1   
 46  22  23  1   
 47  22  46  1   
 48  22  47  1   
 49  23  24  1   
 50  23  48  1   
 51  24  49  1   
@<TRIPOS>SUBSTRUCTURE
  1 ****  10 GROUP 4 **** **** 0

# MOE 2024.06 (io_trps.svl 2023.06)
