@<TRIPOS>MOLECULE
NONAME
47 49 1 0 0 
SMALL
USER_CHARGES


@<TRIPOS>ATOM
  1 O       -1.5210    -0.2910    -2.7200 O.2   1 <1>  -0.5700 
  2 C       -1.9570    -0.7390    -1.6860 C.2   1 <1>   0.5690 
  3 N       -1.7740    -0.1120    -0.4880 N.am  1 <1>  -0.6600 
  4 C       -2.7240    -2.0400    -1.7540 C.3   1 <1>  -0.0190 
  5 C       -2.3840    -0.6260     0.7710 C.3   1 <1>   0.2200 
  6 C       -1.0000     1.1580    -0.3720 C.3   1 <1>   0.0600 
  7 C       -2.0010    -3.1380    -0.9510 C.3   1 <1>   0.1200 
  8 C       -4.2240    -1.8120    -1.4760 C.3   1 <1>   0.1400 
  9 C       -1.7980    -2.0080     1.1630 C.3   1 <1>   0.1200 
 10 C       -3.9280    -0.5410     0.7080 C.3   1 <1>   0.1400 
 11 O       -2.2630    -3.1040     0.4190 O.3   1 <1>  -0.5600 
 12 N       -4.5870    -1.6670    -0.0300 N.am  1 <1>  -0.6600 
 13 C       -5.3290    -2.5870     0.6740 C.2   1 <1>   0.5690 
 14 O       -5.7180    -2.3590     1.7970 O.2   1 <1>  -0.5700 
 15 C       -5.6820    -3.9310     0.0510 C.3   1 <1>  -0.0990 
 16 C       -6.1710    -4.9770     1.0620 C.3   1 <1>  -0.0170 
 17 C       -6.4340    -6.3020     0.3540 C.ar  1 <1>  -0.1440 
 18 C       -7.6820    -6.6450    -0.1630 C.ar  1 <1>  -0.1440 
 19 C       -5.3740    -7.1880     0.2200 C.ar  1 <1>  -0.1500 
 20 C       -7.8410    -7.8650    -0.8040 C.ar  1 <1>  -0.1500 
 21 C       -8.8870    -5.7220    -0.0450 C.3   1 <1>  -0.0970 
 22 C       -5.5420    -8.4010    -0.4200 C.ar  1 <1>  -0.1500 
 23 C       -6.7780    -8.7400    -0.9340 C.ar  1 <1>  -0.1500 
 24 H       -2.6620    -2.3470    -2.7820 H     1 <1>   0.0800 
 25 H       -2.0880     0.0490     1.5540 H     1 <1>   0.0800 
 26 H       -0.1890     1.0290     0.3230 H     1 <1>   0.0800 
 27 H       -1.6440     1.9480    -0.0280 H     1 <1>   0.0800 
 28 H       -0.5880     1.4450    -1.3250 H     1 <1>   0.0800 
 29 H       -0.9360    -3.0780    -1.0950 H     1 <1>   0.0800 
 30 H       -2.3310    -4.1010    -1.2980 H     1 <1>   0.0800 
 31 H       -4.7760    -2.6220    -1.9150 H     1 <1>   0.0800 
 32 H       -4.5360    -0.9190    -1.9910 H     1 <1>   0.0800 
 33 H       -2.0650    -2.2110     2.1850 H     1 <1>   0.0800 
 34 H       -0.7240    -1.9860     1.0980 H     1 <1>   0.0800 
 35 H       -4.2150     0.3920     0.2560 H     1 <1>   0.0800 
 36 H       -4.2890    -0.5160     1.7210 H     1 <1>   0.0800 
 37 H       -6.4380    -3.7750    -0.6940 H     1 <1>   0.0800 
 38 H       -4.8050    -4.3240    -0.4270 H     1 <1>   0.0800 
 39 H       -7.0560    -4.6250     1.5610 H     1 <1>   0.0800 
 40 H       -5.4190    -5.1160     1.8190 H     1 <1>   0.0800 
 41 H       -4.4070    -6.9320     0.6170 H     1 <1>   0.1500 
 42 H       -8.7980    -8.1430    -1.2070 H     1 <1>   0.1500 
 43 H       -9.7220    -6.1040    -0.6030 H     1 <1>   0.0800 
 44 H       -8.6500    -4.7450    -0.4250 H     1 <1>   0.0800 
 45 H       -9.1800    -5.6360     0.9860 H     1 <1>   0.0800 
 46 H       -4.7130    -9.0800    -0.5160 H     1 <1>   0.1500 
 47 H       -6.9150    -9.6830    -1.4330 H     1 <1>   0.1500 
@<TRIPOS>BOND
  1   1   2  2   
  2   2   3  am  
  3   2   4  1   
  4   3   5  1   
  5   3   6  1   
  6   4   7  1   
  7   4   8  1   
  8   4  24  1   
  9   5   9  1   
 10   5  10  1   
 11   5  25  1   
 12   6  26  1   
 13   6  27  1   
 14   6  28  1   
 15   7  11  1   
 16   7  29  1   
 17   7  30  1   
 18   8  12  1   
 19   8  31  1   
 20   8  32  1   
 21   9  11  1   
 22   9  33  1   
 23   9  34  1   
 24  10  12  1   
 25  10  35  1   
 26  10  36  1   
 27  12  13  am  
 28  13  14  2   
 29  13  15  1   
 30  15  16  1   
 31  15  37  1   
 32  15  38  1   
 33  16  17  1   
 34  16  39  1   
 35  16  40  1   
 36  17  18  ar  
 37  17  19  ar  
 38  18  20  ar  
 39  18  21  1   
 40  19  22  ar  
 41  19  41  1   
 42  20  23  ar  
 43  20  42  1   
 44  21  43  1   
 45  21  44  1   
 46  21  45  1   
 47  22  23  ar  
 48  22  46  1   
 49  23  47  1   
@<TRIPOS>SUBSTRUCTURE
  1 ****  15 GROUP 4 **** **** 0

# MOE 2024.06 (io_trps.svl 2023.06)
