@<TRIPOS>MOLECULE
NONAME
41 42 1 0 0 
SMALL
USER_CHARGES


@<TRIPOS>ATOM
  1 CL      -2.0870    -0.3140    -2.0550 Cl    1 <1>  -0.1770 
  2 C       -2.5350     0.7150    -0.7100 C.ar  1 <1>   0.1770 
  3 C       -2.5500     2.0890    -0.8830 C.ar  1 <1>   0.1770 
  4 C       -2.8720     0.1460     0.5150 C.ar  1 <1>   0.0860 
  5 CL      -2.1390     2.7980    -2.4270 Cl    1 <1>  -0.1770 
  6 C       -2.8940     2.9310     0.1580 C.ar  1 <1>  -0.1500 
  7 C       -2.8710    -1.2830     0.7210 C.2   1 <1>   0.5440 
  8 C       -3.2090     1.0110     1.5590 C.ar  1 <1>  -0.1500 
  9 C       -3.2230     2.3850     1.3870 C.ar  1 <1>  -0.1500 
 10 O       -1.9920    -1.7870     1.3900 O.2   1 <1>  -0.5700 
 11 N       -3.8620    -2.0860     0.2100 N.am  1 <1>  -0.6600 
 12 C       -5.0400    -1.6310    -0.5690 C.3   1 <1>   0.1400 
 13 C       -3.8650    -3.5600     0.3700 C.3   1 <1>   0.1400 
 14 C       -5.6920    -2.9200    -1.0650 C.3   1 <1>   0.2000 
 15 C       -5.2600    -4.0030    -0.0790 C.3   1 <1>  -0.0800 
 16 O       -7.0730    -2.8230    -1.0890 O.3   1 <1>  -0.6800 
 17 C       -5.3110    -5.4090    -0.7000 C.3   1 <1>  -0.0550 
 18 S       -4.9340    -6.7120     0.4700 S.o2  1 <1>   1.3330 
 19 O       -5.9280    -6.6600     1.5180 O.2   1 <1>  -0.6500 
 20 O       -3.5300    -6.6490     0.8090 O.2   1 <1>  -0.6500 
 21 N       -5.1870    -8.1230    -0.4390 N.am  1 <1>  -0.8490 
 22 C       -4.0310    -8.5030    -1.2580 C.3   1 <1>   0.1160 
 23 C       -5.5980    -9.2550     0.3970 C.3   1 <1>   0.1160 
 24 H       -2.9000     3.9970     0.0070 H     1 <1>   0.1500 
 25 H       -3.4560     0.5890     2.5190 H     1 <1>   0.1500 
 26 H       -3.4870     3.0300     2.2090 H     1 <1>   0.1500 
 27 H       -5.7040    -1.0870     0.0790 H     1 <1>   0.0800 
 28 H       -4.7390    -1.0180    -1.4000 H     1 <1>   0.0800 
 29 H       -3.0980    -3.9800    -0.2590 H     1 <1>   0.0800 
 30 H       -3.6700    -3.8360     1.3940 H     1 <1>   0.0800 
 31 H       -5.3490    -3.1370    -2.0630 H     1 <1>   0.0800 
 32 H       -5.8990    -3.9710     0.7880 H     1 <1>   0.0800 
 33 H       -7.4270    -2.7160    -0.1840 H     1 <1>   0.4000 
 34 H       -4.6290    -5.4600    -1.5260 H     1 <1>   0.0800 
 35 H       -6.3000    -5.5740    -1.0820 H     1 <1>   0.0800 
 36 H       -4.2790    -9.3490    -1.8770 H     1 <1>   0.0800 
 37 H       -3.1930    -8.7600    -0.6320 H     1 <1>   0.0800 
 38 H       -3.7450    -7.6870    -1.8990 H     1 <1>   0.0800 
 39 H       -5.7660   -10.1270    -0.2110 H     1 <1>   0.0800 
 40 H       -6.5180    -9.0210     0.9080 H     1 <1>   0.0800 
 41 H       -4.8410    -9.4730     1.1320 H     1 <1>   0.0800 
@<TRIPOS>BOND
  1   1   2  1   
  2   2   3  ar  
  3   2   4  ar  
  4   3   5  1   
  5   3   6  ar  
  6   4   7  1   
  7   4   8  ar  
  8   6   9  ar  
  9   6  24  1   
 10   7  10  2   
 11   7  11  am  
 12   8   9  ar  
 13   8  25  1   
 14   9  26  1   
 15  11  12  1   
 16  11  13  1   
 17  12  14  1   
 18  12  27  1   
 19  12  28  1   
 20  13  15  1   
 21  13  29  1   
 22  13  30  1   
 23  14  15  1   
 24  14  16  1   
 25  14  31  1   
 26  15  17  1   
 27  15  32  1   
 28  16  33  1   
 29  17  18  1   
 30  17  34  1   
 31  17  35  1   
 32  18  19  2   
 33  18  20  2   
 34  18  21  am  
 35  21  22  1   
 36  21  23  1   
 37  22  36  1   
 38  22  37  1   
 39  22  38  1   
 40  23  39  1   
 41  23  40  1   
 42  23  41  1   
@<TRIPOS>SUBSTRUCTURE
  1 ****  11 GROUP 4 **** **** 0

# MOE 2024.06 (io_trps.svl 2023.06)
