@<TRIPOS>MOLECULE
NONAME
57 59 1 0 0 
SMALL
USER_CHARGES


@<TRIPOS>ATOM
  1 O       -0.7930     0.7780    -1.4710 O.2   1 <1>  -0.5700 
  2 C       -0.6110     1.9180    -1.1150 C.2   1 <1>   0.5690 
  3 N       -1.4610     2.5930    -0.2660 N.am  1 <1>  -0.6600 
  4 C        0.6390     2.6160    -1.6670 C.3   1 <1>   0.1810 
  5 C       -1.1360     3.9960     0.1580 C.3   1 <1>   0.3640 
  6 C       -2.5960     1.9460     0.4590 C.3   1 <1>   0.2200 
  7 O        1.0260     3.7530    -0.9270 O.3   1 <1>  -0.5600 
  8 C       -2.3750     4.8920     0.1530 C.ar  1 <1>  -0.1440 
  9 C       -0.0460     4.6470    -0.7190 C.3   1 <1>   0.2610 
 10 C       -2.0880     0.8240     1.3650 C.3   1 <1>  -0.2400 
 11 C       -3.6620     1.4540    -0.5200 C.3   1 <1>  -0.2400 
 12 C       -2.7350     5.5810     1.3030 C.ar  1 <1>  -0.1500 
 13 C       -3.1460     5.0390    -0.9920 C.ar  1 <1>  -0.1500 
 14 C        0.4450     5.9570    -0.0970 C.2   1 <1>   0.5690 
 15 C       -3.8420     6.4100     1.3060 C.ar  1 <1>  -0.1500 
 16 C       -4.2520     5.8700    -0.9900 C.ar  1 <1>  -0.1500 
 17 O        0.5520     6.9390    -0.7990 O.2   1 <1>  -0.5700 
 18 N        0.8560     6.0310     1.2120 N.am  1 <1>  -0.6600 
 19 C       -4.6000     6.5570     0.1580 C.ar  1 <1>  -0.1500 
 20 C        0.7460     7.3580     1.9100 C.3   1 <1>   0.1400 
 21 C        2.1370     5.3440     1.5680 C.3   1 <1>   0.1400 
 22 C        2.0330     8.2060     1.7320 C.3   1 <1>   0.3430 
 23 C        3.3490     6.1920     1.0930 C.3   1 <1>   0.3430 
 24 N        2.9390     7.5920     0.6990 N.4   1 <1>  -0.9590 
 25 C        4.0940     8.4480     0.2930 C.3   1 <1>   0.3430 
 26 C        3.6470     9.6610    -0.5350 C.3   1 <1>   0.1200 
 27 O        4.7760    10.3940    -0.8510 O.3   1 <1>  -0.6800 
 28 H        0.4570     2.9160    -2.6840 H     1 <1>   0.0800 
 29 H        1.4600     1.9240    -1.6570 H     1 <1>   0.0800 
 30 H       -0.7630     3.9400     1.1650 H     1 <1>   0.0800 
 31 H       -3.0670     2.6730     1.0990 H     1 <1>   0.0800 
 32 H       -0.4620     4.8850    -1.6820 H     1 <1>   0.0800 
 33 H       -1.6910     0.0090     0.7870 H     1 <1>   0.0800 
 34 H       -2.9000     0.4440     1.9590 H     1 <1>   0.0800 
 35 H       -1.3280     1.1940     2.0270 H     1 <1>   0.0800 
 36 H       -3.2900     0.6520    -1.1310 H     1 <1>   0.0800 
 37 H       -3.9880     2.2600    -1.1500 H     1 <1>   0.0800 
 38 H       -4.5130     1.0890     0.0260 H     1 <1>   0.0800 
 39 H       -2.1590     5.4770     2.2060 H     1 <1>   0.1500 
 40 H       -2.8950     4.5030    -1.8920 H     1 <1>   0.1500 
 41 H       -4.1200     6.9410     2.2010 H     1 <1>   0.1500 
 42 H       -4.8440     5.9810    -1.8820 H     1 <1>   0.1500 
 43 H       -5.4610     7.2030     0.1590 H     1 <1>   0.1500 
 44 H       -0.0920     7.9040     1.5090 H     1 <1>   0.0800 
 45 H        0.5530     7.2040     2.9570 H     1 <1>   0.0800 
 46 H        2.1860     5.2160     2.6360 H     1 <1>   0.0800 
 47 H        2.1860     4.3630     1.1300 H     1 <1>   0.0800 
 48 H        2.5490     8.2740     2.6750 H     1 <1>   0.0800 
 49 H        1.7520     9.2030     1.4380 H     1 <1>   0.0800 
 50 H        3.7990     5.7020     0.2450 H     1 <1>   0.0800 
 51 H        4.0860     6.2260     1.8780 H     1 <1>   0.0800 
 52 H        2.3130     7.4590    -0.1250 H     1 <1>   0.4500 
 53 H        4.6220     8.7900     1.1670 H     1 <1>   0.0800 
 54 H        4.7740     7.8690    -0.3110 H     1 <1>   0.0800 
 55 H        2.9850    10.2990     0.0230 H     1 <1>   0.0800 
 56 H        3.1820     9.3480    -1.4540 H     1 <1>   0.0800 
 57 H        4.5620    11.1570    -1.4290 H     1 <1>   0.4000 
@<TRIPOS>BOND
  1   1   2  2   
  2   2   3  am  
  3   2   4  1   
  4   3   5  1   
  5   3   6  1   
  6   4   7  1   
  7   4  28  1   
  8   4  29  1   
  9   5   8  1   
 10   5   9  1   
 11   5  30  1   
 12   6  10  1   
 13   6  11  1   
 14   6  31  1   
 15   7   9  1   
 16   8  12  ar  
 17   8  13  ar  
 18   9  14  1   
 19   9  32  1   
 20  10  33  1   
 21  10  34  1   
 22  10  35  1   
 23  11  36  1   
 24  11  37  1   
 25  11  38  1   
 26  12  15  ar  
 27  12  39  1   
 28  13  16  ar  
 29  13  40  1   
 30  14  17  2   
 31  14  18  am  
 32  15  19  ar  
 33  15  41  1   
 34  16  19  ar  
 35  16  42  1   
 36  18  20  1   
 37  18  21  1   
 38  19  43  1   
 39  20  22  1   
 40  20  44  1   
 41  20  45  1   
 42  21  23  1   
 43  21  46  1   
 44  21  47  1   
 45  22  24  1   
 46  22  48  1   
 47  22  49  1   
 48  23  24  1   
 49  23  50  1   
 50  23  51  1   
 51  24  25  1   
 52  24  52  1   
 53  25  26  1   
 54  25  53  1   
 55  25  54  1   
 56  26  27  1   
 57  26  55  1   
 58  26  56  1   
 59  27  57  1   
@<TRIPOS>SUBSTRUCTURE
  1 ****   9 GROUP 4 **** **** 0

# MOE 2024.06 (io_trps.svl 2023.06)
