@<TRIPOS>MOLECULE
NONAME
41 44 1 0 0 
SMALL
USER_CHARGES


@<TRIPOS>ATOM
  1 O       -0.5130     0.1330     0.0100 O.3   1 <1>  -0.0190 
  2 N       -1.2760    -0.8930     0.1670 N.2   1 <1>  -0.4100 
  3 C       -1.2070     1.2320     0.1240 C.2   1 <1>   0.4250 
  4 C       -2.4280    -0.3720     0.3740 C.2   1 <1>   0.5990 
  5 N       -2.4430     0.9650     0.3540 N.2   1 <1>  -0.5650 
  6 C       -0.5790     2.5290    -0.0110 C.ar  1 <1>   0.0530 
  7 N       -3.5970    -1.0910     0.6160 N.pl3 1 <1>  -0.8210 
  8 C        0.7800     2.6630    -0.3060 C.ar  1 <1>  -0.1500 
  9 C       -1.3160     3.7040     0.1500 C.ar  1 <1>  -0.1500 
 10 C       -4.8920    -0.4690     0.2220 C.3   1 <1>   0.2090 
 11 C       -3.6090    -2.5220     0.2190 C.3   1 <1>   0.2090 
 12 C        1.3720     3.9060    -0.4350 C.ar  1 <1>  -0.1500 
 13 C       -0.7300     4.9500     0.0230 C.ar  1 <1>  -0.1500 
 14 C       -5.7770    -1.6150    -0.2790 C.3   1 <1>   0.2000 
 15 C       -5.0860    -2.9030     0.1590 C.3   1 <1>  -0.0800 
 16 C        0.6170     5.0530    -0.2700 C.ar  1 <1>  -0.1500 
 17 O       -7.0510    -1.5640     0.2690 O.3   1 <1>  -0.6800 
 18 C       -5.4000    -4.0860    -0.7730 C.3   1 <1>  -0.0170 
 19 C       -4.7280    -5.3690    -0.3090 C.ar  1 <1>   0.1670 
 20 N       -3.4530    -5.5180    -0.6290 N.ar  1 <1>  -0.6200 
 21 C       -5.4550    -6.3150     0.4140 C.ar  1 <1>   0.1600 
 22 C       -2.9580    -6.6600    -0.1830 C.ar  1 <1>   0.1600 
 23 N       -4.9610    -7.4570     0.8620 N.ar  1 <1>  -0.6200 
 24 C       -3.6870    -7.5970     0.5390 C.ar  1 <1>   0.1600 
 25 H        1.3860     1.7830    -0.4370 H     1 <1>   0.1500 
 26 H       -2.3660     3.6360     0.3800 H     1 <1>   0.1500 
 27 H       -5.3250     0.0150     1.0800 H     1 <1>   0.0800 
 28 H       -4.7470     0.2520    -0.5640 H     1 <1>   0.0800 
 29 H       -3.1460    -2.6360    -0.7480 H     1 <1>   0.0800 
 30 H       -3.0760    -3.1210     0.9390 H     1 <1>   0.0800 
 31 H        2.4210     3.9830    -0.6630 H     1 <1>   0.1500 
 32 H       -1.3220     5.8400     0.1520 H     1 <1>   0.1500 
 33 H       -5.8670    -1.5590    -1.3510 H     1 <1>   0.0800 
 34 H       -5.3860    -3.1490     1.1620 H     1 <1>   0.0800 
 35 H        1.0760     6.0220    -0.3700 H     1 <1>   0.1500 
 36 H       -6.9950    -1.5620     1.2450 H     1 <1>   0.4000 
 37 H       -5.0710    -3.8640    -1.7730 H     1 <1>   0.0800 
 38 H       -6.4650    -4.2320    -0.8100 H     1 <1>   0.0800 
 39 H       -6.4890    -6.1170     0.6330 H     1 <1>   0.1500 
 40 H       -1.9240    -6.8650    -0.3980 H     1 <1>   0.1500 
 41 H       -3.1950    -8.4990     0.8590 H     1 <1>   0.1500 
@<TRIPOS>BOND
  1   1   2  1   
  2   1   3  1   
  3   2   4  2   
  4   3   5  2   
  5   3   6  1   
  6   4   5  1   
  7   4   7  1   
  8   6   8  ar  
  9   6   9  ar  
 10   7  10  1   
 11   7  11  1   
 12   8  12  ar  
 13   8  25  1   
 14   9  13  ar  
 15   9  26  1   
 16  10  14  1   
 17  10  27  1   
 18  10  28  1   
 19  11  15  1   
 20  11  29  1   
 21  11  30  1   
 22  12  16  ar  
 23  12  31  1   
 24  13  16  ar  
 25  13  32  1   
 26  14  15  1   
 27  14  17  1   
 28  14  33  1   
 29  15  18  1   
 30  15  34  1   
 31  16  35  1   
 32  17  36  1   
 33  18  19  1   
 34  18  37  1   
 35  18  38  1   
 36  19  20  ar  
 37  19  21  ar  
 38  20  22  ar  
 39  21  23  ar  
 40  21  39  1   
 41  22  24  ar  
 42  22  40  1   
 43  23  24  ar  
 44  24  41  1   
@<TRIPOS>SUBSTRUCTURE
  1 ****   7 GROUP 4 **** **** 0

# MOE 2024.06 (io_trps.svl 2023.06)
