@<TRIPOS>MOLECULE
NONAME
51 54 1 0 0 
SMALL
USER_CHARGES


@<TRIPOS>ATOM
  1 S       -2.5400    -1.0580    -1.5190 S.3   1 <1>  -0.2820 
  2 C       -3.0280    -2.2360    -0.3330 C.2   1 <1>   0.6510 
  3 C       -2.6100     0.2000    -0.2870 C.2   1 <1>   0.5910 
  4 N       -3.1810    -3.4930    -0.6060 N.2   1 <1>  -0.6210 
  5 N       -3.1960    -1.5990     0.8670 N.am  1 <1>  -0.0580 
  6 N       -2.9520    -0.2160     0.8610 N.2   1 <1>  -0.5120 
  7 C       -2.2570     1.6080    -0.7420 C.3   1 <1>  -0.1000 
  8 C       -3.5770    -4.2790     0.4450 C.2   1 <1>   0.0330 
  9 C       -3.5740    -2.3840     1.9470 C.2   1 <1>   0.6160 
 10 C       -0.8270     2.0470    -0.8510 C.3   1 <1>  -0.2000 
 11 C       -1.7100     2.6270     0.2140 C.3   1 <1>  -0.2000 
 12 C       -3.7680    -3.7660     1.6890 C.2   1 <1>  -0.1360 
 13 C       -3.7930    -5.7580     0.1320 C.3   1 <1>   0.4810 
 14 O       -3.7290    -1.9270     3.0680 O.2   1 <1>  -0.5700 
 15 N       -2.6970    -6.2400    -0.7640 N.4   1 <1>  -0.9590 
 16 C       -3.1060    -7.4930    -1.4640 C.3   1 <1>   0.3430 
 17 C       -1.3720    -6.3110    -0.0770 C.3   1 <1>   0.2630 
 18 C       -3.0860    -8.7180    -0.5330 C.3   1 <1>  -0.1600 
 19 C       -4.2330    -9.6950    -0.8550 C.3   1 <1>   0.0960 
 20 N       -5.5760    -9.0660    -0.7420 N.pl3 1 <1>   0.3140 
 21 N       -5.7940    -7.9250    -0.0490 N.2   1 <1>  -0.7070 
 22 C       -6.7190    -9.5220    -1.2980 C.2   1 <1>  -0.3320 
 23 C       -7.0650    -7.6990    -0.1720 C.2   1 <1>   0.1080 
 24 C       -7.6960    -8.6620    -0.9460 C.2   1 <1>  -0.1500 
 25 C       -6.8500   -10.7790    -2.1440 C.3   1 <1>  -0.0600 
 26 C       -7.7590    -6.5180     0.4680 C.3   1 <1>  -0.0590 
 27 H       -2.9410     1.9630    -1.4920 H     1 <1>   0.1000 
 28 H       -0.5390     2.6710    -1.6800 H     1 <1>   0.1000 
 29 H       -0.0430     1.3740    -0.5510 H     1 <1>   0.1000 
 30 H       -1.5430     2.3410     1.2390 H     1 <1>   0.1000 
 31 H       -2.0350     3.6490     0.1210 H     1 <1>   0.1000 
 32 H       -4.0780    -4.3590     2.5310 H     1 <1>   0.1500 
 33 H       -4.7360    -5.8520    -0.3810 H     1 <1>   0.0800 
 34 H       -3.8430    -6.3460     1.0340 H     1 <1>   0.0800 
 35 H       -2.6410    -5.4740    -1.4590 H     1 <1>   0.4500 
 36 H       -2.4550    -7.6740    -2.3040 H     1 <1>   0.0800 
 37 H       -4.1050    -7.3570    -1.8510 H     1 <1>   0.0800 
 38 H       -1.4020    -7.0280     0.7270 H     1 <1>   0.0800 
 39 H       -1.1120    -5.3470     0.3290 H     1 <1>   0.0800 
 40 H       -0.6060    -6.6050    -0.7760 H     1 <1>   0.0800 
 41 H       -3.1840    -8.4340     0.5000 H     1 <1>   0.0800 
 42 H       -2.1490    -9.2320    -0.6470 H     1 <1>   0.0800 
 43 H       -4.2030   -10.5270    -0.1750 H     1 <1>   0.0800 
 44 H       -4.1210   -10.0740    -1.8550 H     1 <1>   0.0800 
 45 H       -8.7430    -8.6940    -1.1930 H     1 <1>   0.1500 
 46 H       -6.5300   -11.6410    -1.5860 H     1 <1>   0.0800 
 47 H       -6.2570   -10.6950    -3.0380 H     1 <1>   0.0800 
 48 H       -7.8760   -10.9240    -2.4320 H     1 <1>   0.0800 
 49 H       -7.5630    -6.5140     1.5250 H     1 <1>   0.0800 
 50 H       -8.8210    -6.5820     0.3140 H     1 <1>   0.0800 
 51 H       -7.3990    -5.6040     0.0360 H     1 <1>   0.0800 
@<TRIPOS>BOND
  1   1   2  1   
  2   1   3  1   
  3   2   4  2   
  4   2   5  1   
  5   3   6  2   
  6   3   7  1   
  7   4   8  1   
  8   5   6  1   
  9   5   9  am  
 10   7  10  1   
 11   7  11  1   
 12   7  27  1   
 13   8  12  2   
 14   8  13  1   
 15   9  12  1   
 16   9  14  2   
 17  10  11  1   
 18  10  28  1   
 19  10  29  1   
 20  11  30  1   
 21  11  31  1   
 22  12  32  1   
 23  13  15  1   
 24  13  33  1   
 25  13  34  1   
 26  15  16  1   
 27  15  17  1   
 28  15  35  1   
 29  16  18  1   
 30  16  36  1   
 31  16  37  1   
 32  17  38  1   
 33  17  39  1   
 34  17  40  1   
 35  18  19  1   
 36  18  41  1   
 37  18  42  1   
 38  19  20  1   
 39  19  43  1   
 40  19  44  1   
 41  20  21  1   
 42  20  22  1   
 43  21  23  2   
 44  22  24  2   
 45  22  25  1   
 46  23  24  1   
 47  23  26  1   
 48  24  45  1   
 49  25  46  1   
 50  25  47  1   
 51  25  48  1   
 52  26  49  1   
 53  26  50  1   
 54  26  51  1   
@<TRIPOS>SUBSTRUCTURE
  1 ****   8 GROUP 4 **** **** 0

# MOE 2024.06 (io_trps.svl 2023.06)
