@<TRIPOS>MOLECULE
NONAME
50 54 1 0 0 
SMALL
USER_CHARGES


@<TRIPOS>ATOM
  1 O        1.5390    -0.0610     1.6980 O.2   1 <1>  -0.5700 
  2 C        2.1620    -0.3480     0.6920 C.2   1 <1>   0.5440 
  3 N        2.2950     0.6020    -0.3040 N.am  1 <1>  -0.6600 
  4 C        2.7220    -1.6800     0.5850 C.ar  1 <1>   0.0860 
  5 C        2.6370     0.2440    -1.7230 C.3   1 <1>   0.1400 
  6 C        2.0240     2.0400    -0.0150 C.3   1 <1>   0.1400 
  7 C        4.0730    -1.8900     0.3460 C.ar  1 <1>  -0.1500 
  8 C        1.8910    -2.8070     0.7530 C.ar  1 <1>  -0.1500 
  9 C        3.4510     1.3110    -2.4780 C.3   1 <1>   0.1400 
 10 C        3.3330     2.7630     0.3250 C.3   1 <1>  -0.1600 
 11 C        4.5810    -3.1820     0.2730 C.ar  1 <1>   0.2270 
 12 C        2.3770    -4.0920     0.6750 C.ar  1 <1>  -0.1500 
 13 N        4.5650     1.8550    -1.6480 N.am  1 <1>  -0.6600 
 14 C        4.2140     3.0840    -0.8870 C.3   1 <1>   0.1400 
 15 N        5.8610    -3.6030     0.0610 N.2   1 <1>  -0.5650 
 16 C        3.7400    -4.2670     0.4310 C.ar  1 <1>  -0.1520 
 17 C        5.7440     1.1340    -1.4960 C.2   1 <1>   0.7160 
 18 C        5.7820    -4.8860     0.0850 C.2   1 <1>   0.0360 
 19 N        4.5300    -5.3600     0.3030 N.pl3 1 <1>   0.0330 
 20 O        5.8050     0.0590    -2.0770 O.2   1 <1>  -0.5700 
 21 C        6.8820     1.5570    -0.6790 C.2   1 <1>   0.2030 
 22 N        7.3430     2.7880    -0.4670 N.2   1 <1>  -0.7070 
 23 C        7.7000     0.6490     0.0090 C.2   1 <1>  -0.1810 
 24 N        8.4210     2.6490     0.3290 N.pl3 1 <1>   0.3000 
 25 C        8.6400     1.3570     0.6170 C.2   1 <1>  -0.3320 
 26 C        7.8440    -0.8260     0.2670 C.3   1 <1>   0.0210 
 27 C        9.6190     0.5340     1.4050 C.3   1 <1>   0.0200 
 28 C        9.1970    -0.9050     1.0180 C.3   1 <1>  -0.1600 
 29 H        1.7230     0.0660    -2.2610 H     1 <1>   0.0800 
 30 H        3.2000    -0.6710    -1.7500 H     1 <1>   0.0800 
 31 H        1.3560     2.1220     0.8250 H     1 <1>   0.0800 
 32 H        1.5370     2.5040    -0.8540 H     1 <1>   0.0800 
 33 H        4.7420    -1.0620     0.2150 H     1 <1>   0.1500 
 34 H        0.8480    -2.6340     0.9530 H     1 <1>   0.1500 
 35 H        2.8000     2.1100    -2.7850 H     1 <1>   0.0800 
 36 H        3.8530     0.8720    -3.3750 H     1 <1>   0.0800 
 37 H        3.8920     2.1850     1.0400 H     1 <1>   0.0800 
 38 H        3.0850     3.6940     0.8000 H     1 <1>   0.0800 
 39 H        1.7310    -4.9430     0.8040 H     1 <1>   0.1500 
 40 H        5.0950     3.5970    -0.5540 H     1 <1>   0.0800 
 41 H        3.6940     3.7610    -1.5410 H     1 <1>   0.0800 
 42 H        6.6200    -5.5470    -0.0540 H     1 <1>   0.1500 
 43 H        4.2380    -6.3380     0.3630 H     1 <1>   0.2700 
 44 H        8.9840     3.4450     0.6510 H     1 <1>   0.2700 
 45 H        7.8580    -1.3880    -0.6510 H     1 <1>   0.0800 
 46 H        7.0400    -1.1690     0.8920 H     1 <1>   0.0800 
 47 H        9.4890     0.7070     2.4590 H     1 <1>   0.0800 
 48 H       10.6350     0.7370     1.1120 H     1 <1>   0.0800 
 49 H        9.9350    -1.3210     0.3550 H     1 <1>   0.0800 
 50 H        9.1180    -1.5350     1.8860 H     1 <1>   0.0800 
@<TRIPOS>BOND
  1   1   2  2   
  2   2   3  am  
  3   2   4  1   
  4   3   5  1   
  5   3   6  1   
  6   4   7  ar  
  7   4   8  ar  
  8   5   9  1   
  9   5  29  1   
 10   5  30  1   
 11   6  10  1   
 12   6  31  1   
 13   6  32  1   
 14   7  11  ar  
 15   7  33  1   
 16   8  12  ar  
 17   8  34  1   
 18   9  13  1   
 19   9  35  1   
 20   9  36  1   
 21  10  14  1   
 22  10  37  1   
 23  10  38  1   
 24  11  15  1   
 25  11  16  ar  
 26  12  16  ar  
 27  12  39  1   
 28  13  14  1   
 29  13  17  am  
 30  14  40  1   
 31  14  41  1   
 32  15  18  2   
 33  16  19  1   
 34  17  20  2   
 35  17  21  1   
 36  18  19  1   
 37  18  42  1   
 38  19  43  1   
 39  21  22  2   
 40  21  23  1   
 41  22  24  1   
 42  23  25  2   
 43  23  26  1   
 44  24  25  1   
 45  24  44  1   
 46  25  27  1   
 47  26  28  1   
 48  26  45  1   
 49  26  46  1   
 50  27  28  1   
 51  27  47  1   
 52  27  48  1   
 53  28  49  1   
 54  28  50  1   
@<TRIPOS>SUBSTRUCTURE
  1 ****   7 GROUP 4 **** **** 0

# MOE 2024.06 (io_trps.svl 2023.06)
