@<TRIPOS>MOLECULE
NONAME
54 57 1 0 0 
SMALL
USER_CHARGES


@<TRIPOS>ATOM
  1 O       -0.0770     0.2670     0.1890 O.2   1 <1>  -0.5700 
  2 C       -0.1340     1.4700     0.3030 C.2   1 <1>   0.5690 
  3 N       -1.3350     2.1350     0.2740 N.am  1 <1>  -0.6600 
  4 C        1.1650     2.2500     0.4900 C.3   1 <1>  -0.0990 
  5 C       -1.4790     3.5970     0.5500 C.3   1 <1>   0.1400 
  6 C       -2.5880     1.3850    -0.0450 C.3   1 <1>   0.1400 
  7 C        2.4370     1.4540     0.1380 C.3   1 <1>  -0.1600 
  8 C       -2.8790     3.8970     1.0800 C.3   1 <1>  -0.1600 
  9 C       -3.5850     2.2890    -0.7730 C.3   1 <1>  -0.1600 
 10 C        3.7050     2.3010     0.3080 C.3   1 <1>   0.0210 
 11 C       -3.9510     3.5480     0.0340 C.3   1 <1>   0.4180 
 12 C        4.9700     1.5350    -0.0420 C.2   1 <1>  -0.1810 
 13 O       -4.0100     4.5900    -0.9100 O.3   1 <1>  -0.5600 
 14 C       -5.3080     3.3540     0.7080 C.2   1 <1>  -0.2880 
 15 C        6.2630     2.1040     0.0200 C.ar  1 <1>   0.0000 
 16 C        5.1120     0.2510    -0.4520 C.2   1 <1>  -0.3020 
 17 C       -4.7800     5.7180    -0.6000 C.3   1 <1>   0.1200 
 18 C       -6.3680     4.1410     0.5090 C.2   1 <1>  -0.2760 
 19 C        7.1540     1.1090    -0.3690 C.ar  1 <1>  -0.1520 
 20 C        6.7540     3.3680     0.3670 C.ar  1 <1>  -0.1500 
 21 N        6.4340    -0.0220    -0.6540 N.pl3 1 <1>   0.0330 
 22 C       -6.2550     5.3390    -0.4150 C.3   1 <1>  -0.0220 
 23 C       -7.7320     3.9280     1.1410 C.3   1 <1>  -0.1020 
 24 C        8.5290     1.3510    -0.4170 C.ar  1 <1>  -0.1500 
 25 C        8.1080     3.6070     0.3200 C.ar  1 <1>  -0.1500 
 26 C        8.9960     2.5980    -0.0720 C.ar  1 <1>  -0.1500 
 27 H        1.2190     2.5630     1.5160 H     1 <1>   0.0800 
 28 H        1.1290     3.1230    -0.1340 H     1 <1>   0.0800 
 29 H       -1.3120     4.1480    -0.3610 H     1 <1>   0.0800 
 30 H       -0.7530     3.9090     1.2810 H     1 <1>   0.0800 
 31 H       -3.0200     1.0180     0.8710 H     1 <1>   0.0800 
 32 H       -2.3590     0.5360    -0.6680 H     1 <1>   0.0800 
 33 H        2.3710     1.1140    -0.8810 H     1 <1>   0.0800 
 34 H        2.5020     0.5880     0.7730 H     1 <1>   0.0800 
 35 H       -2.9540     4.9270     1.3690 H     1 <1>   0.0800 
 36 H       -3.0340     3.3100     1.9680 H     1 <1>   0.0800 
 37 H       -4.4740     1.7290    -0.9960 H     1 <1>   0.0800 
 38 H       -3.1400     2.5720    -1.7110 H     1 <1>   0.0800 
 39 H        3.7800     2.6350     1.3280 H     1 <1>   0.0800 
 40 H        3.6470     3.1680    -0.3260 H     1 <1>   0.0800 
 41 H       -5.3280     2.4990     1.3600 H     1 <1>   0.1500 
 42 H        4.3520    -0.4930    -0.6130 H     1 <1>   0.1500 
 43 H       -4.6750     6.4200    -1.4090 H     1 <1>   0.0800 
 44 H       -4.3950     6.1660     0.2980 H     1 <1>   0.0800 
 45 H        6.0640     4.1340     0.6660 H     1 <1>   0.1500 
 46 H        6.8310    -0.9140    -0.9650 H     1 <1>   0.2700 
 47 H       -6.6960     5.1080    -1.3680 H     1 <1>   0.0800 
 48 H       -6.7750     6.1820     0.0020 H     1 <1>   0.0800 
 49 H       -8.4770     3.7980     0.3770 H     1 <1>   0.0800 
 50 H       -7.9980     4.7760     1.7470 H     1 <1>   0.0800 
 51 H       -7.7250     3.0520     1.7640 H     1 <1>   0.0800 
 52 H        9.2030     0.5700    -0.7190 H     1 <1>   0.1500 
 53 H        8.4990     4.5740     0.5850 H     1 <1>   0.1500 
 54 H       10.0500     2.8110    -0.1010 H     1 <1>   0.1500 
@<TRIPOS>BOND
  1   1   2  2   
  2   2   3  am  
  3   2   4  1   
  4   3   5  1   
  5   3   6  1   
  6   4   7  1   
  7   4  27  1   
  8   4  28  1   
  9   5   8  1   
 10   5  29  1   
 11   5  30  1   
 12   6   9  1   
 13   6  31  1   
 14   6  32  1   
 15   7  10  1   
 16   7  33  1   
 17   7  34  1   
 18   8  11  1   
 19   8  35  1   
 20   8  36  1   
 21   9  11  1   
 22   9  37  1   
 23   9  38  1   
 24  10  12  1   
 25  10  39  1   
 26  10  40  1   
 27  11  13  1   
 28  11  14  1   
 29  12  15  1   
 30  12  16  2   
 31  13  17  1   
 32  14  18  2   
 33  14  41  1   
 34  15  19  ar  
 35  15  20  ar  
 36  16  21  1   
 37  16  42  1   
 38  17  22  1   
 39  17  43  1   
 40  17  44  1   
 41  18  22  1   
 42  18  23  1   
 43  19  21  1   
 44  19  24  ar  
 45  20  25  ar  
 46  20  45  1   
 47  21  46  1   
 48  22  47  1   
 49  22  48  1   
 50  23  49  1   
 51  23  50  1   
 52  23  51  1   
 53  24  26  ar  
 54  24  52  1   
 55  25  26  ar  
 56  25  53  1   
 57  26  54  1   
@<TRIPOS>SUBSTRUCTURE
  1 ****   4 GROUP 4 **** **** 0

# MOE 2024.06 (io_trps.svl 2023.06)
