@<TRIPOS>MOLECULE
NONAME
51 54 1 0 0 
SMALL
USER_CHARGES


@<TRIPOS>ATOM
  1 O       -0.5560     0.3080     1.4360 O.2   1 <1>  -0.5700 
  2 C       -1.5080     0.9700     1.0710 C.2   1 <1>   0.5440 
  3 N       -2.6860     0.3310     0.7620 N.am  1 <1>  -0.6600 
  4 C       -1.3810     2.4040     0.9440 C.ar  1 <1>   0.0860 
  5 C       -3.7170     0.8700    -0.1660 C.3   1 <1>   0.1400 
  6 C       -2.8900    -1.1260     0.9370 C.3   1 <1>   0.1400 
  7 C       -2.3310     3.2580     1.4950 C.ar  1 <1>   0.1600 
  8 C       -0.3220     2.9930     0.2720 C.ar  1 <1>  -0.1500 
  9 C       -4.6140    -0.3200    -0.5390 C.3   1 <1>   0.2000 
 10 C       -3.7360    -1.5450    -0.2660 C.3   1 <1>  -0.0800 
 11 N       -2.3330     4.5760     1.4020 N.ar  1 <1>  -0.6200 
 12 C       -0.2890     4.3680     0.1680 C.ar  1 <1>  -0.1430 
 13 O       -5.7230    -0.3610     0.3140 O.3   1 <1>  -0.5600 
 14 C       -4.5130    -2.8560    -0.0450 C.3   1 <1>   0.0200 
 15 C       -1.3170     5.1110     0.7430 C.ar  1 <1>   0.1670 
 16 C        0.8680     5.0190    -0.5830 C.3   1 <1>  -0.0170 
 17 C       -6.8070     0.4210    -0.0810 C.3   1 <1>   0.0400 
 18 C       -3.6130    -4.0770     0.0490 C.2   1 <1>  -0.0400 
 19 C       -1.3290     6.6320     0.6680 C.3   1 <1>  -0.0170 
 20 C        1.0070     6.5120    -0.2660 C.3   1 <1>  -0.1600 
 21 O       -4.1530    -5.2360     0.3150 O.3   1 <1>  -0.0190 
 22 C       -2.2900    -4.2680    -0.0920 C.2   1 <1>  -0.1500 
 23 C       -0.3540     7.2060    -0.3690 C.3   1 <1>  -0.1600 
 24 N       -3.2670    -6.1890     0.3630 N.2   1 <1>  -0.4100 
 25 C       -2.1350    -5.6340     0.1230 C.2   1 <1>   0.1080 
 26 C       -0.8160    -6.3720     0.0820 C.3   1 <1>  -0.0590 
 27 H       -4.2840     1.6550     0.3000 H     1 <1>   0.0800 
 28 H       -3.2290     1.2490    -1.0470 H     1 <1>   0.0800 
 29 H       -1.9540    -1.6560     0.9740 H     1 <1>   0.0800 
 30 H       -3.4290    -1.2910     1.8540 H     1 <1>   0.0800 
 31 H       -3.1410     2.8120     2.0460 H     1 <1>   0.1500 
 32 H        0.4500     2.3750    -0.1540 H     1 <1>   0.1500 
 33 H       -4.9510    -0.2850    -1.5610 H     1 <1>   0.0800 
 34 H       -3.0760    -1.6700    -1.1060 H     1 <1>   0.0800 
 35 H       -5.1990    -3.0040    -0.8600 H     1 <1>   0.0800 
 36 H       -5.0930    -2.7890     0.8590 H     1 <1>   0.0800 
 37 H        1.7890     4.5190    -0.3380 H     1 <1>   0.0800 
 38 H        0.6970     4.8970    -1.6390 H     1 <1>   0.0800 
 39 H       -7.5820     0.3130     0.6580 H     1 <1>   0.0800 
 40 H       -7.1670     0.0750    -1.0340 H     1 <1>   0.0800 
 41 H       -6.5080     1.4530    -0.1390 H     1 <1>   0.0800 
 42 H       -2.3250     6.9670     0.4410 H     1 <1>   0.0800 
 43 H       -1.0740     7.0090     1.6430 H     1 <1>   0.0800 
 44 H        1.3960     6.6310     0.7310 H     1 <1>   0.0800 
 45 H        1.7030     6.9620    -0.9520 H     1 <1>   0.0800 
 46 H       -1.5040    -3.5720    -0.3160 H     1 <1>   0.1500 
 47 H       -0.7570     7.0580    -1.3560 H     1 <1>   0.0800 
 48 H       -0.2420     8.2640    -0.2090 H     1 <1>   0.0800 
 49 H       -0.1380    -5.9480     0.7990 H     1 <1>   0.0800 
 50 H       -0.3870    -6.2980    -0.9000 H     1 <1>   0.0800 
 51 H       -0.9690    -7.4100     0.3170 H     1 <1>   0.0800 
@<TRIPOS>BOND
  1   1   2  2   
  2   2   3  am  
  3   2   4  1   
  4   3   5  1   
  5   3   6  1   
  6   4   7  ar  
  7   4   8  ar  
  8   5   9  1   
  9   5  27  1   
 10   5  28  1   
 11   6  10  1   
 12   6  29  1   
 13   6  30  1   
 14   7  11  ar  
 15   7  31  1   
 16   8  12  ar  
 17   8  32  1   
 18   9  10  1   
 19   9  13  1   
 20   9  33  1   
 21  10  14  1   
 22  10  34  1   
 23  11  15  ar  
 24  12  15  ar  
 25  12  16  1   
 26  13  17  1   
 27  14  18  1   
 28  14  35  1   
 29  14  36  1   
 30  15  19  1   
 31  16  20  1   
 32  16  37  1   
 33  16  38  1   
 34  17  39  1   
 35  17  40  1   
 36  17  41  1   
 37  18  21  1   
 38  18  22  2   
 39  19  23  1   
 40  19  42  1   
 41  19  43  1   
 42  20  23  1   
 43  20  44  1   
 44  20  45  1   
 45  21  24  1   
 46  22  25  1   
 47  22  46  1   
 48  23  47  1   
 49  23  48  1   
 50  24  25  2   
 51  25  26  1   
 52  26  49  1   
 53  26  50  1   
 54  26  51  1   
@<TRIPOS>SUBSTRUCTURE
  1 ****   3 GROUP 4 **** **** 0

# MOE 2024.06 (io_trps.svl 2023.06)
