@<TRIPOS>MOLECULE
NONAME
49 51 1 0 0 
SMALL
USER_CHARGES


@<TRIPOS>ATOM
  1 F       -0.9390     1.1420     1.2690 F     1 <1>  -0.1900 
  2 C       -2.1650     1.5390     1.0490 C.ar  1 <1>   0.1900 
  3 C       -2.3890     2.8670     0.7410 C.ar  1 <1>  -0.1500 
  4 C       -3.1890     0.6160     1.1340 C.ar  1 <1>  -0.1500 
  5 C       -3.6910     3.2790     0.5100 C.ar  1 <1>  -0.1500 
  6 C       -4.4880     1.0370     0.9010 C.ar  1 <1>  -0.1500 
  7 C       -4.7420     2.3740     0.5870 C.ar  1 <1>   0.0830 
  8 O       -5.9820     2.8670     0.3450 O.3   1 <1>  -0.3630 
  9 C       -7.1210     2.0450     0.3920 C.3   1 <1>   0.1200 
 10 C       -8.3270     2.9260     0.0660 C.3   1 <1>  -0.1600 
 11 C       -9.6140     2.1030     0.0630 C.3   1 <1>   0.3430 
 12 N      -10.7950     2.9830    -0.1480 N.4   1 <1>  -0.9590 
 13 C      -12.0680     2.2760     0.2320 C.3   1 <1>   0.3430 
 14 C      -10.8820     3.5540    -1.5210 C.3   1 <1>   0.3430 
 15 C      -13.3480     3.0100    -0.2290 C.3   1 <1>   0.0000 
 16 C      -11.9060     4.6950    -1.5280 C.3   1 <1>  -0.1600 
 17 C      -14.4500     2.7990     0.8220 C.3   1 <1>   0.2000 
 18 C      -13.0500     4.5100    -0.5110 C.3   1 <1>  -0.1600 
 19 C      -14.0070     2.3650    -1.4630 C.3   1 <1>  -0.1600 
 20 O      -14.2760     3.6220     1.9160 O.3   1 <1>  -0.6800 
 21 C      -15.7650     3.0850     0.1050 C.3   1 <1>  -0.1600 
 22 C      -15.5000     2.7140    -1.3620 C.3   1 <1>  -0.1600 
 23 H       -1.5660     3.5560     0.6850 H     1 <1>   0.1500 
 24 H       -2.9680    -0.4080     1.3770 H     1 <1>   0.1500 
 25 H       -3.8980     4.3070     0.2680 H     1 <1>   0.1500 
 26 H       -5.2770     0.3130     0.9680 H     1 <1>   0.1500 
 27 H       -7.0010     1.2620    -0.3380 H     1 <1>   0.0800 
 28 H       -7.1960     1.6300     1.3820 H     1 <1>   0.0800 
 29 H       -8.3930     3.7000     0.8110 H     1 <1>   0.0800 
 30 H       -8.1640     3.3690    -0.9000 H     1 <1>   0.0800 
 31 H       -9.7060     1.6040     1.0150 H     1 <1>   0.0800 
 32 H       -9.5700     1.3520    -0.7090 H     1 <1>   0.0800 
 33 H      -10.7210     3.7880     0.4910 H     1 <1>   0.4500 
 34 H      -12.0730     1.2810    -0.1790 H     1 <1>   0.0800 
 35 H      -12.1000     2.1860     1.3060 H     1 <1>   0.0800 
 36 H       -9.9260     3.9330    -1.8450 H     1 <1>   0.0800 
 37 H      -11.1930     2.7850    -2.2090 H     1 <1>   0.0800 
 38 H      -11.4050     5.6270    -1.3290 H     1 <1>   0.0800 
 39 H      -12.3140     4.7720    -2.5210 H     1 <1>   0.0800 
 40 H      -14.4520     1.7780     1.1670 H     1 <1>   0.0800 
 41 H      -13.9290     5.0260    -0.8590 H     1 <1>   0.0800 
 42 H      -12.7590     4.9880     0.4100 H     1 <1>   0.0800 
 43 H      -13.5940     2.6950    -2.3990 H     1 <1>   0.0800 
 44 H      -13.9090     1.2930    -1.4120 H     1 <1>   0.0800 
 45 H      -15.0840     3.6270     2.4680 H     1 <1>   0.4000 
 46 H      -16.5670     2.4960     0.5150 H     1 <1>   0.0800 
 47 H      -16.0130     4.1310     0.1710 H     1 <1>   0.0800 
 48 H      -16.1090     1.8800    -1.6690 H     1 <1>   0.0800 
 49 H      -15.7320     3.5550    -1.9950 H     1 <1>   0.0800 
@<TRIPOS>BOND
  1   1   2  1   
  2   2   3  ar  
  3   2   4  ar  
  4   3   5  ar  
  5   3  23  1   
  6   4   6  ar  
  7   4  24  1   
  8   5   7  ar  
  9   5  25  1   
 10   6   7  ar  
 11   6  26  1   
 12   7   8  1   
 13   8   9  1   
 14   9  10  1   
 15   9  27  1   
 16   9  28  1   
 17  10  11  1   
 18  10  29  1   
 19  10  30  1   
 20  11  12  1   
 21  11  31  1   
 22  11  32  1   
 23  12  13  1   
 24  12  14  1   
 25  12  33  1   
 26  13  15  1   
 27  13  34  1   
 28  13  35  1   
 29  14  16  1   
 30  14  36  1   
 31  14  37  1   
 32  15  17  1   
 33  15  18  1   
 34  15  19  1   
 35  16  18  1   
 36  16  38  1   
 37  16  39  1   
 38  17  20  1   
 39  17  21  1   
 40  17  40  1   
 41  18  41  1   
 42  18  42  1   
 43  19  22  1   
 44  19  43  1   
 45  19  44  1   
 46  20  45  1   
 47  21  22  1   
 48  21  46  1   
 49  21  47  1   
 50  22  48  1   
 51  22  49  1   
@<TRIPOS>SUBSTRUCTURE
  1 ****  10 GROUP 4 **** **** 0

# MOE 2024.06 (io_trps.svl 2023.06)
