@<TRIPOS>MOLECULE
NONAME
22 22 1 0 0 
SMALL
USER_CHARGES


@<TRIPOS>ATOM
  1 BR      -0.0740     0.2550    -1.6850 Br    1 <1>  -0.1110 
  2 C        1.4980    -0.6640    -1.0370 C.ar  1 <1>   0.1110 
  3 C        2.5750    -0.0070    -0.4520 C.ar  1 <1>  -0.1440 
  4 C        1.4740    -2.0410    -1.1810 C.ar  1 <1>   0.1600 
  5 C        3.5830    -0.8710    -0.0450 C.ar  1 <1>  -0.1500 
  6 C        2.6550     1.5340    -0.2670 C.3   1 <1>   0.0370 
  7 N        2.4380    -2.8580    -0.7800 N.ar  1 <1>  -0.6200 
  8 C        3.4700    -2.2420    -0.2260 C.ar  1 <1>   0.1600 
  9 C        2.3800     2.2890    -1.6000 C.2   1 <1>   0.9060 
 10 C        4.0510     1.9890     0.2220 C.3   1 <1>  -0.2400 
 11 C        1.6650     1.9230     0.8580 C.3   1 <1>  -0.2400 
 12 O        2.9260     1.8970    -2.6420 O.co2 1 <1>  -0.9000 
 13 O        1.6690     3.3050    -1.5960 O.co2 1 <1>  -0.9000 
 14 H        0.6150    -2.4850    -1.6480 H     1 <1>   0.1500 
 15 H        4.4800    -0.5090     0.4160 H     1 <1>   0.1500 
 16 H        4.2810    -2.8670     0.1040 H     1 <1>   0.1500 
 17 H        4.8010     1.6880    -0.4890 H     1 <1>   0.0800 
 18 H        4.2840     1.5870     1.1900 H     1 <1>   0.0800 
 19 H        4.0760     3.0630     0.2850 H     1 <1>   0.0800 
 20 H        0.6540     1.7240     0.5590 H     1 <1>   0.0800 
 21 H        1.7380     2.9770     1.0630 H     1 <1>   0.0800 
 22 H        1.8750     1.3750     1.7570 H     1 <1>   0.0800 
@<TRIPOS>BOND
  1   1   2  1   
  2   2   3  ar  
  3   2   4  ar  
  4   3   5  ar  
  5   3   6  1   
  6   4   7  ar  
  7   4  14  1   
  8   5   8  ar  
  9   5  15  1   
 10   6   9  1   
 11   6  10  1   
 12   6  11  1   
 13   7   8  ar  
 14   8  16  1   
 15   9  12  ar  
 16   9  13  ar  
 17  10  17  1   
 18  10  18  1   
 19  10  19  1   
 20  11  20  1   
 21  11  21  1   
 22  11  22  1   
@<TRIPOS>SUBSTRUCTURE
  1 ****   3 GROUP 4 **** **** 0

# MOE 2024.06 (io_trps.svl 2023.06)
