@<TRIPOS>MOLECULE
NONAME
50 51 1 0 0 
SMALL
USER_CHARGES


@<TRIPOS>ATOM
  1 S        0.4390     0.3300    -1.0780 S.o2  1 <1>   1.3330 
  2 O        0.6780    -0.9890    -1.6200 O.2   1 <1>  -0.6500 
  3 O       -0.6420     1.1360    -1.6000 O.2   1 <1>  -0.6500 
  4 N        0.1820     0.1680     0.5940 N.am  1 <1>  -0.8490 
  5 C        1.9710     1.2580    -1.1850 C.3   1 <1>  -0.0550 
  6 C       -0.4530     1.3440     1.2000 C.3   1 <1>   0.1160 
  7 C       -0.5930    -1.0330     0.9200 C.3   1 <1>   0.1160 
  8 C        3.2190     0.4760    -0.7170 C.3   1 <1>  -0.0800 
  9 C        4.5430     1.1800    -0.9720 C.3   1 <1>   0.2200 
 10 C        3.2790     0.1740     0.7860 C.3   1 <1>   0.1200 
 11 N        4.4500     2.6160    -0.6240 N.am  1 <1>  -0.7300 
 12 C        5.4250     0.4890     0.0570 C.3   1 <1>   0.1200 
 13 O        4.6110     0.3460     1.1800 O.3   1 <1>  -0.5600 
 14 C        4.3370     3.6280    -1.5150 C.2   1 <1>   0.5690 
 15 O        4.2510     3.4250    -2.7000 O.2   1 <1>  -0.5700 
 16 C        4.3110     5.0460    -0.9970 C.3   1 <1>  -0.0990 
 17 C        5.7290     5.6110    -0.8700 C.3   1 <1>  -0.0170 
 18 C        5.6880     6.9910    -0.2270 C.ar  1 <1>  -0.1440 
 19 C        5.8180     7.1860     1.1470 C.ar  1 <1>  -0.1440 
 20 C        5.5050     8.0880    -1.0560 C.ar  1 <1>  -0.1500 
 21 C        5.7640     8.4730     1.6600 C.ar  1 <1>  -0.1500 
 22 C        6.0240     6.0290     2.1150 C.3   1 <1>  -0.0970 
 23 C        5.4510     9.3680    -0.5360 C.ar  1 <1>  -0.1500 
 24 C        5.5810     9.5610     0.8260 C.ar  1 <1>  -0.1500 
 25 H        2.1220     1.5370    -2.2100 H     1 <1>   0.0800 
 26 H        1.8750     2.1630    -0.6210 H     1 <1>   0.0800 
 27 H       -0.5080     1.2250     2.2690 H     1 <1>   0.0800 
 28 H       -1.4500     1.4770     0.8120 H     1 <1>   0.0800 
 29 H        0.1200     2.2290     0.9860 H     1 <1>   0.0800 
 30 H       -0.7310    -1.1130     1.9840 H     1 <1>   0.0800 
 31 H       -0.0700    -1.9130     0.5820 H     1 <1>   0.0800 
 32 H       -1.5570    -0.9990     0.4380 H     1 <1>   0.0800 
 33 H        3.2430    -0.4660    -1.2380 H     1 <1>   0.0800 
 34 H        4.9020     1.0510    -1.9800 H     1 <1>   0.0800 
 35 H        2.9760    -0.8370     1.0020 H     1 <1>   0.0800 
 36 H        2.6810     0.8610     1.3600 H     1 <1>   0.0800 
 37 H        4.4990     2.7990     0.3810 H     1 <1>   0.3700 
 38 H        6.3020     1.0590     0.3100 H     1 <1>   0.0800 
 39 H        5.7080    -0.4950    -0.2760 H     1 <1>   0.0800 
 40 H        3.7410     5.6550    -1.6750 H     1 <1>   0.0800 
 41 H        3.8190     5.0680    -0.0420 H     1 <1>   0.0800 
 42 H        6.1710     5.6790    -1.8490 H     1 <1>   0.0800 
 43 H        6.3450     4.9430    -0.2950 H     1 <1>   0.0800 
 44 H        5.4020     7.9510    -2.1190 H     1 <1>   0.1500 
 45 H        5.8650     8.6410     2.7180 H     1 <1>   0.1500 
 46 H        5.9760     6.3670     3.1350 H     1 <1>   0.0800 
 47 H        6.9890     5.5840     1.9530 H     1 <1>   0.0800 
 48 H        5.2620     5.2840     1.9770 H     1 <1>   0.0800 
 49 H        5.3090    10.2110    -1.1890 H     1 <1>   0.1500 
 50 H        5.5400    10.5540     1.2360 H     1 <1>   0.1500 
@<TRIPOS>BOND
  1   1   2  2   
  2   1   3  2   
  3   1   4  am  
  4   1   5  1   
  5   4   6  1   
  6   4   7  1   
  7   5   8  1   
  8   5  25  1   
  9   5  26  1   
 10   6  27  1   
 11   6  28  1   
 12   6  29  1   
 13   7  30  1   
 14   7  31  1   
 15   7  32  1   
 16   8   9  1   
 17   8  10  1   
 18   8  33  1   
 19   9  11  1   
 20   9  12  1   
 21   9  34  1   
 22  10  13  1   
 23  10  35  1   
 24  10  36  1   
 25  11  14  am  
 26  11  37  1   
 27  12  13  1   
 28  12  38  1   
 29  12  39  1   
 30  14  15  2   
 31  14  16  1   
 32  16  17  1   
 33  16  40  1   
 34  16  41  1   
 35  17  18  1   
 36  17  42  1   
 37  17  43  1   
 38  18  19  ar  
 39  18  20  ar  
 40  19  21  ar  
 41  19  22  1   
 42  20  23  ar  
 43  20  44  1   
 44  21  24  ar  
 45  21  45  1   
 46  22  46  1   
 47  22  47  1   
 48  22  48  1   
 49  23  24  ar  
 50  23  49  1   
 51  24  50  1   
@<TRIPOS>SUBSTRUCTURE
  1 ****  11 GROUP 4 **** **** 0

# MOE 2024.06 (io_trps.svl 2023.06)
