@<TRIPOS>MOLECULE
NONAME
67 71 1 0 0 
SMALL
USER_CHARGES


@<TRIPOS>ATOM
  1 O       -2.0230     0.6360    -1.7770 O.2   1 <1>  -0.5700 
  2 C       -2.4040     0.9030    -0.6620 C.2   1 <1>   0.5690 
  3 N       -2.9910    -0.0440     0.1310 N.am  1 <1>  -0.6600 
  4 C       -2.2010     2.3460    -0.1850 C.3   1 <1>  -0.0190 
  5 C       -3.4710     0.1030     1.5300 C.3   1 <1>   0.1400 
  6 C       -3.1940    -1.4390    -0.3350 C.3   1 <1>   0.1400 
  7 C       -3.0070     3.3200    -1.0670 C.3   1 <1>  -0.1600 
  8 C       -0.7050     2.7190    -0.2070 C.3   1 <1>  -0.1600 
  9 C       -4.0420    -1.2660     1.9020 C.3   1 <1>   0.2000 
 10 C       -3.3970    -2.2620     0.9390 C.3   1 <1>  -0.0800 
 11 C       -2.7120     4.7820    -0.7400 C.3   1 <1>   0.3430 
 12 C       -0.4690     4.1960     0.0980 C.3   1 <1>   0.3430 
 13 O       -3.7430    -1.5990     3.2130 O.3   1 <1>  -0.6800 
 14 C       -4.2590    -3.5240     0.7420 C.3   1 <1>  -0.0160 
 15 N       -1.2440     5.0300    -0.8620 N.4   1 <1>  -0.9590 
 16 C       -3.6940    -4.6030    -0.1900 C.ar  1 <1>  -0.1440 
 17 C       -0.8480     6.4660    -0.7750 C.3   1 <1>   0.4230 
 18 C       -4.5300    -5.6570    -0.6390 C.ar  1 <1>   0.0000 
 19 C       -2.3950    -4.6220    -0.6180 C.ar  1 <1>  -0.1500 
 20 C       -1.3510     7.1440     0.5120 C.3   1 <1>  -0.1600 
 21 C       -1.3290     7.2220    -2.0200 C.3   1 <1>  -0.1600 
 22 C       -3.9740    -6.6200    -1.5180 C.ar  1 <1>   0.3100 
 23 C       -5.8840    -5.8200    -0.2600 C.ar  1 <1>  -0.1500 
 24 C       -1.9450    -5.6270    -1.4820 C.ar  1 <1>   0.1600 
 25 C       -0.8950     8.6100     0.5640 C.3   1 <1>  -0.1600 
 26 C       -0.8750     8.6890    -1.9750 C.3   1 <1>  -0.1600 
 27 N       -2.6840    -6.5900    -1.9300 N.ar  1 <1>  -0.6200 
 28 C       -4.7860    -7.6650    -1.9880 C.ar  1 <1>  -0.1500 
 29 C       -6.6470    -6.8530    -0.7340 C.ar  1 <1>  -0.1500 
 30 C       -1.3470     9.3770    -0.6870 C.3   1 <1>  -0.1600 
 31 C       -6.0950    -7.7870    -1.6120 C.ar  1 <1>  -0.1500 
 32 H       -2.5520     2.4450     0.8250 H     1 <1>   0.0800 
 33 H       -2.6430     0.3570     2.1690 H     1 <1>   0.0800 
 34 H       -4.2380     0.8560     1.5880 H     1 <1>   0.0800 
 35 H       -4.0720    -1.4740    -0.9590 H     1 <1>   0.0800 
 36 H       -2.3460    -1.7790    -0.9050 H     1 <1>   0.0800 
 37 H       -4.0580     3.1340    -0.9310 H     1 <1>   0.0800 
 38 H       -2.7870     3.1440    -2.1060 H     1 <1>   0.0800 
 39 H       -0.2820     2.4910    -1.1710 H     1 <1>   0.0800 
 40 H       -0.1800     2.1210     0.5180 H     1 <1>   0.0800 
 41 H       -5.1130    -1.2510     1.7940 H     1 <1>   0.0800 
 42 H       -2.4270    -2.5330     1.3170 H     1 <1>   0.0800 
 43 H       -3.0390     5.0030     0.2630 H     1 <1>   0.0800 
 44 H       -3.2560     5.4140    -1.4220 H     1 <1>   0.0800 
 45 H        0.5840     4.4140     0.0120 H     1 <1>   0.0800 
 46 H       -0.7790     4.4140     1.1070 H     1 <1>   0.0800 
 47 H       -2.7890    -1.7810     3.3180 H     1 <1>   0.4000 
 48 H       -5.2110    -3.2050     0.3570 H     1 <1>   0.0800 
 49 H       -4.4320    -3.9740     1.7050 H     1 <1>   0.0800 
 50 H       -0.9750     4.7140    -1.8030 H     1 <1>   0.4500 
 51 H        0.2290     6.5210    -0.7700 H     1 <1>   0.0800 
 52 H       -1.6720    -3.8890    -0.3200 H     1 <1>   0.1500 
 53 H       -2.4250     7.1300     0.5520 H     1 <1>   0.0800 
 54 H       -0.9660     6.6380     1.3790 H     1 <1>   0.0800 
 55 H       -0.9270     6.7640    -2.9060 H     1 <1>   0.0800 
 56 H       -2.4030     7.2070    -2.0810 H     1 <1>   0.0800 
 57 H       -6.3340    -5.1230     0.4210 H     1 <1>   0.1500 
 58 H       -0.9150    -5.5940    -1.7960 H     1 <1>   0.1500 
 59 H       -1.3020     9.0870     1.4400 H     1 <1>   0.0800 
 60 H        0.1790     8.6550     0.6390 H     1 <1>   0.0800 
 61 H        0.2000     8.7390    -2.0310 H     1 <1>   0.0800 
 62 H       -1.2690     9.2180    -2.8270 H     1 <1>   0.0800 
 63 H       -4.3370    -8.3730    -2.6600 H     1 <1>   0.1500 
 64 H       -7.6770    -6.9600    -0.4370 H     1 <1>   0.1500 
 65 H       -0.9560    10.3800    -0.6530 H     1 <1>   0.0800 
 66 H       -2.4220     9.4510    -0.6930 H     1 <1>   0.0800 
 67 H       -6.7050    -8.5940    -1.9800 H     1 <1>   0.1500 
@<TRIPOS>BOND
  1   1   2  2   
  2   2   3  am  
  3   2   4  1   
  4   3   5  1   
  5   3   6  1   
  6   4   7  1   
  7   4   8  1   
  8   4  32  1   
  9   5   9  1   
 10   5  33  1   
 11   5  34  1   
 12   6  10  1   
 13   6  35  1   
 14   6  36  1   
 15   7  11  1   
 16   7  37  1   
 17   7  38  1   
 18   8  12  1   
 19   8  39  1   
 20   8  40  1   
 21   9  10  1   
 22   9  13  1   
 23   9  41  1   
 24  10  14  1   
 25  10  42  1   
 26  11  15  1   
 27  11  43  1   
 28  11  44  1   
 29  12  15  1   
 30  12  45  1   
 31  12  46  1   
 32  13  47  1   
 33  14  16  1   
 34  14  48  1   
 35  14  49  1   
 36  15  17  1   
 37  15  50  1   
 38  16  18  ar  
 39  16  19  ar  
 40  17  20  1   
 41  17  21  1   
 42  17  51  1   
 43  18  22  ar  
 44  18  23  ar  
 45  19  24  ar  
 46  19  52  1   
 47  20  25  1   
 48  20  53  1   
 49  20  54  1   
 50  21  26  1   
 51  21  55  1   
 52  21  56  1   
 53  22  27  ar  
 54  22  28  ar  
 55  23  29  ar  
 56  23  57  1   
 57  24  27  ar  
 58  24  58  1   
 59  25  30  1   
 60  25  59  1   
 61  25  60  1   
 62  26  30  1   
 63  26  61  1   
 64  26  62  1   
 65  28  31  ar  
 66  28  63  1   
 67  29  31  ar  
 68  29  64  1   
 69  30  65  1   
 70  30  66  1   
 71  31  67  1   
@<TRIPOS>SUBSTRUCTURE
  1 ****   3 GROUP 4 **** **** 0

# MOE 2024.06 (io_trps.svl 2023.06)
