@<TRIPOS>MOLECULE
NONAME
55 57 1 0 0 
SMALL
USER_CHARGES


@<TRIPOS>ATOM
  1 O       -0.7220     0.9860     2.9080 O.2   1 <1>  -0.5700 
  2 C       -1.2890     1.7850     2.1970 C.2   1 <1>   0.5690 
  3 N       -2.6570     1.7310     2.0040 N.am  1 <1>  -0.6600 
  4 C       -0.4160     2.8720     1.5700 C.3   1 <1>   0.1810 
  5 C       -3.3940     2.7430     1.1850 C.3   1 <1>   0.2200 
  6 C       -3.4370     0.6070     2.6090 C.3   1 <1>   0.0600 
  7 O       -0.5310     2.8860     0.1540 O.3   1 <1>  -0.3620 
  8 C       -4.7150     3.2200     1.7820 C.3   1 <1>  -0.1600 
  9 C       -3.7900     2.2110    -0.1860 C.3   1 <1>  -0.1600 
 10 C       -0.0070     3.8950    -0.5840 C.ar  1 <1>   0.0820 
 11 C       -5.4630     3.8380     0.5900 C.3   1 <1>  -0.0800 
 12 C       -4.8720     3.1850    -0.6720 C.3   1 <1>  -0.0800 
 13 C        0.7840     4.9130    -0.0550 C.ar  1 <1>  -0.1500 
 14 C       -0.2980     3.8900    -1.9380 C.ar  1 <1>  -0.1500 
 15 C       -6.9670     3.5350     0.5750 C.3   1 <1>  -0.1600 
 16 C       -6.0360     2.5040    -1.4030 C.3   1 <1>  -0.1600 
 17 C        1.2670     5.9200    -0.8760 C.ar  1 <1>  -0.1440 
 18 C        0.1830     4.8940    -2.7590 C.ar  1 <1>  -0.1500 
 19 C       -7.1010     2.3090    -0.3280 C.3   1 <1>   0.4230 
 20 C        0.9610     5.9070    -2.2270 C.ar  1 <1>  -0.1500 
 21 C        2.1260     7.0340    -0.3050 C.3   1 <1>  -0.0970 
 22 N       -8.4700     2.0950    -0.8940 N.4   1 <1>  -0.9590 
 23 C       -9.0310     3.2470    -1.6750 C.3   1 <1>   0.2630 
 24 C       -9.4280     1.6910     0.1810 C.3   1 <1>   0.2630 
 25 H        0.6140     2.6920     1.8160 H     1 <1>   0.0800 
 26 H       -0.7190     3.8280     1.9520 H     1 <1>   0.0800 
 27 H       -2.7840     3.6170     1.0360 H     1 <1>   0.0800 
 28 H       -4.1880     0.2550     1.9270 H     1 <1>   0.0800 
 29 H       -3.9070     0.9430     3.5170 H     1 <1>   0.0800 
 30 H       -2.7910    -0.2210     2.8470 H     1 <1>   0.0800 
 31 H       -5.2760     2.3940     2.1760 H     1 <1>   0.0800 
 32 H       -4.5490     3.9430     2.5610 H     1 <1>   0.0800 
 33 H       -2.9470     2.1960    -0.8540 H     1 <1>   0.0800 
 34 H       -4.1840     1.2160    -0.0930 H     1 <1>   0.0800 
 35 H       -5.2870     4.9020     0.5720 H     1 <1>   0.0800 
 36 H       -4.4170     3.9370    -1.2980 H     1 <1>   0.0800 
 37 H        1.0350     4.9340     0.9870 H     1 <1>   0.1500 
 38 H       -0.8980     3.0970    -2.3440 H     1 <1>   0.1500 
 39 H       -7.4670     4.3860     0.1520 H     1 <1>   0.0800 
 40 H       -7.3480     3.3550     1.5640 H     1 <1>   0.0800 
 41 H       -5.7380     1.5710    -1.8490 H     1 <1>   0.0800 
 42 H       -6.3770     3.1720    -2.1720 H     1 <1>   0.0800 
 43 H       -0.0460     4.8870    -3.8100 H     1 <1>   0.1500 
 44 H       -6.8170     1.4440     0.2510 H     1 <1>   0.0800 
 45 H        1.3290     6.6860    -2.8720 H     1 <1>   0.1500 
 46 H        2.8970     7.3040    -1.0040 H     1 <1>   0.0800 
 47 H        2.5950     6.7240     0.6110 H     1 <1>   0.0800 
 48 H        1.5170     7.8980    -0.1090 H     1 <1>   0.0800 
 49 H       -8.3830     1.3000    -1.5450 H     1 <1>   0.4500 
 50 H       -9.1660     4.1060    -1.0380 H     1 <1>   0.0800 
 51 H       -9.9890     2.9810    -2.0930 H     1 <1>   0.0800 
 52 H       -8.3730     3.5170    -2.4840 H     1 <1>   0.0800 
 53 H       -9.5590     2.4950     0.8870 H     1 <1>   0.0800 
 54 H       -9.0590     0.8260     0.7080 H     1 <1>   0.0800 
 55 H      -10.3890     1.4480    -0.2450 H     1 <1>   0.0800 
@<TRIPOS>BOND
  1   1   2  2   
  2   2   3  am  
  3   2   4  1   
  4   3   5  1   
  5   3   6  1   
  6   4   7  1   
  7   4  25  1   
  8   4  26  1   
  9   5   8  1   
 10   5   9  1   
 11   5  27  1   
 12   6  28  1   
 13   6  29  1   
 14   6  30  1   
 15   7  10  1   
 16   8  11  1   
 17   8  31  1   
 18   8  32  1   
 19   9  12  1   
 20   9  33  1   
 21   9  34  1   
 22  10  13  ar  
 23  10  14  ar  
 24  11  12  1   
 25  11  15  1   
 26  11  35  1   
 27  12  16  1   
 28  12  36  1   
 29  13  17  ar  
 30  13  37  1   
 31  14  18  ar  
 32  14  38  1   
 33  15  19  1   
 34  15  39  1   
 35  15  40  1   
 36  16  19  1   
 37  16  41  1   
 38  16  42  1   
 39  17  20  ar  
 40  17  21  1   
 41  18  20  ar  
 42  18  43  1   
 43  19  22  1   
 44  19  44  1   
 45  20  45  1   
 46  21  46  1   
 47  21  47  1   
 48  21  48  1   
 49  22  23  1   
 50  22  24  1   
 51  22  49  1   
 52  23  50  1   
 53  23  51  1   
 54  23  52  1   
 55  24  53  1   
 56  24  54  1   
 57  24  55  1   
@<TRIPOS>SUBSTRUCTURE
  1 ****   5 GROUP 4 **** **** 0

# MOE 2024.06 (io_trps.svl 2023.06)
