@<TRIPOS>MOLECULE
NONAME
53 55 1 0 0 
SMALL
USER_CHARGES


@<TRIPOS>ATOM
  1 S        0.4090    -0.3020     0.8580 S.3   1 <1>  -0.0800 
  2 C        0.6570    -1.2100    -0.6410 C.2   1 <1>  -0.0130 
  3 C       -1.3280    -0.2520     0.6350 C.2   1 <1>  -0.1400 
  4 C        1.9990    -1.5690    -1.0340 C.ar  1 <1>   0.3630 
  5 C       -0.5570    -1.4220    -1.2150 C.2   1 <1>  -0.1500 
  6 C       -1.6690    -0.8850    -0.5010 C.2   1 <1>  -0.1500 
  7 C       -2.1450     0.4540     1.6960 C.3   1 <1>  -0.0600 
  8 N        2.9540    -1.5770    -0.1060 N.ar  1 <1>  -0.6200 
  9 C        2.2650    -1.8900    -2.3630 C.ar  1 <1>  -0.1500 
 10 C        4.1770    -1.9250    -0.4790 C.ar  1 <1>   0.4100 
 11 C        3.5440    -2.1850    -2.7650 C.ar  1 <1>  -0.1500 
 12 N        5.0880    -2.0230     0.5590 N.pl3 1 <1>  -0.8380 
 13 C        4.5440    -2.1640    -1.8080 C.ar  1 <1>  -0.1790 
 14 C        5.1780    -0.9830     1.6200 C.3   1 <1>   0.2090 
 15 C        5.9600    -3.2270     0.6890 C.3   1 <1>   0.1290 
 16 C        5.9200    -2.3330    -2.1750 C.2   1 <1>   0.9790 
 17 C        6.3330     0.0030     1.3460 C.3   1 <1>   0.3430 
 18 O        6.7480    -1.4320    -1.9220 O.co2 1 <1>  -0.9000 
 19 O        6.3130    -3.3550    -2.7540 O.co2 1 <1>  -0.9000 
 20 N        6.3890     0.5200    -0.0610 N.4   1 <1>  -0.9590 
 21 C        7.6130     1.3010    -0.3520 C.3   1 <1>   0.4230 
 22 C        5.1230     1.1800    -0.4930 C.3   1 <1>   0.2630 
 23 C        7.6680     1.8030    -1.7940 C.3   1 <1>  -0.1600 
 24 C        8.8810     0.4570    -0.1780 C.3   1 <1>  -0.1600 
 25 C        9.1560     1.9650    -2.0830 C.3   1 <1>  -0.1600 
 26 C        9.8050     0.7900    -1.3570 C.3   1 <1>  -0.1600 
 27 H       -0.7140    -1.9540    -2.1350 H     1 <1>   0.1500 
 28 H       -2.6730    -1.0000    -0.8700 H     1 <1>   0.1500 
 29 H       -1.8410     1.4830     1.7670 H     1 <1>   0.0800 
 30 H       -1.9950    -0.0210     2.6480 H     1 <1>   0.0800 
 31 H       -3.1900     0.4140     1.4470 H     1 <1>   0.0800 
 32 H        1.4690    -1.8930    -3.0830 H     1 <1>   0.1500 
 33 H        3.7850    -2.4200    -3.7890 H     1 <1>   0.1500 
 34 H        5.3260    -1.4580     2.5730 H     1 <1>   0.0800 
 35 H        4.2540    -0.4350     1.6830 H     1 <1>   0.0800 
 36 H        5.6280    -4.0000     0.0150 H     1 <1>   0.0800 
 37 H        5.9180    -3.6110     1.6930 H     1 <1>   0.0800 
 38 H        6.9760    -2.9740     0.4390 H     1 <1>   0.0800 
 39 H        7.2520    -0.5140     1.5610 H     1 <1>   0.0800 
 40 H        6.2550     0.8300     2.0310 H     1 <1>   0.0800 
 41 H        6.4780    -0.3390    -0.6760 H     1 <1>   0.4500 
 42 H        7.6710     2.1530     0.3050 H     1 <1>   0.0800 
 43 H        4.9920     2.1180     0.0190 H     1 <1>   0.0800 
 44 H        4.2790     0.5450    -0.2820 H     1 <1>   0.0800 
 45 H        5.1450     1.3560    -1.5560 H     1 <1>   0.0800 
 46 H        7.1400     2.7300    -1.9240 H     1 <1>   0.0800 
 47 H        7.2720     1.0540    -2.4610 H     1 <1>   0.0800 
 48 H        8.6580    -0.5960    -0.2080 H     1 <1>   0.0800 
 49 H        9.3600     0.7000     0.7520 H     1 <1>   0.0800 
 50 H        9.5130     2.8920    -1.6670 H     1 <1>   0.0800 
 51 H        9.3660     1.9470    -3.1390 H     1 <1>   0.0800 
 52 H        9.8360    -0.0580    -2.0230 H     1 <1>   0.0800 
 53 H       10.8080     1.0190    -1.0400 H     1 <1>   0.0800 
@<TRIPOS>BOND
  1   1   2  1   
  2   1   3  1   
  3   2   4  1   
  4   2   5  2   
  5   3   6  2   
  6   3   7  1   
  7   4   8  ar  
  8   4   9  ar  
  9   5   6  1   
 10   5  27  1   
 11   6  28  1   
 12   7  29  1   
 13   7  30  1   
 14   7  31  1   
 15   8  10  ar  
 16   9  11  ar  
 17   9  32  1   
 18  10  12  1   
 19  10  13  ar  
 20  11  13  ar  
 21  11  33  1   
 22  12  14  1   
 23  12  15  1   
 24  13  16  1   
 25  14  17  1   
 26  14  34  1   
 27  14  35  1   
 28  15  36  1   
 29  15  37  1   
 30  15  38  1   
 31  16  18  ar  
 32  16  19  ar  
 33  17  20  1   
 34  17  39  1   
 35  17  40  1   
 36  20  21  1   
 37  20  22  1   
 38  20  41  1   
 39  21  23  1   
 40  21  24  1   
 41  21  42  1   
 42  22  43  1   
 43  22  44  1   
 44  22  45  1   
 45  23  25  1   
 46  23  46  1   
 47  23  47  1   
 48  24  26  1   
 49  24  48  1   
 50  24  49  1   
 51  25  26  1   
 52  25  50  1   
 53  25  51  1   
 54  26  52  1   
 55  26  53  1   
@<TRIPOS>SUBSTRUCTURE
  1 ****  10 GROUP 4 **** **** 0

# MOE 2024.06 (io_trps.svl 2023.06)
