@<TRIPOS>MOLECULE
NONAME
51 55 1 0 0 
SMALL
USER_CHARGES


@<TRIPOS>ATOM
  1 O        0.8130    -0.7370    -1.7980 O.3   1 <1>  -0.5600 
  2 C        1.6780    -0.8580    -0.6920 C.3   1 <1>   0.4240 
  3 C       -0.5020    -1.1720    -1.6400 C.3   1 <1>   0.1200 
  4 C        1.4350    -2.1710     0.0850 C.ar  1 <1>  -0.1440 
  5 C        3.0940    -0.8400    -1.2820 C.3   1 <1>  -0.1600 
  6 C        1.4700     0.3680     0.2110 C.3   1 <1>  -0.1600 
  7 C       -0.5000    -2.6830    -1.4300 C.3   1 <1>  -0.0160 
  8 C        0.4040    -3.0360    -0.2660 C.ar  1 <1>  -0.1440 
  9 C        2.2460    -2.5090     1.1640 C.ar  1 <1>  -0.1500 
 10 C        3.4030     0.4820    -1.9860 C.3   1 <1>   0.2090 
 11 C        1.7720     1.6700    -0.5290 C.3   1 <1>   0.2090 
 12 C        0.1970    -4.2130     0.4370 C.ar  1 <1>  -0.1500 
 13 C        2.0380    -3.6810     1.8680 C.ar  1 <1>  -0.1500 
 14 N        3.1630     1.6250    -1.0590 N.pl3 1 <1>  -0.8220 
 15 C        1.0160    -4.5430     1.5110 C.ar  1 <1>   0.0820 
 16 C        4.2240     2.0890    -0.2550 C.2   1 <1>   0.2700 
 17 O        0.8800    -5.6720     2.2500 O.3   1 <1>  -0.3630 
 18 N        5.2550     1.3800     0.0460 N.2   1 <1>  -0.3380 
 19 N        4.3360     3.3010     0.3300 N.pl3 1 <1>   0.5930 
 20 C       -0.1160    -6.6260     1.9560 C.3   1 <1>   0.0400 
 21 N        6.0060     2.1370     0.8390 N.2   1 <1>   0.0000 
 22 N        5.4730     3.2840     1.0250 N.2   1 <1>  -0.4180 
 23 C        3.4810     4.4400     0.2530 C.ar  1 <1>  -0.0230 
 24 C        2.9140     4.8310    -0.9580 C.ar  1 <1>  -0.1500 
 25 C        3.1910     5.1870     1.3930 C.ar  1 <1>  -0.1500 
 26 C        2.0750     5.9280    -1.0270 C.ar  1 <1>  -0.1500 
 27 C        2.3520     6.2850     1.3250 C.ar  1 <1>  -0.1500 
 28 C        1.7920     6.6560     0.1160 C.ar  1 <1>  -0.1500 
 29 H       -1.0440    -0.9170    -2.5330 H     1 <1>   0.0800 
 30 H       -0.9450    -0.6650    -0.8010 H     1 <1>   0.0800 
 31 H        3.1980    -1.6550    -1.9730 H     1 <1>   0.0800 
 32 H        3.8220    -0.9820    -0.5060 H     1 <1>   0.0800 
 33 H        2.1270     0.3050     1.0590 H     1 <1>   0.0800 
 34 H        0.4670     0.3820     0.5900 H     1 <1>   0.0800 
 35 H       -0.1480    -3.1680    -2.3220 H     1 <1>   0.0800 
 36 H       -1.5040    -3.0140    -1.2360 H     1 <1>   0.0800 
 37 H        3.0500    -1.8630     1.4690 H     1 <1>   0.1500 
 38 H        2.7720     0.5920    -2.8520 H     1 <1>   0.0800 
 39 H        4.4270     0.4870    -2.3200 H     1 <1>   0.0800 
 40 H        1.6480     2.5010     0.1430 H     1 <1>   0.0800 
 41 H        1.0840     1.7990    -1.3490 H     1 <1>   0.0800 
 42 H       -0.6030    -4.8620     0.1380 H     1 <1>   0.1500 
 43 H        2.6700    -3.9370     2.6990 H     1 <1>   0.1500 
 44 H       -0.0250    -7.4310     2.6630 H     1 <1>   0.0800 
 45 H        0.0390    -6.9950     0.9580 H     1 <1>   0.0800 
 46 H       -1.0820    -6.1620     2.0520 H     1 <1>   0.0800 
 47 H        3.1280     4.2720    -1.8550 H     1 <1>   0.1500 
 48 H        3.6260     4.9100     2.3390 H     1 <1>   0.1500 
 49 H        1.6430     6.2180    -1.9690 H     1 <1>   0.1500 
 50 H        2.1360     6.8540     2.2140 H     1 <1>   0.1500 
 51 H        1.1400     7.5100     0.0630 H     1 <1>   0.1500 
@<TRIPOS>BOND
  1   1   2  1   
  2   1   3  1   
  3   2   4  1   
  4   2   5  1   
  5   2   6  1   
  6   3   7  1   
  7   3  29  1   
  8   3  30  1   
  9   4   8  ar  
 10   4   9  ar  
 11   5  10  1   
 12   5  31  1   
 13   5  32  1   
 14   6  11  1   
 15   6  33  1   
 16   6  34  1   
 17   7   8  1   
 18   7  35  1   
 19   7  36  1   
 20   8  12  ar  
 21   9  13  ar  
 22   9  37  1   
 23  10  14  1   
 24  10  38  1   
 25  10  39  1   
 26  11  14  1   
 27  11  40  1   
 28  11  41  1   
 29  12  15  ar  
 30  12  42  1   
 31  13  15  ar  
 32  13  43  1   
 33  14  16  1   
 34  15  17  1   
 35  16  18  2   
 36  16  19  1   
 37  17  20  1   
 38  18  21  1   
 39  19  22  1   
 40  19  23  1   
 41  20  44  1   
 42  20  45  1   
 43  20  46  1   
 44  21  22  2   
 45  23  24  ar  
 46  23  25  ar  
 47  24  26  ar  
 48  24  47  1   
 49  25  27  ar  
 50  25  48  1   
 51  26  28  ar  
 52  26  49  1   
 53  27  28  ar  
 54  27  50  1   
 55  28  51  1   
@<TRIPOS>SUBSTRUCTURE
  1 ****   6 GROUP 4 **** **** 0

# MOE 2024.06 (io_trps.svl 2023.06)
