@<TRIPOS>MOLECULE
NONAME
42 44 1 0 0 
SMALL
USER_CHARGES


@<TRIPOS>ATOM
  1 F        3.7300     5.9330    -2.2850 F     1 <1>  -0.1900 
  2 C        4.6870     5.0910    -1.9910 C.ar  1 <1>   0.1900 
  3 C        4.8070     4.6460    -0.6970 C.ar  1 <1>  -0.1500 
  4 C        5.5470     4.6940    -3.0200 C.ar  1 <1>  -0.1500 
  5 C        5.8450     3.7600    -0.4190 C.ar  1 <1>   0.2270 
  6 C        6.5690     3.8140    -2.7410 C.ar  1 <1>  -0.1500 
  7 N        6.1970     3.1850     0.7650 N.2   1 <1>  -0.5650 
  8 C        6.7000     3.3480    -1.4280 C.ar  1 <1>  -0.1520 
  9 C        7.1980     2.4280     0.4680 C.2   1 <1>   0.0060 
 10 N        7.5670     2.4880    -0.8360 N.pl3 1 <1>   0.0330 
 11 C        7.9390     1.5490     1.4590 C.3   1 <1>   0.3000 
 12 O        9.2360     2.0340     1.6360 O.3   1 <1>  -0.5600 
 13 C        9.3520     3.1970     2.4300 C.3   1 <1>   0.1810 
 14 C        9.6860     4.4450     1.6110 C.2   1 <1>   0.5690 
 15 O       10.8200     4.8640     1.6450 O.2   1 <1>  -0.5700 
 16 N        8.6920     5.0550     0.9030 N.am  1 <1>  -0.4930 
 17 C        8.7680     6.2140     0.0900 C.2   1 <1>   0.0630 
 18 C        9.8870     6.9430    -0.3120 C.2   1 <1>   0.1390 
 19 C        7.7280     6.8590    -0.4760 C.2   1 <1>  -0.3020 
 20 N        9.5750     7.9550    -1.0680 N.2   1 <1>  -0.7070 
 21 N        8.2320     7.9060    -1.1690 N.pl3 1 <1>   0.3140 
 22 C        7.4740     8.9210    -1.9500 C.3   1 <1>   0.1760 
 23 C        6.4650     9.6570    -1.0570 C.3   1 <1>  -0.2400 
 24 C        6.7720     8.2720    -3.1500 C.3   1 <1>  -0.2400 
 25 H        4.1390     4.9570     0.0820 H     1 <1>   0.1500 
 26 H        5.3970     5.0830    -4.0110 H     1 <1>   0.1500 
 27 H        7.2520     3.4870    -3.5070 H     1 <1>   0.1500 
 28 H        8.3710     2.0250    -1.2700 H     1 <1>   0.2700 
 29 H        8.0140     0.5460     1.0770 H     1 <1>   0.0800 
 30 H        7.4330     1.5170     2.4090 H     1 <1>   0.0800 
 31 H       10.1540     3.0250     3.1250 H     1 <1>   0.0800 
 32 H        8.4480     3.3590     2.9910 H     1 <1>   0.0800 
 33 H        7.7740     4.5910     0.9070 H     1 <1>   0.3700 
 34 H       10.8980     6.7010    -0.0320 H     1 <1>   0.1500 
 35 H        6.6800     6.6430    -0.4260 H     1 <1>   0.1500 
 36 H        8.1910     9.6340    -2.3180 H     1 <1>   0.0800 
 37 H        5.7150     8.9800    -0.6880 H     1 <1>   0.0800 
 38 H        5.9770    10.4340    -1.6170 H     1 <1>   0.0800 
 39 H        6.9760    10.1090    -0.2250 H     1 <1>   0.0800 
 40 H        6.0160     7.5830    -2.8200 H     1 <1>   0.0800 
 41 H        7.4900     7.7490    -3.7570 H     1 <1>   0.0800 
 42 H        6.3030     9.0270    -3.7540 H     1 <1>   0.0800 
@<TRIPOS>BOND
  1   1   2  1   
  2   2   3  ar  
  3   2   4  ar  
  4   3   5  ar  
  5   3  25  1   
  6   4   6  ar  
  7   4  26  1   
  8   5   7  1   
  9   5   8  ar  
 10   6   8  ar  
 11   6  27  1   
 12   7   9  2   
 13   8  10  1   
 14   9  10  1   
 15   9  11  1   
 16  10  28  1   
 17  11  12  1   
 18  11  29  1   
 19  11  30  1   
 20  12  13  1   
 21  13  14  1   
 22  13  31  1   
 23  13  32  1   
 24  14  15  2   
 25  14  16  am  
 26  16  17  1   
 27  16  33  1   
 28  17  18  1   
 29  17  19  2   
 30  18  20  2   
 31  18  34  1   
 32  19  21  1   
 33  19  35  1   
 34  20  21  1   
 35  21  22  1   
 36  22  23  1   
 37  22  24  1   
 38  22  36  1   
 39  23  37  1   
 40  23  38  1   
 41  23  39  1   
 42  24  40  1   
 43  24  41  1   
 44  24  42  1   
@<TRIPOS>SUBSTRUCTURE
  1 ****  19 GROUP 4 **** **** 0

# MOE 2024.06 (io_trps.svl 2023.06)
