@<TRIPOS>MOLECULE
NONAME
62 65 1 0 0 
SMALL
USER_CHARGES


@<TRIPOS>ATOM
  1 O        1.4130    -1.7390     0.2250 O.3   1 <1>  -0.5600 
  2 C        0.2630    -2.4630    -0.1220 C.3   1 <1>   0.2800 
  3 C        1.3310    -0.6880     1.1660 C.3   1 <1>   0.1200 
  4 C       -0.8690    -1.4950    -0.5830 C.3   1 <1>  -0.1600 
  5 C       -0.1280    -3.3350     1.0890 C.3   1 <1>  -0.1600 
  6 C        0.6770    -3.3960    -1.2890 C.3   1 <1>  -0.1600 
  7 C        0.0760     0.1940     1.0280 C.3   1 <1>   0.2000 
  8 C       -0.5960     0.0010    -0.3480 C.3   1 <1>   0.2800 
  9 C        1.0280    -4.2390     1.5590 C.3   1 <1>   0.2090 
 10 C        1.0830    -4.8200    -0.8780 C.3   1 <1>   0.2090 
 11 O       -0.8100    -0.1260     2.0610 O.3   1 <1>  -0.6800 
 12 O        0.2730     0.4450    -1.3290 O.3   1 <1>  -0.6800 
 13 C       -1.8670     0.8400    -0.5180 C.3   1 <1>  -0.2400 
 14 N        1.8240    -4.8000     0.4130 N.pl3 1 <1>  -0.8380 
 15 C        3.1830    -4.7100     0.3900 C.ar  1 <1>   0.4610 
 16 N        3.8730    -5.7890     0.0030 N.ar  1 <1>  -0.1790 
 17 C        3.9200    -3.5970     0.6970 C.ar  1 <1>  -0.1500 
 18 C        5.2150    -5.7640    -0.1100 C.ar  1 <1>   0.7710 
 19 C        5.2940    -3.6020     0.5130 C.ar  1 <1>   0.4100 
 20 N        5.9390    -4.6980     0.1150 N.ar  1 <1>  -0.6200 
 21 N        5.8680    -6.8730    -0.4750 N.pl3 1 <1>  -0.9000 
 22 N        6.0380    -2.4710     0.7020 N.pl3 1 <1>  -0.8380 
 23 C        7.4980    -2.5110     1.0520 C.3   1 <1>   0.2090 
 24 C        5.5310    -1.1010     0.3520 C.3   1 <1>   0.2090 
 25 C        8.3480    -1.8520    -0.0550 C.3   1 <1>   0.3430 
 26 C        6.4160    -0.4340    -0.7270 C.3   1 <1>   0.3430 
 27 N        7.8860    -0.4510    -0.3820 N.4   1 <1>  -0.9590 
 28 C        8.7000     0.1360    -1.4890 C.3   1 <1>   0.2630 
 29 H        1.4010    -1.1000     2.1570 H     1 <1>   0.0800 
 30 H        2.1930    -0.0700     0.9970 H     1 <1>   0.0800 
 31 H       -1.1020    -1.6300    -1.6230 H     1 <1>   0.0800 
 32 H       -1.7670    -1.7640    -0.0580 H     1 <1>   0.0800 
 33 H       -0.4530    -2.7330     1.9150 H     1 <1>   0.0800 
 34 H       -0.9640    -3.9560     0.8200 H     1 <1>   0.0800 
 35 H       -0.1400    -3.5190    -1.9750 H     1 <1>   0.0800 
 36 H        1.4740    -2.9340    -1.8440 H     1 <1>   0.0800 
 37 H        0.3410     1.2280     1.1680 H     1 <1>   0.0800 
 38 H        0.6270    -5.0500     2.1430 H     1 <1>   0.0800 
 39 H        1.6740    -3.6680     2.2030 H     1 <1>   0.0800 
 40 H        1.6800    -5.2600    -1.6590 H     1 <1>   0.0800 
 41 H        0.2000    -5.4270    -0.7600 H     1 <1>   0.0800 
 42 H       -1.2600    -0.9690     1.8720 H     1 <1>   0.4000 
 43 H       -0.1840     0.4590    -2.1900 H     1 <1>   0.4000 
 44 H       -2.6030     0.5600     0.2130 H     1 <1>   0.0800 
 45 H       -2.2950     0.6990    -1.4940 H     1 <1>   0.0800 
 46 H       -1.6430     1.8830    -0.3750 H     1 <1>   0.0800 
 47 H        3.3580    -6.6410    -0.1610 H     1 <1>   0.4570 
 48 H        3.4360    -2.7190     1.0650 H     1 <1>   0.1500 
 49 H        5.4790    -7.7970    -0.6690 H     1 <1>   0.4000 
 50 H        6.8890    -6.8310    -0.5450 H     1 <1>   0.4000 
 51 H        7.6520    -1.9920     1.9820 H     1 <1>   0.0800 
 52 H        7.8300    -3.5250     1.1980 H     1 <1>   0.0800 
 53 H        4.5250    -1.1520    -0.0260 H     1 <1>   0.0800 
 54 H        5.5160    -0.4890     1.2380 H     1 <1>   0.0800 
 55 H        8.2810    -2.4690    -0.9360 H     1 <1>   0.0800 
 56 H        9.3780    -1.8350     0.2580 H     1 <1>   0.0800 
 57 H        6.0850     0.5810    -0.8720 H     1 <1>   0.0800 
 58 H        6.2620    -0.9620    -1.6540 H     1 <1>   0.0800 
 59 H        8.0160     0.1240     0.4640 H     1 <1>   0.4500 
 60 H        8.5840    -0.4460    -2.3890 H     1 <1>   0.0800 
 61 H        9.7440     0.1500    -1.2210 H     1 <1>   0.0800 
 62 H        8.3850     1.1470    -1.6910 H     1 <1>   0.0800 
@<TRIPOS>BOND
  1   1   2  1   
  2   1   3  1   
  3   2   4  1   
  4   2   5  1   
  5   2   6  1   
  6   3   7  1   
  7   3  29  1   
  8   3  30  1   
  9   4   8  1   
 10   4  31  1   
 11   4  32  1   
 12   5   9  1   
 13   5  33  1   
 14   5  34  1   
 15   6  10  1   
 16   6  35  1   
 17   6  36  1   
 18   7   8  1   
 19   7  11  1   
 20   7  37  1   
 21   8  12  1   
 22   8  13  1   
 23   9  14  1   
 24   9  38  1   
 25   9  39  1   
 26  10  14  1   
 27  10  40  1   
 28  10  41  1   
 29  11  42  1   
 30  12  43  1   
 31  13  44  1   
 32  13  45  1   
 33  13  46  1   
 34  14  15  1   
 35  15  16  ar  
 36  15  17  ar  
 37  16  18  ar  
 38  16  47  1   
 39  17  19  ar  
 40  17  48  1   
 41  18  20  ar  
 42  18  21  1   
 43  19  20  ar  
 44  19  22  1   
 45  21  49  1   
 46  21  50  1   
 47  22  23  1   
 48  22  24  1   
 49  23  25  1   
 50  23  51  1   
 51  23  52  1   
 52  24  26  1   
 53  24  53  1   
 54  24  54  1   
 55  25  27  1   
 56  25  55  1   
 57  25  56  1   
 58  26  27  1   
 59  26  57  1   
 60  26  58  1   
 61  27  28  1   
 62  27  59  1   
 63  28  60  1   
 64  28  61  1   
 65  28  62  1   
@<TRIPOS>SUBSTRUCTURE
  1 ****  17 GROUP 4 **** **** 0

# MOE 2024.06 (io_trps.svl 2023.06)
