@<TRIPOS>MOLECULE
NONAME
54 57 1 0 0 
SMALL
USER_CHARGES


@<TRIPOS>ATOM
  1 N        0.1360     0.3310     0.6180 N.ar  1 <1>  -0.6200 
  2 C       -1.0370     0.9610     0.4980 C.ar  1 <1>   0.7200 
  3 C        1.0740     0.7630    -0.1850 C.ar  1 <1>   0.1660 
  4 N       -1.3120     1.9650    -0.3410 N.ar  1 <1>  -0.6200 
  5 N       -2.0550     0.5380     1.3270 N.pl3 1 <1>  -0.8380 
  6 C        0.8990     1.7770    -1.0750 C.ar  1 <1>  -0.1430 
  7 C        2.4800     0.2170    -0.2200 C.3   1 <1>   0.1430 
  8 C       -0.3390     2.3650    -1.1260 C.ar  1 <1>   0.1600 
  9 C       -3.2820     1.3580     1.5340 C.3   1 <1>   0.1290 
 10 C       -2.1180    -0.8450     1.8750 C.3   1 <1>   0.1290 
 11 C        2.1600     2.0620    -1.8500 C.3   1 <1>  -0.0160 
 12 C        2.9920     0.1260     1.2280 C.3   1 <1>   0.3430 
 13 C        2.5000    -1.1750    -0.8870 C.3   1 <1>  -0.1600 
 14 C        3.2330     1.2820    -1.0640 C.3   1 <1>  -0.1600 
 15 N        4.3290    -0.5410     1.2950 N.4   1 <1>  -0.9590 
 16 C        3.8660    -1.8690    -0.7310 C.3   1 <1>  -0.1600 
 17 C        4.3320    -1.9150     0.7270 C.3   1 <1>   0.3430 
 18 C        4.9500    -0.4900     2.6440 C.3   1 <1>   0.5240 
 19 C        6.4490    -0.3230     2.4240 C.2   1 <1>   0.1080 
 20 N        6.9410     0.1650     1.3180 N.2   1 <1>  -0.7070 
 21 C        7.4430    -0.6640     3.3330 C.2   1 <1>  -0.1500 
 22 N        8.2790     0.1520     1.4990 N.pl3 1 <1>   0.3140 
 23 C        8.5970    -0.3470     2.7100 C.2   1 <1>  -0.3020 
 24 C        9.2270     0.6360     0.4720 C.3   1 <1>   0.0960 
 25 C        9.6230    -0.4920    -0.4880 C.3   1 <1>  -0.2400 
 26 H       -0.5350     3.1710    -1.8120 H     1 <1>   0.1500 
 27 H       -3.0470     2.4070     1.4760 H     1 <1>   0.0800 
 28 H       -3.7020     1.1570     2.5040 H     1 <1>   0.0800 
 29 H       -4.0070     1.1200     0.7750 H     1 <1>   0.0800 
 30 H       -1.4250    -1.4910     1.3650 H     1 <1>   0.0800 
 31 H       -3.1080    -1.2450     1.7460 H     1 <1>   0.0800 
 32 H       -1.8760    -0.8270     2.9230 H     1 <1>   0.0800 
 33 H        2.3790     3.1150    -1.8850 H     1 <1>   0.0800 
 34 H        2.0630     1.6760    -2.8510 H     1 <1>   0.0800 
 35 H        2.2770    -0.4360     1.8060 H     1 <1>   0.0800 
 36 H        3.0460     1.1200     1.6420 H     1 <1>   0.0800 
 37 H        2.2440    -1.0890    -1.9290 H     1 <1>   0.0800 
 38 H        1.7450    -1.7900    -0.4260 H     1 <1>   0.0800 
 39 H        3.9630     0.8550    -1.7280 H     1 <1>   0.0800 
 40 H        3.7340     1.9750    -0.4100 H     1 <1>   0.0800 
 41 H        5.0240     0.0000     0.7430 H     1 <1>   0.4500 
 42 H        4.6120    -1.3680    -1.3220 H     1 <1>   0.0800 
 43 H        3.7940    -2.8760    -1.1030 H     1 <1>   0.0800 
 44 H        3.6690    -2.5470     1.2960 H     1 <1>   0.0800 
 45 H        5.3270    -2.3290     0.7730 H     1 <1>   0.0800 
 46 H        4.7400    -1.3860     3.2020 H     1 <1>   0.0800 
 47 H        4.5870     0.3640     3.1900 H     1 <1>   0.0800 
 48 H        7.3150    -1.0860     4.3160 H     1 <1>   0.1500 
 49 H        9.6110    -0.4480     3.0540 H     1 <1>   0.1500 
 50 H       10.0980     1.0260     0.9660 H     1 <1>   0.0800 
 51 H        8.7560     1.4350    -0.0720 H     1 <1>   0.0800 
 52 H       10.1050    -1.2900     0.0490 H     1 <1>   0.0800 
 53 H       10.3080    -0.1170    -1.2270 H     1 <1>   0.0800 
 54 H        8.7530    -0.8750    -0.9920 H     1 <1>   0.0800 
@<TRIPOS>BOND
  1   1   2  ar  
  2   1   3  ar  
  3   2   4  ar  
  4   2   5  1   
  5   3   6  ar  
  6   3   7  1   
  7   4   8  ar  
  8   5   9  1   
  9   5  10  1   
 10   6   8  ar  
 11   6  11  1   
 12   7  12  1   
 13   7  13  1   
 14   7  14  1   
 15   8  26  1   
 16   9  27  1   
 17   9  28  1   
 18   9  29  1   
 19  10  30  1   
 20  10  31  1   
 21  10  32  1   
 22  11  14  1   
 23  11  33  1   
 24  11  34  1   
 25  12  15  1   
 26  12  35  1   
 27  12  36  1   
 28  13  16  1   
 29  13  37  1   
 30  13  38  1   
 31  14  39  1   
 32  14  40  1   
 33  15  17  1   
 34  15  18  1   
 35  15  41  1   
 36  16  17  1   
 37  16  42  1   
 38  16  43  1   
 39  17  44  1   
 40  17  45  1   
 41  18  19  1   
 42  18  46  1   
 43  18  47  1   
 44  19  20  2   
 45  19  21  1   
 46  20  22  1   
 47  21  23  2   
 48  21  48  1   
 49  22  23  1   
 50  22  24  1   
 51  23  49  1   
 52  24  25  1   
 53  24  50  1   
 54  24  51  1   
 55  25  52  1   
 56  25  53  1   
 57  25  54  1   
@<TRIPOS>SUBSTRUCTURE
  1 ****  12 GROUP 4 **** **** 0

# MOE 2024.06 (io_trps.svl 2023.06)
