@<TRIPOS>MOLECULE
NONAME
37 38 1 0 0 
SMALL
USER_CHARGES


@<TRIPOS>ATOM
  1 S        1.1070     0.0430    -1.2080 S.o2  1 <1>   1.3330 
  2 O        0.6440     0.3920    -2.5310 O.2   1 <1>  -0.6500 
  3 O        2.1540    -0.9420    -1.0530 O.2   1 <1>  -0.6500 
  4 N       -0.2480    -0.4960    -0.3340 N.am  1 <1>  -0.8490 
  5 C        1.5790     1.5490    -0.3440 C.3   1 <1>  -0.0550 
  6 C       -0.4040    -1.9530    -0.3950 C.3   1 <1>   0.1160 
  7 C       -1.5000     0.1520    -0.7400 C.3   1 <1>   0.1160 
  8 C        2.4230     1.3950     0.9420 C.3   1 <1>  -0.0800 
  9 C        3.8430     0.8790     0.6910 C.3   1 <1>   0.2890 
 10 C        1.8730     0.4530     2.0170 C.3   1 <1>   0.1200 
 11 N        4.8180     1.9550     0.9760 N.pl3 1 <1>  -0.8690 
 12 C        3.9820    -0.2660     1.6950 C.3   1 <1>   0.1200 
 13 O        2.9980    -0.0460     2.6580 O.3   1 <1>  -0.5600 
 14 C        5.1180     2.9630     0.1310 C.ar  1 <1>   0.7200 
 15 N        5.7330     3.9930     0.7040 N.ar  1 <1>  -0.6200 
 16 N        4.7640     2.8380    -1.1490 N.ar  1 <1>  -0.6200 
 17 C        6.0450     4.9900    -0.0970 C.ar  1 <1>   0.1600 
 18 C        5.0890     3.8450    -1.9330 C.ar  1 <1>   0.1600 
 19 C        5.7370     4.9490    -1.4350 C.ar  1 <1>   0.1900 
 20 F        6.0530     5.9470    -2.2230 F     1 <1>  -0.1900 
 21 H        2.1440     2.1570    -1.0240 H     1 <1>   0.0800 
 22 H        0.6920     2.1000    -0.1050 H     1 <1>   0.0800 
 23 H       -1.2650    -2.2610     0.1740 H     1 <1>   0.0800 
 24 H        0.4630    -2.4360     0.0230 H     1 <1>   0.0800 
 25 H       -0.5200    -2.2740    -1.4170 H     1 <1>   0.0800 
 26 H       -2.3030    -0.1560    -0.0920 H     1 <1>   0.0800 
 27 H       -1.7500    -0.1110    -1.7550 H     1 <1>   0.0800 
 28 H       -1.4050     1.2230    -0.6770 H     1 <1>   0.0800 
 29 H        2.4840     2.3690     1.3950 H     1 <1>   0.0800 
 30 H        3.9970     0.5070    -0.3080 H     1 <1>   0.0800 
 31 H        1.3450    -0.3890     1.6090 H     1 <1>   0.0800 
 32 H        1.2540     0.9610     2.7350 H     1 <1>   0.0800 
 33 H        4.9390     2.1910     1.9600 H     1 <1>   0.4000 
 34 H        4.9490    -0.2950     2.1640 H     1 <1>   0.0800 
 35 H        3.7720    -1.2080     1.2190 H     1 <1>   0.0800 
 36 H        6.5510     5.8470     0.3120 H     1 <1>   0.1500 
 37 H        4.8370     3.7930    -2.9780 H     1 <1>   0.1500 
@<TRIPOS>BOND
  1   1   2  2   
  2   1   3  2   
  3   1   4  am  
  4   1   5  1   
  5   4   6  1   
  6   4   7  1   
  7   5   8  1   
  8   5  21  1   
  9   5  22  1   
 10   6  23  1   
 11   6  24  1   
 12   6  25  1   
 13   7  26  1   
 14   7  27  1   
 15   7  28  1   
 16   8   9  1   
 17   8  10  1   
 18   8  29  1   
 19   9  11  1   
 20   9  12  1   
 21   9  30  1   
 22  10  13  1   
 23  10  31  1   
 24  10  32  1   
 25  11  14  1   
 26  11  33  1   
 27  12  13  1   
 28  12  34  1   
 29  12  35  1   
 30  14  15  ar  
 31  14  16  ar  
 32  15  17  ar  
 33  16  18  ar  
 34  17  19  ar  
 35  17  36  1   
 36  18  19  ar  
 37  18  37  1   
 38  19  20  1   
@<TRIPOS>SUBSTRUCTURE
  1 ****   8 GROUP 4 **** **** 0

# MOE 2024.06 (io_trps.svl 2023.06)
