@<TRIPOS>MOLECULE
NONAME
40 42 1 0 0 
SMALL
USER_CHARGES


@<TRIPOS>ATOM
  1 CL       0.5250    -1.9720    -2.5000 Cl    1 <1>  -0.1770 
  2 C        1.5560    -2.6080    -1.2310 C.ar  1 <1>   0.1770 
  3 C        1.0150    -3.1190    -0.0570 C.ar  1 <1>   0.4100 
  4 C        2.9140    -2.6260    -1.3820 C.ar  1 <1>   0.1600 
  5 N        1.8040    -3.6040     0.8840 N.ar  1 <1>  -0.6200 
  6 N       -0.3420    -3.1620     0.1610 N.pl3 1 <1>  -0.8690 
  7 N        3.7110    -3.1150    -0.4470 N.ar  1 <1>  -0.6200 
  8 C        3.1020    -3.5700     0.6360 C.ar  1 <1>   0.4770 
  9 C       -1.0320    -3.8850     1.2600 C.3   1 <1>   0.3890 
 10 C        4.0000    -4.1300     1.7130 C.3   1 <1>  -0.0960 
 11 C       -1.8600    -5.0230     0.6850 C.2   1 <1>   0.0070 
 12 N       -3.1500    -5.0410     0.6820 N.2   1 <1>  -0.3380 
 13 N       -1.3510    -6.1240     0.1160 N.pl3 1 <1>   0.0480 
 14 N       -3.5260    -6.1760     0.0940 N.2   1 <1>  -0.3380 
 15 C       -2.4490    -6.7990    -0.2350 C.2   1 <1>   0.0370 
 16 C        0.0680    -6.5030    -0.0980 C.3   1 <1>   0.1760 
 17 C        0.4550    -6.3220    -1.5740 C.3   1 <1>  -0.1600 
 18 C        0.3490    -7.9390     0.3730 C.3   1 <1>  -0.1600 
 19 C        1.9330    -6.6740    -1.7950 C.3   1 <1>  -0.1600 
 20 C        1.8270    -8.2980     0.1570 C.3   1 <1>  -0.1600 
 21 C        2.2400    -8.0980    -1.3090 C.3   1 <1>  -0.1600 
 22 H        3.3610    -2.2380    -2.2810 H     1 <1>   0.1500 
 23 H       -0.9700    -2.8630    -0.5920 H     1 <1>   0.4000 
 24 H       -1.6840    -3.1990     1.7730 H     1 <1>   0.0800 
 25 H       -0.3300    -4.2710     1.9770 H     1 <1>   0.0800 
 26 H        3.5310    -4.0330     2.6750 H     1 <1>   0.0800 
 27 H        4.9330    -3.5980     1.7280 H     1 <1>   0.0800 
 28 H        4.1890    -5.1670     1.5140 H     1 <1>   0.0800 
 29 H       -2.4210    -7.7490    -0.7360 H     1 <1>   0.1500 
 30 H        0.6770    -5.8490     0.4950 H     1 <1>   0.0800 
 31 H        0.2850    -5.3030    -1.8730 H     1 <1>   0.0800 
 32 H       -0.1550    -6.9600    -2.1900 H     1 <1>   0.0800 
 33 H       -0.2600    -8.6340    -0.1780 H     1 <1>   0.0800 
 34 H        0.1120    -8.0300     1.4190 H     1 <1>   0.0800 
 35 H        2.5520    -5.9740    -1.2600 H     1 <1>   0.0800 
 36 H        2.1720    -6.5910    -2.8410 H     1 <1>   0.0800 
 37 H        1.9970    -9.3220     0.4410 H     1 <1>   0.0800 
 38 H        2.4420    -7.6760     0.7860 H     1 <1>   0.0800 
 39 H        3.2940    -8.2930    -1.4160 H     1 <1>   0.0800 
 40 H        1.7130    -8.8060    -1.9260 H     1 <1>   0.0800 
@<TRIPOS>BOND
  1   1   2  1   
  2   2   3  ar  
  3   2   4  ar  
  4   3   5  ar  
  5   3   6  1   
  6   4   7  ar  
  7   4  22  1   
  8   5   8  ar  
  9   6   9  1   
 10   6  23  1   
 11   7   8  ar  
 12   8  10  1   
 13   9  11  1   
 14   9  24  1   
 15   9  25  1   
 16  10  26  1   
 17  10  27  1   
 18  10  28  1   
 19  11  12  2   
 20  11  13  1   
 21  12  14  1   
 22  13  15  1   
 23  13  16  1   
 24  14  15  2   
 25  15  29  1   
 26  16  17  1   
 27  16  18  1   
 28  16  30  1   
 29  17  19  1   
 30  17  31  1   
 31  17  32  1   
 32  18  20  1   
 33  18  33  1   
 34  18  34  1   
 35  19  21  1   
 36  19  35  1   
 37  19  36  1   
 38  20  21  1   
 39  20  37  1   
 40  20  38  1   
 41  21  39  1   
 42  21  40  1   
@<TRIPOS>SUBSTRUCTURE
  1 ****  16 GROUP 4 **** **** 0

# MOE 2024.06 (io_trps.svl 2023.06)
