@<TRIPOS>MOLECULE
NONAME
52 55 1 0 0 
SMALL
USER_CHARGES


@<TRIPOS>ATOM
  1 O       -1.0740    -2.1170    -1.9790 O.3   1 <1>  -0.6800 
  2 C       -0.5990    -2.5840    -0.7720 C.3   1 <1>   0.2000 
  3 C        0.6500    -3.4250    -1.0340 C.3   1 <1>  -0.1600 
  4 C       -1.7080    -3.4070    -0.1200 C.3   1 <1>  -0.1600 
  5 C        1.1280    -4.1090     0.2490 C.3   1 <1>   0.2090 
  6 C       -1.1950    -4.0750     1.1540 C.3   1 <1>   0.2090 
  7 N        0.0070    -4.9050     0.8300 N.pl3 1 <1>  -0.8380 
  8 C       -0.0320    -6.2630     0.8410 C.ar  1 <1>   0.4100 
  9 N       -1.1990    -6.8470     0.6520 N.ar  1 <1>  -0.6200 
 10 C        1.1370    -7.0230     1.0440 C.ar  1 <1>  -0.1500 
 11 C       -1.2490    -8.1680     0.6110 C.ar  1 <1>   0.7710 
 12 C        1.0610    -8.3740     1.0080 C.ar  1 <1>   0.2110 
 13 N       -0.1540    -8.9290     0.7820 N.ar  1 <1>  -0.1790 
 14 N       -2.4440    -8.7670     0.3860 N.pl3 1 <1>  -0.8380 
 15 C       -3.6880    -7.9740     0.1080 C.3   1 <1>   0.2090 
 16 C       -2.7530   -10.2200     0.2440 C.3   1 <1>   0.2090 
 17 C       -4.8320    -8.9880     0.1640 C.3   1 <1>   0.2000 
 18 C       -4.1740   -10.2810    -0.3230 C.3   1 <1>  -0.0800 
 19 O       -5.2260    -9.1350     1.4870 O.3   1 <1>  -0.6800 
 20 C       -4.9200   -11.5890     0.0080 C.3   1 <1>  -0.0170 
 21 C       -4.0640   -12.7950    -0.3530 C.ar  1 <1>  -0.1440 
 22 C       -3.7670   -13.1150    -1.6630 C.ar  1 <1>  -0.1500 
 23 C       -3.5310   -13.6240     0.6140 C.ar  1 <1>  -0.1500 
 24 C       -2.9520   -14.2020    -1.9330 C.ar  1 <1>   0.1600 
 25 C       -2.7300   -14.6890     0.2370 C.ar  1 <1>   0.1600 
 26 N       -2.4160   -14.9860    -1.0130 N.ar  1 <1>  -0.6200 
 27 H       -0.3950    -1.5810    -2.4310 H     1 <1>   0.4000 
 28 H       -0.3590    -1.7340    -0.1550 H     1 <1>   0.0800 
 29 H        0.4280    -4.1850    -1.7630 H     1 <1>   0.0800 
 30 H        1.4380    -2.8020    -1.4140 H     1 <1>   0.0800 
 31 H       -2.5380    -2.7680     0.1210 H     1 <1>   0.0800 
 32 H       -2.0460    -4.1710    -0.7970 H     1 <1>   0.0800 
 33 H        1.4470    -3.3710     0.9650 H     1 <1>   0.0800 
 34 H        1.9690    -4.7360     0.0140 H     1 <1>   0.0800 
 35 H       -1.9740    -4.6760     1.5910 H     1 <1>   0.0800 
 36 H       -0.9210    -3.3240     1.8760 H     1 <1>   0.0800 
 37 H        2.0630    -6.5170     1.2370 H     1 <1>   0.1500 
 38 H        1.9170    -9.0140     1.1560 H     1 <1>   0.1500 
 39 H       -0.3000    -9.9310     0.7320 H     1 <1>   0.4570 
 40 H       -3.8310    -7.1770     0.8200 H     1 <1>   0.0800 
 41 H       -3.6230    -7.5530    -0.8810 H     1 <1>   0.0800 
 42 H       -2.0650   -10.7140    -0.4210 H     1 <1>   0.0800 
 43 H       -2.7280   -10.6890     1.2140 H     1 <1>   0.0800 
 44 H       -5.6890    -8.6960    -0.4190 H     1 <1>   0.0800 
 45 H       -4.0880   -10.2130    -1.3940 H     1 <1>   0.0800 
 46 H       -4.4460    -9.0790     2.0730 H     1 <1>   0.4000 
 47 H       -5.8470   -11.6270    -0.5390 H     1 <1>   0.0800 
 48 H       -5.1660   -11.6320     1.0540 H     1 <1>   0.0800 
 49 H       -4.1600   -12.5350    -2.4770 H     1 <1>   0.1500 
 50 H       -3.7330   -13.4600     1.6570 H     1 <1>   0.1500 
 51 H       -2.7300   -14.4400    -2.9600 H     1 <1>   0.1500 
 52 H       -2.3250   -15.3290     1.0020 H     1 <1>   0.1500 
@<TRIPOS>BOND
  1   1   2  1   
  2   1  27  1   
  3   2   3  1   
  4   2   4  1   
  5   2  28  1   
  6   3   5  1   
  7   3  29  1   
  8   3  30  1   
  9   4   6  1   
 10   4  31  1   
 11   4  32  1   
 12   5   7  1   
 13   5  33  1   
 14   5  34  1   
 15   6   7  1   
 16   6  35  1   
 17   6  36  1   
 18   7   8  1   
 19   8   9  ar  
 20   8  10  ar  
 21   9  11  ar  
 22  10  12  ar  
 23  10  37  1   
 24  11  13  ar  
 25  11  14  1   
 26  12  13  ar  
 27  12  38  1   
 28  13  39  1   
 29  14  15  1   
 30  14  16  1   
 31  15  17  1   
 32  15  40  1   
 33  15  41  1   
 34  16  18  1   
 35  16  42  1   
 36  16  43  1   
 37  17  18  1   
 38  17  19  1   
 39  17  44  1   
 40  18  20  1   
 41  18  45  1   
 42  19  46  1   
 43  20  21  1   
 44  20  47  1   
 45  20  48  1   
 46  21  22  ar  
 47  21  23  ar  
 48  22  24  ar  
 49  22  49  1   
 50  23  25  ar  
 51  23  50  1   
 52  24  26  ar  
 53  24  51  1   
 54  25  26  ar  
 55  25  52  1   
@<TRIPOS>SUBSTRUCTURE
  1 ****  14 GROUP 4 **** **** 0

# MOE 2024.06 (io_trps.svl 2023.06)
