@<TRIPOS>MOLECULE
NONAME
54 57 1 0 0 
SMALL
USER_CHARGES


@<TRIPOS>ATOM
  1 O       -0.4730     0.2320    -0.1850 O.2   1 <1>  -0.5700 
  2 C       -1.4010     0.8860     0.2520 C.2   1 <1>   0.5440 
  3 N       -2.5510     0.2290     0.6320 N.am  1 <1>  -0.6600 
  4 C       -1.2880     2.3290     0.3320 C.ar  1 <1>   0.0860 
  5 C       -2.6100    -1.2620     0.7540 C.3   1 <1>   0.1400 
  6 C       -3.9090     0.8460     0.5430 C.3   1 <1>   0.1400 
  7 C       -1.6850     3.0350     1.4670 C.ar  1 <1>  -0.1500 
  8 C       -0.7820     3.0740    -0.7300 C.ar  1 <1>  -0.1500 
  9 C       -3.5230    -1.8680    -0.3270 C.3   1 <1>   0.3440 
 10 C       -4.7520     0.1400    -0.5440 C.3   1 <1>   0.2000 
 11 C       -1.6060     4.4130     1.5250 C.ar  1 <1>  -0.1500 
 12 C       -0.7040     4.4530    -0.6730 C.ar  1 <1>  -0.1500 
 13 O       -4.7810    -1.2400    -0.3040 O.3   1 <1>  -0.5600 
 14 C       -3.6950    -3.3680    -0.1060 C.ar  1 <1>  -0.1430 
 15 C       -6.2110     0.6410    -0.6420 C.3   1 <1>  -0.0800 
 16 C       -1.1210     5.1650     0.4530 C.ar  1 <1>   0.0540 
 17 C       -2.8110    -4.2530    -0.7090 C.ar  1 <1>  -0.1500 
 18 C       -4.7090    -3.8730     0.6970 C.ar  1 <1>  -0.1500 
 19 C       -6.2840     2.1180    -1.0620 C.3   1 <1>  -0.2400 
 20 C       -7.0240     0.4310     0.6480 C.3   1 <1>  -0.2400 
 21 C       -1.0500     6.6150     0.4980 C.2   1 <1>   0.4620 
 22 C       -2.9370    -5.6170    -0.5110 C.ar  1 <1>  -0.1500 
 23 C       -4.8370    -5.2370     0.8950 C.ar  1 <1>  -0.1500 
 24 N       -1.3880     7.3250     1.5840 N.2   1 <1>  -0.2270 
 25 N       -0.6670     7.3660    -0.4840 N.2   1 <1>  -0.7070 
 26 C       -3.9500    -6.1100     0.2910 C.ar  1 <1>  -0.1500 
 27 N       -1.2170     8.5490     1.2900 N.2   1 <1>  -0.4180 
 28 N       -0.7820     8.5590     0.0450 N.pl3 1 <1>   0.5800 
 29 C       -0.4630     9.7890    -0.6830 C.3   1 <1>   0.0160 
 30 H       -1.6270    -1.6920     0.6680 H     1 <1>   0.0800 
 31 H       -2.9940    -1.5250     1.7230 H     1 <1>   0.0800 
 32 H       -4.3960     0.7570     1.4980 H     1 <1>   0.0800 
 33 H       -3.8340     1.8900     0.3030 H     1 <1>   0.0800 
 34 H       -2.0590     2.4870     2.3150 H     1 <1>   0.1500 
 35 H       -0.4470     2.5540    -1.6120 H     1 <1>   0.1500 
 36 H       -3.0890    -1.7000    -1.2980 H     1 <1>   0.0800 
 37 H       -4.2800     0.2920    -1.5000 H     1 <1>   0.0800 
 38 H       -1.9270     4.9170     2.4210 H     1 <1>   0.1500 
 39 H       -0.3110     4.9930    -1.5170 H     1 <1>   0.1500 
 40 H       -6.6800     0.0650    -1.4220 H     1 <1>   0.0800 
 41 H       -2.0160    -3.8830    -1.3340 H     1 <1>   0.1500 
 42 H       -5.4050    -3.2010     1.1690 H     1 <1>   0.1500 
 43 H       -5.8960     2.7630    -0.2940 H     1 <1>   0.0800 
 44 H       -7.3060     2.3960    -1.2490 H     1 <1>   0.0800 
 45 H       -5.7230     2.2790    -1.9660 H     1 <1>   0.0800 
 46 H       -6.6510     1.0410     1.4510 H     1 <1>   0.0800 
 47 H       -6.9830    -0.6010     0.9500 H     1 <1>   0.0800 
 48 H       -8.0550     0.6870     0.4790 H     1 <1>   0.0800 
 49 H       -2.2470    -6.2950    -0.9830 H     1 <1>   0.1500 
 50 H       -5.6270    -5.6160     1.5180 H     1 <1>   0.1500 
 51 H       -4.0500    -7.1700     0.4440 H     1 <1>   0.1500 
 52 H        0.3660     9.6020    -1.3390 H     1 <1>   0.0800 
 53 H       -0.2060    10.5590     0.0190 H     1 <1>   0.0800 
 54 H       -1.3210    10.0850    -1.2550 H     1 <1>   0.0800 
@<TRIPOS>BOND
  1   1   2  2   
  2   2   3  am  
  3   2   4  1   
  4   3   5  1   
  5   3   6  1   
  6   4   7  ar  
  7   4   8  ar  
  8   5   9  1   
  9   5  30  1   
 10   5  31  1   
 11   6  10  1   
 12   6  32  1   
 13   6  33  1   
 14   7  11  ar  
 15   7  34  1   
 16   8  12  ar  
 17   8  35  1   
 18   9  13  1   
 19   9  14  1   
 20   9  36  1   
 21  10  13  1   
 22  10  15  1   
 23  10  37  1   
 24  11  16  ar  
 25  11  38  1   
 26  12  16  ar  
 27  12  39  1   
 28  14  17  ar  
 29  14  18  ar  
 30  15  19  1   
 31  15  20  1   
 32  15  40  1   
 33  16  21  1   
 34  17  22  ar  
 35  17  41  1   
 36  18  23  ar  
 37  18  42  1   
 38  19  43  1   
 39  19  44  1   
 40  19  45  1   
 41  20  46  1   
 42  20  47  1   
 43  20  48  1   
 44  21  24  1   
 45  21  25  2   
 46  22  26  ar  
 47  22  49  1   
 48  23  26  ar  
 49  23  50  1   
 50  24  27  2   
 51  25  28  1   
 52  26  51  1   
 53  27  28  1   
 54  28  29  1   
 55  29  52  1   
 56  29  53  1   
 57  29  54  1   
@<TRIPOS>SUBSTRUCTURE
  1 ****   3 GROUP 4 **** **** 0

# MOE 2024.06 (io_trps.svl 2023.06)
