@<TRIPOS>MOLECULE
NONAME
53 56 1 0 0 
SMALL
USER_CHARGES


@<TRIPOS>ATOM
  1 O       -1.0930    -0.4740     1.0910 O.2   1 <1>  -0.5700 
  2 C       -1.5330     0.5050     0.5130 C.2   1 <1>   0.6160 
  3 N       -2.7500     0.3760    -0.1230 N.am  1 <1>  -0.6600 
  4 C       -0.8340     1.7770     0.5480 C.2   1 <1>   0.0140 
  5 C       -3.2880    -0.9680    -0.4490 C.3   1 <1>   0.1400 
  6 C       -3.8150     1.3870     0.1550 C.3   1 <1>   0.1400 
  7 C       -0.8360     2.6230    -0.5150 C.2   1 <1>  -0.1780 
  8 C       -0.1170     2.1030     1.7610 C.2   1 <1>  -0.1500 
  9 C       -4.5200    -1.1400     0.4620 C.3   1 <1>   0.4230 
 10 C       -5.2310     0.8860    -0.2800 C.3   1 <1>  -0.1600 
 11 C       -0.2110     3.9150    -0.6460 C.ar  1 <1>   0.0280 
 12 C        0.1100     3.3310     2.2560 C.2   1 <1>  -0.0730 
 13 N       -4.4300    -2.3470     1.3570 N.4   1 <1>  -0.9590 
 14 C       -5.8130    -0.6420    -0.3280 C.3   1 <1>   0.0000 
 15 C        0.0280     4.7890     0.4270 C.ar  1 <1>   0.0820 
 16 C        0.1680     4.3480    -1.9150 C.ar  1 <1>  -0.1500 
 17 O       -0.3320     4.4840     1.7040 O.3   1 <1>  -0.1590 
 18 C       -4.6700    -3.5700     0.6160 C.3   1 <1>   0.3430 
 19 C       -3.1560    -2.3970     2.1500 C.3   1 <1>   0.2630 
 20 C       -6.4480    -2.1280    -0.4850 C.3   1 <1>  -0.1600 
 21 C       -7.1180    -0.0560    -1.0710 C.3   1 <1>   0.1200 
 22 C        0.6100     6.0270     0.2250 C.ar  1 <1>  -0.1500 
 23 C        0.7560     5.5860    -2.1170 C.ar  1 <1>  -0.1500 
 24 C       -6.1210    -3.4340     0.2700 C.3   1 <1>  -0.1600 
 25 O       -8.0770     0.2250    -0.1000 O.3   1 <1>  -0.6800 
 26 C        0.9790     6.4290    -1.0470 C.ar  1 <1>  -0.1500 
 27 H       -3.5780    -0.9880    -1.4850 H     1 <1>   0.0800 
 28 H       -2.5480    -1.7330    -0.3030 H     1 <1>   0.0800 
 29 H       -3.8210     1.6010     1.2120 H     1 <1>   0.0800 
 30 H       -3.5830     2.3090    -0.3540 H     1 <1>   0.0800 
 31 H       -1.3440     2.3100    -1.4100 H     1 <1>   0.1500 
 32 H        0.2560     1.2500     2.3020 H     1 <1>   0.1500 
 33 H       -4.4070    -0.3940     1.2260 H     1 <1>   0.0800 
 34 H       -5.9150     1.5210     0.2630 H     1 <1>   0.0800 
 35 H       -5.1930     1.2530    -1.2940 H     1 <1>   0.0800 
 36 H        0.6570     3.5070     3.1660 H     1 <1>   0.1500 
 37 H       -5.2100    -2.2500     2.0220 H     1 <1>   0.4500 
 38 H        0.0060     3.7070    -2.7630 H     1 <1>   0.1500 
 39 H       -4.0530    -3.6220    -0.2670 H     1 <1>   0.0800 
 40 H       -4.5060    -4.4400     1.2320 H     1 <1>   0.0800 
 41 H       -2.3090    -2.5740     1.5060 H     1 <1>   0.0800 
 42 H       -3.1980    -3.1860     2.8830 H     1 <1>   0.0800 
 43 H       -2.9940    -1.4610     2.6600 H     1 <1>   0.0800 
 44 H       -7.5200    -2.1350    -0.3460 H     1 <1>   0.0800 
 45 H       -6.2810    -2.3890    -1.5190 H     1 <1>   0.0800 
 46 H       -7.5740    -0.7130    -1.7980 H     1 <1>   0.0800 
 47 H       -7.0230     0.8500    -1.6470 H     1 <1>   0.0800 
 48 H        0.7740     6.6790     1.0640 H     1 <1>   0.1500 
 49 H        1.0400     5.8900    -3.1100 H     1 <1>   0.1500 
 50 H       -6.4170    -4.2780    -0.3290 H     1 <1>   0.0800 
 51 H       -6.7020    -3.4840     1.1770 H     1 <1>   0.0800 
 52 H       -8.8990     0.5750    -0.5030 H     1 <1>   0.4000 
 53 H        1.4350     7.3930    -1.1990 H     1 <1>   0.1500 
@<TRIPOS>BOND
  1   1   2  2   
  2   2   3  am  
  3   2   4  1   
  4   3   5  1   
  5   3   6  1   
  6   4   7  2   
  7   4   8  1   
  8   5   9  1   
  9   5  27  1   
 10   5  28  1   
 11   6  10  1   
 12   6  29  1   
 13   6  30  1   
 14   7  11  1   
 15   7  31  1   
 16   8  12  2   
 17   8  32  1   
 18   9  13  1   
 19   9  14  1   
 20   9  33  1   
 21  10  14  1   
 22  10  34  1   
 23  10  35  1   
 24  11  15  ar  
 25  11  16  ar  
 26  12  17  1   
 27  12  36  1   
 28  13  18  1   
 29  13  19  1   
 30  13  37  1   
 31  14  20  1   
 32  14  21  1   
 33  15  17  1   
 34  15  22  ar  
 35  16  23  ar  
 36  16  38  1   
 37  18  24  1   
 38  18  39  1   
 39  18  40  1   
 40  19  41  1   
 41  19  42  1   
 42  19  43  1   
 43  20  24  1   
 44  20  44  1   
 45  20  45  1   
 46  21  25  1   
 47  21  46  1   
 48  21  47  1   
 49  22  26  ar  
 50  22  48  1   
 51  23  26  ar  
 52  23  49  1   
 53  24  50  1   
 54  24  51  1   
 55  25  52  1   
 56  26  53  1   
@<TRIPOS>SUBSTRUCTURE
  1 ****   3 GROUP 4 **** **** 0

# MOE 2024.06 (io_trps.svl 2023.06)
