@<TRIPOS>MOLECULE
NONAME
51 55 1 0 0 
SMALL
USER_CHARGES


@<TRIPOS>ATOM
  1 S        2.4650    -0.1980     0.6830 S.3   1 <1>  -0.0800 
  2 C        1.4960     1.2570     0.7890 C.2   1 <1>  -0.1400 
  3 C        3.7080     0.6720    -0.2050 C.2   1 <1>  -0.1100 
  4 C        2.0970     2.3010     0.2050 C.2   1 <1>  -0.1810 
  5 C        0.1490     1.2910     1.4580 C.3   1 <1>   0.0200 
  6 C        3.3670     1.9640    -0.3740 C.2   1 <1>  -0.1500 
  7 C        1.4410     3.6840     0.1930 C.3   1 <1>   0.4610 
  8 C       -0.5670     2.5620     0.9740 C.3   1 <1>   0.1200 
  9 O        0.2900     3.6790     1.0210 O.3   1 <1>  -0.5600 
 10 C        2.3880     4.7260     0.8000 C.3   1 <1>  -0.1600 
 11 C        1.0370     4.0890    -1.2320 C.3   1 <1>  -0.1600 
 12 C        1.8030     6.1370     0.7240 C.3   1 <1>   0.1400 
 13 C        0.4570     5.5030    -1.2740 C.3   1 <1>   0.1400 
 14 N        1.4500     6.4440    -0.6900 N.am  1 <1>  -0.6600 
 15 C        2.0100     7.4720    -1.4250 C.2   1 <1>   0.5440 
 16 O        1.5720     7.7110    -2.5350 O.2   1 <1>  -0.5700 
 17 C        3.0630     8.3050    -0.8990 C.ar  1 <1>   0.0860 
 18 C        4.3720     7.8230    -0.7370 C.ar  1 <1>   0.3930 
 19 C        2.8010     9.6190    -0.5350 C.ar  1 <1>  -0.1500 
 20 O        4.6280     6.5530    -1.1180 O.3   1 <1>  -0.3630 
 21 N        5.3890     8.5260    -0.2290 N.ar  1 <1>  -0.6200 
 22 C        3.8490    10.3460    -0.0220 C.ar  1 <1>  -0.1430 
 23 C        5.9250     5.9950    -1.0380 C.3   1 <1>   0.0400 
 24 C        5.0840     9.7630     0.1040 C.ar  1 <1>   0.1670 
 25 C        3.8540    11.7770     0.4560 C.3   1 <1>  -0.0170 
 26 C        6.0840    10.7290     0.6840 C.3   1 <1>  -0.0170 
 27 C        5.3500    12.0840     0.6570 C.3   1 <1>  -0.1600 
 28 H        4.5750     0.1150    -0.5110 H     1 <1>   0.1500 
 29 H        0.2690     1.3130     2.5260 H     1 <1>   0.0800 
 30 H       -0.4260     0.4230     1.1900 H     1 <1>   0.0800 
 31 H        3.9590     2.7010    -0.8880 H     1 <1>   0.1500 
 32 H       -1.4150     2.7720     1.6010 H     1 <1>   0.0800 
 33 H       -0.9090     2.4370    -0.0380 H     1 <1>   0.0800 
 34 H        3.3220     4.7150     0.2740 H     1 <1>   0.0800 
 35 H        2.5890     4.4660     1.8230 H     1 <1>   0.0800 
 36 H        0.3320     3.3880    -1.6340 H     1 <1>   0.0800 
 37 H        1.9040     4.0640    -1.8660 H     1 <1>   0.0800 
 38 H        2.5130     6.8460     1.1130 H     1 <1>   0.0800 
 39 H        0.9130     6.1950     1.3270 H     1 <1>   0.0800 
 40 H       -0.4530     5.5510    -0.7020 H     1 <1>   0.0800 
 41 H        0.2280     5.7700    -2.2920 H     1 <1>   0.0800 
 42 H        1.8170    10.0380    -0.6560 H     1 <1>   0.1500 
 43 H        5.8830     4.9880    -1.4100 H     1 <1>   0.0800 
 44 H        6.2430     6.0000    -0.0100 H     1 <1>   0.0800 
 45 H        6.5930     6.5860    -1.6400 H     1 <1>   0.0800 
 46 H        3.3230    11.8480     1.3890 H     1 <1>   0.0800 
 47 H        3.4100    12.4370    -0.2680 H     1 <1>   0.0800 
 48 H        6.9820    10.7530     0.0920 H     1 <1>   0.0800 
 49 H        6.3190    10.4350     1.6910 H     1 <1>   0.0800 
 50 H        5.5240    12.6480     1.5560 H     1 <1>   0.0800 
 51 H        5.7040    12.6530    -0.1860 H     1 <1>   0.0800 
@<TRIPOS>BOND
  1   1   2  1   
  2   1   3  1   
  3   2   4  2   
  4   2   5  1   
  5   3   6  2   
  6   3  28  1   
  7   4   6  1   
  8   4   7  1   
  9   5   8  1   
 10   5  29  1   
 11   5  30  1   
 12   6  31  1   
 13   7   9  1   
 14   7  10  1   
 15   7  11  1   
 16   8   9  1   
 17   8  32  1   
 18   8  33  1   
 19  10  12  1   
 20  10  34  1   
 21  10  35  1   
 22  11  13  1   
 23  11  36  1   
 24  11  37  1   
 25  12  14  1   
 26  12  38  1   
 27  12  39  1   
 28  13  14  1   
 29  13  40  1   
 30  13  41  1   
 31  14  15  am  
 32  15  16  2   
 33  15  17  1   
 34  17  18  ar  
 35  17  19  ar  
 36  18  20  1   
 37  18  21  ar  
 38  19  22  ar  
 39  19  42  1   
 40  20  23  1   
 41  21  24  ar  
 42  22  24  ar  
 43  22  25  1   
 44  23  43  1   
 45  23  44  1   
 46  23  45  1   
 47  24  26  1   
 48  25  27  1   
 49  25  46  1   
 50  25  47  1   
 51  26  27  1   
 52  26  48  1   
 53  26  49  1   
 54  27  50  1   
 55  27  51  1   
@<TRIPOS>SUBSTRUCTURE
  1 ****  12 GROUP 4 **** **** 0

# MOE 2024.06 (io_trps.svl 2023.06)
