@<TRIPOS>MOLECULE
NONAME
48 50 1 0 0 
SMALL
USER_CHARGES


@<TRIPOS>ATOM
  1 S        0.5630    -0.0120    -0.5430 S.o2  1 <1>   1.3330 
  2 O        1.9530     0.2010    -0.1920 O.2   1 <1>  -0.6500 
  3 O        0.1980    -0.0770    -1.9380 O.2   1 <1>  -0.6500 
  4 N        0.0100    -1.4100     0.2380 N.am  1 <1>  -0.8490 
  5 C       -0.3750     1.3090     0.2270 C.3   1 <1>  -0.0550 
  6 C       -1.2580    -1.9140    -0.3010 C.3   1 <1>   0.1160 
  7 C        1.0090    -2.4840     0.2320 C.3   1 <1>   0.1160 
  8 C       -0.0330     2.6980    -0.3580 C.3   1 <1>  -0.0800 
  9 C       -0.7520     3.8810     0.2870 C.3   1 <1>   0.2000 
 10 C        1.4520     3.0550    -0.2450 C.3   1 <1>   0.2090 
 11 O       -0.7390     3.7280     1.6660 O.3   1 <1>  -0.6800 
 12 C        0.1250     5.0810    -0.0820 C.3   1 <1>   0.2090 
 13 N        1.5240     4.5430    -0.1540 N.pl3 1 <1>  -0.8380 
 14 C        2.6510     5.2830    -0.1750 C.ar  1 <1>   0.4610 
 15 N        3.8370     4.6740    -0.2460 N.ar  1 <1>  -0.1790 
 16 C        2.6600     6.7000    -0.1280 C.ar  1 <1>  -0.1500 
 17 C        5.0550     5.3270    -0.2740 C.ar  1 <1>   0.3610 
 18 C        3.8170     7.4190    -0.1490 C.ar  1 <1>  -0.1440 
 19 C        5.0720     6.7380    -0.2240 C.ar  1 <1>   0.0000 
 20 C        6.2550     4.6040    -0.3510 C.ar  1 <1>  -0.1500 
 21 C        3.7760     8.9420    -0.0960 C.3   1 <1>  -0.0970 
 22 C        6.3190     7.3850    -0.2520 C.ar  1 <1>  -0.1500 
 23 C        7.4660     5.2560    -0.3770 C.ar  1 <1>  -0.1500 
 24 C        7.4710     6.6440    -0.3260 C.ar  1 <1>   0.1900 
 25 F        8.6220     7.2570    -0.3520 F     1 <1>  -0.1900 
 26 H       -1.4230     1.1280     0.0930 H     1 <1>   0.0800 
 27 H       -0.1790     1.2980     1.2820 H     1 <1>   0.0800 
 28 H       -1.6000    -2.7530     0.2810 H     1 <1>   0.0800 
 29 H       -1.1360    -2.2270    -1.3260 H     1 <1>   0.0800 
 30 H       -2.0120    -1.1470    -0.2620 H     1 <1>   0.0800 
 31 H        0.6330    -3.3460     0.7570 H     1 <1>   0.0800 
 32 H        1.9070    -2.1560     0.7280 H     1 <1>   0.0800 
 33 H        1.2540    -2.7640    -0.7790 H     1 <1>   0.0800 
 34 H       -0.2830     2.6910    -1.4060 H     1 <1>   0.0800 
 35 H       -1.7740     3.9890    -0.0340 H     1 <1>   0.0800 
 36 H        1.9910     2.6880    -1.1040 H     1 <1>   0.0800 
 37 H        1.8650     2.6280     0.6550 H     1 <1>   0.0800 
 38 H        0.1660     3.8590     2.0120 H     1 <1>   0.4000 
 39 H        0.0250     5.8700     0.6440 H     1 <1>   0.0800 
 40 H       -0.1610     5.4480    -1.0540 H     1 <1>   0.0800 
 41 H        3.8310     3.6600    -0.2830 H     1 <1>   0.4570 
 42 H        1.7130     7.2040    -0.0760 H     1 <1>   0.1500 
 43 H        6.2380     3.5280    -0.3900 H     1 <1>   0.1500 
 44 H        2.7630     9.3030    -0.0430 H     1 <1>   0.0800 
 45 H        4.2310     9.3590    -0.9770 H     1 <1>   0.0800 
 46 H        4.3020     9.3000     0.7720 H     1 <1>   0.0800 
 47 H        6.3920     8.4570    -0.2150 H     1 <1>   0.1500 
 48 H        8.4030     4.7260    -0.4360 H     1 <1>   0.1500 
@<TRIPOS>BOND
  1   1   2  2   
  2   1   3  2   
  3   1   4  am  
  4   1   5  1   
  5   4   6  1   
  6   4   7  1   
  7   5   8  1   
  8   5  26  1   
  9   5  27  1   
 10   6  28  1   
 11   6  29  1   
 12   6  30  1   
 13   7  31  1   
 14   7  32  1   
 15   7  33  1   
 16   8   9  1   
 17   8  10  1   
 18   8  34  1   
 19   9  11  1   
 20   9  12  1   
 21   9  35  1   
 22  10  13  1   
 23  10  36  1   
 24  10  37  1   
 25  11  38  1   
 26  12  13  1   
 27  12  39  1   
 28  12  40  1   
 29  13  14  1   
 30  14  15  ar  
 31  14  16  ar  
 32  15  17  ar  
 33  15  41  1   
 34  16  18  ar  
 35  16  42  1   
 36  17  19  ar  
 37  17  20  ar  
 38  18  19  ar  
 39  18  21  1   
 40  19  22  ar  
 41  20  23  ar  
 42  20  43  1   
 43  21  44  1   
 44  21  45  1   
 45  21  46  1   
 46  22  24  ar  
 47  22  47  1   
 48  23  24  ar  
 49  23  48  1   
 50  24  25  1   
@<TRIPOS>SUBSTRUCTURE
  1 ****  13 GROUP 4 **** **** 0

# MOE 2024.06 (io_trps.svl 2023.06)
