@<TRIPOS>MOLECULE
NONAME
57 59 1 0 0 
SMALL
USER_CHARGES


@<TRIPOS>ATOM
  1 O        2.0880    -0.7230    -2.0590 O.3   1 <1>  -0.3630 
  2 C        1.5630    -0.9480    -0.8290 C.ar  1 <1>   0.0820 
  3 C        3.4930    -0.6330    -2.1850 C.3   1 <1>   0.1200 
  4 C        0.7070    -0.0050    -0.2660 C.ar  1 <1>   0.0820 
  5 C        1.8590    -2.1110    -0.1350 C.ar  1 <1>  -0.1500 
  6 C        3.8860     0.8470    -2.3030 C.3   1 <1>   0.3430 
  7 O        0.4380     1.1480    -0.9270 O.3   1 <1>  -0.3630 
  8 C        0.1650    -0.2210     0.9910 C.ar  1 <1>  -0.1500 
  9 C        1.3170    -2.3190     1.1220 C.ar  1 <1>  -0.1500 
 10 N        3.3120     1.6710    -1.1920 N.4   1 <1>  -0.9590 
 11 C       -0.8530     1.2210    -1.4950 C.3   1 <1>   0.0400 
 12 C        0.4730    -1.3780     1.6910 C.ar  1 <1>  -0.1440 
 13 C        3.1420     3.0970    -1.6340 C.3   1 <1>   0.3430 
 14 C        4.0780     1.4910     0.0780 C.3   1 <1>   0.3430 
 15 C       -0.1210    -1.6220     3.0670 C.3   1 <1>  -0.0970 
 16 C        2.5410     4.0480    -0.5810 C.3   1 <1>   0.2090 
 17 C        3.2610     1.9190     1.2950 C.3   1 <1>  -0.1600 
 18 N        3.5000     4.3100     0.5410 N.pl3 1 <1>  -0.8380 
 19 C        3.4710     3.3780     1.7020 C.3   1 <1>   0.2090 
 20 C        4.1080     5.5180     0.6830 C.ar  1 <1>   0.1000 
 21 C        3.4160     6.7020     1.0120 C.ar  1 <1>  -0.1440 
 22 C        5.4950     5.6080     0.5240 C.ar  1 <1>  -0.1500 
 23 C        4.1100     7.8810     1.1450 C.ar  1 <1>   0.2110 
 24 C        1.9070     6.6930     1.2480 C.3   1 <1>  -0.0970 
 25 C        6.1490     6.8040     0.6680 C.ar  1 <1>   0.2110 
 26 N        5.4540     7.9270     0.9720 N.ar  1 <1>  -0.1790 
 27 H        3.7740    -1.1620    -3.0790 H     1 <1>   0.0800 
 28 H        3.9720    -1.1000    -1.3430 H     1 <1>   0.0800 
 29 H        2.4950    -2.8580    -0.5730 H     1 <1>   0.1500 
 30 H        3.5100     1.2070    -3.2470 H     1 <1>   0.0800 
 31 H        4.9590     0.9410    -2.3200 H     1 <1>   0.0800 
 32 H       -0.4930     0.5130     1.4210 H     1 <1>   0.1500 
 33 H        1.5480    -3.2260     1.6560 H     1 <1>   0.1500 
 34 H        2.3540     1.2880    -1.0360 H     1 <1>   0.4500 
 35 H       -0.9410     2.1500    -2.0290 H     1 <1>   0.0800 
 36 H       -1.5890     1.1770    -0.7110 H     1 <1>   0.0800 
 37 H       -0.9820     0.3940    -2.1720 H     1 <1>   0.0800 
 38 H        2.4960     3.1110    -2.4960 H     1 <1>   0.0800 
 39 H        4.0950     3.4970    -1.9360 H     1 <1>   0.0800 
 40 H        5.0020     2.0450     0.0410 H     1 <1>   0.0800 
 41 H        4.3150     0.4460     0.1940 H     1 <1>   0.0800 
 42 H       -0.3580    -0.6910     3.5510 H     1 <1>   0.0800 
 43 H        0.5750    -2.1580     3.6880 H     1 <1>   0.0800 
 44 H       -1.0210    -2.2030     2.9770 H     1 <1>   0.0800 
 45 H        1.6120     3.6550    -0.2050 H     1 <1>   0.0800 
 46 H        2.3220     4.9800    -1.0730 H     1 <1>   0.0800 
 47 H        3.5620     1.3120     2.1300 H     1 <1>   0.0800 
 48 H        2.2160     1.7300     1.1470 H     1 <1>   0.0800 
 49 H        4.4040     3.4640     2.2360 H     1 <1>   0.0800 
 50 H        2.6860     3.6750     2.3770 H     1 <1>   0.0800 
 51 H        6.0410     4.7130     0.2860 H     1 <1>   0.1500 
 52 H        3.5980     8.7980     1.3950 H     1 <1>   0.1500 
 53 H        1.6320     5.8650     1.8770 H     1 <1>   0.0800 
 54 H        1.3810     6.6040     0.3140 H     1 <1>   0.0800 
 55 H        1.5800     7.5960     1.7320 H     1 <1>   0.0800 
 56 H        7.2190     6.8720     0.5440 H     1 <1>   0.1500 
 57 H        5.9500     8.8200     1.0800 H     1 <1>   0.4570 
@<TRIPOS>BOND
  1   1   2  1   
  2   1   3  1   
  3   2   4  ar  
  4   2   5  ar  
  5   3   6  1   
  6   3  27  1   
  7   3  28  1   
  8   4   7  1   
  9   4   8  ar  
 10   5   9  ar  
 11   5  29  1   
 12   6  10  1   
 13   6  30  1   
 14   6  31  1   
 15   7  11  1   
 16   8  12  ar  
 17   8  32  1   
 18   9  12  ar  
 19   9  33  1   
 20  10  13  1   
 21  10  14  1   
 22  10  34  1   
 23  11  35  1   
 24  11  36  1   
 25  11  37  1   
 26  12  15  1   
 27  13  16  1   
 28  13  38  1   
 29  13  39  1   
 30  14  17  1   
 31  14  40  1   
 32  14  41  1   
 33  15  42  1   
 34  15  43  1   
 35  15  44  1   
 36  16  18  1   
 37  16  45  1   
 38  16  46  1   
 39  17  19  1   
 40  17  47  1   
 41  17  48  1   
 42  18  19  1   
 43  18  20  1   
 44  19  49  1   
 45  19  50  1   
 46  20  21  ar  
 47  20  22  ar  
 48  21  23  ar  
 49  21  24  1   
 50  22  25  ar  
 51  22  51  1   
 52  23  26  ar  
 53  23  52  1   
 54  24  53  1   
 55  24  54  1   
 56  24  55  1   
 57  25  26  ar  
 58  25  56  1   
 59  26  57  1   
@<TRIPOS>SUBSTRUCTURE
  1 ****  17 GROUP 4 **** **** 0

# MOE 2024.06 (io_trps.svl 2023.06)
