@<TRIPOS>MOLECULE
NONAME
47 49 1 0 0 
SMALL
USER_CHARGES


@<TRIPOS>ATOM
  1 O        1.0540     0.3770     1.5880 O.3   1 <1>  -0.6800 
  2 C        1.2860    -0.2430     0.3640 C.3   1 <1>   0.2000 
  3 C        2.0860    -1.5160     0.6220 C.3   1 <1>  -0.0800 
  4 C        2.2630     0.6220    -0.4370 C.3   1 <1>   0.3430 
  5 C        3.5220    -1.0070     0.8130 C.3   1 <1>   0.3430 
  6 C        1.9810    -2.5110    -0.5520 C.3   1 <1>  -0.0170 
  7 N        3.6220     0.3110     0.1120 N.4   1 <1>  -0.9590 
  8 C        2.9680    -3.6550    -0.3850 C.ar  1 <1>  -0.1440 
  9 C        4.0650     1.3770     1.0520 C.3   1 <1>   0.4860 
 10 C        4.0340    -3.8330    -1.2460 C.ar  1 <1>  -0.1500 
 11 C        2.8530    -4.5740     0.6390 C.ar  1 <1>  -0.1500 
 12 C        4.4320     2.6030     0.2380 C.ar  1 <1>  -0.1440 
 13 C        4.9180    -4.8780    -1.0350 C.ar  1 <1>   0.1600 
 14 C        3.7930    -5.5840     0.7630 C.ar  1 <1>   0.1600 
 15 C        5.6650     2.7190    -0.4050 C.ar  1 <1>  -0.1440 
 16 C        3.5060     3.6330     0.1410 C.ar  1 <1>  -0.1500 
 17 N        4.8270    -5.7480    -0.0440 N.ar  1 <1>  -0.6200 
 18 C        5.9310     3.8570    -1.1510 C.ar  1 <1>  -0.1500 
 19 C        6.7620     1.6610    -0.3100 C.3   1 <1>  -0.0170 
 20 C        3.7840     4.7620    -0.6070 C.ar  1 <1>  -0.1500 
 21 C        4.9980     4.8720    -1.2570 C.ar  1 <1>  -0.1500 
 22 C        7.6150     1.8830     0.9410 C.3   1 <1>  -0.2400 
 23 H        0.2920    -0.0300     2.0550 H     1 <1>   0.4000 
 24 H        0.3450    -0.3940    -0.1390 H     1 <1>   0.0800 
 25 H        1.7500    -2.0120     1.5160 H     1 <1>   0.0800 
 26 H        2.0120     1.6660    -0.3580 H     1 <1>   0.0800 
 27 H        2.2220     0.3320    -1.4730 H     1 <1>   0.0800 
 28 H        4.2440    -1.7100     0.4280 H     1 <1>   0.0800 
 29 H        3.7040    -0.8720     1.8670 H     1 <1>   0.0800 
 30 H        2.1680    -2.0170    -1.4900 H     1 <1>   0.0800 
 31 H        0.9840    -2.9160    -0.5950 H     1 <1>   0.0800 
 32 H        4.3040     0.2960    -0.6550 H     1 <1>   0.4500 
 33 H        3.2770     1.6120     1.7500 H     1 <1>   0.0800 
 34 H        4.9280     1.0500     1.6070 H     1 <1>   0.0800 
 35 H        4.1910    -3.1790    -2.0850 H     1 <1>   0.1500 
 36 H        2.0420    -4.5260     1.3440 H     1 <1>   0.1500 
 37 H        5.7430    -5.0080    -1.7160 H     1 <1>   0.1500 
 38 H        3.6900    -6.2940     1.5660 H     1 <1>   0.1500 
 39 H        2.5580     3.5740     0.6490 H     1 <1>   0.1500 
 40 H        6.8770     3.9700    -1.6540 H     1 <1>   0.1500 
 41 H        6.3520     0.6690    -0.2970 H     1 <1>   0.0800 
 42 H        7.3980     1.7240    -1.1770 H     1 <1>   0.0800 
 43 H        3.0620     5.5580    -0.6810 H     1 <1>   0.1500 
 44 H        5.2200     5.7500    -1.8390 H     1 <1>   0.1500 
 45 H        7.0200     1.8140     1.8330 H     1 <1>   0.0800 
 46 H        8.0670     2.8590     0.9080 H     1 <1>   0.0800 
 47 H        8.4000     1.1480     0.9910 H     1 <1>   0.0800 
@<TRIPOS>BOND
  1   1   2  1   
  2   1  23  1   
  3   2   3  1   
  4   2   4  1   
  5   2  24  1   
  6   3   5  1   
  7   3   6  1   
  8   3  25  1   
  9   4   7  1   
 10   4  26  1   
 11   4  27  1   
 12   5   7  1   
 13   5  28  1   
 14   5  29  1   
 15   6   8  1   
 16   6  30  1   
 17   6  31  1   
 18   7   9  1   
 19   7  32  1   
 20   8  10  ar  
 21   8  11  ar  
 22   9  12  1   
 23   9  33  1   
 24   9  34  1   
 25  10  13  ar  
 26  10  35  1   
 27  11  14  ar  
 28  11  36  1   
 29  12  15  ar  
 30  12  16  ar  
 31  13  17  ar  
 32  13  37  1   
 33  14  17  ar  
 34  14  38  1   
 35  15  18  ar  
 36  15  19  1   
 37  16  20  ar  
 38  16  39  1   
 39  18  21  ar  
 40  18  40  1   
 41  19  22  1   
 42  19  41  1   
 43  19  42  1   
 44  20  21  ar  
 45  20  43  1   
 46  21  44  1   
 47  22  45  1   
 48  22  46  1   
 49  22  47  1   
@<TRIPOS>SUBSTRUCTURE
  1 ****   7 GROUP 4 **** **** 0

# MOE 2024.06 (io_trps.svl 2023.06)
