@<TRIPOS>MOLECULE
NONAME
52 54 1 0 0 
SMALL
USER_CHARGES


@<TRIPOS>ATOM
  1 O       -1.0440    -0.4870     0.3760 O.3   1 <1>  -0.3630 
  2 C       -0.2950     0.3500    -0.3920 C.ar  1 <1>   0.0830 
  3 C       -1.9310    -1.4220    -0.1850 C.3   1 <1>   0.1200 
  4 C        0.5700     1.2380     0.2510 C.ar  1 <1>  -0.1440 
  5 C       -0.3750     0.3450    -1.7830 C.ar  1 <1>  -0.1500 
  6 C       -2.5880    -2.1770     0.9720 C.3   1 <1>   0.3430 
  7 C        1.3370     2.1200    -0.5070 C.ar  1 <1>  -0.1440 
  8 C        0.6790     1.2560     1.7780 C.3   1 <1>  -0.0970 
  9 C        0.3950     1.2170    -2.5260 C.ar  1 <1>  -0.1500 
 10 N       -3.5030    -3.2540     0.4890 N.4   1 <1>  -0.9590 
 11 C        1.2450     2.1000    -1.8900 C.ar  1 <1>  -0.1500 
 12 C        2.2860     3.1230     0.1360 C.3   1 <1>  -0.0970 
 13 C       -4.6850    -2.8120    -0.3100 C.3   1 <1>   0.3430 
 14 C       -4.0180    -4.1590     1.5430 C.3   1 <1>   0.3430 
 15 C       -5.7610    -3.8870    -0.1030 C.3   1 <1>   0.2000 
 16 C       -5.1710    -4.9090     0.8770 C.3   1 <1>  -0.0800 
 17 O       -6.8880    -3.3070     0.4680 O.3   1 <1>  -0.6800 
 18 C       -4.7120    -6.2090     0.1760 C.3   1 <1>   0.0210 
 19 C       -3.4110    -6.1340    -0.6180 C.2   1 <1>   0.1080 
 20 N       -3.1340    -5.2290    -1.5110 N.2   1 <1>  -0.7070 
 21 C       -2.3810    -7.0570    -0.4790 C.2   1 <1>  -0.1500 
 22 N       -1.9260    -5.5910    -2.0030 N.pl3 1 <1>   0.3000 
 23 C       -1.4450    -6.6800    -1.3740 C.2   1 <1>  -0.3320 
 24 C       -0.1060    -7.3230    -1.6870 C.3   1 <1>  -0.0600 
 25 H       -2.6620    -0.8830    -0.7610 H     1 <1>   0.0800 
 26 H       -1.3620    -2.0910    -0.8050 H     1 <1>   0.0800 
 27 H       -1.0250    -0.3210    -2.3140 H     1 <1>   0.1500 
 28 H       -3.1380    -1.4780     1.5800 H     1 <1>   0.0800 
 29 H       -1.8090    -2.6160     1.5730 H     1 <1>   0.0800 
 30 H        1.7090     1.3110     2.0800 H     1 <1>   0.0800 
 31 H        0.2670     0.3720     2.2250 H     1 <1>   0.0800 
 32 H        0.1550     2.1100     2.1660 H     1 <1>   0.0800 
 33 H        0.3350     1.2150    -3.6010 H     1 <1>   0.1500 
 34 H       -2.9930    -3.8910    -0.1650 H     1 <1>   0.4500 
 35 H        1.8370     2.7750    -2.4820 H     1 <1>   0.1500 
 36 H        2.6710     3.8130    -0.5930 H     1 <1>   0.0800 
 37 H        3.1160     2.6080     0.5850 H     1 <1>   0.0800 
 38 H        1.7730     3.6900     0.8910 H     1 <1>   0.0800 
 39 H       -5.0510    -1.8590     0.0350 H     1 <1>   0.0800 
 40 H       -4.4240    -2.7480    -1.3530 H     1 <1>   0.0800 
 41 H       -3.2540    -4.8340     1.8920 H     1 <1>   0.0800 
 42 H       -4.3920    -3.5780     2.3700 H     1 <1>   0.0800 
 43 H       -6.0580    -4.3260    -1.0410 H     1 <1>   0.0800 
 44 H       -5.9040    -5.1890     1.6150 H     1 <1>   0.0800 
 45 H       -6.7510    -3.0250     1.3930 H     1 <1>   0.4000 
 46 H       -5.4890    -6.5540    -0.4840 H     1 <1>   0.0800 
 47 H       -4.5910    -6.9700     0.9270 H     1 <1>   0.0800 
 48 H       -2.3580    -7.8980     0.1940 H     1 <1>   0.1500 
 49 H       -1.4600    -5.0970    -2.7770 H     1 <1>   0.2700 
 50 H        0.0500    -8.1830    -1.0590 H     1 <1>   0.0800 
 51 H        0.6960    -6.6270    -1.5160 H     1 <1>   0.0800 
 52 H       -0.0770    -7.6450    -2.7130 H     1 <1>   0.0800 
@<TRIPOS>BOND
  1   1   2  1   
  2   1   3  1   
  3   2   4  ar  
  4   2   5  ar  
  5   3   6  1   
  6   3  25  1   
  7   3  26  1   
  8   4   7  ar  
  9   4   8  1   
 10   5   9  ar  
 11   5  27  1   
 12   6  10  1   
 13   6  28  1   
 14   6  29  1   
 15   7  11  ar  
 16   7  12  1   
 17   8  30  1   
 18   8  31  1   
 19   8  32  1   
 20   9  11  ar  
 21   9  33  1   
 22  10  13  1   
 23  10  14  1   
 24  10  34  1   
 25  11  35  1   
 26  12  36  1   
 27  12  37  1   
 28  12  38  1   
 29  13  15  1   
 30  13  39  1   
 31  13  40  1   
 32  14  16  1   
 33  14  41  1   
 34  14  42  1   
 35  15  16  1   
 36  15  17  1   
 37  15  43  1   
 38  16  18  1   
 39  16  44  1   
 40  17  45  1   
 41  18  19  1   
 42  18  46  1   
 43  18  47  1   
 44  19  20  2   
 45  19  21  1   
 46  20  22  1   
 47  21  23  2   
 48  21  48  1   
 49  22  23  1   
 50  22  49  1   
 51  23  24  1   
 52  24  50  1   
 53  24  51  1   
 54  24  52  1   
@<TRIPOS>SUBSTRUCTURE
  1 ****   3 GROUP 4 **** **** 0

# MOE 2024.06 (io_trps.svl 2023.06)
