@<TRIPOS>MOLECULE
NONAME
44 46 1 0 0 
SMALL
USER_CHARGES


@<TRIPOS>ATOM
  1 S       -0.0190     0.1510     0.0720 S.o2  1 <1>   1.0900 
  2 O       -0.4730     0.8670    -1.0960 O.2   1 <1>  -0.6500 
  3 O       -0.1890     0.6830     1.4040 O.2   1 <1>  -0.6500 
  4 C        1.6850    -0.3120    -0.1600 C.3   1 <1>  -0.0550 
  5 C       -0.7030    -1.4940     0.0440 C.3   1 <1>  -0.0550 
  6 C        1.7240    -1.8070     0.0980 C.3   1 <1>   0.2000 
  7 C        0.4190    -2.3890    -0.4710 C.3   1 <1>   0.1900 
  8 O        2.8060    -2.3810    -0.5360 O.3   1 <1>  -0.6800 
  9 N        0.2590    -3.8360    -0.1970 N.3   1 <1>  -0.8100 
 10 C       -0.7920    -4.4290    -1.0520 C.3   1 <1>   0.2530 
 11 C        0.0680    -4.1990     1.2230 C.3   1 <1>   0.0300 
 12 C       -0.8030    -5.9520    -0.9560 C.ar  1 <1>  -0.1440 
 13 C       -1.9030    -6.6420    -0.4370 C.ar  1 <1>   0.0000 
 14 C        0.3090    -6.6530    -1.3970 C.ar  1 <1>  -0.1500 
 15 C       -3.0860    -5.9640     0.0440 C.ar  1 <1>   0.0000 
 16 C       -1.8490    -8.0310    -0.3810 C.ar  1 <1>  -0.1500 
 17 C        0.3450    -8.0340    -1.3330 C.ar  1 <1>  -0.1500 
 18 C       -4.0810    -5.5510    -0.8350 C.ar  1 <1>  -0.1500 
 19 C       -3.2530    -5.7010     1.3990 C.ar  1 <1>  -0.1500 
 20 C       -0.7390    -8.7240    -0.8230 C.ar  1 <1>  -0.1500 
 21 C       -5.2030    -4.8840    -0.3780 C.ar  1 <1>  -0.1500 
 22 C       -4.3730    -5.0340     1.8630 C.ar  1 <1>  -0.1500 
 23 C       -5.3500    -4.6230     0.9730 C.ar  1 <1>  -0.1500 
 24 H        1.9770    -0.1160    -1.1740 H     1 <1>   0.0800 
 25 H        2.3310     0.2140     0.5150 H     1 <1>   0.0800 
 26 H       -0.9790    -1.7710     1.0410 H     1 <1>   0.0800 
 27 H       -1.5630    -1.5430    -0.5950 H     1 <1>   0.0800 
 28 H        1.8030    -1.9930     1.1550 H     1 <1>   0.0800 
 29 H        0.4700    -2.2520    -1.5400 H     1 <1>   0.0800 
 30 H        2.6610    -3.3530    -0.5540 H     1 <1>   0.4000 
 31 H       -1.7480    -4.0160    -0.7840 H     1 <1>   0.0800 
 32 H       -0.6030    -4.1670    -2.0790 H     1 <1>   0.0800 
 33 H        0.1510    -5.2660     1.3410 H     1 <1>   0.0800 
 34 H       -0.9060    -3.8970     1.5680 H     1 <1>   0.0800 
 35 H        0.8210    -3.7480     1.8420 H     1 <1>   0.0800 
 36 H        1.1560    -6.1170    -1.7880 H     1 <1>   0.1500 
 37 H       -2.6910    -8.5700     0.0150 H     1 <1>   0.1500 
 38 H        1.2130    -8.5690    -1.6780 H     1 <1>   0.1500 
 39 H       -3.9700    -5.7570    -1.8850 H     1 <1>   0.1500 
 40 H       -2.4960    -6.0250     2.0910 H     1 <1>   0.1500 
 41 H       -0.7170    -9.7990    -0.7710 H     1 <1>   0.1500 
 42 H       -5.9650    -4.5700    -1.0720 H     1 <1>   0.1500 
 43 H       -4.4870    -4.8370     2.9140 H     1 <1>   0.1500 
 44 H       -6.2230    -4.1050     1.3310 H     1 <1>   0.1500 
@<TRIPOS>BOND
  1   1   2  2   
  2   1   3  2   
  3   1   4  1   
  4   1   5  1   
  5   4   6  1   
  6   4  24  1   
  7   4  25  1   
  8   5   7  1   
  9   5  26  1   
 10   5  27  1   
 11   6   7  1   
 12   6   8  1   
 13   6  28  1   
 14   7   9  1   
 15   7  29  1   
 16   8  30  1   
 17   9  10  1   
 18   9  11  1   
 19  10  12  1   
 20  10  31  1   
 21  10  32  1   
 22  11  33  1   
 23  11  34  1   
 24  11  35  1   
 25  12  13  ar  
 26  12  14  ar  
 27  13  15  1   
 28  13  16  ar  
 29  14  17  ar  
 30  14  36  1   
 31  15  18  ar  
 32  15  19  ar  
 33  16  20  ar  
 34  16  37  1   
 35  17  20  ar  
 36  17  38  1   
 37  18  21  ar  
 38  18  39  1   
 39  19  22  ar  
 40  19  40  1   
 41  20  41  1   
 42  21  23  ar  
 43  21  42  1   
 44  22  23  ar  
 45  22  43  1   
 46  23  44  1   
@<TRIPOS>SUBSTRUCTURE
  1 ****  10 GROUP 4 **** **** 0

# MOE 2024.06 (io_trps.svl 2023.06)
