@<TRIPOS>MOLECULE
NONAME
51 54 1 0 0 
SMALL
USER_CHARGES


@<TRIPOS>ATOM
  1 O       -1.0560     0.2500    -2.8580 O.2   1 <1>  -0.5700 
  2 C       -1.6850     0.8220    -1.9880 C.2   1 <1>   0.5440 
  3 N       -2.7230     0.1690    -1.3580 N.am  1 <1>  -0.6600 
  4 C       -1.3230     2.1830    -1.6400 C.ar  1 <1>   0.0860 
  5 C       -2.8460    -1.3280    -1.3620 C.3   1 <1>   0.1400 
  6 C       -3.9070     0.8720    -0.7990 C.3   1 <1>   0.1400 
  7 C       -1.1730     2.5770    -0.3150 C.ar  1 <1>  -0.1500 
  8 C       -1.1060     3.1400    -2.6500 C.ar  1 <1>  -0.1500 
  9 C       -3.0600    -1.8630     0.0720 C.3   1 <1>  -0.1060 
 10 C       -4.1540     0.4080     0.6360 C.3   1 <1>  -0.1600 
 11 C       -0.8380     3.8910    -0.0030 C.ar  1 <1>   0.0000 
 12 C       -0.7710     4.4450    -2.3550 C.ar  1 <1>  -0.1500 
 13 C       -3.4800    -3.3300     0.0350 C.2   1 <1>   0.9060 
 14 C       -4.2650    -1.1160     0.6870 C.3   1 <1>   0.2000 
 15 C       -1.7630    -1.6920     0.9170 C.3   1 <1>  -0.0160 
 16 C       -0.6440     4.8060    -1.0220 C.ar  1 <1>   0.1400 
 17 C       -0.6180     4.6240     1.1810 C.2   1 <1>  -0.1500 
 18 O       -3.7100    -3.8910    -1.0410 O.co2 1 <1>  -0.9000 
 19 O       -3.6850    -3.9010     1.1180 O.co2 1 <1>  -0.9000 
 20 O       -4.4300    -1.4880     2.0070 O.3   1 <1>  -0.6800 
 21 C       -0.5330    -2.3950     0.3490 C.ar  1 <1>  -0.1440 
 22 O       -0.3350     6.0000    -0.5220 O.3   1 <1>  -0.2800 
 23 C       -0.3210     5.8810     0.8010 C.2   1 <1>  -0.0400 
 24 C        0.4130    -1.6900    -0.3800 C.ar  1 <1>  -0.1500 
 25 C       -0.3430    -3.7510     0.5640 C.ar  1 <1>  -0.1500 
 26 C        0.0090     7.1100     1.6180 C.3   1 <1>  -0.0600 
 27 C        1.5330    -2.3290    -0.8830 C.ar  1 <1>  -0.1500 
 28 C        0.7750    -4.3930     0.0630 C.ar  1 <1>  -0.1500 
 29 C        1.7160    -3.6820    -0.6610 C.ar  1 <1>  -0.1500 
 30 H       -3.6860    -1.6000    -1.9780 H     1 <1>   0.0800 
 31 H       -1.9750    -1.7860    -1.7990 H     1 <1>   0.0800 
 32 H       -3.7740     1.9390    -0.8240 H     1 <1>   0.0800 
 33 H       -4.7640     0.6310    -1.4050 H     1 <1>   0.0800 
 34 H       -1.3130     1.8640     0.4780 H     1 <1>   0.1500 
 35 H       -1.2050     2.8260    -3.6760 H     1 <1>   0.1500 
 36 H       -5.0710     0.8400     0.9920 H     1 <1>   0.0800 
 37 H       -3.3550     0.7470     1.2680 H     1 <1>   0.0800 
 38 H       -0.6050     5.1800    -3.1220 H     1 <1>   0.1500 
 39 H       -5.1570    -1.4200     0.1630 H     1 <1>   0.0800 
 40 H       -1.5370    -0.6490     1.0250 H     1 <1>   0.0800 
 41 H       -1.9300    -2.0750     1.9090 H     1 <1>   0.0800 
 42 H       -0.6860     4.2130     2.1720 H     1 <1>   0.1500 
 43 H       -4.2870    -2.4790     2.0260 H     1 <1>   0.4000 
 44 H        0.2770    -0.6400    -0.5670 H     1 <1>   0.1500 
 45 H       -1.0780    -4.3130     1.1180 H     1 <1>   0.1500 
 46 H       -0.0130     6.8780     2.6670 H     1 <1>   0.0800 
 47 H       -0.7080     7.8850     1.4150 H     1 <1>   0.0800 
 48 H        0.9890     7.4660     1.3580 H     1 <1>   0.0800 
 49 H        2.2530    -1.7700    -1.4540 H     1 <1>   0.1500 
 50 H        0.9020    -5.4470     0.2340 H     1 <1>   0.1500 
 51 H        2.5830    -4.1810    -1.0540 H     1 <1>   0.1500 
@<TRIPOS>BOND
  1   1   2  2   
  2   2   3  am  
  3   2   4  1   
  4   3   5  1   
  5   3   6  1   
  6   4   7  ar  
  7   4   8  ar  
  8   5   9  1   
  9   5  30  1   
 10   5  31  1   
 11   6  10  1   
 12   6  32  1   
 13   6  33  1   
 14   7  11  ar  
 15   7  34  1   
 16   8  12  ar  
 17   8  35  1   
 18   9  13  1   
 19   9  14  1   
 20   9  15  1   
 21  10  14  1   
 22  10  36  1   
 23  10  37  1   
 24  11  16  ar  
 25  11  17  1   
 26  12  16  ar  
 27  12  38  1   
 28  13  18  ar  
 29  13  19  ar  
 30  14  20  1   
 31  14  39  1   
 32  15  21  1   
 33  15  40  1   
 34  15  41  1   
 35  16  22  1   
 36  17  23  2   
 37  17  42  1   
 38  20  43  1   
 39  21  24  ar  
 40  21  25  ar  
 41  22  23  1   
 42  23  26  1   
 43  24  27  ar  
 44  24  44  1   
 45  25  28  ar  
 46  25  45  1   
 47  26  46  1   
 48  26  47  1   
 49  26  48  1   
 50  27  29  ar  
 51  27  49  1   
 52  28  29  ar  
 53  28  50  1   
 54  29  51  1   
@<TRIPOS>SUBSTRUCTURE
  1 ****   3 GROUP 4 **** **** 0

# MOE 2024.06 (io_trps.svl 2023.06)
