@<TRIPOS>MOLECULE
NONAME
50 52 1 0 0 
SMALL
USER_CHARGES


@<TRIPOS>ATOM
  1 O       -1.0970     0.4170     0.2380 O.co2 1 <1>  -0.9000 
  2 C       -1.0000     1.4920     0.8340 C.2   1 <1>   0.9060 
  3 O       -0.7900     1.5620     2.0530 O.co2 1 <1>  -0.9000 
  4 C       -1.1670     2.7680     0.0460 C.3   1 <1>  -0.1860 
  5 C       -2.1820     3.7140     0.6990 C.3   1 <1>   0.2000 
  6 C        0.1890     3.4530    -0.1550 C.3   1 <1>   0.1400 
  7 O       -1.7710     3.9870     1.9880 O.3   1 <1>  -0.6800 
  8 C       -2.3130     5.0510    -0.0500 C.3   1 <1>  -0.1600 
  9 N        0.0560     4.8100    -0.7870 N.am  1 <1>  -0.6600 
 10 C       -1.3220     5.1980    -1.2120 C.3   1 <1>   0.1400 
 11 C        1.1660     5.6110    -0.8760 C.2   1 <1>   0.5690 
 12 O        2.2750     5.1900    -0.6390 O.2   1 <1>  -0.5700 
 13 C        1.0250     7.0730    -1.2890 C.3   1 <1>  -0.0990 
 14 C        2.3200     7.8990    -1.1530 C.3   1 <1>  -0.1600 
 15 C        2.1120     9.3660    -1.5590 C.3   1 <1>   0.0200 
 16 C        3.3810    10.1790    -1.3940 C.2   1 <1>   0.2980 
 17 O        4.4040     9.9170    -2.1650 O.3   1 <1>  -0.0190 
 18 N        3.5520    11.1200    -0.5620 N.2   1 <1>  -0.5650 
 19 N        5.3080    10.7660    -1.7880 N.2   1 <1>  -0.4100 
 20 C        4.8100    11.4780    -0.8390 C.2   1 <1>   0.4620 
 21 C        5.4980    12.5460    -0.1320 C.ar  1 <1>   0.0540 
 22 C        4.8800    13.2680     0.8900 C.ar  1 <1>  -0.1500 
 23 C        6.8130    12.8950    -0.4490 C.ar  1 <1>  -0.1500 
 24 C        5.5290    14.2860     1.5650 C.ar  1 <1>   0.0830 
 25 C        7.4750    13.9100     0.2170 C.ar  1 <1>  -0.1500 
 26 O        4.8280    14.9180     2.5400 O.3   1 <1>  -0.3630 
 27 C        6.8390    14.6100     1.2250 C.ar  1 <1>  -0.1500 
 28 C        5.3940    15.9690     3.2890 C.3   1 <1>   0.0400 
 29 H       -1.5410     2.4740    -0.9160 H     1 <1>   0.0800 
 30 H       -3.1380     3.2230     0.7720 H     1 <1>   0.0800 
 31 H        0.8210     2.8320    -0.7670 H     1 <1>   0.0800 
 32 H        0.6690     3.5670     0.8030 H     1 <1>   0.0800 
 33 H       -1.3690     3.1330     2.3330 H     1 <1>   0.4000 
 34 H       -3.3070     5.1210    -0.4500 H     1 <1>   0.0800 
 35 H       -2.1800     5.8740     0.6310 H     1 <1>   0.0800 
 36 H       -1.3550     6.2050    -1.5830 H     1 <1>   0.0800 
 37 H       -1.6190     4.5490    -2.0180 H     1 <1>   0.0800 
 38 H        0.6960     7.0980    -2.3110 H     1 <1>   0.0800 
 39 H        0.2680     7.5190    -0.6700 H     1 <1>   0.0800 
 40 H        2.6590     7.8580    -0.1310 H     1 <1>   0.0800 
 41 H        3.0880     7.4610    -1.7690 H     1 <1>   0.0800 
 42 H        1.3430     9.8040    -0.9470 H     1 <1>   0.0800 
 43 H        1.7980     9.4240    -2.5850 H     1 <1>   0.0800 
 44 H        3.8690    13.0360     1.1700 H     1 <1>   0.1500 
 45 H        7.3240    12.3610    -1.2310 H     1 <1>   0.1500 
 46 H        8.4890    14.1550    -0.0510 H     1 <1>   0.1500 
 47 H        7.3720    15.3930     1.7280 H     1 <1>   0.1500 
 48 H        4.6580    16.3100     3.9950 H     1 <1>   0.0800 
 49 H        5.6590    16.7700     2.6220 H     1 <1>   0.0800 
 50 H        6.2580    15.5990     3.8120 H     1 <1>   0.0800 
@<TRIPOS>BOND
  1   1   2  ar  
  2   2   3  ar  
  3   2   4  1   
  4   4   5  1   
  5   4   6  1   
  6   4  29  1   
  7   5   7  1   
  8   5   8  1   
  9   5  30  1   
 10   6   9  1   
 11   6  31  1   
 12   6  32  1   
 13   7  33  1   
 14   8  10  1   
 15   8  34  1   
 16   8  35  1   
 17   9  10  1   
 18   9  11  am  
 19  10  36  1   
 20  10  37  1   
 21  11  12  2   
 22  11  13  1   
 23  13  14  1   
 24  13  38  1   
 25  13  39  1   
 26  14  15  1   
 27  14  40  1   
 28  14  41  1   
 29  15  16  1   
 30  15  42  1   
 31  15  43  1   
 32  16  17  1   
 33  16  18  2   
 34  17  19  1   
 35  18  20  1   
 36  19  20  2   
 37  20  21  1   
 38  21  22  ar  
 39  21  23  ar  
 40  22  24  ar  
 41  22  44  1   
 42  23  25  ar  
 43  23  45  1   
 44  24  26  1   
 45  24  27  ar  
 46  25  27  ar  
 47  25  46  1   
 48  26  28  1   
 49  27  47  1   
 50  28  48  1   
 51  28  49  1   
 52  28  50  1   
@<TRIPOS>SUBSTRUCTURE
  1 ****  14 GROUP 4 **** **** 0

# MOE 2024.06 (io_trps.svl 2023.06)
