@<TRIPOS>MOLECULE
Untitled Document
45 47 1 0 0 
SMALL
USER_CHARGES


@<TRIPOS>ATOM
  1 F        1.2800    -0.9870     2.5670 F     1 <1>  -0.3400 
  2 C        2.0400    -1.6070     1.6750 C.3   1 <1>   0.8800 
  3 F        2.5210    -2.6810     2.2950 F     1 <1>  -0.3400 
  4 O        3.1150    -0.7520     1.3570 O.3   1 <1>  -0.3630 
  5 C        4.1730    -1.1480     0.5980 C.ar  1 <1>   0.0830 
  6 C        4.1240    -2.1550    -0.4010 C.ar  1 <1>   0.0830 
  7 C        5.3580    -0.5030     0.8350 C.ar  1 <1>  -0.1500 
  8 O        2.9640    -2.8000    -0.6670 O.3   1 <1>  -0.3630 
  9 C        5.2570    -2.4550    -1.1170 C.ar  1 <1>  -0.1500 
 10 C        6.5340    -0.8070     0.1220 C.ar  1 <1>   0.0000 
 11 C        2.9820    -4.2090    -0.6090 C.3   1 <1>   0.8800 
 12 C        6.4810    -1.8030    -0.8720 C.ar  1 <1>   0.0000 
 13 C        7.7580    -0.1530     0.3650 C.ar  1 <1>  -0.1500 
 14 F        3.1630    -4.6770    -1.8370 F     1 <1>  -0.3400 
 15 F        1.7720    -4.6050    -0.2430 F     1 <1>  -0.3400 
 16 C        7.6580    -2.1040    -1.5800 C.ar  1 <1>  -0.1500 
 17 C        8.9020    -0.4410    -0.3430 C.ar  1 <1>  -0.1430 
 18 C        8.8310    -1.4490    -1.3230 C.ar  1 <1>  -0.1500 
 19 C       10.2590     0.2660    -0.1120 C.3   1 <1>   0.6040 
 20 O       10.0820     1.2800     0.8190 O.3   1 <1>  -0.6800 
 21 C       11.2600    -0.7630     0.4550 C.2   1 <1>   0.0460 
 22 C       10.7670     0.9680    -1.4190 C.3   1 <1>  -0.0800 
 23 N       11.0870    -1.3220     1.6670 N.2   1 <1>  -0.2270 
 24 C       12.3730    -1.2840    -0.1000 C.2   1 <1>  -0.3020 
 25 C       12.0310     1.8370    -1.2190 C.3   1 <1>  -0.2400 
 26 C        9.6980     1.8470    -2.1070 C.3   1 <1>  -0.2400 
 27 N       12.0490    -2.1520     1.8750 N.2   1 <1>  -0.4180 
 28 N       12.8450    -2.1380     0.8090 N.pl3 1 <1>   0.3000 
 29 H        1.4460    -1.8910     0.8250 H     1 <1>   0.0800 
 30 H        5.4030     0.2590     1.5910 H     1 <1>   0.1500 
 31 H        5.2380    -3.1900    -1.9010 H     1 <1>   0.1500 
 32 H        3.7240    -4.6040     0.0630 H     1 <1>   0.0800 
 33 H        7.7600     0.5840     1.1490 H     1 <1>   0.1500 
 34 H        7.6220    -2.8710    -2.3330 H     1 <1>   0.1500 
 35 H        9.7150    -1.7150    -1.8740 H     1 <1>   0.1500 
 36 H        9.4400     1.9050     0.4480 H     1 <1>   0.4000 
 37 H       11.0240     0.1910    -2.1160 H     1 <1>   0.0800 
 38 H       12.8430    -1.1090    -1.0490 H     1 <1>   0.1500 
 39 H       11.8130     2.6910    -0.6020 H     1 <1>   0.0800 
 40 H       12.3960     2.1900    -2.1670 H     1 <1>   0.0800 
 41 H       12.8190     1.2820    -0.7440 H     1 <1>   0.0800 
 42 H        9.3960     2.6600    -1.4710 H     1 <1>   0.0800 
 43 H        8.8270     1.2720    -2.3660 H     1 <1>   0.0800 
 44 H       10.0920     2.2640    -3.0180 H     1 <1>   0.0800 
 45 H       13.6860    -2.7200     0.7440 H     1 <1>   0.2700 
@<TRIPOS>BOND
  1   1   2  1   
  2   2   3  1   
  3   2   4  1   
  4   2  29  1   
  5   4   5  1   
  6   5   6  ar  
  7   5   7  ar  
  8   6   8  1   
  9   6   9  ar  
 10   7  10  ar  
 11   7  30  1   
 12   8  11  1   
 13   9  12  ar  
 14   9  31  1   
 15  10  12  ar  
 16  10  13  ar  
 17  11  14  1   
 18  11  15  1   
 19  11  32  1   
 20  12  16  ar  
 21  13  17  ar  
 22  13  33  1   
 23  16  18  ar  
 24  16  34  1   
 25  17  18  ar  
 26  17  19  1   
 27  18  35  1   
 28  19  20  1   
 29  19  21  1   
 30  19  22  1   
 31  20  36  1   
 32  21  23  1   
 33  21  24  2   
 34  22  25  1   
 35  22  26  1   
 36  22  37  1   
 37  23  27  2   
 38  24  28  1   
 39  24  38  1   
 40  25  39  1   
 41  25  40  1   
 42  25  41  1   
 43  26  42  1   
 44  26  43  1   
 45  26  44  1   
 46  27  28  1   
 47  28  45  1   
@<TRIPOS>SUBSTRUCTURE
  1 ****  10 GROUP 4 **** **** 0

# MOE 2024.06 (io_trps.svl 2023.06)
