@<TRIPOS>MOLECULE
NONAME
43 45 1 0 0 
SMALL
USER_CHARGES


@<TRIPOS>ATOM
  1 CL       2.1050     0.5280     1.2120 Cl    1 <1>  -0.1770 
  2 C        1.7680     2.2300     1.0550 C.ar  1 <1>   0.1770 
  3 C        0.5680     2.6370     0.5070 C.ar  1 <1>  -0.1500 
  4 C        2.7090     3.1530     1.4810 C.ar  1 <1>  -0.1500 
  5 C        0.3330     3.9940     0.3940 C.ar  1 <1>   0.1900 
  6 C        2.4440     4.5070     1.3600 C.ar  1 <1>  -0.1500 
  7 F       -0.7970     4.3680    -0.1400 F     1 <1>  -0.1900 
  8 C        1.2430     4.9630     0.8120 C.ar  1 <1>   0.0860 
  9 C        0.9700     6.3740     0.6790 C.2   1 <1>   0.5440 
 10 O        0.5160     6.9750     1.6350 O.2   1 <1>  -0.5700 
 11 N        1.2370     7.0610    -0.4890 N.am  1 <1>  -0.6600 
 12 C        1.9430     6.4310    -1.6550 C.3   1 <1>   0.1400 
 13 C        0.9800     8.5250    -0.5810 C.3   1 <1>   0.1400 
 14 C        3.1640     7.2300    -2.1440 C.3   1 <1>   0.1400 
 15 C        2.1390     9.3180     0.0430 C.3   1 <1>  -0.1600 
 16 N        3.8890     7.8830    -1.0160 N.am  1 <1>  -0.6600 
 17 C        3.4550     9.2800    -0.7460 C.3   1 <1>   0.1400 
 18 C        4.7060     7.1340    -0.2050 C.2   1 <1>   0.5690 
 19 O        4.8880     5.9550    -0.4140 O.2   1 <1>  -0.5700 
 20 C        5.3930     7.7400     1.0120 C.3   1 <1>  -0.0040 
 21 C        6.6640     8.5220     0.6430 C.3   1 <1>  -0.1950 
 22 C        7.9700     7.8120     0.4830 C.3   1 <1>  -0.2000 
 23 C        7.7510     8.7350     1.6490 C.3   1 <1>  -0.2000 
 24 H       -0.1600     1.9190     0.1760 H     1 <1>   0.1500 
 25 H        3.6400     2.8110     1.8990 H     1 <1>   0.1500 
 26 H        3.1750     5.2280     1.6850 H     1 <1>   0.1500 
 27 H        1.2480     6.3130    -2.4660 H     1 <1>   0.0800 
 28 H        2.2930     5.4490    -1.3920 H     1 <1>   0.0800 
 29 H        0.0720     8.7520    -0.0470 H     1 <1>   0.0800 
 30 H        0.8340     8.8110    -1.6080 H     1 <1>   0.0800 
 31 H        2.8440     7.9730    -2.8520 H     1 <1>   0.0800 
 32 H        3.8340     6.5650    -2.6630 H     1 <1>   0.0800 
 33 H        2.3060     8.9680     1.0460 H     1 <1>   0.0800 
 34 H        1.8330    10.3450     0.1220 H     1 <1>   0.0800 
 35 H        4.2150     9.8070    -0.1980 H     1 <1>   0.0800 
 36 H        3.3290     9.7960    -1.6820 H     1 <1>   0.0800 
 37 H        5.6500     6.9400     1.6830 H     1 <1>   0.0800 
 38 H        4.7080     8.3790     1.5350 H     1 <1>   0.0800 
 39 H        6.4710     9.3250    -0.0470 H     1 <1>   0.1000 
 40 H        8.6290     8.1210    -0.3100 H     1 <1>   0.1000 
 41 H        8.0070     6.7500     0.6560 H     1 <1>   0.1000 
 42 H        7.6580     8.3040     2.6300 H     1 <1>   0.1000 
 43 H        8.2670     9.6800     1.6620 H     1 <1>   0.1000 
@<TRIPOS>BOND
  1   1   2  1   
  2   2   3  ar  
  3   2   4  ar  
  4   3   5  ar  
  5   3  24  1   
  6   4   6  ar  
  7   4  25  1   
  8   5   7  1   
  9   5   8  ar  
 10   6   8  ar  
 11   6  26  1   
 12   8   9  1   
 13   9  10  2   
 14   9  11  am  
 15  11  12  1   
 16  11  13  1   
 17  12  14  1   
 18  12  27  1   
 19  12  28  1   
 20  13  15  1   
 21  13  29  1   
 22  13  30  1   
 23  14  16  1   
 24  14  31  1   
 25  14  32  1   
 26  15  17  1   
 27  15  33  1   
 28  15  34  1   
 29  16  17  1   
 30  16  18  am  
 31  17  35  1   
 32  17  36  1   
 33  18  19  2   
 34  18  20  1   
 35  20  21  1   
 36  20  37  1   
 37  20  38  1   
 38  21  22  1   
 39  21  23  1   
 40  21  39  1   
 41  22  23  1   
 42  22  40  1   
 43  22  41  1   
 44  23  42  1   
 45  23  43  1   
@<TRIPOS>SUBSTRUCTURE
  1 ****   9 GROUP 4 **** **** 0

# MOE 2024.06 (io_trps.svl 2023.06)
