@<TRIPOS>MOLECULE
NONAME
44 47 1 0 0 
SMALL
USER_CHARGES


@<TRIPOS>ATOM
  1 O       -0.4130    -1.0210     1.2810 O.3   1 <1>  -0.5600 
  2 C       -0.0230    -1.8120     0.1850 C.3   1 <1>   0.4180 
  3 C       -1.3140     0.0250     1.0460 C.3   1 <1>   0.1200 
  4 C       -1.2120    -2.0650    -0.7430 C.2   1 <1>  -0.2880 
  5 C        0.4540    -3.1420     0.7930 C.3   1 <1>  -0.1600 
  6 C        1.1110    -1.0980    -0.5760 C.3   1 <1>  -0.1600 
  7 C       -2.6540    -0.5160     0.5300 C.3   1 <1>  -0.0220 
  8 C       -2.4140    -1.5020    -0.5970 C.2   1 <1>  -0.2760 
  9 C        1.5990    -3.7520    -0.0150 C.3   1 <1>   0.1100 
 10 C        2.4670    -1.4090     0.0550 C.3   1 <1>   0.1100 
 11 C       -3.6110    -1.7810    -1.4880 C.3   1 <1>  -0.1020 
 12 N        2.7740    -2.8570    -0.0290 N.3   1 <1>  -0.8100 
 13 C        3.6960    -3.1950    -1.1410 C.3   1 <1>   0.2900 
 14 C        5.0670    -2.5360    -1.0240 C.2   1 <1>   0.2980 
 15 O        5.8500    -2.8110    -0.0300 O.3   1 <1>  -0.2800 
 16 N        5.5890    -1.6910    -1.8330 N.2   1 <1>  -0.3380 
 17 C        6.8940    -2.0830    -0.2530 C.2   1 <1>   0.3930 
 18 N        6.7860    -1.3940    -1.3250 N.2   1 <1>  -0.3380 
 19 C        8.0570    -2.1250     0.7240 C.3   1 <1>  -0.0150 
 20 C        9.4620    -1.8400     0.2850 C.3   1 <1>  -0.2000 
 21 C        9.0610    -3.2360     0.6630 C.3   1 <1>  -0.2000 
 22 H       -0.8830     0.7000     0.3290 H     1 <1>   0.0800 
 23 H       -1.4550     0.5510     1.9740 H     1 <1>   0.0800 
 24 H       -0.9830    -2.7600    -1.5290 H     1 <1>   0.1500 
 25 H       -0.3670    -3.8340     0.8390 H     1 <1>   0.0800 
 26 H        0.8050    -2.9840     1.7980 H     1 <1>   0.0800 
 27 H        0.9490    -0.0380    -0.5900 H     1 <1>   0.0800 
 28 H        1.1320    -1.4280    -1.5980 H     1 <1>   0.0800 
 29 H       -3.2450     0.3120     0.1830 H     1 <1>   0.0800 
 30 H       -3.1850    -0.9980     1.3320 H     1 <1>   0.0800 
 31 H        1.2580    -3.9300    -1.0210 H     1 <1>   0.0800 
 32 H        1.8850    -4.6970     0.4170 H     1 <1>   0.0800 
 33 H        2.4360    -1.1270     1.0950 H     1 <1>   0.0800 
 34 H        3.2360    -0.8200    -0.4140 H     1 <1>   0.0800 
 35 H       -4.4230    -2.1750    -0.9020 H     1 <1>   0.0800 
 36 H       -3.3580    -2.5000    -2.2460 H     1 <1>   0.0800 
 37 H       -3.9360    -0.8760    -1.9690 H     1 <1>   0.0800 
 38 H        3.2500    -2.9040    -2.0760 H     1 <1>   0.0800 
 39 H        3.8480    -4.2600    -1.1600 H     1 <1>   0.0800 
 40 H        7.7660    -1.7750     1.6980 H     1 <1>   0.1000 
 41 H       10.1030    -1.2830     0.9440 H     1 <1>   0.1000 
 42 H        9.6390    -1.6130    -0.7530 H     1 <1>   0.1000 
 43 H        8.9680    -3.9730    -0.1160 H     1 <1>   0.1000 
 44 H        9.4250    -3.6520     1.5860 H     1 <1>   0.1000 
@<TRIPOS>BOND
  1   1   2  1   
  2   1   3  1   
  3   2   4  1   
  4   2   5  1   
  5   2   6  1   
  6   3   7  1   
  7   3  22  1   
  8   3  23  1   
  9   4   8  2   
 10   4  24  1   
 11   5   9  1   
 12   5  25  1   
 13   5  26  1   
 14   6  10  1   
 15   6  27  1   
 16   6  28  1   
 17   7   8  1   
 18   7  29  1   
 19   7  30  1   
 20   8  11  1   
 21   9  12  1   
 22   9  31  1   
 23   9  32  1   
 24  10  12  1   
 25  10  33  1   
 26  10  34  1   
 27  11  35  1   
 28  11  36  1   
 29  11  37  1   
 30  12  13  1   
 31  13  14  1   
 32  13  38  1   
 33  13  39  1   
 34  14  15  1   
 35  14  16  2   
 36  15  17  1   
 37  16  18  1   
 38  17  18  2   
 39  17  19  1   
 40  19  20  1   
 41  19  21  1   
 42  19  40  1   
 43  20  21  1   
 44  20  41  1   
 45  20  42  1   
 46  21  43  1   
 47  21  44  1   
@<TRIPOS>SUBSTRUCTURE
  1 ****  10 GROUP 4 **** **** 0

# MOE 2024.06 (io_trps.svl 2023.06)
