@<TRIPOS>MOLECULE
NONAME
59 61 1 0 0 
SMALL
USER_CHARGES


@<TRIPOS>ATOM
  1 O        0.9780     0.0430    -3.5160 O.2   1 <1>  -0.5700 
  2 C        1.3590    -0.3410    -2.4350 C.2   1 <1>   0.5690 
  3 N        1.8350     0.5280    -1.5070 N.am  1 <1>  -0.7300 
  4 C        1.3580    -1.8430    -2.1140 C.3   1 <1>   0.1710 
  5 C        1.9220     1.9860    -1.6620 C.3   1 <1>   0.2840 
  6 N        0.2100    -2.3650    -1.3130 N.3   1 <1>  -0.8100 
  7 C        3.1800     2.4600    -0.9540 C.ar  1 <1>  -0.1440 
  8 C        0.2630    -3.8470    -1.2500 C.3   1 <1>   0.1100 
  9 C        0.0330    -1.7200    -0.0090 C.3   1 <1>   0.1100 
 10 C        3.2580     2.4660     0.4370 C.ar  1 <1>   0.0820 
 11 C        4.2650     2.8890    -1.7040 C.ar  1 <1>  -0.1500 
 12 C       -0.6820    -4.4980    -0.1980 C.3   1 <1>   0.0000 
 13 C       -1.3140    -2.1310     0.6030 C.3   1 <1>  -0.1600 
 14 O        2.1770     2.0220     1.1350 O.3   1 <1>  -0.3630 
 15 C        4.4220     2.9120     1.0580 C.ar  1 <1>  -0.1500 
 16 C        5.4190     3.3290    -1.0810 C.ar  1 <1>  -0.1500 
 17 C       -1.8190    -3.4830     0.0800 C.3   1 <1>   0.2000 
 18 C       -1.3260    -5.7620    -0.8200 C.3   1 <1>   0.1200 
 19 C        0.0630    -4.8560     1.1300 C.3   1 <1>  -0.0170 
 20 C        2.0750     2.2140     2.5290 C.3   1 <1>   0.0400 
 21 C        5.4970     3.3420     0.3000 C.ar  1 <1>  -0.1500 
 22 O       -2.7430    -3.9860     0.9860 O.3   1 <1>  -0.6800 
 23 O       -0.3700    -6.6050    -1.3740 O.3   1 <1>  -0.6800 
 24 C        1.1780    -5.8930     1.0310 C.ar  1 <1>  -0.1440 
 25 C        2.4830    -5.5080     0.7600 C.ar  1 <1>  -0.1500 
 26 C        0.9020    -7.2380     1.2370 C.ar  1 <1>  -0.1500 
 27 C        3.4900    -6.4520     0.6690 C.ar  1 <1>  -0.1500 
 28 C        1.9070    -8.1830     1.1450 C.ar  1 <1>  -0.1500 
 29 C        3.2020    -7.7920     0.8580 C.ar  1 <1>  -0.1500 
 30 H        2.1380     0.2080    -0.5860 H     1 <1>   0.3700 
 31 H        2.2760    -2.0760    -1.6070 H     1 <1>   0.0800 
 32 H        1.3720    -2.3600    -3.0570 H     1 <1>   0.0800 
 33 H        1.9470     2.2450    -2.7070 H     1 <1>   0.0800 
 34 H        1.0550     2.4450    -1.2180 H     1 <1>   0.0800 
 35 H       -0.0110    -4.2040    -2.2290 H     1 <1>   0.0800 
 36 H        1.2730    -4.1710    -1.0840 H     1 <1>   0.0800 
 37 H        0.8480    -1.9920     0.6390 H     1 <1>   0.0800 
 38 H        0.0320    -0.6500    -0.1170 H     1 <1>   0.0800 
 39 H        4.2160     2.8800    -2.7790 H     1 <1>   0.1500 
 40 H       -2.0430    -1.3820     0.3500 H     1 <1>   0.0800 
 41 H       -1.2100    -2.1400     1.6720 H     1 <1>   0.0800 
 42 H        4.5150     2.9280     2.1270 H     1 <1>   0.1500 
 43 H        6.2560     3.6610    -1.6710 H     1 <1>   0.1500 
 44 H       -2.3470    -3.3100    -0.8440 H     1 <1>   0.0800 
 45 H       -2.0040    -5.4890    -1.6110 H     1 <1>   0.0800 
 46 H       -1.8770    -6.3160    -0.0790 H     1 <1>   0.0800 
 47 H        0.4840    -3.9710     1.5660 H     1 <1>   0.0800 
 48 H       -0.6530    -5.2270     1.8410 H     1 <1>   0.0800 
 49 H        1.1020     1.8820     2.8430 H     1 <1>   0.0800 
 50 H        2.1900     3.2620     2.7470 H     1 <1>   0.0800 
 51 H        2.8360     1.6330     3.0200 H     1 <1>   0.0800 
 52 H        6.3950     3.6850     0.7830 H     1 <1>   0.1500 
 53 H       -2.3950    -3.9290     1.8940 H     1 <1>   0.4000 
 54 H        0.3330    -6.7960    -0.7120 H     1 <1>   0.4000 
 55 H        2.7250    -4.4690     0.6200 H     1 <1>   0.1500 
 56 H       -0.1000    -7.5590     1.4680 H     1 <1>   0.1500 
 57 H        4.4990    -6.1460     0.4520 H     1 <1>   0.1500 
 58 H        1.6830    -9.2250     1.2990 H     1 <1>   0.1500 
 59 H        3.9840    -8.5280     0.7860 H     1 <1>   0.1500 
@<TRIPOS>BOND
  1   1   2  2   
  2   2   3  am  
  3   2   4  1   
  4   3   5  1   
  5   3  30  1   
  6   4   6  1   
  7   4  31  1   
  8   4  32  1   
  9   5   7  1   
 10   5  33  1   
 11   5  34  1   
 12   6   8  1   
 13   6   9  1   
 14   7  10  ar  
 15   7  11  ar  
 16   8  12  1   
 17   8  35  1   
 18   8  36  1   
 19   9  13  1   
 20   9  37  1   
 21   9  38  1   
 22  10  14  1   
 23  10  15  ar  
 24  11  16  ar  
 25  11  39  1   
 26  12  17  1   
 27  12  18  1   
 28  12  19  1   
 29  13  17  1   
 30  13  40  1   
 31  13  41  1   
 32  14  20  1   
 33  15  21  ar  
 34  15  42  1   
 35  16  21  ar  
 36  16  43  1   
 37  17  22  1   
 38  17  44  1   
 39  18  23  1   
 40  18  45  1   
 41  18  46  1   
 42  19  24  1   
 43  19  47  1   
 44  19  48  1   
 45  20  49  1   
 46  20  50  1   
 47  20  51  1   
 48  21  52  1   
 49  22  53  1   
 50  23  54  1   
 51  24  25  ar  
 52  24  26  ar  
 53  25  27  ar  
 54  25  55  1   
 55  26  28  ar  
 56  26  56  1   
 57  27  29  ar  
 58  27  57  1   
 59  28  29  ar  
 60  28  58  1   
 61  29  59  1   
@<TRIPOS>SUBSTRUCTURE
  1 ****   9 GROUP 4 **** **** 0

# MOE 2024.06 (io_trps.svl 2023.06)
