@<TRIPOS>MOLECULE
NONAME
42 44 1 0 0 
SMALL
USER_CHARGES


@<TRIPOS>ATOM
  1 CL       0.3020    -1.8420     3.3870 Cl    1 <1>  -0.1770 
  2 C        1.3060    -2.0710     1.9780 C.ar  1 <1>   0.1770 
  3 C        1.1750    -3.2280     1.2390 C.ar  1 <1>  -0.1500 
  4 C        2.2120    -1.0930     1.6260 C.ar  1 <1>  -0.1500 
  5 C        1.9630    -3.4440     0.1090 C.ar  1 <1>   0.0860 
  6 C        3.0010    -1.2870     0.5070 C.ar  1 <1>  -0.1500 
  7 C        2.8850    -2.4470    -0.2470 C.ar  1 <1>  -0.1440 
  8 C        1.8010    -4.6810    -0.6350 C.2   1 <1>   0.5440 
  9 C        3.7830    -2.6120    -1.4680 C.3   1 <1>  -0.0960 
 10 O        1.6040    -4.6850    -1.8340 O.2   1 <1>  -0.5700 
 11 N        1.8440    -5.8770     0.0180 N.am  1 <1>  -0.7300 
 12 C        1.7320    -7.2100    -0.6200 C.3   1 <1>   0.2200 
 13 C        0.3650    -7.8320    -0.3680 C.3   1 <1>  -0.0800 
 14 C        2.6240    -8.1870     0.1310 C.3   1 <1>   0.1200 
 15 C        0.5290    -8.4790     1.0120 C.3   1 <1>   0.1200 
 16 C       -0.8400    -6.8800    -0.4860 C.3   1 <1>  -0.0170 
 17 O        1.9020    -8.5260     1.2760 O.3   1 <1>  -0.5600 
 18 C       -2.1470    -7.6370    -0.3090 C.ar  1 <1>  -0.1430 
 19 C       -2.8260    -7.6630     0.8920 C.ar  1 <1>  -0.1500 
 20 C       -2.7210    -8.3420    -1.3480 C.ar  1 <1>  -0.1500 
 21 C       -4.0090    -8.3760     0.9960 C.ar  1 <1>   0.1600 
 22 C       -3.9090    -9.0230    -1.1400 C.ar  1 <1>   0.1600 
 23 N       -4.5660    -9.0590     0.0090 N.ar  1 <1>  -0.6200 
 24 H        0.4520    -3.9620     1.5420 H     1 <1>   0.1500 
 25 H        2.2950    -0.1980     2.2160 H     1 <1>   0.1500 
 26 H        3.7080    -0.5240     0.2270 H     1 <1>   0.1500 
 27 H        4.5350    -1.8460    -1.5080 H     1 <1>   0.0800 
 28 H        3.1920    -2.5550    -2.3650 H     1 <1>   0.0800 
 29 H        4.2760    -3.5670    -1.4430 H     1 <1>   0.0800 
 30 H        2.0240    -5.9140     1.0240 H     1 <1>   0.3700 
 31 H        1.9780    -7.1540    -1.6680 H     1 <1>   0.0800 
 32 H        0.2330    -8.6270    -1.0810 H     1 <1>   0.0800 
 33 H        3.5720    -7.7620     0.4090 H     1 <1>   0.0800 
 34 H        2.7760    -9.0850    -0.4420 H     1 <1>   0.0800 
 35 H        0.1330    -9.4800     1.0310 H     1 <1>   0.0800 
 36 H        0.0700    -7.8910     1.7860 H     1 <1>   0.0800 
 37 H       -0.8280    -6.4080    -1.4530 H     1 <1>   0.0800 
 38 H       -0.7780    -6.1010     0.2520 H     1 <1>   0.0800 
 39 H       -2.4490    -7.1350     1.7490 H     1 <1>   0.1500 
 40 H       -2.2570    -8.3660    -2.3170 H     1 <1>   0.1500 
 41 H       -4.5240    -8.3850     1.9410 H     1 <1>   0.1500 
 42 H       -4.3420    -9.5670    -1.9620 H     1 <1>   0.1500 
@<TRIPOS>BOND
  1   1   2  1   
  2   2   3  ar  
  3   2   4  ar  
  4   3   5  ar  
  5   3  24  1   
  6   4   6  ar  
  7   4  25  1   
  8   5   7  ar  
  9   5   8  1   
 10   6   7  ar  
 11   6  26  1   
 12   7   9  1   
 13   8  10  2   
 14   8  11  am  
 15   9  27  1   
 16   9  28  1   
 17   9  29  1   
 18  11  12  1   
 19  11  30  1   
 20  12  13  1   
 21  12  14  1   
 22  12  31  1   
 23  13  15  1   
 24  13  16  1   
 25  13  32  1   
 26  14  17  1   
 27  14  33  1   
 28  14  34  1   
 29  15  17  1   
 30  15  35  1   
 31  15  36  1   
 32  16  18  1   
 33  16  37  1   
 34  16  38  1   
 35  18  19  ar  
 36  18  20  ar  
 37  19  21  ar  
 38  19  39  1   
 39  20  22  ar  
 40  20  40  1   
 41  21  23  ar  
 42  21  41  1   
 43  22  23  ar  
 44  22  42  1   
@<TRIPOS>SUBSTRUCTURE
  1 ****  11 GROUP 4 **** **** 0

# MOE 2024.06 (io_trps.svl 2023.06)
