@<TRIPOS>MOLECULE
NONAME
47 49 1 0 0 
SMALL
USER_CHARGES


@<TRIPOS>ATOM
  1 S        0.2970     0.0490     0.6500 S.o2  1 <1>   1.3330 
  2 O       -0.6380     0.1160     1.7500 O.2   1 <1>  -0.6500 
  3 O        1.7170     0.0990     0.9120 O.2   1 <1>  -0.6500 
  4 N       -0.0190    -1.3640    -0.2360 N.am  1 <1>  -0.8490 
  5 C       -0.1300     1.3460    -0.5090 C.3   1 <1>  -0.0550 
  6 C       -0.4190    -2.4830     0.6240 C.3   1 <1>   0.1160 
  7 C        1.0940    -1.7730    -1.0990 C.3   1 <1>   0.1160 
  8 C       -0.0240     2.7570     0.0920 C.3   1 <1>  -0.0800 
  9 C       -0.4700     3.8370    -0.8900 C.3   1 <1>   0.2000 
 10 C        1.3960     3.1740     0.4800 C.3   1 <1>   0.1400 
 11 O       -1.8490     3.9570    -0.8670 O.3   1 <1>  -0.6800 
 12 C        0.2250     5.1160    -0.4290 C.3   1 <1>   0.1400 
 13 N        1.4250     4.6460     0.3070 N.am  1 <1>  -0.6600 
 14 C        2.4920     5.4280     0.7130 C.2   1 <1>   0.7160 
 15 O        3.4530     4.8450     1.1850 O.2   1 <1>  -0.5700 
 16 C        2.5140     6.8830     0.5950 C.2   1 <1>   0.1410 
 17 N        1.4250     7.6880     0.4090 N.2   1 <1>  -0.5650 
 18 C        3.6090     7.6930     0.6570 C.2   1 <1>  -0.0150 
 19 C        1.9020     8.9130     0.3740 C.2   1 <1>   0.1410 
 20 F        4.8630     7.3480     0.8130 F     1 <1>  -0.1370 
 21 N        3.2680     8.9750     0.5260 N.pl3 1 <1>   0.3340 
 22 C        1.1900    10.1290     0.2020 C.2   1 <1>  -0.1050 
 23 C        3.9480    10.1880     0.5110 C.2   1 <1>  -0.1810 
 24 C        1.8470    11.3240     0.1860 C.2   1 <1>  -0.1380 
 25 C        3.2610    11.3480     0.3450 C.2   1 <1>  -0.1500 
 26 C        1.1200    12.6440     0.0040 C.3   1 <1>  -0.1020 
 27 H        0.5020     1.2770    -1.3720 H     1 <1>   0.0800 
 28 H       -1.1420     1.1920    -0.8330 H     1 <1>   0.0800 
 29 H       -0.6260    -3.3560     0.0300 H     1 <1>   0.0800 
 30 H       -1.3130    -2.2280     1.1680 H     1 <1>   0.0800 
 31 H        0.3620    -2.7100     1.3310 H     1 <1>   0.0800 
 32 H        0.8030    -2.6160    -1.7020 H     1 <1>   0.0800 
 33 H        1.9520    -2.0460    -0.5060 H     1 <1>   0.0800 
 34 H        1.3710    -0.9660    -1.7550 H     1 <1>   0.0800 
 35 H       -0.6280     2.8130     0.9820 H     1 <1>   0.0800 
 36 H       -0.1660     3.6030    -1.8960 H     1 <1>   0.0800 
 37 H        2.1280     2.7310    -0.1750 H     1 <1>   0.0800 
 38 H        1.6260     2.9040     1.4990 H     1 <1>   0.0800 
 39 H       -2.1570     4.1870     0.0310 H     1 <1>   0.4000 
 40 H       -0.4020     5.6760     0.2420 H     1 <1>   0.0800 
 41 H        0.5090     5.7250    -1.2690 H     1 <1>   0.0800 
 42 H        0.1240    10.0560     0.0860 H     1 <1>   0.1500 
 43 H        5.0150    10.1380     0.6370 H     1 <1>   0.1500 
 44 H        3.7630    12.3010     0.3300 H     1 <1>   0.1500 
 45 H        1.4840    13.1460    -0.8750 H     1 <1>   0.0800 
 46 H        1.2860    13.2760     0.8590 H     1 <1>   0.0800 
 47 H        0.0620    12.4870    -0.1050 H     1 <1>   0.0800 
@<TRIPOS>BOND
  1   1   2  2   
  2   1   3  2   
  3   1   4  am  
  4   1   5  1   
  5   4   6  1   
  6   4   7  1   
  7   5   8  1   
  8   5  27  1   
  9   5  28  1   
 10   6  29  1   
 11   6  30  1   
 12   6  31  1   
 13   7  32  1   
 14   7  33  1   
 15   7  34  1   
 16   8   9  1   
 17   8  10  1   
 18   8  35  1   
 19   9  11  1   
 20   9  12  1   
 21   9  36  1   
 22  10  13  1   
 23  10  37  1   
 24  10  38  1   
 25  11  39  1   
 26  12  13  1   
 27  12  40  1   
 28  12  41  1   
 29  13  14  am  
 30  14  15  2   
 31  14  16  1   
 32  16  17  1   
 33  16  18  2   
 34  17  19  2   
 35  18  20  1   
 36  18  21  1   
 37  19  21  1   
 38  19  22  1   
 39  21  23  1   
 40  22  24  2   
 41  22  42  1   
 42  23  25  2   
 43  23  43  1   
 44  24  25  1   
 45  24  26  1   
 46  25  44  1   
 47  26  45  1   
 48  26  46  1   
 49  26  47  1   
@<TRIPOS>SUBSTRUCTURE
  1 ****  13 GROUP 4 **** **** 0

# MOE 2024.06 (io_trps.svl 2023.06)
