@<TRIPOS>MOLECULE
NONAME
56 59 1 0 0 
SMALL
USER_CHARGES


@<TRIPOS>ATOM
  1 O        1.5850     0.6590     1.5370 O.co2 1 <1>  -0.9000 
  2 C        2.1030     1.1970     0.5540 C.2   1 <1>   0.9060 
  3 O        2.3240     2.4100     0.5430 O.co2 1 <1>  -0.9000 
  4 C        2.8250     0.3010    -0.4740 C.3   1 <1>  -0.1060 
  5 C        3.7900    -0.5550     0.3700 C.3   1 <1>   0.4230 
  6 C        3.6910     1.1350    -1.4770 C.3   1 <1>  -0.1600 
  7 C        1.8440    -0.5810    -1.2910 C.3   1 <1>  -0.1600 
  8 N        3.0100    -1.5400     1.2060 N.4   1 <1>  -0.9590 
  9 C        4.7270     0.3950     1.1990 C.3   1 <1>   0.3430 
 10 C        4.9840     1.7460    -0.9010 C.3   1 <1>   0.3430 
 11 C        1.1770    -1.6710    -0.4400 C.3   1 <1>  -0.1600 
 12 C        2.1890    -2.4690     0.3810 C.3   1 <1>   0.3430 
 13 C        3.7600    -2.2700     2.2680 C.3   1 <1>   0.2630 
 14 N        4.9200     1.7600     0.5830 N.4   1 <1>  -0.9590 
 15 C        5.9500     2.5970     1.2450 C.3   1 <1>   0.4860 
 16 C        5.9670     3.9810     0.6190 C.ar  1 <1>  -0.1440 
 17 C        7.0950     4.4140    -0.0800 C.ar  1 <1>   0.0000 
 18 C        4.8550     4.8030     0.7320 C.ar  1 <1>  -0.1500 
 19 C        8.2550     3.5680    -0.2360 C.ar  1 <1>   0.0000 
 20 C        7.0790     5.6840    -0.6460 C.ar  1 <1>  -0.1500 
 21 C        4.8570     6.0610     0.1590 C.ar  1 <1>  -0.1500 
 22 C        9.1550     3.3860     0.8090 C.ar  1 <1>  -0.1500 
 23 C        8.4880     2.8970    -1.4320 C.ar  1 <1>  -0.1500 
 24 C        5.9720     6.5030    -0.5290 C.ar  1 <1>  -0.1500 
 25 C       10.2400     2.5400     0.6740 C.ar  1 <1>  -0.1500 
 26 C        9.5720     2.0500    -1.5730 C.ar  1 <1>  -0.1500 
 27 C       10.4480     1.8670    -0.5170 C.ar  1 <1>  -0.1500 
 28 H        4.4120    -1.1150    -0.3080 H     1 <1>   0.0800 
 29 H        3.0870     1.9370    -1.8710 H     1 <1>   0.0800 
 30 H        3.9750     0.5350    -2.3240 H     1 <1>   0.0800 
 31 H        1.0820     0.0430    -1.7300 H     1 <1>   0.0800 
 32 H        2.3680    -1.0650    -2.0970 H     1 <1>   0.0800 
 33 H        2.2940    -0.9100     1.6660 H     1 <1>   0.4500 
 34 H        5.6840    -0.0820     1.3200 H     1 <1>   0.0800 
 35 H        4.2840     0.5330     2.1720 H     1 <1>   0.0800 
 36 H        5.0900     2.7520    -1.2790 H     1 <1>   0.0800 
 37 H        5.8410     1.1760    -1.2210 H     1 <1>   0.0800 
 38 H        0.6370    -2.3450    -1.0840 H     1 <1>   0.0800 
 39 H        0.4530    -1.2290     0.2240 H     1 <1>   0.0800 
 40 H        2.8260    -3.0380    -0.2760 H     1 <1>   0.0800 
 41 H        1.6570    -3.1540     1.0210 H     1 <1>   0.0800 
 42 H        4.5210    -2.8960     1.8310 H     1 <1>   0.0800 
 43 H        3.0840    -2.8930     2.8330 H     1 <1>   0.0800 
 44 H        4.2210    -1.5750     2.9510 H     1 <1>   0.0800 
 45 H        4.0150     2.2810     0.7480 H     1 <1>   0.4500 
 46 H        5.7220     2.6930     2.2940 H     1 <1>   0.0800 
 47 H        6.9160     2.1320     1.1480 H     1 <1>   0.0800 
 48 H        3.9700     4.4760     1.2580 H     1 <1>   0.1500 
 49 H        7.9450     6.0330    -1.1820 H     1 <1>   0.1500 
 50 H        3.9890     6.6930     0.2480 H     1 <1>   0.1500 
 51 H        9.0070     3.9190     1.7330 H     1 <1>   0.1500 
 52 H        7.8190     3.0480    -2.2610 H     1 <1>   0.1500 
 53 H        5.9750     7.4840    -0.9730 H     1 <1>   0.1500 
 54 H       10.9300     2.4090     1.4900 H     1 <1>   0.1500 
 55 H        9.7450     1.5390    -2.5050 H     1 <1>   0.1500 
 56 H       11.2950     1.2110    -0.6260 H     1 <1>   0.1500 
@<TRIPOS>BOND
  1   1   2  ar  
  2   2   3  ar  
  3   2   4  1   
  4   4   5  1   
  5   4   6  1   
  6   4   7  1   
  7   5   8  1   
  8   5   9  1   
  9   5  28  1   
 10   6  10  1   
 11   6  29  1   
 12   6  30  1   
 13   7  11  1   
 14   7  31  1   
 15   7  32  1   
 16   8  12  1   
 17   8  13  1   
 18   8  33  1   
 19   9  14  1   
 20   9  34  1   
 21   9  35  1   
 22  10  14  1   
 23  10  36  1   
 24  10  37  1   
 25  11  12  1   
 26  11  38  1   
 27  11  39  1   
 28  12  40  1   
 29  12  41  1   
 30  13  42  1   
 31  13  43  1   
 32  13  44  1   
 33  14  15  1   
 34  14  45  1   
 35  15  16  1   
 36  15  46  1   
 37  15  47  1   
 38  16  17  ar  
 39  16  18  ar  
 40  17  19  1   
 41  17  20  ar  
 42  18  21  ar  
 43  18  48  1   
 44  19  22  ar  
 45  19  23  ar  
 46  20  24  ar  
 47  20  49  1   
 48  21  24  ar  
 49  21  50  1   
 50  22  25  ar  
 51  22  51  1   
 52  23  26  ar  
 53  23  52  1   
 54  24  53  1   
 55  25  27  ar  
 56  25  54  1   
 57  26  27  ar  
 58  26  55  1   
 59  27  56  1   
@<TRIPOS>SUBSTRUCTURE
  1 ****  14 GROUP 4 **** **** 0

# MOE 2024.06 (io_trps.svl 2023.06)
