@<TRIPOS>MOLECULE
NONAME
43 46 1 0 0 
SMALL
USER_CHARGES


@<TRIPOS>ATOM
  1 CL      -0.2310     0.5970     0.2420 Cl    1 <1>  -0.1770 
  2 C        1.0790    -0.5400    -0.0590 C.ar  1 <1>   0.1770 
  3 C        0.8980    -1.9300     0.1880 C.ar  1 <1>   0.4100 
  4 C        2.2880    -0.0880    -0.4930 C.ar  1 <1>   0.2170 
  5 N        1.9040    -2.7810     0.0530 N.ar  1 <1>  -0.6200 
  6 N       -0.2910    -2.4770     0.5640 N.pl3 1 <1>  -0.8380 
  7 N        3.2690    -1.0160    -0.6490 N.ar  1 <1>  -0.1790 
  8 C        2.6380     1.3630    -0.8050 C.3   1 <1>  -0.0970 
  9 C        3.0570    -2.3140    -0.3680 C.ar  1 <1>   0.7710 
 10 C       -1.5840    -2.2090    -0.1280 C.3   1 <1>   0.2090 
 11 C       -0.3820    -3.5700     1.5770 C.3   1 <1>   0.2090 
 12 N        4.0360    -3.2010    -0.5100 N.pl3 1 <1>  -0.9000 
 13 C       -2.0510    -3.4850    -0.8270 C.3   1 <1>  -0.1600 
 14 C       -0.8310    -4.8580     0.8930 C.3   1 <1>  -0.1600 
 15 C       -2.1560    -4.6600     0.1540 C.3   1 <1>   0.4600 
 16 O       -3.1200    -4.3510     1.1420 O.3   1 <1>  -0.5600 
 17 C       -2.5780    -5.9420    -0.5540 C.2   1 <1>  -0.1400 
 18 C       -4.4780    -4.5670     0.8360 C.3   1 <1>   0.1200 
 19 S       -1.5600    -6.7570    -1.7310 S.3   1 <1>  -0.0800 
 20 C       -3.7330    -6.5990    -0.3890 C.2   1 <1>  -0.1810 
 21 C       -4.7670    -6.0580     0.5710 C.3   1 <1>   0.0210 
 22 C       -2.7700    -8.0140    -1.9530 C.2   1 <1>  -0.1100 
 23 C       -3.8490    -7.7870    -1.1780 C.2   1 <1>  -0.1500 
 24 H        4.1990    -0.7630    -0.9690 H     1 <1>   0.4570 
 25 H        1.7930     2.0140    -0.6700 H     1 <1>   0.0800 
 26 H        2.9630     1.4590    -1.8260 H     1 <1>   0.0800 
 27 H        3.4230     1.7070    -0.1550 H     1 <1>   0.0800 
 28 H       -1.4700    -1.4350    -0.8650 H     1 <1>   0.0800 
 29 H       -2.3180    -1.8890     0.5940 H     1 <1>   0.0800 
 30 H       -1.0930    -3.2910     2.3370 H     1 <1>   0.0800 
 31 H        0.5700    -3.7230     2.0560 H     1 <1>   0.0800 
 32 H        4.9990    -3.0630    -0.8210 H     1 <1>   0.4000 
 33 H        3.8130    -4.1780    -0.2880 H     1 <1>   0.4000 
 34 H       -1.3410    -3.7320    -1.5940 H     1 <1>   0.0800 
 35 H       -2.9950    -3.3200    -1.3090 H     1 <1>   0.0800 
 36 H       -0.9440    -5.6410     1.6190 H     1 <1>   0.0800 
 37 H       -0.0680    -5.1600     0.2010 H     1 <1>   0.0800 
 38 H       -4.7310    -3.9790    -0.0290 H     1 <1>   0.0800 
 39 H       -5.0620    -4.2200     1.6700 H     1 <1>   0.0800 
 40 H       -5.7510    -6.1610     0.1520 H     1 <1>   0.0800 
 41 H       -4.7300    -6.6080     1.4950 H     1 <1>   0.0800 
 42 H       -2.5420    -8.8010    -2.6500 H     1 <1>   0.1500 
 43 H       -4.7260    -8.4070    -1.1280 H     1 <1>   0.1500 
@<TRIPOS>BOND
  1   1   2  1   
  2   2   3  ar  
  3   2   4  ar  
  4   3   5  ar  
  5   3   6  1   
  6   4   7  ar  
  7   4   8  1   
  8   5   9  ar  
  9   6  10  1   
 10   6  11  1   
 11   7   9  ar  
 12   7  24  1   
 13   8  25  1   
 14   8  26  1   
 15   8  27  1   
 16   9  12  1   
 17  10  13  1   
 18  10  28  1   
 19  10  29  1   
 20  11  14  1   
 21  11  30  1   
 22  11  31  1   
 23  12  32  1   
 24  12  33  1   
 25  13  15  1   
 26  13  34  1   
 27  13  35  1   
 28  14  15  1   
 29  14  36  1   
 30  14  37  1   
 31  15  16  1   
 32  15  17  1   
 33  16  18  1   
 34  17  19  1   
 35  17  20  2   
 36  18  21  1   
 37  18  38  1   
 38  18  39  1   
 39  19  22  1   
 40  20  21  1   
 41  20  23  1   
 42  21  40  1   
 43  21  41  1   
 44  22  23  2   
 45  22  42  1   
 46  23  43  1   
@<TRIPOS>SUBSTRUCTURE
  1 ****   6 GROUP 4 **** **** 0

# MOE 2024.06 (io_trps.svl 2023.06)
