@<TRIPOS>MOLECULE
NONAME
44 45 1 0 0 
SMALL
USER_CHARGES


@<TRIPOS>ATOM
  1 F        0.7350    -2.1520     1.7920 F     1 <1>  -0.3400 
  2 C        0.8090    -2.2280     0.4700 C.3   1 <1>   1.0200 
  3 F        2.0460    -1.8910     0.1380 F     1 <1>  -0.3400 
  4 F        0.0150    -1.2780    -0.0030 F     1 <1>  -0.3400 
  5 C        0.4280    -3.6120    -0.0500 C.3   1 <1>  -0.1600 
  6 C       -1.0110    -4.0420     0.3240 C.3   1 <1>  -0.0990 
  7 C       -1.3940    -5.4260    -0.1830 C.2   1 <1>   0.5690 
  8 O       -0.5950    -6.0150    -0.8750 O.2   1 <1>  -0.5700 
  9 N       -2.6090    -5.9650     0.1450 N.am  1 <1>  -0.6600 
 10 C       -2.9970    -7.3470    -0.2860 C.3   1 <1>   0.1400 
 11 C       -3.6730    -5.2910     0.9470 C.3   1 <1>   0.1400 
 12 C       -4.2950    -7.2900    -1.1040 C.3   1 <1>   0.2000 
 13 C       -4.9810    -5.2400     0.1450 C.3   1 <1>  -0.1600 
 14 O       -4.6360    -8.5690    -1.5100 O.3   1 <1>  -0.6800 
 15 C       -5.4620    -6.6500    -0.3100 C.3   1 <1>  -0.1060 
 16 C       -5.8050    -7.5530     0.8920 C.2   1 <1>   0.9060 
 17 C       -6.7030    -6.5310    -1.2370 C.3   1 <1>  -0.0170 
 18 O       -5.9660    -8.7670     0.6940 O.co2 1 <1>  -0.9000 
 19 O       -5.9000    -7.0810     2.0310 O.co2 1 <1>  -0.9000 
 20 C       -7.7790    -5.5530    -0.7680 C.ar  1 <1>  -0.1440 
 21 C       -8.0170    -4.3820    -1.4740 C.ar  1 <1>  -0.1500 
 22 C       -8.5330    -5.8220     0.3640 C.ar  1 <1>  -0.1500 
 23 C       -8.9930    -3.4940    -1.0540 C.ar  1 <1>  -0.1500 
 24 C       -9.5070    -4.9350     0.7870 C.ar  1 <1>  -0.1500 
 25 C       -9.7390    -3.7700     0.0780 C.ar  1 <1>  -0.1500 
 26 H        0.5330    -3.6090    -1.1200 H     1 <1>   0.0800 
 27 H        1.1270    -4.3250     0.3470 H     1 <1>   0.0800 
 28 H       -1.7110    -3.3350    -0.0830 H     1 <1>   0.0800 
 29 H       -1.1100    -4.0430     1.3950 H     1 <1>   0.0800 
 30 H       -2.2220    -7.7870    -0.8890 H     1 <1>   0.0800 
 31 H       -3.1420    -7.9600     0.5870 H     1 <1>   0.0800 
 32 H       -3.8200    -5.8400     1.8620 H     1 <1>   0.0800 
 33 H       -3.3920    -4.2900     1.2160 H     1 <1>   0.0800 
 34 H       -4.0990    -6.7250    -1.9980 H     1 <1>   0.0800 
 35 H       -5.7340    -4.7890     0.7680 H     1 <1>   0.0800 
 36 H       -4.8430    -4.6040    -0.7100 H     1 <1>   0.0800 
 37 H       -5.1580    -8.9650    -0.7440 H     1 <1>   0.4000 
 38 H       -6.3770    -6.2320    -2.2160 H     1 <1>   0.0800 
 39 H       -7.1530    -7.5030    -1.3510 H     1 <1>   0.0800 
 40 H       -7.4420    -4.1580    -2.3530 H     1 <1>   0.1500 
 41 H       -8.3570    -6.7240     0.9280 H     1 <1>   0.1500 
 42 H       -9.1710    -2.5900    -1.6080 H     1 <1>   0.1500 
 43 H      -10.0780    -5.1580     1.6710 H     1 <1>   0.1500 
 44 H      -10.4960    -3.0820     0.4080 H     1 <1>   0.1500 
@<TRIPOS>BOND
  1   1   2  1   
  2   2   3  1   
  3   2   4  1   
  4   2   5  1   
  5   5   6  1   
  6   5  26  1   
  7   5  27  1   
  8   6   7  1   
  9   6  28  1   
 10   6  29  1   
 11   7   8  2   
 12   7   9  am  
 13   9  10  1   
 14   9  11  1   
 15  10  12  1   
 16  10  30  1   
 17  10  31  1   
 18  11  13  1   
 19  11  32  1   
 20  11  33  1   
 21  12  14  1   
 22  12  15  1   
 23  12  34  1   
 24  13  15  1   
 25  13  35  1   
 26  13  36  1   
 27  14  37  1   
 28  15  16  1   
 29  15  17  1   
 30  16  18  ar  
 31  16  19  ar  
 32  17  20  1   
 33  17  38  1   
 34  17  39  1   
 35  20  21  ar  
 36  20  22  ar  
 37  21  23  ar  
 38  21  40  1   
 39  22  24  ar  
 40  22  41  1   
 41  23  25  ar  
 42  23  42  1   
 43  24  25  ar  
 44  24  43  1   
 45  25  44  1   
@<TRIPOS>SUBSTRUCTURE
  1 ****  13 GROUP 4 **** **** 0

# MOE 2024.06 (io_trps.svl 2023.06)
