@<TRIPOS>MOLECULE
NONAME
19 19 1 0 0 
SMALL
USER_CHARGES


@<TRIPOS>ATOM
  1 BR      -0.1430    -0.1200     0.7740 Br    1 <1>  -0.1110 
  2 C       -0.1270     1.7660     0.3960 C.ar  1 <1>   0.1110 
  3 C       -0.9950     2.2990    -0.5240 C.ar  1 <1>   0.1600 
  4 C        0.7560     2.5960     1.0430 C.ar  1 <1>   0.1600 
  5 N       -0.9910     3.5940    -0.7880 N.ar  1 <1>  -0.6200 
  6 N        0.7770     3.8960     0.7910 N.ar  1 <1>  -0.6200 
  7 C       -0.1120     4.3210    -0.1090 C.ar  1 <1>   0.4770 
  8 C       -0.1010     5.8360    -0.4060 C.3   1 <1>   0.5660 
  9 N        1.2600     6.3980    -0.2210 N.4   1 <1>  -0.8530 
 10 C       -1.0400     6.5960     0.5290 C.3   1 <1>  -0.2400 
 11 H       -1.6920     1.6610    -1.0420 H     1 <1>   0.1500 
 12 H        1.4430     2.1880     1.7660 H     1 <1>   0.1500 
 13 H       -0.4240     5.9840    -1.4240 H     1 <1>   0.0800 
 14 H        1.6370     5.9460     0.6250 H     1 <1>   0.4500 
 15 H        1.2480     7.4130    -0.1060 H     1 <1>   0.4500 
 16 H        1.8670     6.1260    -0.9990 H     1 <1>   0.4500 
 17 H       -0.7540     6.4610     1.5580 H     1 <1>   0.0800 
 18 H       -2.0390     6.2120     0.4130 H     1 <1>   0.0800 
 19 H       -1.0610     7.6440     0.2900 H     1 <1>   0.0800 
@<TRIPOS>BOND
  1   1   2  1   
  2   2   3  ar  
  3   2   4  ar  
  4   3   5  ar  
  5   3  11  1   
  6   4   6  ar  
  7   4  12  1   
  8   5   7  ar  
  9   6   7  ar  
 10   7   8  1   
 11   8   9  1   
 12   8  10  1   
 13   8  13  1   
 14   9  14  1   
 15   9  15  1   
 16   9  16  1   
 17  10  17  1   
 18  10  18  1   
 19  10  19  1   
@<TRIPOS>SUBSTRUCTURE
  1 ****   7 GROUP 4 **** **** 0

# MOE 2024.06 (io_trps.svl 2023.06)
