@<TRIPOS>MOLECULE
NONAME
39 42 1 0 0 
SMALL
USER_CHARGES


@<TRIPOS>ATOM
  1 O       -0.1380     0.3270     0.6260 O.3   1 <1>  -0.0190 
  2 N       -0.6850     1.4760     0.3850 N.2   1 <1>  -0.4100 
  3 C        1.1450     0.5410     0.4990 C.2   1 <1>   0.2980 
  4 C        0.2520     2.3210     0.1220 C.2   1 <1>   0.4620 
  5 N        1.4600     1.7390     0.1950 N.2   1 <1>  -0.5650 
  6 C        2.1010    -0.6390     0.7520 C.3   1 <1>   0.4690 
  7 C        0.0800     3.7360    -0.2140 C.ar  1 <1>   0.3640 
  8 N        1.8590    -1.8130    -0.1430 N.pl3 1 <1>  -0.8210 
  9 C        3.5780    -0.2940     0.5310 C.3   1 <1>  -0.1600 
 10 N       -1.1040     4.3300     0.0090 N.ar  1 <1>  -0.6200 
 11 C        1.1490     4.4540    -0.7610 C.ar  1 <1>  -0.1500 
 12 C        0.9440    -2.7680     0.2920 C.2   1 <1>   0.5990 
 13 C        3.1470    -2.3210    -0.6770 C.3   1 <1>   0.2090 
 14 C        4.2270    -1.6120     0.1290 C.3   1 <1>  -0.1600 
 15 C       -1.2150     5.6060    -0.3080 C.ar  1 <1>   0.1600 
 16 C        1.0240     5.7860    -1.0870 C.ar  1 <1>  -0.1500 
 17 N        0.2410    -2.7070     1.3560 N.2   1 <1>  -0.4100 
 18 N        0.7300    -3.8670    -0.4170 N.2   1 <1>  -0.5650 
 19 C       -0.1990     6.3720    -0.8490 C.ar  1 <1>  -0.1500 
 20 O       -0.4950    -3.7860     1.3880 O.3   1 <1>  -0.0190 
 21 C       -0.1550    -4.4280     0.2980 C.2   1 <1>   0.2980 
 22 C       -0.8250    -5.7550    -0.0080 C.3   1 <1>   0.0200 
 23 C       -2.3180    -5.5840    -0.3170 C.3   1 <1>  -0.2400 
 24 H        1.9850    -0.9460     1.7770 H     1 <1>   0.0800 
 25 H        3.6690     0.4030    -0.2830 H     1 <1>   0.0800 
 26 H        4.0200     0.1360     1.4110 H     1 <1>   0.0800 
 27 H        2.0870     3.9590    -0.9320 H     1 <1>   0.1500 
 28 H        3.2360    -3.3910    -0.5800 H     1 <1>   0.0800 
 29 H        3.2170    -2.0550    -1.7180 H     1 <1>   0.0800 
 30 H        4.4540    -2.1960     1.0030 H     1 <1>   0.0800 
 31 H        5.1250    -1.4710    -0.4460 H     1 <1>   0.0800 
 32 H       -2.1690     6.0700    -0.1250 H     1 <1>   0.1500 
 33 H        1.8430     6.3440    -1.5070 H     1 <1>   0.1500 
 34 H       -0.3660     7.4080    -1.0810 H     1 <1>   0.1500 
 35 H       -0.3360    -6.2030    -0.8540 H     1 <1>   0.0800 
 36 H       -0.7000    -6.4100     0.8350 H     1 <1>   0.0800 
 37 H       -2.4470    -4.9290    -1.1620 H     1 <1>   0.0800 
 38 H       -2.8300    -5.1590     0.5290 H     1 <1>   0.0800 
 39 H       -2.7610    -6.5360    -0.5480 H     1 <1>   0.0800 
@<TRIPOS>BOND
  1   1   2  1   
  2   1   3  1   
  3   2   4  2   
  4   3   5  2   
  5   3   6  1   
  6   4   5  1   
  7   4   7  1   
  8   6   8  1   
  9   6   9  1   
 10   6  24  1   
 11   7  10  ar  
 12   7  11  ar  
 13   8  12  1   
 14   8  13  1   
 15   9  14  1   
 16   9  25  1   
 17   9  26  1   
 18  10  15  ar  
 19  11  16  ar  
 20  11  27  1   
 21  12  17  2   
 22  12  18  1   
 23  13  14  1   
 24  13  28  1   
 25  13  29  1   
 26  14  30  1   
 27  14  31  1   
 28  15  19  ar  
 29  15  32  1   
 30  16  19  ar  
 31  16  33  1   
 32  17  20  1   
 33  18  21  2   
 34  19  34  1   
 35  20  21  1   
 36  21  22  1   
 37  22  23  1   
 38  22  35  1   
 39  22  36  1   
 40  23  37  1   
 41  23  38  1   
 42  23  39  1   
@<TRIPOS>SUBSTRUCTURE
  1 ****   3 GROUP 4 **** **** 0

# MOE 2024.06 (io_trps.svl 2023.06)
