@<TRIPOS>MOLECULE
NONAME
48 50 1 0 0 
SMALL
USER_CHARGES


@<TRIPOS>ATOM
  1 O        3.9360    -0.4100     1.3150 O.2   1 <1>  -0.5700 
  2 C        3.2050    -0.4010     0.3480 C.2   1 <1>   0.5690 
  3 N        1.8760    -0.6700     0.3650 N.am  1 <1>  -0.6600 
  4 C        3.6770    -0.0900    -1.0780 C.3   1 <1>   0.3500 
  5 C        1.2750    -0.5980    -0.9760 C.3   1 <1>   0.1400 
  6 C        1.0530    -0.9700     1.5610 C.3   1 <1>   0.0600 
  7 N        3.9020     1.3680    -1.3440 N.pl3 1 <1>  -0.8690 
  8 C        2.4860    -0.5680    -1.9220 C.3   1 <1>  -0.1600 
  9 C        4.6470     2.2140    -0.6210 C.ar  1 <1>   0.4100 
 10 N        4.3230     3.4790    -0.7420 N.ar  1 <1>  -0.6200 
 11 C        5.6860     1.7820     0.2230 C.ar  1 <1>  -0.1500 
 12 C        4.9770     4.3620     0.0050 C.ar  1 <1>   0.7710 
 13 C        6.3300     2.6910     0.9890 C.ar  1 <1>   0.2180 
 14 N        5.9420     3.9820     0.8630 N.ar  1 <1>  -0.1790 
 15 N        4.6620     5.6820    -0.0900 N.pl3 1 <1>  -0.8380 
 16 C        7.4430     2.3330     1.9650 C.3   1 <1>  -0.0170 
 17 C        5.4620     6.8130     0.4940 C.3   1 <1>   0.2090 
 18 C        3.4630     6.0960    -0.9060 C.3   1 <1>   0.2090 
 19 C        8.7820     2.9740     1.5770 C.3   1 <1>  -0.2400 
 20 C        5.4190     8.0370    -0.4260 C.3   1 <1>  -0.1600 
 21 C        2.9340     7.4640    -0.4660 C.3   1 <1>  -0.1600 
 22 C        3.9900     8.5700    -0.6130 C.3   1 <1>  -0.1600 
 23 H        4.5650    -0.6500    -1.3120 H     1 <1>   0.0800 
 24 H        0.6970     0.3070    -1.0590 H     1 <1>   0.0800 
 25 H        0.6480    -1.4540    -1.1650 H     1 <1>   0.0800 
 26 H        1.6700    -0.9670     2.4440 H     1 <1>   0.0800 
 27 H        0.5980    -1.9400     1.4580 H     1 <1>   0.0800 
 28 H        0.2840    -0.2250     1.6720 H     1 <1>   0.0800 
 29 H        3.1820     1.8040    -1.9240 H     1 <1>   0.4000 
 30 H        2.6790    -1.5750    -2.2450 H     1 <1>   0.0800 
 31 H        2.3110     0.0380    -2.7920 H     1 <1>   0.0800 
 32 H        5.9380     0.7390     0.2510 H     1 <1>   0.1500 
 33 H        6.3520     4.7180     1.4200 H     1 <1>   0.4570 
 34 H        7.5640     1.2630     1.9880 H     1 <1>   0.0800 
 35 H        7.1650     2.6410     2.9590 H     1 <1>   0.0800 
 36 H        6.4920     6.5280     0.6200 H     1 <1>   0.0800 
 37 H        5.0540     7.0800     1.4550 H     1 <1>   0.0800 
 38 H        2.6710     5.3720    -0.7980 H     1 <1>   0.0800 
 39 H        3.7400     6.1340    -1.9470 H     1 <1>   0.0800 
 40 H        9.0700     2.6690     0.5850 H     1 <1>   0.0800 
 41 H        9.5490     2.6520     2.2600 H     1 <1>   0.0800 
 42 H        8.7330     4.0470     1.6110 H     1 <1>   0.0800 
 43 H        5.8290     7.7600    -1.3820 H     1 <1>   0.0800 
 44 H        6.0400     8.8180    -0.0240 H     1 <1>   0.0800 
 45 H        2.6180     7.3920     0.5600 H     1 <1>   0.0800 
 46 H        2.0660     7.7170    -1.0500 H     1 <1>   0.0800 
 47 H        3.9140     9.0180    -1.5900 H     1 <1>   0.0800 
 48 H        3.7870     9.3410     0.1120 H     1 <1>   0.0800 
@<TRIPOS>BOND
  1   1   2  2   
  2   2   3  am  
  3   2   4  1   
  4   3   5  1   
  5   3   6  1   
  6   4   7  1   
  7   4   8  1   
  8   4  23  1   
  9   5   8  1   
 10   5  24  1   
 11   5  25  1   
 12   6  26  1   
 13   6  27  1   
 14   6  28  1   
 15   7   9  1   
 16   7  29  1   
 17   8  30  1   
 18   8  31  1   
 19   9  10  ar  
 20   9  11  ar  
 21  10  12  ar  
 22  11  13  ar  
 23  11  32  1   
 24  12  14  ar  
 25  12  15  1   
 26  13  14  ar  
 27  13  16  1   
 28  14  33  1   
 29  15  17  1   
 30  15  18  1   
 31  16  19  1   
 32  16  34  1   
 33  16  35  1   
 34  17  20  1   
 35  17  36  1   
 36  17  37  1   
 37  18  21  1   
 38  18  38  1   
 39  18  39  1   
 40  19  40  1   
 41  19  41  1   
 42  19  42  1   
 43  20  22  1   
 44  20  43  1   
 45  20  44  1   
 46  21  22  1   
 47  21  45  1   
 48  21  46  1   
 49  22  47  1   
 50  22  48  1   
@<TRIPOS>SUBSTRUCTURE
  1 ****  10 GROUP 4 **** **** 0

# MOE 2024.06 (io_trps.svl 2023.06)
