@<TRIPOS>MOLECULE
NONAME
53 57 1 0 0 
SMALL
USER_CHARGES


@<TRIPOS>ATOM
  1 O       -1.1050     0.3960    -1.8160 O.2   1 <1>  -0.5700 
  2 C       -1.4760     0.6100    -0.6760 C.2   1 <1>   0.7160 
  3 N       -1.9440    -0.4450     0.0790 N.am  1 <1>  -0.6600 
  4 C       -1.4110     1.9390    -0.1620 C.2   1 <1>  -0.0860 
  5 C       -2.2130    -1.7930    -0.5110 C.3   1 <1>   0.1400 
  6 C       -2.5330    -0.2970     1.4430 C.3   1 <1>   0.1400 
  7 C       -2.5160     2.7580     0.0850 C.2   1 <1>   0.3720 
  8 C       -0.3500     2.7080     0.2000 C.2   1 <1>   0.0870 
  9 C       -3.7160    -2.1270    -0.4360 C.3   1 <1>   0.2950 
 10 C       -4.0180    -0.6960     1.4170 C.3   1 <1>   0.1200 
 11 N       -2.1500     3.8920     0.5670 N.2   1 <1>  -0.4100 
 12 N       -3.8520     2.3970    -0.1440 N.pl3 1 <1>  -0.8210 
 13 O       -0.8450     3.8450     0.6220 O.3   1 <1>  -0.0190 
 14 C        1.0800     2.4920     0.2040 C.ar  1 <1>   0.0530 
 15 O       -4.1750    -1.9810     0.8840 O.3   1 <1>  -0.5600 
 16 C       -3.9870    -3.5620    -0.9230 C.3   1 <1>  -0.1950 
 17 C       -4.2040     2.2430    -1.5900 C.3   1 <1>   0.2090 
 18 C       -4.8770     3.2460     0.5420 C.3   1 <1>   0.2090 
 19 C        1.9610     3.5660     0.3460 C.ar  1 <1>  -0.1500 
 20 C        1.6460     1.2220     0.0760 C.ar  1 <1>  -0.1500 
 21 C       -5.2010    -4.3370    -0.5090 C.3   1 <1>  -0.2000 
 22 C       -3.8380    -4.7550    -0.0300 C.3   1 <1>  -0.2000 
 23 C       -5.6510     1.7440    -1.7520 C.3   1 <1>   0.1200 
 24 C       -6.2970     2.7070     0.2890 C.3   1 <1>   0.1200 
 25 C        3.3320     3.3850     0.3590 C.ar  1 <1>  -0.1500 
 26 C        3.0150     1.0340     0.0870 C.ar  1 <1>  -0.1500 
 27 O       -6.5500     2.5840    -1.0830 O.3   1 <1>  -0.5600 
 28 C        3.8630     2.1160     0.2290 C.ar  1 <1>  -0.1500 
 29 H       -1.6590    -2.5360     0.0360 H     1 <1>   0.0800 
 30 H       -1.8920    -1.8350    -1.5370 H     1 <1>   0.0800 
 31 H       -2.4410     0.7100     1.8060 H     1 <1>   0.0800 
 32 H       -2.0080    -0.9410     2.1270 H     1 <1>   0.0800 
 33 H       -4.2660    -1.4400    -1.0560 H     1 <1>   0.0800 
 34 H       -4.5870    -0.0030     0.8230 H     1 <1>   0.0800 
 35 H       -4.4170    -0.7040     2.4150 H     1 <1>   0.0800 
 36 H       -3.6770    -3.6880    -1.9460 H     1 <1>   0.1000 
 37 H       -3.5390     1.5430    -2.0630 H     1 <1>   0.0800 
 38 H       -4.0980     3.1910    -2.0900 H     1 <1>   0.0800 
 39 H       -4.8130     4.2580     0.1790 H     1 <1>   0.0800 
 40 H       -4.6810     3.2580     1.6000 H     1 <1>   0.0800 
 41 H        1.5700     4.5630     0.4450 H     1 <1>   0.1500 
 42 H        1.0180     0.3580    -0.0330 H     1 <1>   0.1500 
 43 H       -5.7030    -4.9480    -1.2390 H     1 <1>   0.1000 
 44 H       -5.8810    -3.9060     0.2060 H     1 <1>   0.1000 
 45 H       -3.6020    -4.6080     1.0110 H     1 <1>   0.1000 
 46 H       -3.4040    -5.6550    -0.4290 H     1 <1>   0.1000 
 47 H       -5.7520     0.7480    -1.3570 H     1 <1>   0.0800 
 48 H       -5.9250     1.7330    -2.7920 H     1 <1>   0.0800 
 49 H       -7.0270     3.3830     0.6970 H     1 <1>   0.0800 
 50 H       -6.4220     1.7430     0.7500 H     1 <1>   0.0800 
 51 H        3.9870     4.2330     0.4690 H     1 <1>   0.1500 
 52 H        3.4230     0.0430    -0.0170 H     1 <1>   0.1500 
 53 H        4.9300     1.9710     0.2370 H     1 <1>   0.1500 
@<TRIPOS>BOND
  1   1   2  2   
  2   2   3  am  
  3   2   4  1   
  4   3   5  1   
  5   3   6  1   
  6   4   7  1   
  7   4   8  2   
  8   5   9  1   
  9   5  29  1   
 10   5  30  1   
 11   6  10  1   
 12   6  31  1   
 13   6  32  1   
 14   7  11  2   
 15   7  12  1   
 16   8  13  1   
 17   8  14  1   
 18   9  15  1   
 19   9  16  1   
 20   9  33  1   
 21  10  15  1   
 22  10  34  1   
 23  10  35  1   
 24  11  13  1   
 25  12  17  1   
 26  12  18  1   
 27  14  19  ar  
 28  14  20  ar  
 29  16  21  1   
 30  16  22  1   
 31  16  36  1   
 32  17  23  1   
 33  17  37  1   
 34  17  38  1   
 35  18  24  1   
 36  18  39  1   
 37  18  40  1   
 38  19  25  ar  
 39  19  41  1   
 40  20  26  ar  
 41  20  42  1   
 42  21  22  1   
 43  21  43  1   
 44  21  44  1   
 45  22  45  1   
 46  22  46  1   
 47  23  27  1   
 48  23  47  1   
 49  23  48  1   
 50  24  27  1   
 51  24  49  1   
 52  24  50  1   
 53  25  28  ar  
 54  25  51  1   
 55  26  28  ar  
 56  26  52  1   
 57  28  53  1   
@<TRIPOS>SUBSTRUCTURE
  1 ****   2 GROUP 4 **** **** 0

# MOE 2024.06 (io_trps.svl 2023.06)
