@<TRIPOS>MOLECULE
NONAME
56 58 1 0 0 
SMALL
USER_CHARGES


@<TRIPOS>ATOM
  1 O        0.8650    -1.3260     1.4140 O.2   1 <1>  -0.5700 
  2 C        1.1190    -2.1670     0.5730 C.2   1 <1>   0.5440 
  3 N        1.8780    -1.8070    -0.5170 N.am  1 <1>  -0.6600 
  4 C        0.6010    -3.5110     0.7460 C.ar  1 <1>   0.0860 
  5 C        1.9080    -2.5230    -1.8130 C.3   1 <1>   0.1400 
  6 C        2.4340    -0.4420    -0.6610 C.3   1 <1>   0.1400 
  7 C       -0.6890    -3.7410     1.1820 C.ar  1 <1>  -0.1500 
  8 C        1.3520    -4.6570     0.5200 C.ar  1 <1>  -0.1500 
  9 C        2.2080    -1.4430    -2.8450 C.3   1 <1>  -0.1600 
 10 C        3.0000    -0.3910    -2.0760 C.3   1 <1>  -0.1600 
 11 C       -1.1630    -5.0320     1.3570 C.ar  1 <1>   0.4100 
 12 C        0.7910    -5.9040     0.7090 C.ar  1 <1>   0.1600 
 13 N       -0.4540    -6.1220     1.1060 N.ar  1 <1>  -0.6200 
 14 N       -2.4440    -5.2400     1.8060 N.pl3 1 <1>  -0.8690 
 15 C       -2.6390    -5.9940     3.0730 C.3   1 <1>   0.2090 
 16 C       -3.6910    -7.0940     2.8870 C.3   1 <1>  -0.1600 
 17 C       -3.2020    -8.2980     2.0720 C.3   1 <1>   0.3430 
 18 N       -2.7700    -7.8810     0.7220 N.4   1 <1>  -0.9590 
 19 C       -3.8880    -7.4610    -0.1840 C.3   1 <1>   0.3430 
 20 C       -1.8770    -8.8800     0.0540 C.3   1 <1>   0.3430 
 21 C       -3.3650    -7.0600    -1.5820 C.3   1 <1>   0.2000 
 22 C       -1.4580    -8.4170    -1.3610 C.3   1 <1>   0.2000 
 23 O       -2.5880    -8.0920    -2.1130 O.3   1 <1>  -0.5600 
 24 C       -4.5020    -6.8080    -2.5680 C.3   1 <1>  -0.2400 
 25 C       -0.7160    -9.5110    -2.1260 C.3   1 <1>  -0.2400 
 26 H        2.7040    -3.2470    -1.7980 H     1 <1>   0.0800 
 27 H        0.9690    -3.0100    -2.0170 H     1 <1>   0.0800 
 28 H        1.6400     0.2770    -0.5450 H     1 <1>   0.0800 
 29 H        3.1930    -0.2600     0.0810 H     1 <1>   0.0800 
 30 H       -1.3220    -2.9010     1.4000 H     1 <1>   0.1500 
 31 H        2.3770    -4.5660     0.2080 H     1 <1>   0.1500 
 32 H        2.7510    -1.8320    -3.6880 H     1 <1>   0.0800 
 33 H        1.2800    -1.0210    -3.1900 H     1 <1>   0.0800 
 34 H        2.9080     0.5910    -2.5070 H     1 <1>   0.0800 
 35 H        4.0410    -0.6630    -2.0450 H     1 <1>   0.0800 
 36 H        1.4060    -6.7700     0.5250 H     1 <1>   0.1500 
 37 H       -2.9840    -4.3670     1.8320 H     1 <1>   0.4000 
 38 H       -1.7060    -6.4220     3.4080 H     1 <1>   0.0800 
 39 H       -2.9720    -5.3060     3.8340 H     1 <1>   0.0800 
 40 H       -4.5880    -6.6810     2.4640 H     1 <1>   0.0800 
 41 H       -3.9530    -7.4600     3.8640 H     1 <1>   0.0800 
 42 H       -3.9830    -9.0370     1.9970 H     1 <1>   0.0800 
 43 H       -2.3670    -8.7430     2.5890 H     1 <1>   0.0800 
 44 H       -2.1910    -7.0190     0.8810 H     1 <1>   0.4500 
 45 H       -4.5890    -8.2700    -0.3000 H     1 <1>   0.0800 
 46 H       -4.4090    -6.6230     0.2460 H     1 <1>   0.0800 
 47 H       -0.9920    -9.0310     0.6490 H     1 <1>   0.0800 
 48 H       -2.3870    -9.8250    -0.0350 H     1 <1>   0.0800 
 49 H       -2.7520    -6.1770    -1.5070 H     1 <1>   0.0800 
 50 H       -0.8330    -7.5420    -1.2940 H     1 <1>   0.0800 
 51 H       -5.1060    -7.6900    -2.6850 H     1 <1>   0.0800 
 52 H       -4.0970    -6.5320    -3.5260 H     1 <1>   0.0800 
 53 H       -5.1260    -6.0030    -2.2230 H     1 <1>   0.0800 
 54 H       -1.3370   -10.3820    -2.2370 H     1 <1>   0.0800 
 55 H        0.1820    -9.7890    -1.6050 H     1 <1>   0.0800 
 56 H       -0.4420    -9.1500    -3.1010 H     1 <1>   0.0800 
@<TRIPOS>BOND
  1   1   2  2   
  2   2   3  am  
  3   2   4  1   
  4   3   5  1   
  5   3   6  1   
  6   4   7  ar  
  7   4   8  ar  
  8   5   9  1   
  9   5  26  1   
 10   5  27  1   
 11   6  10  1   
 12   6  28  1   
 13   6  29  1   
 14   7  11  ar  
 15   7  30  1   
 16   8  12  ar  
 17   8  31  1   
 18   9  10  1   
 19   9  32  1   
 20   9  33  1   
 21  10  34  1   
 22  10  35  1   
 23  11  13  ar  
 24  11  14  1   
 25  12  13  ar  
 26  12  36  1   
 27  14  15  1   
 28  14  37  1   
 29  15  16  1   
 30  15  38  1   
 31  15  39  1   
 32  16  17  1   
 33  16  40  1   
 34  16  41  1   
 35  17  18  1   
 36  17  42  1   
 37  17  43  1   
 38  18  19  1   
 39  18  20  1   
 40  18  44  1   
 41  19  21  1   
 42  19  45  1   
 43  19  46  1   
 44  20  22  1   
 45  20  47  1   
 46  20  48  1   
 47  21  23  1   
 48  21  24  1   
 49  21  49  1   
 50  22  23  1   
 51  22  25  1   
 52  22  50  1   
 53  24  51  1   
 54  24  52  1   
 55  24  53  1   
 56  25  54  1   
 57  25  55  1   
 58  25  56  1   
@<TRIPOS>SUBSTRUCTURE
  1 ****  11 GROUP 4 **** **** 0

# MOE 2024.06 (io_trps.svl 2023.06)
