@<TRIPOS>MOLECULE
NONAME
52 56 1 0 0 
SMALL
USER_CHARGES


@<TRIPOS>ATOM
  1 O       -0.4820     0.2390    -2.7270 O.2   1 <1>  -0.5700 
  2 C       -1.1000     0.8960    -1.9230 C.2   1 <1>   0.5690 
  3 N       -1.9650     0.2920    -1.0440 N.am  1 <1>  -0.6600 
  4 C       -0.8550     2.3940    -1.9300 C.3   1 <1>   0.1570 
  5 C       -2.8150     0.9190     0.0080 C.3   1 <1>   0.1400 
  6 C       -1.9280    -1.1790    -0.8400 C.3   1 <1>   0.1400 
  7 N       -0.3510     2.8860    -0.6270 N.pl3 1 <1>   0.0480 
  8 C       -2.8350    -0.1070     1.1390 C.3   1 <1>   0.2000 
  9 C       -2.7730    -1.4540     0.4110 C.3   1 <1>  -0.0800 
 10 C        0.4330     2.2190     0.2700 C.ar  1 <1>  -0.1520 
 11 C       -0.7860     3.9970     0.0340 C.2   1 <1>   0.1010 
 12 O       -1.7000     0.0670     1.9190 O.3   1 <1>  -0.6800 
 13 C       -2.2530    -2.6260     1.2640 C.3   1 <1>   0.0200 
 14 C        0.3850     2.9700     1.4300 C.ar  1 <1>   0.2270 
 15 C        1.1770     1.0340     0.2200 C.ar  1 <1>  -0.1500 
 16 N       -0.3790     4.0790     1.2500 N.2   1 <1>  -0.5650 
 17 C       -1.6910     5.0340    -0.6120 C.3   1 <1>  -0.0150 
 18 C       -2.3400    -3.9680     0.5560 C.2   1 <1>  -0.0400 
 19 C        1.0550     2.5410     2.5730 C.ar  1 <1>  -0.1500 
 20 C        1.8360     0.6160     1.3540 C.ar  1 <1>  -0.1500 
 21 C       -1.2000     5.8510    -1.7700 C.3   1 <1>  -0.2000 
 22 C       -1.4010     6.4930    -0.4330 C.3   1 <1>  -0.2000 
 23 O       -1.8010    -5.0120     1.1270 O.3   1 <1>  -0.0190 
 24 C       -2.8810    -4.3730    -0.6040 C.2   1 <1>  -0.1500 
 25 C        1.7730     1.3670     2.5330 C.ar  1 <1>  -0.1500 
 26 N       -1.9490    -6.0900     0.4130 N.2   1 <1>  -0.4100 
 27 C       -2.5960    -5.7350    -0.6380 C.2   1 <1>   0.1080 
 28 C       -2.9900    -6.6780    -1.7530 C.3   1 <1>  -0.0590 
 29 H       -1.7730     2.8890    -2.1770 H     1 <1>   0.0800 
 30 H       -0.1260     2.6280    -2.6840 H     1 <1>   0.0800 
 31 H       -2.4500     1.8660     0.3570 H     1 <1>   0.0800 
 32 H       -3.8100     1.0430    -0.3810 H     1 <1>   0.0800 
 33 H       -2.3200    -1.6860    -1.7050 H     1 <1>   0.0800 
 34 H       -0.9070    -1.4870    -0.6860 H     1 <1>   0.0800 
 35 H       -3.6970    -0.0120     1.7760 H     1 <1>   0.0800 
 36 H       -3.7710    -1.6870     0.0850 H     1 <1>   0.0800 
 37 H       -0.9320     0.3160     1.3590 H     1 <1>   0.4000 
 38 H       -2.8220    -2.6850     2.1750 H     1 <1>   0.0800 
 39 H       -1.2260    -2.4530     1.5360 H     1 <1>   0.0800 
 40 H        1.2410     0.4590    -0.6890 H     1 <1>   0.1500 
 41 H       -2.7280     4.7480    -0.5870 H     1 <1>   0.1000 
 42 H        0.9900     3.1410     3.4620 H     1 <1>   0.1500 
 43 H        2.4110    -0.2940     1.3430 H     1 <1>   0.1500 
 44 H       -0.1880     5.7210    -2.1150 H     1 <1>   0.1000 
 45 H       -1.8820     6.0970    -2.5640 H     1 <1>   0.1000 
 46 H       -2.2290     7.1640    -0.2880 H     1 <1>   0.1000 
 47 H       -0.5420     6.7630     0.1580 H     1 <1>   0.1000 
 48 H       -3.4150    -3.8240    -1.3570 H     1 <1>   0.1500 
 49 H        2.2930     1.0190     3.4090 H     1 <1>   0.1500 
 50 H       -2.5650    -6.3430    -2.6810 H     1 <1>   0.0800 
 51 H       -4.0600    -6.7110    -1.8420 H     1 <1>   0.0800 
 52 H       -2.6270    -7.6670    -1.5410 H     1 <1>   0.0800 
@<TRIPOS>BOND
  1   1   2  2   
  2   2   3  am  
  3   2   4  1   
  4   3   5  1   
  5   3   6  1   
  6   4   7  1   
  7   4  29  1   
  8   4  30  1   
  9   5   8  1   
 10   5  31  1   
 11   5  32  1   
 12   6   9  1   
 13   6  33  1   
 14   6  34  1   
 15   7  10  1   
 16   7  11  1   
 17   8   9  1   
 18   8  12  1   
 19   8  35  1   
 20   9  13  1   
 21   9  36  1   
 22  10  14  ar  
 23  10  15  ar  
 24  11  16  2   
 25  11  17  1   
 26  12  37  1   
 27  13  18  1   
 28  13  38  1   
 29  13  39  1   
 30  14  16  1   
 31  14  19  ar  
 32  15  20  ar  
 33  15  40  1   
 34  17  21  1   
 35  17  22  1   
 36  17  41  1   
 37  18  23  1   
 38  18  24  2   
 39  19  25  ar  
 40  19  42  1   
 41  20  25  ar  
 42  20  43  1   
 43  21  22  1   
 44  21  44  1   
 45  21  45  1   
 46  22  46  1   
 47  22  47  1   
 48  23  26  1   
 49  24  27  1   
 50  24  48  1   
 51  25  49  1   
 52  26  27  2   
 53  27  28  1   
 54  28  50  1   
 55  28  51  1   
 56  28  52  1   
@<TRIPOS>SUBSTRUCTURE
  1 ****   3 GROUP 4 **** **** 0

# MOE 2024.06 (io_trps.svl 2023.06)
