@<TRIPOS>MOLECULE
NONAME
48 50 1 0 0 
SMALL
USER_CHARGES


@<TRIPOS>ATOM
  1 CL      -0.6660    -0.1730     1.0140 Cl    1 <1>  -0.1770 
  2 C       -2.3250     0.3250     0.8190 C.ar  1 <1>   0.1770 
  3 C       -3.2860    -0.6150     0.4990 C.ar  1 <1>  -0.1500 
  4 C       -2.6630     1.6530     0.9860 C.ar  1 <1>  -0.1500 
  5 C       -4.6010    -0.2160     0.3470 C.ar  1 <1>  -0.1500 
  6 C       -3.9820     2.0410     0.8300 C.ar  1 <1>  -0.1500 
  7 C       -4.9840     1.1200     0.5070 C.ar  1 <1>   0.0530 
  8 C       -6.3540     1.5500     0.3560 C.2   1 <1>   0.0870 
  9 O       -6.7500     2.6830     0.8820 O.3   1 <1>  -0.0190 
 10 C       -7.4430     1.0060    -0.2510 C.2   1 <1>  -0.0860 
 11 N       -8.0140     2.9340     0.6700 N.2   1 <1>  -0.4100 
 12 C       -8.4520     1.9430    -0.0200 C.2   1 <1>   0.3720 
 13 C       -7.5950    -0.2140    -0.9760 C.2   1 <1>   0.7160 
 14 N       -9.7650     1.8190    -0.4760 N.pl3 1 <1>  -0.8520 
 15 O       -6.9560    -0.3700    -2.0000 O.2   1 <1>  -0.5700 
 16 N       -8.4220    -1.2320    -0.5410 N.am  1 <1>  -0.6600 
 17 C      -10.6400     3.0230    -0.3950 C.3   1 <1>   0.2090 
 18 C       -8.6370    -2.4720    -1.3430 C.3   1 <1>   0.1400 
 19 C       -9.1610    -1.1950     0.7560 C.3   1 <1>   0.1400 
 20 C      -12.0980     2.6270    -0.6310 C.3   1 <1>   0.1200 
 21 C       -8.2450    -3.6960    -0.5120 C.3   1 <1>  -0.1600 
 22 C       -8.7760    -2.4110     1.6020 C.3   1 <1>  -0.1600 
 23 O      -12.8800     3.7790    -0.6370 O.3   1 <1>  -0.5600 
 24 C       -9.0010    -3.7020     0.8160 C.3   1 <1>   0.2000 
 25 C      -14.2390     3.5400    -0.8110 C.3   1 <1>   0.0400 
 26 O       -8.5460    -4.7580     1.5730 O.3   1 <1>  -0.6800 
 27 H       -3.0010    -1.6440     0.3700 H     1 <1>   0.1500 
 28 H       -1.9010     2.3700     1.2340 H     1 <1>   0.1500 
 29 H       -5.3350    -0.9610     0.1010 H     1 <1>   0.1500 
 30 H       -4.2380     3.0780     0.9590 H     1 <1>   0.1500 
 31 H       -9.7950     1.4050    -1.4130 H     1 <1>   0.4000 
 32 H      -10.3330     3.7390    -1.1380 H     1 <1>   0.0800 
 33 H      -10.5550     3.4720     0.5800 H     1 <1>   0.0800 
 34 H       -8.0570    -2.4540    -2.2500 H     1 <1>   0.0800 
 35 H       -9.6760    -2.5350    -1.6170 H     1 <1>   0.0800 
 36 H      -10.2190    -1.2060     0.5560 H     1 <1>   0.0800 
 37 H       -8.9410    -0.3000     1.3110 H     1 <1>   0.0800 
 38 H      -12.4360     1.9830     0.1630 H     1 <1>   0.0800 
 39 H      -12.2040     2.1390    -1.5830 H     1 <1>   0.0800 
 40 H       -7.1830    -3.6670    -0.3420 H     1 <1>   0.0800 
 41 H       -8.4810    -4.5870    -1.0650 H     1 <1>   0.0800 
 42 H       -9.3780    -2.4240     2.4930 H     1 <1>   0.0800 
 43 H       -7.7430    -2.3190     1.8860 H     1 <1>   0.0800 
 44 H      -10.0540    -3.8540     0.6430 H     1 <1>   0.0800 
 45 H      -14.7490     4.4870    -0.8020 H     1 <1>   0.0800 
 46 H      -14.6000     2.9280    -0.0020 H     1 <1>   0.0800 
 47 H      -14.3970     3.0520    -1.7580 H     1 <1>   0.0800 
 48 H       -7.5890    -4.6670     1.7370 H     1 <1>   0.4000 
@<TRIPOS>BOND
  1   1   2  1   
  2   2   3  ar  
  3   2   4  ar  
  4   3   5  ar  
  5   3  27  1   
  6   4   6  ar  
  7   4  28  1   
  8   5   7  ar  
  9   5  29  1   
 10   6   7  ar  
 11   6  30  1   
 12   7   8  1   
 13   8   9  1   
 14   8  10  2   
 15   9  11  1   
 16  10  12  1   
 17  10  13  1   
 18  11  12  2   
 19  12  14  1   
 20  13  15  2   
 21  13  16  am  
 22  14  17  1   
 23  14  31  1   
 24  16  18  1   
 25  16  19  1   
 26  17  20  1   
 27  17  32  1   
 28  17  33  1   
 29  18  21  1   
 30  18  34  1   
 31  18  35  1   
 32  19  22  1   
 33  19  36  1   
 34  19  37  1   
 35  20  23  1   
 36  20  38  1   
 37  20  39  1   
 38  21  24  1   
 39  21  40  1   
 40  21  41  1   
 41  22  24  1   
 42  22  42  1   
 43  22  43  1   
 44  23  25  1   
 45  24  26  1   
 46  24  44  1   
 47  25  45  1   
 48  25  46  1   
 49  25  47  1   
 50  26  48  1   
@<TRIPOS>SUBSTRUCTURE
  1 ****  10 GROUP 4 **** **** 0

# MOE 2024.06 (io_trps.svl 2023.06)
