@<TRIPOS>MOLECULE
NONAME
52 55 1 0 0 
SMALL
USER_CHARGES


@<TRIPOS>ATOM
  1 O        0.0610     2.0350    -1.6000 O.2   1 <1>  -0.5700 
  2 C       -0.3380     3.1220    -1.2500 C.2   1 <1>   0.5690 
  3 N       -0.9570     3.3560    -0.0540 N.am  1 <1>  -0.5090 
  4 C       -0.1420     4.3100    -2.1840 C.3   1 <1>   0.1810 
  5 C       -1.4450     4.7320     0.2820 C.3   1 <1>   0.3640 
  6 C       -1.0170     2.3410     1.0250 C.3   1 <1>   0.0490 
  7 O        0.2330     5.4480    -1.4550 O.3   1 <1>  -0.5600 
  8 C       -2.9520     4.8570     0.0220 C.ar  1 <1>  -0.1440 
  9 C       -0.7030     5.8790    -0.4690 C.3   1 <1>   0.2610 
 10 C       -1.7300     1.0540     0.7510 C.3   1 <1>  -0.2000 
 11 C       -2.3140     2.0370     1.7120 C.3   1 <1>  -0.2000 
 12 C       -3.6190     4.1110    -0.9450 C.ar  1 <1>  -0.1500 
 13 C       -3.6810     5.7630     0.7820 C.ar  1 <1>  -0.1500 
 14 C       -0.0170     6.7890     0.5550 C.2   1 <1>   0.5690 
 15 C       -4.9790     4.2660    -1.1480 C.ar  1 <1>  -0.1500 
 16 C       -5.0400     5.9200     0.5810 C.ar  1 <1>  -0.1500 
 17 O       -0.6830     7.3090     1.4200 O.2   1 <1>  -0.5700 
 18 N        1.3210     6.9950     0.4800 N.am  1 <1>  -0.7300 
 19 C       -5.7000     5.1760    -0.3820 C.ar  1 <1>   0.0820 
 20 C        2.1030     7.8970     1.3380 C.3   1 <1>   0.2840 
 21 O       -7.0330     5.3880    -0.5140 O.3   1 <1>  -0.3620 
 22 C        3.3170     8.3570     0.5540 C.ar  1 <1>  -0.1440 
 23 C       -7.8050     4.6550    -1.4380 C.3   1 <1>   0.0400 
 24 C        4.5110     7.6550     0.6330 C.ar  1 <1>  -0.1500 
 25 C        3.2420     9.4820    -0.2530 C.ar  1 <1>  -0.1500 
 26 C        5.6180     8.0750    -0.0840 C.ar  1 <1>  -0.1500 
 27 C        4.3490     9.9040    -0.9700 C.ar  1 <1>  -0.1500 
 28 C        5.5370     9.2000    -0.8860 C.ar  1 <1>  -0.1500 
 29 H       -1.0490     4.5200    -2.7210 H     1 <1>   0.0800 
 30 H        0.6440     4.0920    -2.8840 H     1 <1>   0.0800 
 31 H       -1.2970     4.8680     1.3400 H     1 <1>   0.0800 
 32 H       -0.1060     2.2970     1.5980 H     1 <1>   0.1000 
 33 H       -1.4290     6.4830    -0.9810 H     1 <1>   0.0800 
 34 H       -2.1910     0.9210    -0.2120 H     1 <1>   0.1000 
 35 H       -1.3090     0.1430     1.1360 H     1 <1>   0.1000 
 36 H       -2.3010     1.7870     2.7580 H     1 <1>   0.1000 
 37 H       -3.2210     2.5370     1.4220 H     1 <1>   0.1000 
 38 H       -3.0930     3.3920    -1.5480 H     1 <1>   0.1500 
 39 H       -3.1950     6.3580     1.5390 H     1 <1>   0.1500 
 40 H       -5.4580     3.6710    -1.9010 H     1 <1>   0.1500 
 41 H       -5.6000     6.6230     1.1720 H     1 <1>   0.1500 
 42 H        1.8330     6.5870    -0.3100 H     1 <1>   0.3700 
 43 H        1.4990     8.7400     1.6290 H     1 <1>   0.0800 
 44 H        2.4070     7.3710     2.2260 H     1 <1>   0.0800 
 45 H       -8.8260     4.9820    -1.3540 H     1 <1>   0.0800 
 46 H       -7.7360     3.6090    -1.1990 H     1 <1>   0.0800 
 47 H       -7.4400     4.8500    -2.4310 H     1 <1>   0.0800 
 48 H        4.5840     6.7770     1.2520 H     1 <1>   0.1500 
 49 H        2.3200    10.0330    -0.3270 H     1 <1>   0.1500 
 50 H        6.5410     7.5270    -0.0190 H     1 <1>   0.1500 
 51 H        4.2850    10.7780    -1.5940 H     1 <1>   0.1500 
 52 H        6.3970     9.5270    -1.4430 H     1 <1>   0.1500 
@<TRIPOS>BOND
  1   1   2  2   
  2   2   3  am  
  3   2   4  1   
  4   3   5  1   
  5   3   6  1   
  6   4   7  1   
  7   4  29  1   
  8   4  30  1   
  9   5   8  1   
 10   5   9  1   
 11   5  31  1   
 12   6  10  1   
 13   6  11  1   
 14   6  32  1   
 15   7   9  1   
 16   8  12  ar  
 17   8  13  ar  
 18   9  14  1   
 19   9  33  1   
 20  10  11  1   
 21  10  34  1   
 22  10  35  1   
 23  11  36  1   
 24  11  37  1   
 25  12  15  ar  
 26  12  38  1   
 27  13  16  ar  
 28  13  39  1   
 29  14  17  2   
 30  14  18  am  
 31  15  19  ar  
 32  15  40  1   
 33  16  19  ar  
 34  16  41  1   
 35  18  20  1   
 36  18  42  1   
 37  19  21  1   
 38  20  22  1   
 39  20  43  1   
 40  20  44  1   
 41  21  23  1   
 42  22  24  ar  
 43  22  25  ar  
 44  23  45  1   
 45  23  46  1   
 46  23  47  1   
 47  24  26  ar  
 48  24  48  1   
 49  25  27  ar  
 50  25  49  1   
 51  26  28  ar  
 52  26  50  1   
 53  27  28  ar  
 54  27  51  1   
 55  28  52  1   
@<TRIPOS>SUBSTRUCTURE
  1 ****   9 GROUP 4 **** **** 0

# MOE 2024.06 (io_trps.svl 2023.06)
