@<TRIPOS>MOLECULE
NONAME
46 48 1 0 0 
SMALL
USER_CHARGES


@<TRIPOS>ATOM
  1 S        0.6360     0.4110     1.5310 S.o2  1 <1>   1.4470 
  2 O        1.6370    -0.3860     2.2060 O.2   1 <1>  -0.6500 
  3 O       -0.0140     1.4880     2.2490 O.2   1 <1>  -0.6500 
  4 N       -0.5820    -0.6320     0.9770 N.am  1 <1>  -0.8490 
  5 C        1.3580     1.0960     0.0090 C.ar  1 <1>  -0.0090 
  6 C       -0.0660    -1.7170     0.1200 C.3   1 <1>   0.1960 
  7 C       -1.7220     0.0560     0.3680 C.3   1 <1>   0.1960 
  8 C        0.9320     2.3180    -0.4980 C.ar  1 <1>  -0.1500 
  9 C        2.3360     0.4060    -0.7040 C.ar  1 <1>  -0.1500 
 10 C       -1.1230    -2.8060    -0.1270 C.3   1 <1>  -0.1060 
 11 C       -2.8570    -0.9300     0.0840 C.3   1 <1>  -0.1600 
 12 C        1.4740     2.8030    -1.6720 C.ar  1 <1>   0.1900 
 13 C        2.8710     0.9020    -1.8830 C.ar  1 <1>  -0.1500 
 14 C       -0.5960    -3.7660    -1.1900 C.2   1 <1>   0.9060 
 15 C       -2.3470    -2.1060    -0.7490 C.3   1 <1>   0.2000 
 16 C       -1.4690    -3.5700     1.1870 C.3   1 <1>  -0.0650 
 17 F        1.0420     3.9540    -2.1160 F     1 <1>  -0.1900 
 18 C        2.4430     2.1190    -2.3870 C.ar  1 <1>  -0.1440 
 19 O        0.5450    -3.6180    -1.6460 O.co2 1 <1>  -0.9000 
 20 O       -1.3660    -4.6320    -1.6330 O.co2 1 <1>  -0.9000 
 21 O       -3.3780    -3.0080    -0.9170 O.3   1 <1>  -0.6800 
 22 C       -0.2630    -4.2050     1.8980 C.3   1 <1>  -0.1950 
 23 C        3.0200     2.6740    -3.6810 C.3   1 <1>  -0.0970 
 24 C        0.3160    -5.5000     1.4290 C.3   1 <1>  -0.2000 
 25 C       -0.4390    -5.4370     2.7260 C.3   1 <1>  -0.2000 
 26 H        0.2340    -1.3070    -0.8300 H     1 <1>   0.0800 
 27 H        0.8080    -2.1630     0.5620 H     1 <1>   0.0800 
 28 H       -2.0880     0.8170     1.0360 H     1 <1>   0.0800 
 29 H       -1.4150     0.5270    -0.5510 H     1 <1>   0.0800 
 30 H        0.1830     2.8930     0.0180 H     1 <1>   0.1500 
 31 H        2.6840    -0.5460    -0.3330 H     1 <1>   0.1500 
 32 H       -3.6370    -0.4260    -0.4550 H     1 <1>   0.0800 
 33 H       -3.2620    -1.2780     1.0150 H     1 <1>   0.0800 
 34 H        3.6200     0.3280    -2.4030 H     1 <1>   0.1500 
 35 H       -2.0800    -1.7530    -1.7310 H     1 <1>   0.0800 
 36 H       -1.9410    -2.9030     1.8840 H     1 <1>   0.0800 
 37 H       -2.1790    -4.3460     0.9590 H     1 <1>   0.0800 
 38 H       -2.9490    -3.8330    -1.2860 H     1 <1>   0.4000 
 39 H        0.4160    -3.4690     2.2950 H     1 <1>   0.1000 
 40 H        3.7610     2.0110    -4.0890 H     1 <1>   0.0800 
 41 H        3.4790     3.6300    -3.4980 H     1 <1>   0.0800 
 42 H        2.2370     2.8000    -4.4060 H     1 <1>   0.0800 
 43 H       -0.1360    -5.9780     0.5750 H     1 <1>   0.1000 
 44 H        1.3880    -5.5950     1.4280 H     1 <1>   0.1000 
 45 H        0.1100    -5.5210     3.6480 H     1 <1>   0.1000 
 46 H       -1.4070    -5.9040     2.7740 H     1 <1>   0.1000 
@<TRIPOS>BOND
  1   1   2  2   
  2   1   3  2   
  3   1   4  am  
  4   1   5  1   
  5   4   6  1   
  6   4   7  1   
  7   5   8  ar  
  8   5   9  ar  
  9   6  10  1   
 10   6  26  1   
 11   6  27  1   
 12   7  11  1   
 13   7  28  1   
 14   7  29  1   
 15   8  12  ar  
 16   8  30  1   
 17   9  13  ar  
 18   9  31  1   
 19  10  14  1   
 20  10  15  1   
 21  10  16  1   
 22  11  15  1   
 23  11  32  1   
 24  11  33  1   
 25  12  17  1   
 26  12  18  ar  
 27  13  18  ar  
 28  13  34  1   
 29  14  19  ar  
 30  14  20  ar  
 31  15  21  1   
 32  15  35  1   
 33  16  22  1   
 34  16  36  1   
 35  16  37  1   
 36  18  23  1   
 37  21  38  1   
 38  22  24  1   
 39  22  25  1   
 40  22  39  1   
 41  23  40  1   
 42  23  41  1   
 43  23  42  1   
 44  24  25  1   
 45  24  43  1   
 46  24  44  1   
 47  25  45  1   
 48  25  46  1   
@<TRIPOS>SUBSTRUCTURE
  1 ****   6 GROUP 4 **** **** 0

# MOE 2024.06 (io_trps.svl 2023.06)
