@<TRIPOS>MOLECULE
NONAME
56 60 1 0 0 
SMALL
USER_CHARGES


@<TRIPOS>ATOM
  1 O       -0.7220    -0.0420    -1.1210 O.2   1 <1>  -0.5700 
  2 C       -1.6790     0.5860    -0.7060 C.2   1 <1>   0.5440 
  3 N       -1.4660     1.8400    -0.1770 N.am  1 <1>  -0.6600 
  4 C       -2.9940    -0.0050    -0.7660 C.ar  1 <1>   0.0860 
  5 C       -2.3850     2.5340     0.7540 C.3   1 <1>   0.1400 
  6 C       -0.1190     2.4530    -0.1380 C.3   1 <1>   0.1400 
  7 C       -3.1840    -1.3310    -0.3920 C.ar  1 <1>   0.1600 
  8 C       -4.1210     0.6890    -1.1950 C.ar  1 <1>  -0.1500 
  9 C       -1.4810     3.4150     1.6060 C.3   1 <1>  -0.1600 
 10 C       -0.2800     3.7080     0.7130 C.3   1 <1>  -0.1600 
 11 N       -4.3370    -1.9780    -0.3790 N.ar  1 <1>  -0.6200 
 12 C       -5.3270     0.0310    -1.1930 C.ar  1 <1>  -0.1500 
 13 C       -5.4080    -1.3000    -0.7780 C.ar  1 <1>   0.4100 
 14 N       -6.6120    -1.9780    -0.7530 N.pl3 1 <1>  -0.8380 
 15 C       -7.8590    -1.5310    -1.4250 C.3   1 <1>   0.2090 
 16 C       -6.6940    -3.4380    -0.4630 C.3   1 <1>   0.2090 
 17 C       -8.8810    -2.6050    -1.0600 C.3   1 <1>   0.2000 
 18 C       -8.0480    -3.8920    -1.0280 C.3   1 <1>  -0.0800 
 19 O       -9.3470    -2.3260     0.2170 O.3   1 <1>  -0.6800 
 20 C       -8.6980    -5.0570    -0.2530 C.3   1 <1>  -0.0160 
 21 C       -7.9860    -6.4150    -0.3200 C.ar  1 <1>  -0.1440 
 22 C       -8.4330    -7.4800     0.5020 C.ar  1 <1>   0.0000 
 23 C       -6.9280    -6.6760    -1.1470 C.ar  1 <1>  -0.1500 
 24 C       -7.7450    -8.7170     0.4230 C.ar  1 <1>   0.3100 
 25 C       -9.5290    -7.3950     1.3940 C.ar  1 <1>  -0.1500 
 26 C       -6.3200    -7.9360    -1.1480 C.ar  1 <1>   0.1600 
 27 N       -6.6920    -8.9280    -0.4040 N.ar  1 <1>  -0.6200 
 28 C       -8.1660    -9.7850     1.2310 C.ar  1 <1>  -0.1500 
 29 C       -9.9150    -8.4560     2.1670 C.ar  1 <1>  -0.1500 
 30 C       -9.2260    -9.6680     2.0880 C.ar  1 <1>  -0.1500 
 31 H       -3.0670     3.1440     0.1860 H     1 <1>   0.0800 
 32 H       -2.9360     1.8330     1.3590 H     1 <1>   0.0800 
 33 H        0.5680     1.7650     0.3270 H     1 <1>   0.0800 
 34 H        0.2230     2.6830    -1.1330 H     1 <1>   0.0800 
 35 H       -2.3150    -1.8850    -0.0800 H     1 <1>   0.1500 
 36 H       -4.0380     1.7100    -1.5210 H     1 <1>   0.1500 
 37 H       -1.9820     4.3100     1.9290 H     1 <1>   0.0800 
 38 H       -1.1650     2.8580     2.4710 H     1 <1>   0.0800 
 39 H        0.6110     3.9240     1.2770 H     1 <1>   0.0800 
 40 H       -0.4970     4.5410     0.0670 H     1 <1>   0.0800 
 41 H       -6.2110     0.5450    -1.5110 H     1 <1>   0.1500 
 42 H       -8.1750    -0.5600    -1.0850 H     1 <1>   0.0800 
 43 H       -7.7010    -1.5140    -2.4890 H     1 <1>   0.0800 
 44 H       -5.8780    -3.9670    -0.9230 H     1 <1>   0.0800 
 45 H       -6.6500    -3.5840     0.6030 H     1 <1>   0.0800 
 46 H       -9.7190    -2.6480    -1.7340 H     1 <1>   0.0800 
 47 H       -7.9000    -4.1910    -2.0500 H     1 <1>   0.0800 
 48 H       -8.5690    -2.0950     0.7690 H     1 <1>   0.4000 
 49 H       -9.7000    -5.1900    -0.6220 H     1 <1>   0.0800 
 50 H       -8.7720    -4.7700     0.7810 H     1 <1>   0.0800 
 51 H       -6.5200    -5.9490    -1.8210 H     1 <1>   0.1500 
 52 H      -10.0800    -6.4760     1.4720 H     1 <1>   0.1500 
 53 H       -5.4880    -8.0910    -1.8130 H     1 <1>   0.1500 
 54 H       -7.6220   -10.7080     1.1510 H     1 <1>   0.1500 
 55 H      -10.7500    -8.3730     2.8410 H     1 <1>   0.1500 
 56 H       -9.5380   -10.4960     2.7010 H     1 <1>   0.1500 
@<TRIPOS>BOND
  1   1   2  2   
  2   2   3  am  
  3   2   4  1   
  4   3   5  1   
  5   3   6  1   
  6   4   7  ar  
  7   4   8  ar  
  8   5   9  1   
  9   5  31  1   
 10   5  32  1   
 11   6  10  1   
 12   6  33  1   
 13   6  34  1   
 14   7  11  ar  
 15   7  35  1   
 16   8  12  ar  
 17   8  36  1   
 18   9  10  1   
 19   9  37  1   
 20   9  38  1   
 21  10  39  1   
 22  10  40  1   
 23  11  13  ar  
 24  12  13  ar  
 25  12  41  1   
 26  13  14  1   
 27  14  15  1   
 28  14  16  1   
 29  15  17  1   
 30  15  42  1   
 31  15  43  1   
 32  16  18  1   
 33  16  44  1   
 34  16  45  1   
 35  17  18  1   
 36  17  19  1   
 37  17  46  1   
 38  18  20  1   
 39  18  47  1   
 40  19  48  1   
 41  20  21  1   
 42  20  49  1   
 43  20  50  1   
 44  21  22  ar  
 45  21  23  ar  
 46  22  24  ar  
 47  22  25  ar  
 48  23  26  ar  
 49  23  51  1   
 50  24  27  ar  
 51  24  28  ar  
 52  25  29  ar  
 53  25  52  1   
 54  26  27  ar  
 55  26  53  1   
 56  28  30  ar  
 57  28  54  1   
 58  29  30  ar  
 59  29  55  1   
 60  30  56  1   
@<TRIPOS>SUBSTRUCTURE
  1 ****  16 GROUP 4 **** **** 0

# MOE 2024.06 (io_trps.svl 2023.06)
