@<TRIPOS>MOLECULE
NONAME
51 54 1 0 0 
SMALL
USER_CHARGES


@<TRIPOS>ATOM
  1 O       -2.0850     0.8160    -0.1170 O.2   1 <1>  -0.5700 
  2 C       -1.3980     1.7740     0.1500 C.2   1 <1>   0.5690 
  3 N       -1.8990     3.0500     0.1740 N.am  1 <1>  -0.6600 
  4 C        0.0870     1.5330     0.4400 C.3   1 <1>   0.1810 
  5 C       -1.0250     4.2180     0.5260 C.3   1 <1>   0.3640 
  6 C       -3.3530     3.3380     0.0110 C.3   1 <1>   0.0600 
  7 O        0.6960     2.5870     1.1440 O.3   1 <1>  -0.5600 
  8 C       -1.2370     5.3610    -0.4790 C.ar  1 <1>  -0.1430 
  9 C        0.4780     3.8600     0.5690 C.3   1 <1>   0.2610 
 10 C       -1.5130     6.6700    -0.0810 C.ar  1 <1>  -0.1430 
 11 C       -1.1270     5.0800    -1.8360 C.ar  1 <1>  -0.1500 
 12 C        1.2270     4.9650     1.3210 C.2   1 <1>   0.5690 
 13 C       -1.6530     7.6610    -1.0410 C.ar  1 <1>  -0.1500 
 14 C       -1.6660     7.0700     1.3810 C.3   1 <1>  -0.0960 
 15 C       -1.2750     6.0740    -2.7860 C.ar  1 <1>  -0.1500 
 16 O        1.0580     5.1110     2.5110 O.2   1 <1>  -0.5700 
 17 N        2.0260     5.8120     0.6230 N.am  1 <1>  -0.7300 
 18 C       -1.5360     7.3690    -2.3860 C.ar  1 <1>  -0.1500 
 19 C        2.5580     7.0850     1.1430 C.3   1 <1>   0.3210 
 20 C        2.0800     8.1920     0.2180 C.2   1 <1>   0.1080 
 21 N        2.2630     8.1780    -1.0760 N.2   1 <1>  -0.7070 
 22 C        1.3740     9.3200     0.6200 C.2   1 <1>  -0.1810 
 23 N        1.6630     9.3060    -1.5230 N.pl3 1 <1>   0.3000 
 24 C        1.1260     9.9930    -0.4980 C.2   1 <1>  -0.3320 
 25 C        0.8150    10.0100     1.8320 C.3   1 <1>   0.0210 
 26 C        0.3520    11.2630    -0.2950 C.3   1 <1>   0.0200 
 27 C        0.0060    11.1790     1.2120 C.3   1 <1>  -0.1600 
 28 H        0.6140     1.3920    -0.4850 H     1 <1>   0.0800 
 29 H        0.1900     0.6440     1.0350 H     1 <1>   0.0800 
 30 H       -1.3090     4.5340     1.5130 H     1 <1>   0.0800 
 31 H       -3.7090     3.9100     0.8500 H     1 <1>   0.0800 
 32 H       -3.9190     2.4240    -0.0470 H     1 <1>   0.0800 
 33 H       -3.5170     3.9000    -0.8920 H     1 <1>   0.0800 
 34 H        0.8630     3.8220    -0.4330 H     1 <1>   0.0800 
 35 H       -0.9280     4.0750    -2.1670 H     1 <1>   0.1500 
 36 H       -1.8490     8.6760    -0.7450 H     1 <1>   0.1500 
 37 H       -1.9620     8.1000     1.4680 H     1 <1>   0.0800 
 38 H       -0.7340     6.9490     1.9010 H     1 <1>   0.0800 
 39 H       -2.4190     6.4700     1.8570 H     1 <1>   0.0800 
 40 H       -1.1870     5.8390    -3.8320 H     1 <1>   0.1500 
 41 H        1.9950     5.8420    -0.4020 H     1 <1>   0.3700 
 42 H       -1.6490     8.1480    -3.1190 H     1 <1>   0.1500 
 43 H        2.2140     7.2630     2.1470 H     1 <1>   0.0800 
 44 H        3.6330     7.0530     1.1390 H     1 <1>   0.0800 
 45 H        1.6400     9.5670    -2.5150 H     1 <1>   0.2700 
 46 H        0.1870     9.3510     2.4040 H     1 <1>   0.0800 
 47 H        1.6190    10.3790     2.4440 H     1 <1>   0.0800 
 48 H        0.9730    12.1170    -0.5050 H     1 <1>   0.0800 
 49 H       -0.5360    11.2870    -0.9020 H     1 <1>   0.0800 
 50 H        0.2250    12.1070     1.7110 H     1 <1>   0.0800 
 51 H       -1.0440    10.9700     1.3180 H     1 <1>   0.0800 
@<TRIPOS>BOND
  1   1   2  2   
  2   2   3  am  
  3   2   4  1   
  4   3   5  1   
  5   3   6  1   
  6   4   7  1   
  7   4  28  1   
  8   4  29  1   
  9   5   8  1   
 10   5   9  1   
 11   5  30  1   
 12   6  31  1   
 13   6  32  1   
 14   6  33  1   
 15   7   9  1   
 16   8  10  ar  
 17   8  11  ar  
 18   9  12  1   
 19   9  34  1   
 20  10  13  ar  
 21  10  14  1   
 22  11  15  ar  
 23  11  35  1   
 24  12  16  2   
 25  12  17  am  
 26  13  18  ar  
 27  13  36  1   
 28  14  37  1   
 29  14  38  1   
 30  14  39  1   
 31  15  18  ar  
 32  15  40  1   
 33  17  19  1   
 34  17  41  1   
 35  18  42  1   
 36  19  20  1   
 37  19  43  1   
 38  19  44  1   
 39  20  21  2   
 40  20  22  1   
 41  21  23  1   
 42  22  24  2   
 43  22  25  1   
 44  23  24  1   
 45  23  45  1   
 46  24  26  1   
 47  25  27  1   
 48  25  46  1   
 49  25  47  1   
 50  26  27  1   
 51  26  48  1   
 52  26  49  1   
 53  27  50  1   
 54  27  51  1   
@<TRIPOS>SUBSTRUCTURE
  1 ****   8 GROUP 4 **** **** 0

# MOE 2024.06 (io_trps.svl 2023.06)
