@<TRIPOS>MOLECULE
NONAME
50 53 1 0 0 
SMALL
USER_CHARGES


@<TRIPOS>ATOM
  1 O        2.0320     0.1070     1.2470 O.2   1 <1>  -0.5700 
  2 C        2.7110    -0.8990     1.1380 C.2   1 <1>   0.5440 
  3 N        4.0740    -0.7270     1.2010 N.am  1 <1>  -0.6600 
  4 C        2.1050    -2.1940     0.8850 C.ar  1 <1>   0.0860 
  5 C        4.6660     0.3020     2.1340 C.3   1 <1>   0.1400 
  6 C        4.9520    -1.2300     0.0990 C.3   1 <1>   0.1400 
  7 C        0.8610    -2.2980     0.2560 C.ar  1 <1>  -0.1500 
  8 C        2.7350    -3.3840     1.2590 C.ar  1 <1>  -0.1500 
  9 C        4.9970     1.6460     1.4370 C.3   1 <1>   0.4230 
 10 C        5.5150    -0.1280    -0.8350 C.3   1 <1>  -0.0800 
 11 C        0.2760    -3.5230    -0.0100 C.ar  1 <1>  -0.1440 
 12 C        2.1640    -4.6140     0.9970 C.ar  1 <1>  -0.1500 
 13 N        4.1240     1.7640     0.2130 N.4   1 <1>  -0.9590 
 14 C        6.5230     1.7930     1.2030 C.3   1 <1>   0.1200 
 15 C        6.9700     0.2430    -0.5110 C.3   1 <1>   0.1200 
 16 C        4.6650     1.1430    -1.0330 C.3   1 <1>   0.3430 
 17 C        0.9390    -4.6910     0.3570 C.ar  1 <1>   0.0830 
 18 C       -1.0820    -3.5930    -0.6900 C.3   1 <1>  -0.0170 
 19 C        3.7380     3.2130    -0.0460 C.3   1 <1>   0.2370 
 20 O        7.1180     0.5830     0.8240 O.3   1 <1>  -0.5600 
 21 O        0.4210    -5.9160     0.1230 O.3   1 <1>  -0.3620 
 22 C       -1.7230    -4.9630    -0.4550 C.3   1 <1>  -0.1600 
 23 C        4.9200     4.1510    -0.2970 C.2   1 <1>   0.9060 
 24 C       -0.7000    -6.0690    -0.7260 C.3   1 <1>   0.1200 
 25 O        5.4250     4.1590    -1.4230 O.co2 1 <1>  -0.9000 
 26 O        5.4160     4.7190     0.6790 O.co2 1 <1>  -0.9000 
 27 H        3.9560     0.5030     2.9180 H     1 <1>   0.0800 
 28 H        5.5410    -0.1040     2.6110 H     1 <1>   0.0800 
 29 H        5.7640    -1.7910     0.5320 H     1 <1>   0.0800 
 30 H        4.3840    -1.9180    -0.5050 H     1 <1>   0.0800 
 31 H        0.3490    -1.3940    -0.0240 H     1 <1>   0.1500 
 32 H        3.6830    -3.3440     1.7660 H     1 <1>   0.1500 
 33 H        4.7230     2.4400     2.1120 H     1 <1>   0.0800 
 34 H        5.5760    -0.5750    -1.8100 H     1 <1>   0.0800 
 35 H        2.6570    -5.5250     1.2880 H     1 <1>   0.1500 
 36 H        3.2730     1.2260     0.4740 H     1 <1>   0.4500 
 37 H        6.9800     2.0760     2.1340 H     1 <1>   0.0800 
 38 H        6.7650     2.5560     0.4850 H     1 <1>   0.0800 
 39 H        7.3200     1.0620    -1.1200 H     1 <1>   0.0800 
 40 H        7.6110    -0.6030    -0.6880 H     1 <1>   0.0800 
 41 H        3.8360     0.9060    -1.6780 H     1 <1>   0.0800 
 42 H        5.2710     1.8690    -1.5530 H     1 <1>   0.0800 
 43 H       -1.7290    -2.8210    -0.3120 H     1 <1>   0.0800 
 44 H       -0.9470    -3.4350    -1.7460 H     1 <1>   0.0800 
 45 H        3.0950     3.2710    -0.9050 H     1 <1>   0.0800 
 46 H        3.2040     3.6020     0.8010 H     1 <1>   0.0800 
 47 H       -2.5750    -5.0850    -1.1000 H     1 <1>   0.0800 
 48 H       -2.0590    -5.0410     0.5640 H     1 <1>   0.0800 
 49 H       -0.3490    -6.0260    -1.7420 H     1 <1>   0.0800 
 50 H       -1.1230    -7.0390    -0.5370 H     1 <1>   0.0800 
@<TRIPOS>BOND
  1   1   2  2   
  2   2   3  am  
  3   2   4  1   
  4   3   5  1   
  5   3   6  1   
  6   4   7  ar  
  7   4   8  ar  
  8   5   9  1   
  9   5  27  1   
 10   5  28  1   
 11   6  10  1   
 12   6  29  1   
 13   6  30  1   
 14   7  11  ar  
 15   7  31  1   
 16   8  12  ar  
 17   8  32  1   
 18   9  13  1   
 19   9  14  1   
 20   9  33  1   
 21  10  15  1   
 22  10  16  1   
 23  10  34  1   
 24  11  17  ar  
 25  11  18  1   
 26  12  17  ar  
 27  12  35  1   
 28  13  16  1   
 29  13  19  1   
 30  13  36  1   
 31  14  20  1   
 32  14  37  1   
 33  14  38  1   
 34  15  20  1   
 35  15  39  1   
 36  15  40  1   
 37  16  41  1   
 38  16  42  1   
 39  17  21  1   
 40  18  22  1   
 41  18  43  1   
 42  18  44  1   
 43  19  23  1   
 44  19  45  1   
 45  19  46  1   
 46  21  24  1   
 47  22  24  1   
 48  22  47  1   
 49  22  48  1   
 50  23  25  ar  
 51  23  26  ar  
 52  24  49  1   
 53  24  50  1   
@<TRIPOS>SUBSTRUCTURE
  1 ****   2 GROUP 4 **** **** 0

# MOE 2024.06 (io_trps.svl 2023.06)
