@<TRIPOS>MOLECULE
NONAME
45 48 1 0 0 
SMALL
USER_CHARGES


@<TRIPOS>ATOM
  1 S        0.2110    -0.2630    -1.5670 S.3   1 <1>  -0.0800 
  2 C       -0.0570    -1.9870    -1.3050 C.ar  1 <1>   0.2970 
  3 C       -1.0530     0.1610    -0.4090 C.2   1 <1>  -0.1100 
  4 N        0.6330    -2.9280    -1.9120 N.ar  1 <1>  -0.5670 
  5 C       -1.0640    -2.1800    -0.3950 C.ar  1 <1>   0.0000 
  6 C       -1.6120    -0.9470     0.1090 C.2   1 <1>  -0.1500 
  7 C        0.2610    -4.1410    -1.5540 C.ar  1 <1>   0.4770 
  8 C       -1.3650    -3.5130    -0.1220 C.ar  1 <1>   0.4100 
  9 N       -0.6900    -4.4920    -0.6990 N.ar  1 <1>  -0.6200 
 10 C        1.0060    -5.2870    -2.1950 C.3   1 <1>  -0.0960 
 11 N       -2.3840    -3.8680     0.7360 N.pl3 1 <1>  -0.8380 
 12 C       -2.1960    -5.0070     1.6750 C.3   1 <1>   0.2090 
 13 C       -3.7830    -3.5680     0.3380 C.3   1 <1>   0.2090 
 14 C       -2.8450    -6.2690     1.1040 C.3   1 <1>  -0.1600 
 15 C       -4.4170    -4.8230    -0.2590 C.3   1 <1>  -0.1600 
 16 C       -4.2960    -6.0410     0.6640 C.3   1 <1>   0.4240 
 17 O       -5.0150    -5.7440     1.8080 O.3   1 <1>  -0.6800 
 18 C       -4.8720    -7.3050    -0.0070 C.ar  1 <1>  -0.1430 
 19 C       -5.9540    -8.0070     0.5180 C.ar  1 <1>  -0.1500 
 20 C       -4.2990    -7.7750    -1.1820 C.ar  1 <1>  -0.1500 
 21 C       -6.4580    -9.1480    -0.1000 C.ar  1 <1>  -0.1430 
 22 C       -4.7880    -8.9030    -1.8130 C.ar  1 <1>  -0.1500 
 23 C       -5.8620    -9.5870    -1.2760 C.ar  1 <1>  -0.1500 
 24 C       -7.6540    -9.8940     0.5090 C.3   1 <1>   1.1630 
 25 F       -7.6350    -9.9060     1.8370 F     1 <1>  -0.3400 
 26 F       -7.7160   -11.1670     0.1330 F     1 <1>  -0.3400 
 27 F       -8.8120    -9.3490     0.1580 F     1 <1>  -0.3400 
 28 H       -1.2330     1.2090    -0.2430 H     1 <1>   0.1500 
 29 H       -2.3970    -0.9710     0.8430 H     1 <1>   0.1500 
 30 H        1.7930    -4.9200    -2.8290 H     1 <1>   0.0800 
 31 H        0.3240    -5.8700    -2.7850 H     1 <1>   0.0800 
 32 H        1.4330    -5.9090    -1.4320 H     1 <1>   0.0800 
 33 H       -2.6300    -4.7570     2.6270 H     1 <1>   0.0800 
 34 H       -1.1440    -5.1810     1.8300 H     1 <1>   0.0800 
 35 H       -3.7980    -2.7800    -0.3950 H     1 <1>   0.0800 
 36 H       -4.3370    -3.2330     1.1980 H     1 <1>   0.0800 
 37 H       -2.8070    -7.0640     1.8260 H     1 <1>   0.0800 
 38 H       -2.2600    -6.5810     0.2600 H     1 <1>   0.0800 
 39 H       -3.9190    -5.0270    -1.1890 H     1 <1>   0.0800 
 40 H       -5.4530    -4.6450    -0.4840 H     1 <1>   0.0800 
 41 H       -4.6060    -4.9740     2.2370 H     1 <1>   0.4000 
 42 H       -6.4200    -7.6650     1.4270 H     1 <1>   0.1500 
 43 H       -3.4590    -7.2650    -1.6220 H     1 <1>   0.1500 
 44 H       -4.3300    -9.2500    -2.7230 H     1 <1>   0.1500 
 45 H       -6.2280   -10.4630    -1.7850 H     1 <1>   0.1500 
@<TRIPOS>BOND
  1   1   2  1   
  2   1   3  1   
  3   2   4  ar  
  4   2   5  ar  
  5   3   6  2   
  6   3  28  1   
  7   4   7  ar  
  8   5   6  1   
  9   5   8  ar  
 10   6  29  1   
 11   7   9  ar  
 12   7  10  1   
 13   8   9  ar  
 14   8  11  1   
 15  10  30  1   
 16  10  31  1   
 17  10  32  1   
 18  11  12  1   
 19  11  13  1   
 20  12  14  1   
 21  12  33  1   
 22  12  34  1   
 23  13  15  1   
 24  13  35  1   
 25  13  36  1   
 26  14  16  1   
 27  14  37  1   
 28  14  38  1   
 29  15  16  1   
 30  15  39  1   
 31  15  40  1   
 32  16  17  1   
 33  16  18  1   
 34  17  41  1   
 35  18  19  ar  
 36  18  20  ar  
 37  19  21  ar  
 38  19  42  1   
 39  20  22  ar  
 40  20  43  1   
 41  21  23  ar  
 42  21  24  1   
 43  22  23  ar  
 44  22  44  1   
 45  23  45  1   
 46  24  25  1   
 47  24  26  1   
 48  24  27  1   
@<TRIPOS>SUBSTRUCTURE
  1 ****  15 GROUP 4 **** **** 0

# MOE 2024.06 (io_trps.svl 2023.06)
