@<TRIPOS>MOLECULE
NONAME
58 61 1 0 0 
SMALL
USER_CHARGES


@<TRIPOS>ATOM
  1 O        1.2800    -2.2120     0.4990 O.3   1 <1>  -0.3630 
  2 C        0.5760    -3.2810     0.9580 C.ar  1 <1>   0.0820 
  3 C        1.0530    -0.9040     0.9780 C.3   1 <1>   0.0400 
  4 C        0.8840    -4.5330     0.4350 C.ar  1 <1>  -0.1440 
  5 C       -0.4220    -3.1640     1.9210 C.ar  1 <1>  -0.1500 
  6 C        0.2060    -5.6520     0.8980 C.ar  1 <1>  -0.1500 
  7 C        1.9620    -4.6650    -0.6380 C.3   1 <1>   0.2640 
  8 C       -1.1050    -4.2830     2.3590 C.ar  1 <1>  -0.1500 
  9 C       -0.7980    -5.5350     1.8470 C.ar  1 <1>  -0.1440 
 10 O        1.6400    -5.7060    -1.5130 O.3   1 <1>  -0.5600 
 11 C       -1.5750    -6.7520     2.3160 C.3   1 <1>   0.4860 
 12 C        2.4720    -5.7760    -2.6270 C.3   1 <1>   0.0400 
 13 N       -2.3520    -7.3540     1.1950 N.4   1 <1>  -0.9590 
 14 C       -2.8430    -6.4130     0.1440 C.3   1 <1>   0.3430 
 15 C       -3.5130    -8.1780     1.6000 C.3   1 <1>   0.3430 
 16 C       -4.0290    -7.1200    -0.5240 C.3   1 <1>   0.2000 
 17 C       -4.3390    -8.3650     0.3230 C.3   1 <1>  -0.0800 
 18 O       -5.1390    -6.2840    -0.5330 O.3   1 <1>  -0.6800 
 19 C       -4.0220    -9.6890    -0.4180 C.3   1 <1>  -0.0170 
 20 C       -2.5650   -10.1410    -0.3600 C.ar  1 <1>   0.1670 
 21 N       -1.6490    -9.3140    -0.7700 N.ar  1 <1>  -0.6200 
 22 C       -2.2790   -11.4210     0.1420 C.ar  1 <1>  -0.1500 
 23 C       -0.3540    -9.7290    -0.7310 C.ar  1 <1>   0.3100 
 24 C       -0.9890   -11.8480     0.2250 C.ar  1 <1>  -0.1500 
 25 C        0.0280   -10.9850    -0.2140 C.ar  1 <1>   0.0000 
 26 C        0.6490    -8.8670    -1.2000 C.ar  1 <1>  -0.1500 
 27 C        1.3950   -11.3180    -0.1590 C.ar  1 <1>  -0.1500 
 28 C        1.9740    -9.2080    -1.1350 C.ar  1 <1>  -0.1500 
 29 C        2.3510   -10.4470    -0.6070 C.ar  1 <1>  -0.1500 
 30 H        1.7300    -0.2410     0.4700 H     1 <1>   0.0800 
 31 H        1.2450    -0.8800     2.0360 H     1 <1>   0.0800 
 32 H        0.0380    -0.6230     0.7610 H     1 <1>   0.0800 
 33 H       -0.6790    -2.2100     2.3410 H     1 <1>   0.1500 
 34 H        0.4670    -6.6180     0.5020 H     1 <1>   0.1500 
 35 H        2.9140    -4.8790    -0.1820 H     1 <1>   0.0800 
 36 H        2.0360    -3.7560    -1.2110 H     1 <1>   0.0800 
 37 H       -1.8750    -4.1630     3.1020 H     1 <1>   0.1500 
 38 H       -2.2490    -6.4470     3.0990 H     1 <1>   0.0800 
 39 H       -0.8940    -7.4810     2.7250 H     1 <1>   0.0800 
 40 H        2.1570    -6.6090    -3.2310 H     1 <1>   0.0800 
 41 H        3.4890    -5.9240    -2.3050 H     1 <1>   0.0800 
 42 H        2.3830    -4.8660    -3.1960 H     1 <1>   0.0800 
 43 H       -1.7210    -7.9930     0.6680 H     1 <1>   0.4500 
 44 H       -3.1700    -5.4880     0.5880 H     1 <1>   0.0800 
 45 H       -2.0640    -6.2120    -0.5730 H     1 <1>   0.0800 
 46 H       -3.2010    -9.1240     2.0140 H     1 <1>   0.0800 
 47 H       -4.0990    -7.6440     2.3300 H     1 <1>   0.0800 
 48 H       -3.7950    -7.3640    -1.5480 H     1 <1>   0.0800 
 49 H       -5.3850    -8.3900     0.5770 H     1 <1>   0.0800 
 50 H       -5.4660    -6.0690     0.3620 H     1 <1>   0.4000 
 51 H       -4.3160    -9.6080    -1.4500 H     1 <1>   0.0800 
 52 H       -4.6360   -10.4610     0.0100 H     1 <1>   0.0800 
 53 H       -3.0800   -12.0650     0.4580 H     1 <1>   0.1500 
 54 H       -0.7330   -12.8210     0.6060 H     1 <1>   0.1500 
 55 H        0.3500    -7.9230    -1.6170 H     1 <1>   0.1500 
 56 H        1.6800   -12.2760     0.2400 H     1 <1>   0.1500 
 57 H        2.7340    -8.5330    -1.4900 H     1 <1>   0.1500 
 58 H        3.3960   -10.7020    -0.5640 H     1 <1>   0.1500 
@<TRIPOS>BOND
  1   1   2  1   
  2   1   3  1   
  3   2   4  ar  
  4   2   5  ar  
  5   3  30  1   
  6   3  31  1   
  7   3  32  1   
  8   4   6  ar  
  9   4   7  1   
 10   5   8  ar  
 11   5  33  1   
 12   6   9  ar  
 13   6  34  1   
 14   7  10  1   
 15   7  35  1   
 16   7  36  1   
 17   8   9  ar  
 18   8  37  1   
 19   9  11  1   
 20  10  12  1   
 21  11  13  1   
 22  11  38  1   
 23  11  39  1   
 24  12  40  1   
 25  12  41  1   
 26  12  42  1   
 27  13  14  1   
 28  13  15  1   
 29  13  43  1   
 30  14  16  1   
 31  14  44  1   
 32  14  45  1   
 33  15  17  1   
 34  15  46  1   
 35  15  47  1   
 36  16  17  1   
 37  16  18  1   
 38  16  48  1   
 39  17  19  1   
 40  17  49  1   
 41  18  50  1   
 42  19  20  1   
 43  19  51  1   
 44  19  52  1   
 45  20  21  ar  
 46  20  22  ar  
 47  21  23  ar  
 48  22  24  ar  
 49  22  53  1   
 50  23  25  ar  
 51  23  26  ar  
 52  24  25  ar  
 53  24  54  1   
 54  25  27  ar  
 55  26  28  ar  
 56  26  55  1   
 57  27  29  ar  
 58  27  56  1   
 59  28  29  ar  
 60  28  57  1   
 61  29  58  1   
@<TRIPOS>SUBSTRUCTURE
  1 ****  13 GROUP 4 **** **** 0

# MOE 2024.06 (io_trps.svl 2023.06)
