@<TRIPOS>MOLECULE
NONAME
47 50 1 0 0 
SMALL
USER_CHARGES


@<TRIPOS>ATOM
  1 O       -0.8170     3.2240     2.5680 O.2   1 <1>  -0.5700 
  2 C       -0.5610     3.2110     1.3780 C.2   1 <1>   0.7160 
  3 N       -1.6010     3.2470     0.4730 N.am  1 <1>  -0.6600 
  4 C        0.8170     3.1520     0.9450 C.2   1 <1>  -0.0860 
  5 C       -3.0070     3.4940     0.9410 C.3   1 <1>   0.1400 
  6 C       -1.4210     2.8700    -0.9620 C.3   1 <1>   0.1400 
  7 C        1.8320     2.3620     1.3930 C.2   1 <1>  -0.0400 
  8 C        1.4190     3.9410    -0.0590 C.2   1 <1>  -0.1500 
  9 C       -3.8560     4.1530    -0.1620 C.3   1 <1>   0.1440 
 10 C       -2.7140     2.2940    -1.5510 C.3   1 <1>  -0.1600 
 11 O        2.9440     2.6030     0.7410 O.3   1 <1>  -0.2800 
 12 C        1.8540     1.3030     2.4750 C.3   1 <1>  -0.0600 
 13 C        2.7070     3.5540    -0.1340 C.2   1 <1>  -0.0400 
 14 C       -5.2580     4.4540     0.3370 C.ar  1 <1>   0.1660 
 15 C       -3.9210     3.2460    -1.4170 C.3   1 <1>  -0.1600 
 16 C       -3.3250     5.5720    -0.5110 C.3   1 <1>  -0.1600 
 17 C        3.8440     4.0290    -1.0110 C.3   1 <1>  -0.0600 
 18 N       -6.0400     3.6050     0.9670 N.ar  1 <1>  -0.6200 
 19 C       -5.6340     5.7320     0.0500 C.ar  1 <1>  -0.1430 
 20 C       -4.5520     6.4850    -0.6800 C.3   1 <1>  -0.0160 
 21 C       -7.2240     4.0960     1.3030 C.ar  1 <1>   0.4770 
 22 C       -6.8850     6.1360     0.4450 C.ar  1 <1>   0.1600 
 23 N       -7.6970     5.3160     1.0790 N.ar  1 <1>  -0.6200 
 24 C       -8.1440     3.1490     2.0330 C.3   1 <1>  -0.0970 
 25 H       -3.0000     4.1230     1.8140 H     1 <1>   0.0800 
 26 H       -3.4520     2.5540     1.2210 H     1 <1>   0.0800 
 27 H       -0.6360     2.1370    -1.0500 H     1 <1>   0.0800 
 28 H       -1.1310     3.7420    -1.5210 H     1 <1>   0.0800 
 29 H        0.9160     4.7020    -0.6280 H     1 <1>   0.1500 
 30 H       -2.9310     1.3730    -1.0350 H     1 <1>   0.0800 
 31 H       -2.5620     2.0480    -2.5870 H     1 <1>   0.0800 
 32 H        0.8830     1.1950     2.9220 H     1 <1>   0.0800 
 33 H        2.5560     1.5840     3.2390 H     1 <1>   0.0800 
 34 H        2.1530     0.3610     2.0550 H     1 <1>   0.0800 
 35 H       -4.0080     3.8540    -2.3000 H     1 <1>   0.0800 
 36 H       -4.8090     2.6390    -1.3710 H     1 <1>   0.0800 
 37 H       -2.7000     5.5800    -1.3850 H     1 <1>   0.0800 
 38 H       -2.7450     5.9460     0.3160 H     1 <1>   0.0800 
 39 H        3.5070     4.8070    -1.6700 H     1 <1>   0.0800 
 40 H        4.2170     3.2080    -1.5960 H     1 <1>   0.0800 
 41 H        4.6400     4.4080    -0.3960 H     1 <1>   0.0800 
 42 H       -4.8160     6.5800    -1.7190 H     1 <1>   0.0800 
 43 H       -4.3840     7.4590    -0.2530 H     1 <1>   0.0800 
 44 H       -7.2270     7.1370     0.2410 H     1 <1>   0.1500 
 45 H       -8.0860     2.1720     1.5910 H     1 <1>   0.0800 
 46 H       -9.1590     3.4970     1.9800 H     1 <1>   0.0800 
 47 H       -7.8440     3.0890     3.0620 H     1 <1>   0.0800 
@<TRIPOS>BOND
  1   1   2  2   
  2   2   3  am  
  3   2   4  1   
  4   3   5  1   
  5   3   6  1   
  6   4   7  2   
  7   4   8  1   
  8   5   9  1   
  9   5  25  1   
 10   5  26  1   
 11   6  10  1   
 12   6  27  1   
 13   6  28  1   
 14   7  11  1   
 15   7  12  1   
 16   8  13  2   
 17   8  29  1   
 18   9  14  1   
 19   9  15  1   
 20   9  16  1   
 21  10  15  1   
 22  10  30  1   
 23  10  31  1   
 24  11  13  1   
 25  12  32  1   
 26  12  33  1   
 27  12  34  1   
 28  13  17  1   
 29  14  18  ar  
 30  14  19  ar  
 31  15  35  1   
 32  15  36  1   
 33  16  20  1   
 34  16  37  1   
 35  16  38  1   
 36  17  39  1   
 37  17  40  1   
 38  17  41  1   
 39  18  21  ar  
 40  19  20  1   
 41  19  22  ar  
 42  20  42  1   
 43  20  43  1   
 44  21  23  ar  
 45  21  24  1   
 46  22  23  ar  
 47  22  44  1   
 48  24  45  1   
 49  24  46  1   
 50  24  47  1   
@<TRIPOS>SUBSTRUCTURE
  1 ****   5 GROUP 4 **** **** 0

# MOE 2024.06 (io_trps.svl 2023.06)
