@<TRIPOS>MOLECULE
NONAME
32 34 1 0 0 
SMALL
USER_CHARGES


@<TRIPOS>ATOM
  1 F       -1.9690     0.6730     1.7780 F     1 <1>  -0.3400 
  2 C       -1.8500     0.3980     0.4790 C.3   1 <1>   0.2600 
  3 C       -2.5630     1.5040    -0.2940 C.3   1 <1>   0.2000 
  4 C       -2.6640    -0.8690     0.1850 C.3   1 <1>   0.2090 
  5 O       -2.1640     1.4510    -1.6290 O.3   1 <1>  -0.6800 
  6 C       -4.0290     1.0800    -0.2190 C.3   1 <1>   0.2090 
  7 N       -4.0010    -0.4130    -0.3140 N.pl3 1 <1>  -0.8380 
  8 C       -5.1410    -1.1490    -0.0260 C.ar  1 <1>   0.4100 
  9 N       -6.2310    -0.4710     0.3130 N.ar  1 <1>  -0.6200 
 10 C       -5.1160    -2.5360    -0.1120 C.ar  1 <1>  -0.1500 
 11 C       -7.3030    -1.1920     0.5850 C.ar  1 <1>   0.1600 
 12 C       -6.2340    -3.3000     0.1750 C.ar  1 <1>   0.0530 
 13 C       -7.3590    -2.5690     0.5350 C.ar  1 <1>  -0.1500 
 14 C       -6.2200    -4.7420     0.1000 C.2   1 <1>   0.4250 
 15 O       -7.2940    -5.4430     0.3440 O.3   1 <1>  -0.0190 
 16 N       -5.2340    -5.5180    -0.1920 N.2   1 <1>  -0.5650 
 17 N       -7.0460    -6.6930     0.2200 N.2   1 <1>  -0.4100 
 18 C       -5.8110    -6.7180    -0.1010 C.2   1 <1>   0.3350 
 19 C       -5.0210    -7.9770    -0.3660 C.3   1 <1>  -0.0590 
 20 H       -0.7990     0.3170     0.2720 H     1 <1>   0.0800 
 21 H       -2.3660     2.4900     0.0890 H     1 <1>   0.0800 
 22 H       -2.7580    -1.4810     1.0660 H     1 <1>   0.0800 
 23 H       -2.1820    -1.4320    -0.5950 H     1 <1>   0.0800 
 24 H       -2.6440     0.7100    -2.0570 H     1 <1>   0.4000 
 25 H       -4.6180     1.5150    -1.0080 H     1 <1>   0.0800 
 26 H       -4.4410     1.3700     0.7340 H     1 <1>   0.0800 
 27 H       -4.2110    -3.0240    -0.4150 H     1 <1>   0.1500 
 28 H       -8.1900    -0.6470     0.8640 H     1 <1>   0.1500 
 29 H       -8.2790    -3.0710     0.7760 H     1 <1>   0.1500 
 30 H       -4.6410    -7.9580    -1.3710 H     1 <1>   0.0800 
 31 H       -5.6490    -8.8400    -0.2430 H     1 <1>   0.0800 
 32 H       -4.1990    -8.0380     0.3220 H     1 <1>   0.0800 
@<TRIPOS>BOND
  1   1   2  1   
  2   2   3  1   
  3   2   4  1   
  4   2  20  1   
  5   3   5  1   
  6   3   6  1   
  7   3  21  1   
  8   4   7  1   
  9   4  22  1   
 10   4  23  1   
 11   5  24  1   
 12   6   7  1   
 13   6  25  1   
 14   6  26  1   
 15   7   8  1   
 16   8   9  ar  
 17   8  10  ar  
 18   9  11  ar  
 19  10  12  ar  
 20  10  27  1   
 21  11  13  ar  
 22  11  28  1   
 23  12  13  ar  
 24  12  14  1   
 25  13  29  1   
 26  14  15  1   
 27  14  16  2   
 28  15  17  1   
 29  16  18  1   
 30  17  18  2   
 31  18  19  1   
 32  19  30  1   
 33  19  31  1   
 34  19  32  1   
@<TRIPOS>SUBSTRUCTURE
  1 ****  10 GROUP 4 **** **** 0

# MOE 2024.06 (io_trps.svl 2023.06)
