@<TRIPOS>MOLECULE
NONAME
42 44 1 0 0 
SMALL
USER_CHARGES


@<TRIPOS>ATOM
  1 O       -1.2700     0.6420    -1.8730 O.co2 1 <1>  -0.9000 
  2 C       -1.2990     0.0380    -0.7880 C.2   1 <1>   0.9060 
  3 O       -0.7940    -1.0660    -0.5940 O.co2 1 <1>  -0.9000 
  4 C       -1.9990     0.7890     0.3600 C.3   1 <1>   0.3170 
  5 N       -2.3170     2.2030    -0.0550 N.4   1 <1>  -0.9590 
  6 C       -3.3470     0.1870     0.7600 C.3   1 <1>  -0.1600 
  7 C       -3.7010     2.5310     0.3840 C.3   1 <1>   0.3430 
  8 C       -1.2670     3.1440     0.3630 C.3   1 <1>   0.5240 
  9 C       -4.1330     1.3740     1.2920 C.3   1 <1>   0.2000 
 10 C       -1.5410     4.4740    -0.3000 C.2   1 <1>  -0.1810 
 11 O       -3.6920     1.6320     2.5840 O.3   1 <1>  -0.6800 
 12 C       -1.3610     4.7560    -1.6470 C.2   1 <1>   0.1390 
 13 C       -2.0020     5.6270     0.2290 C.2   1 <1>  -0.3020 
 14 N       -1.6860     5.9760    -1.9350 N.2   1 <1>  -0.7070 
 15 N       -2.0740     6.5500    -0.7640 N.pl3 1 <1>   0.5930 
 16 C       -2.5820     7.8790    -0.6820 C.ar  1 <1>  -0.0230 
 17 C       -2.2350     8.7360     0.3690 C.ar  1 <1>   0.0820 
 18 C       -3.4460     8.3450    -1.6690 C.ar  1 <1>  -0.1500 
 19 O       -1.3690     8.2760     1.3140 O.3   1 <1>  -0.3630 
 20 C       -2.7690    10.0210     0.4180 C.ar  1 <1>  -0.1500 
 21 C       -3.9690     9.6230    -1.6160 C.ar  1 <1>  -0.1500 
 22 C       -0.8060     9.1330     2.2840 C.3   1 <1>   0.0400 
 23 C       -3.6320    10.4610    -0.5690 C.ar  1 <1>  -0.1500 
 24 H       -1.3480     0.7920     1.2150 H     1 <1>   0.0800 
 25 H       -2.2420     2.1180    -1.0940 H     1 <1>   0.4500 
 26 H       -3.2330    -0.6100     1.4730 H     1 <1>   0.0800 
 27 H       -3.8280    -0.2080    -0.1180 H     1 <1>   0.0800 
 28 H       -3.7470     3.4700     0.9100 H     1 <1>   0.0800 
 29 H       -4.3430     2.5720    -0.4790 H     1 <1>   0.0800 
 30 H       -1.2770     3.2540     1.4350 H     1 <1>   0.0800 
 31 H       -0.3010     2.7780     0.0550 H     1 <1>   0.0800 
 32 H       -5.2000     1.2260     1.3070 H     1 <1>   0.0800 
 33 H       -3.9450     0.9030     3.1870 H     1 <1>   0.4000 
 34 H       -0.9980     4.0500    -2.3810 H     1 <1>   0.1500 
 35 H       -2.2810     5.8680     1.2380 H     1 <1>   0.1500 
 36 H       -3.7080     7.7000    -2.4920 H     1 <1>   0.1500 
 37 H       -2.5280    10.6980     1.2150 H     1 <1>   0.1500 
 38 H       -4.6360     9.9660    -2.3880 H     1 <1>   0.1500 
 39 H       -0.0920     8.5680     2.8560 H     1 <1>   0.0800 
 40 H       -1.5860     9.4940     2.9300 H     1 <1>   0.0800 
 41 H       -0.3090     9.9470     1.7850 H     1 <1>   0.0800 
 42 H       -4.0410    11.4570    -0.5260 H     1 <1>   0.1500 
@<TRIPOS>BOND
  1   1   2  ar  
  2   2   3  ar  
  3   2   4  1   
  4   4   5  1   
  5   4   6  1   
  6   4  24  1   
  7   5   7  1   
  8   5   8  1   
  9   5  25  1   
 10   6   9  1   
 11   6  26  1   
 12   6  27  1   
 13   7   9  1   
 14   7  28  1   
 15   7  29  1   
 16   8  10  1   
 17   8  30  1   
 18   8  31  1   
 19   9  11  1   
 20   9  32  1   
 21  10  12  1   
 22  10  13  2   
 23  11  33  1   
 24  12  14  2   
 25  12  34  1   
 26  13  15  1   
 27  13  35  1   
 28  14  15  1   
 29  15  16  1   
 30  16  17  ar  
 31  16  18  ar  
 32  17  19  1   
 33  17  20  ar  
 34  18  21  ar  
 35  18  36  1   
 36  19  22  1   
 37  20  23  ar  
 38  20  37  1   
 39  21  23  ar  
 40  21  38  1   
 41  22  39  1   
 42  22  40  1   
 43  22  41  1   
 44  23  42  1   
@<TRIPOS>SUBSTRUCTURE
  1 ****  10 GROUP 4 **** **** 0

# MOE 2024.06 (io_trps.svl 2023.06)
