@<TRIPOS>MOLECULE
NONAME
40 42 1 0 0 
SMALL
USER_CHARGES


@<TRIPOS>ATOM
  1 CL      -2.2930    -0.0510    -2.0470 Cl    1 <1>  -0.1770 
  2 C       -2.6400     0.8400    -0.5860 C.ar  1 <1>   0.1770 
  3 C       -2.9820     0.1590     0.5790 C.ar  1 <1>   0.0860 
  4 C       -2.5710     2.2220    -0.6420 C.ar  1 <1>  -0.1500 
  5 C       -3.2600     0.9540     1.6870 C.ar  1 <1>   0.1900 
  6 C       -3.0480    -1.2780     0.6300 C.2   1 <1>   0.5440 
  7 C       -2.8500     2.9760     0.4870 C.ar  1 <1>  -0.1500 
  8 F       -3.6130     0.3850     2.8060 F     1 <1>  -0.1900 
  9 C       -3.1990     2.3360     1.6640 C.ar  1 <1>  -0.1500 
 10 O       -2.0540    -1.8930     0.9660 O.2   1 <1>  -0.5700 
 11 N       -4.1990    -1.9700     0.3020 N.am  1 <1>  -0.6600 
 12 C       -5.4910    -1.2720     0.0340 C.3   1 <1>   0.2200 
 13 C       -4.1700    -3.4630     0.2100 C.3   1 <1>   0.0600 
 14 C       -6.7110    -1.9030     0.7020 C.3   1 <1>  -0.1600 
 15 C       -5.8430    -1.2400    -1.4490 C.3   1 <1>  -0.1600 
 16 C       -7.9030    -1.3670    -0.1020 C.3   1 <1>  -0.0800 
 17 C       -7.3500    -0.9530    -1.4790 C.3   1 <1>  -0.0800 
 18 C       -8.5360    -0.1080     0.5080 C.3   1 <1>  -0.1600 
 19 C       -7.6830     0.5370    -1.6490 C.3   1 <1>  -0.1600 
 20 C       -8.8310     0.7880    -0.6850 C.3   1 <1>   0.2000 
 21 O       -8.8460     2.1080    -0.2960 O.3   1 <1>  -0.6800 
 22 H       -2.2990     2.7030    -1.5650 H     1 <1>   0.1500 
 23 H       -2.7950     4.0520     0.4490 H     1 <1>   0.1500 
 24 H       -3.4220     2.8980     2.5540 H     1 <1>   0.1500 
 25 H       -5.4400    -0.2550     0.3810 H     1 <1>   0.0800 
 26 H       -4.8050    -3.8080    -0.5840 H     1 <1>   0.0800 
 27 H       -4.5010    -3.8860     1.1420 H     1 <1>   0.0800 
 28 H       -3.1700    -3.8100     0.0130 H     1 <1>   0.0800 
 29 H       -6.6980    -2.9720     0.5990 H     1 <1>   0.0800 
 30 H       -6.7680    -1.6500     1.7460 H     1 <1>   0.0800 
 31 H       -5.2720    -0.5010    -1.9820 H     1 <1>   0.0800 
 32 H       -5.6660    -2.2030    -1.8910 H     1 <1>   0.0800 
 33 H       -8.6560    -2.1290    -0.2190 H     1 <1>   0.0800 
 34 H       -7.8290    -1.5230    -2.2580 H     1 <1>   0.0800 
 35 H       -7.8370     0.3800     1.1650 H     1 <1>   0.0800 
 36 H       -9.4350    -0.3440     1.0490 H     1 <1>   0.0800 
 37 H       -7.9690     0.7610    -2.6620 H     1 <1>   0.0800 
 38 H       -6.8370     1.1420    -1.3720 H     1 <1>   0.0800 
 39 H       -9.7790     0.5400    -1.1350 H     1 <1>   0.0800 
 40 H       -8.0030     2.3390     0.1330 H     1 <1>   0.4000 
@<TRIPOS>BOND
  1   1   2  1   
  2   2   3  ar  
  3   2   4  ar  
  4   3   5  ar  
  5   3   6  1   
  6   4   7  ar  
  7   4  22  1   
  8   5   8  1   
  9   5   9  ar  
 10   6  10  2   
 11   6  11  am  
 12   7   9  ar  
 13   7  23  1   
 14   9  24  1   
 15  11  12  1   
 16  11  13  1   
 17  12  14  1   
 18  12  15  1   
 19  12  25  1   
 20  13  26  1   
 21  13  27  1   
 22  13  28  1   
 23  14  16  1   
 24  14  29  1   
 25  14  30  1   
 26  15  17  1   
 27  15  31  1   
 28  15  32  1   
 29  16  17  1   
 30  16  18  1   
 31  16  33  1   
 32  17  19  1   
 33  17  34  1   
 34  18  20  1   
 35  18  35  1   
 36  18  36  1   
 37  19  20  1   
 38  19  37  1   
 39  19  38  1   
 40  20  21  1   
 41  20  39  1   
 42  21  40  1   
@<TRIPOS>SUBSTRUCTURE
  1 ****  12 GROUP 4 **** **** 0

# MOE 2024.06 (io_trps.svl 2023.06)
