@<TRIPOS>MOLECULE
NONAME
39 40 1 0 0 
SMALL
USER_CHARGES


@<TRIPOS>ATOM
  1 O        3.4180    -1.3870    -1.5290 O.2   1 <1>  -0.5700 
  2 C        2.7350    -1.2550    -0.5360 C.2   1 <1>   0.5690 
  3 N        2.5470    -0.0390     0.0500 N.am  1 <1>  -0.4930 
  4 C        2.0840    -2.5010     0.1190 C.3   1 <1>   0.2810 
  5 C        3.0240     1.2380    -0.3350 C.2   1 <1>   0.0630 
  6 N        0.6280    -2.3680     0.4830 N.am  1 <1>  -0.6600 
  7 C        2.1320    -3.7630    -0.7610 C.3   1 <1>  -0.1600 
  8 C        3.7900     1.6080    -1.4400 C.2   1 <1>   0.1390 
  9 C        2.8120     2.3920     0.3290 C.2   1 <1>  -0.3020 
 10 C        0.1860    -1.5850     1.5110 C.2   1 <1>   0.5690 
 11 C       -0.1640    -3.4490    -0.1490 C.3   1 <1>   0.1400 
 12 C        0.8570    -4.5360    -0.4440 C.3   1 <1>  -0.1600 
 13 N        4.0380     2.8850    -1.4670 N.2   1 <1>  -0.7070 
 14 N        3.4310     3.3740    -0.3670 N.pl3 1 <1>   0.3140 
 15 O        0.9380    -0.8820     2.1410 O.2   1 <1>  -0.5700 
 16 C       -1.2770    -1.5660     1.8860 C.3   1 <1>  -0.1790 
 17 C        3.4820     4.8230    -0.0280 C.3   1 <1>   0.1760 
 18 C        4.1990     5.0430     1.3120 C.3   1 <1>  -0.2400 
 19 C        2.0700     5.4270    -0.0030 C.3   1 <1>  -0.2400 
 20 H        1.9750    -0.0560     0.9050 H     1 <1>   0.3700 
 21 H        2.6250    -2.7030     1.0270 H     1 <1>   0.0800 
 22 H        2.1160    -3.4860    -1.8020 H     1 <1>   0.0800 
 23 H        3.0220    -4.3380    -0.5770 H     1 <1>   0.0800 
 24 H        4.1390     0.9170    -2.1890 H     1 <1>   0.1500 
 25 H        2.2690     2.5650     1.2370 H     1 <1>   0.1500 
 26 H       -0.9410    -3.8160     0.4980 H     1 <1>   0.0800 
 27 H       -0.5940    -3.0800    -1.0650 H     1 <1>   0.0800 
 28 H        0.9990    -5.1380     0.4370 H     1 <1>   0.0800 
 29 H        0.5480    -5.1680    -1.2580 H     1 <1>   0.0800 
 30 H       -1.8820    -1.4600     1.0060 H     1 <1>   0.0800 
 31 H       -1.4720    -0.7360     2.5390 H     1 <1>   0.0800 
 32 H       -1.5320    -2.4750     2.3970 H     1 <1>   0.0800 
 33 H        4.0480     5.3080    -0.8030 H     1 <1>   0.0800 
 34 H        3.6530     4.5860     2.1180 H     1 <1>   0.0800 
 35 H        4.2890     6.0950     1.5120 H     1 <1>   0.0800 
 36 H        5.1870     4.6200     1.2700 H     1 <1>   0.0800 
 37 H        1.4760     4.9790     0.7730 H     1 <1>   0.0800 
 38 H        1.5900     5.2700    -0.9530 H     1 <1>   0.0800 
 39 H        2.1270     6.4850     0.1760 H     1 <1>   0.0800 
@<TRIPOS>BOND
  1   1   2  2   
  2   2   3  am  
  3   2   4  1   
  4   3   5  1   
  5   3  20  1   
  6   4   6  1   
  7   4   7  1   
  8   4  21  1   
  9   5   8  1   
 10   5   9  2   
 11   6  10  am  
 12   6  11  1   
 13   7  12  1   
 14   7  22  1   
 15   7  23  1   
 16   8  13  2   
 17   8  24  1   
 18   9  14  1   
 19   9  25  1   
 20  10  15  2   
 21  10  16  1   
 22  11  12  1   
 23  11  26  1   
 24  11  27  1   
 25  12  28  1   
 26  12  29  1   
 27  13  14  1   
 28  14  17  1   
 29  16  30  1   
 30  16  31  1   
 31  16  32  1   
 32  17  18  1   
 33  17  19  1   
 34  17  33  1   
 35  18  34  1   
 36  18  35  1   
 37  18  36  1   
 38  19  37  1   
 39  19  38  1   
 40  19  39  1   
@<TRIPOS>SUBSTRUCTURE
  1 ****   3 GROUP 4 **** **** 0

# MOE 2024.06 (io_trps.svl 2023.06)
