@<TRIPOS>MOLECULE
NONAME
47 48 1 0 0 
SMALL
USER_CHARGES


@<TRIPOS>ATOM
  1 CL       0.0710    -2.9440     3.0550 Cl    1 <1>  -0.1770 
  2 C        0.0890    -2.2740     1.4430 C.ar  1 <1>   0.1770 
  3 C        0.5720    -3.0110     0.3620 C.ar  1 <1>  -0.1440 
  4 C       -0.4110    -0.9960     1.2830 C.ar  1 <1>  -0.1500 
  5 C        0.5560    -2.4310    -0.9030 C.ar  1 <1>  -0.1500 
  6 C        1.1350    -4.4270     0.5030 C.3   1 <1>   0.0450 
  7 C       -0.4240    -0.4620     0.0110 C.ar  1 <1>   0.1900 
  8 C        0.0540    -1.1530    -1.0860 C.ar  1 <1>  -0.1500 
  9 C        0.4170    -5.4320    -0.3930 C.2   1 <1>   0.5690 
 10 F       -0.9210     0.7300    -0.1640 F     1 <1>  -0.1900 
 11 O        0.9680    -5.7310    -1.4240 O.2   1 <1>  -0.5700 
 12 N       -0.8050    -5.9690    -0.0740 N.am  1 <1>  -0.6600 
 13 C       -1.2470    -7.1890    -0.8430 C.3   1 <1>   0.3210 
 14 C       -1.6650    -5.5250     1.0750 C.3   1 <1>   0.1400 
 15 C       -2.7150    -7.5780    -0.6490 C.2   1 <1>   0.0460 
 16 C       -2.8450    -4.6060     0.6710 C.3   1 <1>   0.3430 
 17 N       -3.7090    -6.9060    -1.2710 N.2   1 <1>  -0.5650 
 18 C       -3.2170    -8.5940     0.0940 C.2   1 <1>  -0.3320 
 19 N       -2.5000    -3.5530    -0.3480 N.4   1 <1>  -0.9590 
 20 C       -4.7820    -7.5370    -0.9170 C.2   1 <1>   0.0360 
 21 N       -4.5510    -8.5720    -0.0840 N.pl3 1 <1>   0.0330 
 22 C       -2.5330    -9.6330     0.9690 C.3   1 <1>  -0.0600 
 23 C       -3.3360    -2.3310    -0.1680 C.3   1 <1>   0.2630 
 24 C       -2.6670    -4.0860    -1.7380 C.3   1 <1>   0.2630 
 25 H       -0.7750    -0.4320     2.1230 H     1 <1>   0.1500 
 26 H        0.9460    -2.9710    -1.7540 H     1 <1>   0.1500 
 27 H        1.1160    -4.7830     1.5140 H     1 <1>   0.0800 
 28 H        2.1710    -4.4050     0.2130 H     1 <1>   0.0800 
 29 H        0.0410    -0.6940    -2.0600 H     1 <1>   0.1500 
 30 H       -0.6250    -8.0150    -0.5510 H     1 <1>   0.0800 
 31 H       -1.0850    -7.0290    -1.8950 H     1 <1>   0.0800 
 32 H       -1.0710    -5.0090     1.8010 H     1 <1>   0.0800 
 33 H       -2.0590    -6.3900     1.5810 H     1 <1>   0.0800 
 34 H       -3.2030    -4.1300     1.5690 H     1 <1>   0.0800 
 35 H       -3.6540    -5.2110     0.3010 H     1 <1>   0.0800 
 36 H       -1.5040    -3.3080    -0.2340 H     1 <1>   0.4500 
 37 H       -5.7760    -7.2850    -1.2460 H     1 <1>   0.1500 
 38 H       -5.2470    -9.2170     0.3070 H     1 <1>   0.2700 
 39 H       -1.4730    -9.4630     1.0130 H     1 <1>   0.0800 
 40 H       -2.7010   -10.6190     0.5710 H     1 <1>   0.0800 
 41 H       -2.9240    -9.5930     1.9700 H     1 <1>   0.0800 
 42 H       -4.3790    -2.5680    -0.3040 H     1 <1>   0.0800 
 43 H       -3.0560    -1.5790    -0.8890 H     1 <1>   0.0800 
 44 H       -3.1980    -1.9250     0.8200 H     1 <1>   0.0800 
 45 H       -3.6810    -4.4140    -1.8950 H     1 <1>   0.0800 
 46 H       -2.0150    -4.9270    -1.9000 H     1 <1>   0.0800 
 47 H       -2.4280    -3.3260    -2.4640 H     1 <1>   0.0800 
@<TRIPOS>BOND
  1   1   2  1   
  2   2   3  ar  
  3   2   4  ar  
  4   3   5  ar  
  5   3   6  1   
  6   4   7  ar  
  7   4  25  1   
  8   5   8  ar  
  9   5  26  1   
 10   6   9  1   
 11   6  27  1   
 12   6  28  1   
 13   7   8  ar  
 14   7  10  1   
 15   8  29  1   
 16   9  11  2   
 17   9  12  am  
 18  12  13  1   
 19  12  14  1   
 20  13  15  1   
 21  13  30  1   
 22  13  31  1   
 23  14  16  1   
 24  14  32  1   
 25  14  33  1   
 26  15  17  1   
 27  15  18  2   
 28  16  19  1   
 29  16  34  1   
 30  16  35  1   
 31  17  20  2   
 32  18  21  1   
 33  18  22  1   
 34  19  23  1   
 35  19  24  1   
 36  19  36  1   
 37  20  21  1   
 38  20  37  1   
 39  21  38  1   
 40  22  39  1   
 41  22  40  1   
 42  22  41  1   
 43  23  42  1   
 44  23  43  1   
 45  23  44  1   
 46  24  45  1   
 47  24  46  1   
 48  24  47  1   
@<TRIPOS>SUBSTRUCTURE
  1 ****  14 GROUP 4 **** **** 0

# MOE 2024.06 (io_trps.svl 2023.06)
