@<TRIPOS>MOLECULE
NONAME
42 44 1 0 0 
SMALL
USER_CHARGES


@<TRIPOS>ATOM
  1 F        2.0160    -1.5450     3.0670 F     1 <1>  -0.3400 
  2 C        2.7200    -1.8900     1.9950 C.3   1 <1>   1.1640 
  3 F        3.2640    -0.7710     1.5320 F     1 <1>  -0.3400 
  4 F        3.7230    -2.6400     2.4310 F     1 <1>  -0.3400 
  5 C        1.8880    -2.6130     0.9310 C.ar  1 <1>  -0.1440 
  6 C        0.6570    -3.1760     1.2000 C.ar  1 <1>  -0.1500 
  7 C        2.3350    -2.7490    -0.3740 C.ar  1 <1>  -0.1500 
  8 C       -0.0540    -3.8250     0.1990 C.ar  1 <1>   0.4100 
  9 C        1.5580    -3.4140    -1.3080 C.ar  1 <1>   0.1660 
 10 N        0.3820    -3.9510    -1.0470 N.ar  1 <1>  -0.6200 
 11 N       -1.2790    -4.3800     0.4950 N.pl3 1 <1>  -0.8380 
 12 C        2.0430    -3.5610    -2.7350 C.3   1 <1>  -0.0970 
 13 C       -2.4320    -3.8500    -0.2870 C.3   1 <1>   0.2090 
 14 C       -1.3240    -5.8680     0.4680 C.3   1 <1>   0.2090 
 15 C       -2.9900    -5.0430    -1.0570 C.3   1 <1>   0.2000 
 16 C       -2.6400    -6.2570    -0.2060 C.3   1 <1>  -0.0800 
 17 O       -4.3670    -4.9600    -1.2290 O.3   1 <1>  -0.6800 
 18 C       -2.5500    -7.5510    -1.0280 C.3   1 <1>  -0.0170 
 19 C       -2.1390    -8.7280    -0.1570 C.ar  1 <1>  -0.1430 
 20 C       -3.0440    -9.3820     0.6530 C.ar  1 <1>  -0.1500 
 21 C       -0.8420    -9.2000    -0.1280 C.ar  1 <1>  -0.1500 
 22 C       -2.6210   -10.4440     1.4350 C.ar  1 <1>   0.1600 
 23 C       -0.5220   -10.2710     0.6900 C.ar  1 <1>   0.1600 
 24 N       -1.3810   -10.9030     1.4740 N.ar  1 <1>  -0.6200 
 25 H        0.2130    -3.1330     2.1780 H     1 <1>   0.1500 
 26 H        3.2870    -2.3380    -0.6650 H     1 <1>   0.1500 
 27 H        3.0040    -3.1000    -2.8710 H     1 <1>   0.0800 
 28 H        1.3380    -3.1000    -3.4020 H     1 <1>   0.0800 
 29 H        2.1190    -4.6040    -2.9810 H     1 <1>   0.0800 
 30 H       -3.1630    -3.4600     0.3980 H     1 <1>   0.0800 
 31 H       -2.1210    -3.0730    -0.9660 H     1 <1>   0.0800 
 32 H       -0.4880    -6.2460    -0.0970 H     1 <1>   0.0800 
 33 H       -1.2730    -6.2630     1.4680 H     1 <1>   0.0800 
 34 H       -2.5230    -5.0940    -2.0260 H     1 <1>   0.0800 
 35 H       -3.3720    -6.3730     0.5730 H     1 <1>   0.0800 
 36 H       -4.8160    -4.9190    -0.3640 H     1 <1>   0.4000 
 37 H       -1.8410    -7.4260    -1.8280 H     1 <1>   0.0800 
 38 H       -3.5080    -7.7560    -1.4760 H     1 <1>   0.0800 
 39 H       -4.0740    -9.0760     0.6840 H     1 <1>   0.1500 
 40 H       -0.0770    -8.7480    -0.7320 H     1 <1>   0.1500 
 41 H       -3.3410   -10.9420     2.0600 H     1 <1>   0.1500 
 42 H        0.4940   -10.6260     0.7010 H     1 <1>   0.1500 
@<TRIPOS>BOND
  1   1   2  1   
  2   2   3  1   
  3   2   4  1   
  4   2   5  1   
  5   5   6  ar  
  6   5   7  ar  
  7   6   8  ar  
  8   6  25  1   
  9   7   9  ar  
 10   7  26  1   
 11   8  10  ar  
 12   8  11  1   
 13   9  10  ar  
 14   9  12  1   
 15  11  13  1   
 16  11  14  1   
 17  12  27  1   
 18  12  28  1   
 19  12  29  1   
 20  13  15  1   
 21  13  30  1   
 22  13  31  1   
 23  14  16  1   
 24  14  32  1   
 25  14  33  1   
 26  15  16  1   
 27  15  17  1   
 28  15  34  1   
 29  16  18  1   
 30  16  35  1   
 31  17  36  1   
 32  18  19  1   
 33  18  37  1   
 34  18  38  1   
 35  19  20  ar  
 36  19  21  ar  
 37  20  22  ar  
 38  20  39  1   
 39  21  23  ar  
 40  21  40  1   
 41  22  24  ar  
 42  22  41  1   
 43  23  24  ar  
 44  23  42  1   
@<TRIPOS>SUBSTRUCTURE
  1 ****  14 GROUP 4 **** **** 0

# MOE 2024.06 (io_trps.svl 2023.06)
