@<TRIPOS>MOLECULE
NONAME
56 59 1 0 0 
SMALL
USER_CHARGES


@<TRIPOS>ATOM
  1 O       -0.8830     0.7200    -1.4230 O.2   1 <1>  -0.5700 
  2 C       -0.5830     1.7480    -0.8710 C.2   1 <1>   0.5690 
  3 N       -1.5130     2.4760    -0.2160 N.am  1 <1>  -0.7300 
  4 C        0.8580     2.2630    -0.9420 C.3   1 <1>   0.1810 
  5 C       -1.2160     3.7480     0.4850 C.3   1 <1>   0.3640 
  6 O        1.1470     3.2580     0.0180 O.3   1 <1>  -0.5600 
  7 C       -2.3000     4.7660     0.1350 C.ar  1 <1>  -0.1440 
  8 C        0.1830     4.2980     0.1090 C.3   1 <1>   0.2610 
  9 C       -2.7510     4.9250    -1.1700 C.ar  1 <1>  -0.1500 
 10 C       -2.8390     5.5650     1.1340 C.ar  1 <1>  -0.1500 
 11 C        0.6420     5.3890     1.0930 C.2   1 <1>   0.5690 
 12 C       -3.7230     5.8640    -1.4680 C.ar  1 <1>  -0.1500 
 13 C       -3.8110     6.5040     0.8370 C.ar  1 <1>  -0.1500 
 14 O        0.1900     5.3960     2.2180 O.2   1 <1>  -0.5700 
 15 N        1.5390     6.3520     0.6960 N.am  1 <1>  -0.6600 
 16 C       -4.2540     6.6550    -0.4650 C.ar  1 <1>  -0.1500 
 17 C        1.8660     7.5050     1.5970 C.3   1 <1>   0.1400 
 18 C        2.2970     6.3040    -0.5980 C.3   1 <1>   0.1400 
 19 C        2.2530     8.7700     0.8110 C.3   1 <1>   0.2090 
 20 C        3.6060     7.1130    -0.5510 C.3   1 <1>   0.2090 
 21 N        3.3710     8.5360    -0.1590 N.pl3 1 <1>  -0.8380 
 22 C        4.5190     9.3060     0.0300 C.ar  1 <1>   0.1000 
 23 C        4.8590    10.3210    -0.8630 C.ar  1 <1>  -0.1430 
 24 C        5.3460     9.0710     1.1230 C.ar  1 <1>  -0.1500 
 25 C        6.0040    11.0710    -0.6530 C.ar  1 <1>  -0.1500 
 26 C        3.9770    10.6120    -2.0690 C.3   1 <1>  -0.0970 
 27 C        6.4870     9.8230     1.3270 C.ar  1 <1>  -0.1500 
 28 C        6.8240    10.8290     0.4380 C.ar  1 <1>  -0.1430 
 29 C        8.0730    11.6660     0.6450 C.3   1 <1>  -0.0970 
 30 H       -2.4730     2.1330    -0.1720 H     1 <1>   0.3700 
 31 H        1.0410     2.6720    -1.9190 H     1 <1>   0.0800 
 32 H        1.5350     1.4440    -0.7770 H     1 <1>   0.0800 
 33 H       -1.2450     3.5480     1.5430 H     1 <1>   0.0800 
 34 H        0.1090     4.7480    -0.8630 H     1 <1>   0.0800 
 35 H       -2.3530     4.3170    -1.9640 H     1 <1>   0.1500 
 36 H       -2.5010     5.4650     2.1530 H     1 <1>   0.1500 
 37 H       -4.0690     5.9790    -2.4810 H     1 <1>   0.1500 
 38 H       -4.2210     7.1180     1.6200 H     1 <1>   0.1500 
 39 H       -5.0090     7.3850    -0.6960 H     1 <1>   0.1500 
 40 H        1.0190     7.7300     2.2220 H     1 <1>   0.0800 
 41 H        2.6830     7.2270     2.2400 H     1 <1>   0.0800 
 42 H        2.5390     5.2850    -0.8410 H     1 <1>   0.0800 
 43 H        1.6790     6.7040    -1.3820 H     1 <1>   0.0800 
 44 H        2.5320     9.5460     1.5030 H     1 <1>   0.0800 
 45 H        1.3930     9.1180     0.2660 H     1 <1>   0.0800 
 46 H        4.0720     7.0960    -1.5200 H     1 <1>   0.0800 
 47 H        4.2810     6.6510     0.1480 H     1 <1>   0.0800 
 48 H        5.0890     8.2920     1.8150 H     1 <1>   0.1500 
 49 H        6.2660    11.8530    -1.3420 H     1 <1>   0.1500 
 50 H        4.3700    11.4230    -2.6540 H     1 <1>   0.0800 
 51 H        2.9880    10.8720    -1.7370 H     1 <1>   0.0800 
 52 H        3.9130     9.7370    -2.6890 H     1 <1>   0.0800 
 53 H        7.1100     9.6200     2.1800 H     1 <1>   0.1500 
 54 H        8.6000    11.3590     1.5300 H     1 <1>   0.0800 
 55 H        7.8050    12.7020     0.7460 H     1 <1>   0.0800 
 56 H        8.7290    11.5560    -0.2000 H     1 <1>   0.0800 
@<TRIPOS>BOND
  1   1   2  2   
  2   2   3  am  
  3   2   4  1   
  4   3   5  1   
  5   3  30  1   
  6   4   6  1   
  7   4  31  1   
  8   4  32  1   
  9   5   7  1   
 10   5   8  1   
 11   5  33  1   
 12   6   8  1   
 13   7   9  ar  
 14   7  10  ar  
 15   8  11  1   
 16   8  34  1   
 17   9  12  ar  
 18   9  35  1   
 19  10  13  ar  
 20  10  36  1   
 21  11  14  2   
 22  11  15  am  
 23  12  16  ar  
 24  12  37  1   
 25  13  16  ar  
 26  13  38  1   
 27  15  17  1   
 28  15  18  1   
 29  16  39  1   
 30  17  19  1   
 31  17  40  1   
 32  17  41  1   
 33  18  20  1   
 34  18  42  1   
 35  18  43  1   
 36  19  21  1   
 37  19  44  1   
 38  19  45  1   
 39  20  21  1   
 40  20  46  1   
 41  20  47  1   
 42  21  22  1   
 43  22  23  ar  
 44  22  24  ar  
 45  23  25  ar  
 46  23  26  1   
 47  24  27  ar  
 48  24  48  1   
 49  25  28  ar  
 50  25  49  1   
 51  26  50  1   
 52  26  51  1   
 53  26  52  1   
 54  27  28  ar  
 55  27  53  1   
 56  28  29  1   
 57  29  54  1   
 58  29  55  1   
 59  29  56  1   
@<TRIPOS>SUBSTRUCTURE
  1 ****  15 GROUP 4 **** **** 0

# MOE 2024.06 (io_trps.svl 2023.06)
