@<TRIPOS>MOLECULE
NONAME
55 58 1 0 0 
SMALL
USER_CHARGES


@<TRIPOS>ATOM
  1 O       -0.4200     0.3710     0.6410 O.2   1 <1>  -0.5700 
  2 C       -1.4580     0.9810     0.4640 C.2   1 <1>   0.5440 
  3 N       -2.6210     0.2610     0.3000 N.am  1 <1>  -0.6600 
  4 C       -1.4480     2.4260     0.4150 C.ar  1 <1>   0.0860 
  5 C       -3.8960     0.8050    -0.2360 C.3   1 <1>   0.1400 
  6 C       -2.6410    -1.2250     0.2440 C.3   1 <1>   0.1400 
  7 C       -0.6420     3.1060    -0.4980 C.ar  1 <1>  -0.1500 
  8 C       -2.2370     3.1990     1.2690 C.ar  1 <1>  -0.1500 
  9 C       -4.8750    -0.3620    -0.1350 C.3   1 <1>   0.2000 
 10 C       -3.9910    -1.5870    -0.3860 C.3   1 <1>  -0.0800 
 11 C       -0.6420     4.4850    -0.5700 C.ar  1 <1>  -0.1500 
 12 C       -2.2370     4.5780     1.1990 C.ar  1 <1>  -0.1500 
 13 O       -5.3590    -0.3980     1.1650 O.3   1 <1>  -0.6800 
 14 C       -4.5650    -2.9300     0.1000 C.3   1 <1>   0.0210 
 15 C       -1.4420     5.2470     0.2730 C.ar  1 <1>   0.1000 
 16 C       -3.6100    -4.0660    -0.2130 C.2   1 <1>   0.1080 
 17 N       -1.4330     6.6310     0.1850 N.pl3 1 <1>  -0.8380 
 18 N       -3.3130    -4.4200    -1.4250 N.2   1 <1>  -0.7070 
 19 C       -2.9470    -4.8340     0.7380 C.2   1 <1>  -0.1500 
 20 C       -0.1700     7.3830     0.3970 C.3   1 <1>   0.2090 
 21 C       -2.6770     7.4300     0.3220 C.3   1 <1>   0.2090 
 22 N       -2.4430    -5.4370    -1.2770 N.pl3 1 <1>   0.3000 
 23 C       -2.2040    -5.7050     0.0240 C.2   1 <1>  -0.3320 
 24 C       -0.1090     8.5560    -0.5870 C.3   1 <1>  -0.1600 
 25 C       -2.6310     8.6080    -0.6560 C.3   1 <1>  -0.1600 
 26 C       -1.2650    -6.7930     0.5120 C.3   1 <1>  -0.0600 
 27 C       -1.3560     9.4480    -0.4830 C.3   1 <1>  -0.1600 
 28 H       -4.2440     1.6590     0.3190 H     1 <1>   0.0800 
 29 H       -3.7530     1.0780    -1.2670 H     1 <1>   0.0800 
 30 H       -1.8230    -1.6010    -0.3480 H     1 <1>   0.0800 
 31 H       -2.5600    -1.6140     1.2440 H     1 <1>   0.0800 
 32 H       -0.0110     2.5330    -1.1550 H     1 <1>   0.1500 
 33 H       -2.8500     2.7020     2.0000 H     1 <1>   0.1500 
 34 H       -5.7070    -0.2840    -0.8130 H     1 <1>   0.0800 
 35 H       -3.8330    -1.6620    -1.4480 H     1 <1>   0.0800 
 36 H       -0.0250     4.9900    -1.2890 H     1 <1>   0.1500 
 37 H       -2.8470     5.1500     1.8720 H     1 <1>   0.1500 
 38 H       -4.5960    -0.3370     1.7760 H     1 <1>   0.4000 
 39 H       -5.5000    -3.1220    -0.3940 H     1 <1>   0.0800 
 40 H       -4.7460    -2.9070     1.1590 H     1 <1>   0.0800 
 41 H       -3.0270    -4.7320     1.8050 H     1 <1>   0.1500 
 42 H       -0.1460     7.7500     1.4080 H     1 <1>   0.0800 
 43 H        0.6770     6.7350     0.2530 H     1 <1>   0.0800 
 44 H       -3.5330     6.8130     0.1080 H     1 <1>   0.0800 
 45 H       -2.7560     7.7920     1.3330 H     1 <1>   0.0800 
 46 H       -2.0310    -5.9240    -2.0820 H     1 <1>   0.2700 
 47 H        0.7720     9.1390    -0.3910 H     1 <1>   0.0800 
 48 H       -0.0290     8.1610    -1.5840 H     1 <1>   0.0800 
 49 H       -2.6720     8.2180    -1.6580 H     1 <1>   0.0800 
 50 H       -3.4970     9.2270    -0.5090 H     1 <1>   0.0800 
 51 H       -1.2440    -6.8080     1.5870 H     1 <1>   0.0800 
 52 H       -0.2670    -6.6120     0.1530 H     1 <1>   0.0800 
 53 H       -1.5960    -7.7550     0.1620 H     1 <1>   0.0800 
 54 H       -1.3190    10.2140    -1.2380 H     1 <1>   0.0800 
 55 H       -1.3730     9.9280     0.4800 H     1 <1>   0.0800 
@<TRIPOS>BOND
  1   1   2  2   
  2   2   3  am  
  3   2   4  1   
  4   3   5  1   
  5   3   6  1   
  6   4   7  ar  
  7   4   8  ar  
  8   5   9  1   
  9   5  28  1   
 10   5  29  1   
 11   6  10  1   
 12   6  30  1   
 13   6  31  1   
 14   7  11  ar  
 15   7  32  1   
 16   8  12  ar  
 17   8  33  1   
 18   9  10  1   
 19   9  13  1   
 20   9  34  1   
 21  10  14  1   
 22  10  35  1   
 23  11  15  ar  
 24  11  36  1   
 25  12  15  ar  
 26  12  37  1   
 27  13  38  1   
 28  14  16  1   
 29  14  39  1   
 30  14  40  1   
 31  15  17  1   
 32  16  18  2   
 33  16  19  1   
 34  17  20  1   
 35  17  21  1   
 36  18  22  1   
 37  19  23  2   
 38  19  41  1   
 39  20  24  1   
 40  20  42  1   
 41  20  43  1   
 42  21  25  1   
 43  21  44  1   
 44  21  45  1   
 45  22  23  1   
 46  22  46  1   
 47  23  26  1   
 48  24  27  1   
 49  24  47  1   
 50  24  48  1   
 51  25  27  1   
 52  25  49  1   
 53  25  50  1   
 54  26  51  1   
 55  26  52  1   
 56  26  53  1   
 57  27  54  1   
 58  27  55  1   
@<TRIPOS>SUBSTRUCTURE
  1 ****   2 GROUP 4 **** **** 0

# MOE 2024.06 (io_trps.svl 2023.06)
