@<TRIPOS>MOLECULE
NONAME
44 45 1 0 0 
SMALL
USER_CHARGES


@<TRIPOS>ATOM
  1 S       -0.2210     0.1400     0.9890 S.o2  1 <1>   1.5010 
  2 O       -0.7140     1.3290     1.6400 O.2   1 <1>  -0.6500 
  3 O       -0.1170    -1.0850     1.7450 O.2   1 <1>  -0.6500 
  4 N       -1.3420    -0.1130    -0.2390 N.am  1 <1>  -0.9140 
  5 C        1.3040     0.5130     0.1160 C.2   1 <1>  -0.0630 
  6 C       -1.5310    -1.4460    -0.8230 C.3   1 <1>   0.2760 
  7 C        2.5040    -0.0930     0.0820 C.2   1 <1>  -0.0400 
  8 C        1.4990     1.5710    -0.7500 C.2   1 <1>   0.1080 
  9 C       -2.2570    -2.4300     0.1000 C.3   1 <1>  -0.0800 
 10 C       -0.2660    -2.1940    -1.2610 C.3   1 <1>   0.1200 
 11 O        3.3400     0.5210    -0.7270 O.3   1 <1>  -0.0190 
 12 C        3.0250    -1.3260     0.7980 C.3   1 <1>  -0.0600 
 13 N        2.6860     1.5440    -1.2250 N.2   1 <1>  -0.4100 
 14 C        0.4850     2.6380    -1.1130 C.3   1 <1>  -0.0590 
 15 C       -1.2790    -3.6060     0.1800 C.3   1 <1>   0.1200 
 16 C       -3.6080    -2.8610    -0.5050 C.3   1 <1>  -0.0550 
 17 O       -0.5310    -3.5300    -0.9890 O.3   1 <1>  -0.5600 
 18 S       -4.6740    -3.7130     0.6570 S.o2  1 <1>   1.3330 
 19 O       -4.0840    -4.9780     1.0320 O.2   1 <1>  -0.6500 
 20 O       -5.0340    -2.7550     1.6770 O.2   1 <1>  -0.6500 
 21 N       -6.0520    -4.0370    -0.2800 N.am  1 <1>  -0.8490 
 22 C       -7.2720    -4.0960     0.5320 C.3   1 <1>   0.1160 
 23 C       -5.9330    -5.2580    -1.0850 C.3   1 <1>   0.1160 
 24 H       -2.2200     0.1830     0.1850 H     1 <1>   0.4200 
 25 H       -2.1220    -1.3110    -1.7130 H     1 <1>   0.0800 
 26 H       -2.4220    -2.0230     1.0830 H     1 <1>   0.0800 
 27 H        0.6030    -1.9240    -0.6960 H     1 <1>   0.0800 
 28 H       -0.0750    -2.0870    -2.3140 H     1 <1>   0.0800 
 29 H        2.2860    -1.7510     1.4500 H     1 <1>   0.0800 
 30 H        3.8880    -1.0650     1.3850 H     1 <1>   0.0800 
 31 H        3.3140    -2.0700     0.0770 H     1 <1>   0.0800 
 32 H       -0.3730     2.1920    -1.5800 H     1 <1>   0.0800 
 33 H        0.9230     3.3420    -1.7980 H     1 <1>   0.0800 
 34 H        0.1740     3.1680    -0.2300 H     1 <1>   0.0800 
 35 H       -1.7530    -4.5710     0.2300 H     1 <1>   0.0800 
 36 H       -0.6060    -3.4960     1.0140 H     1 <1>   0.0800 
 37 H       -3.4310    -3.4850    -1.3600 H     1 <1>   0.0800 
 38 H       -4.1310    -1.9880    -0.8420 H     1 <1>   0.0800 
 39 H       -8.1280    -4.2860    -0.0930 H     1 <1>   0.0800 
 40 H       -7.4270    -3.1560     1.0350 H     1 <1>   0.0800 
 41 H       -7.1930    -4.8750     1.2720 H     1 <1>   0.0800 
 42 H       -6.7920    -5.3630    -1.7260 H     1 <1>   0.0800 
 43 H       -5.8630    -6.1250    -0.4480 H     1 <1>   0.0800 
 44 H       -5.0530    -5.2130    -1.7030 H     1 <1>   0.0800 
@<TRIPOS>BOND
  1   1   2  2   
  2   1   3  2   
  3   1   4  am  
  4   1   5  1   
  5   4   6  1   
  6   4  24  1   
  7   5   7  2   
  8   5   8  1   
  9   6   9  1   
 10   6  10  1   
 11   6  25  1   
 12   7  11  1   
 13   7  12  1   
 14   8  13  2   
 15   8  14  1   
 16   9  15  1   
 17   9  16  1   
 18   9  26  1   
 19  10  17  1   
 20  10  27  1   
 21  10  28  1   
 22  11  13  1   
 23  12  29  1   
 24  12  30  1   
 25  12  31  1   
 26  14  32  1   
 27  14  33  1   
 28  14  34  1   
 29  15  17  1   
 30  15  35  1   
 31  15  36  1   
 32  16  18  1   
 33  16  37  1   
 34  16  38  1   
 35  18  19  2   
 36  18  20  2   
 37  18  21  am  
 38  21  22  1   
 39  21  23  1   
 40  22  39  1   
 41  22  40  1   
 42  22  41  1   
 43  23  42  1   
 44  23  43  1   
 45  23  44  1   
@<TRIPOS>SUBSTRUCTURE
  1 ****   6 GROUP 4 **** **** 0

# MOE 2024.06 (io_trps.svl 2023.06)
