@<TRIPOS>MOLECULE
NONAME
31 31 1 0 0 
SMALL
USER_CHARGES


@<TRIPOS>ATOM
  1 O        0.2020     0.1090    -0.4670 O.2   1 <1>  -0.5700 
  2 C        0.7560     1.1120    -0.0610 C.2   1 <1>   0.7800 
  3 O        0.0560     2.2220     0.2070 O.3   1 <1>  -0.4300 
  4 N        2.0980     1.1900     0.1280 N.am  1 <1>  -0.5100 
  5 C       -1.3390     2.3990     0.1090 C.3   1 <1>   0.2800 
  6 C        3.1520     0.2720    -0.4750 C.3   1 <1>   0.1540 
  7 C        2.9370     2.3980    -0.1160 C.3   1 <1>   0.2250 
  8 C       -1.7940     2.2310    -1.3450 C.3   1 <1>  -0.2400 
  9 C       -2.0640     1.4460     1.0660 C.3   1 <1>  -0.2400 
 10 C       -1.5870     3.8420     0.5500 C.3   1 <1>  -0.2400 
 11 C        3.9440    -0.6570     0.4680 C.2   1 <1>   0.8710 
 12 C        3.9510     1.5280    -0.8980 C.3   1 <1>   0.0000 
 13 C        3.4440     3.0000     1.1920 C.3   1 <1>  -0.2400 
 14 O        4.2940    -1.7670     0.0430 O.co2 1 <1>  -0.9000 
 15 O        4.2730    -0.2750     1.6010 O.co2 1 <1>  -0.9000 
 16 H        2.7560    -0.2480    -1.3290 H     1 <1>   0.0000 
 17 H        2.4290     3.1070    -0.7450 H     1 <1>   0.0000 
 18 H       -1.6980     1.2100    -1.6650 H     1 <1>   0.0800 
 19 H       -1.2130     2.8600    -1.9940 H     1 <1>   0.0800 
 20 H       -2.8290     2.5040    -1.4400 H     1 <1>   0.0800 
 21 H       -1.9680     0.4260     0.7440 H     1 <1>   0.0800 
 22 H       -3.1120     1.6810     1.0960 H     1 <1>   0.0800 
 23 H       -1.6620     1.5400     2.0590 H     1 <1>   0.0800 
 24 H       -1.0620     4.5240    -0.0950 H     1 <1>   0.0800 
 25 H       -1.2460     3.9840     1.5600 H     1 <1>   0.0800 
 26 H       -2.6360     4.0720     0.5090 H     1 <1>   0.0800 
 27 H        3.9150     1.7030    -1.9580 H     1 <1>   0.0000 
 28 H        4.9530     1.5680    -0.5080 H     1 <1>   0.0000 
 29 H        3.9150     2.2470     1.7990 H     1 <1>   0.0800 
 30 H        2.6220     3.4270     1.7360 H     1 <1>   0.0800 
 31 H        4.1620     3.7710     0.9840 H     1 <1>   0.0800 
@<TRIPOS>BOND
  1   1   2  2   
  2   2   3  1   
  3   2   4  am  
  4   3   5  1   
  5   4   6  1   
  6   4   7  1   
  7   5   8  1   
  8   5   9  1   
  9   5  10  1   
 10   6  11  1   
 11   6  12  1   
 12   6  16  1   
 13   7  12  1   
 14   7  13  1   
 15   7  17  1   
 16   8  18  1   
 17   8  19  1   
 18   8  20  1   
 19   9  21  1   
 20   9  22  1   
 21   9  23  1   
 22  10  24  1   
 23  10  25  1   
 24  10  26  1   
 25  11  14  ar  
 26  11  15  ar  
 27  12  27  1   
 28  12  28  1   
 29  13  29  1   
 30  13  30  1   
 31  13  31  1   
@<TRIPOS>SUBSTRUCTURE
  1 ****   4 GROUP 4 **** **** 0

# MOE 2024.06 (io_trps.svl 2023.06)
