@<TRIPOS>MOLECULE
NONAME
50 52 1 0 0 
SMALL
USER_CHARGES


@<TRIPOS>ATOM
  1 O        0.0130    -4.4610     2.1570 O.co2 1 <1>  -0.9000 
  2 C       -0.8900    -4.8550     1.4130 C.2   1 <1>   0.9790 
  3 O       -1.3630    -6.0050     1.5680 O.co2 1 <1>  -0.9000 
  4 C       -1.4970    -4.0110     0.4000 C.ar  1 <1>  -0.1790 
  5 C       -2.2110    -4.6330    -0.6100 C.ar  1 <1>  -0.1500 
  6 C       -1.5020    -2.6190     0.4140 C.ar  1 <1>  -0.1500 
  7 C       -3.0820    -3.9490    -1.4310 C.ar  1 <1>  -0.1440 
  8 C       -2.2760    -1.9030    -0.4860 C.ar  1 <1>  -0.1500 
  9 C       -3.0930    -2.5630    -1.3920 C.ar  1 <1>  -0.1500 
 10 C       -4.0720    -4.7840    -2.2090 C.3   1 <1>   0.4870 
 11 N       -4.7940    -5.4920    -1.1070 N.4   1 <1>  -0.9590 
 12 C       -4.4420    -6.9440    -0.9180 C.3   1 <1>   0.3430 
 13 C       -6.2550    -5.2260    -1.0220 C.3   1 <1>   0.3430 
 14 C       -5.1680    -7.4380     0.3570 C.3   1 <1>   0.4230 
 15 C       -6.8610    -5.9770     0.1880 C.3   1 <1>  -0.1600 
 16 N       -4.4930    -8.5000     1.2050 N.4   1 <1>  -0.9590 
 17 C       -6.7340    -7.5900     0.0410 C.3   1 <1>   0.0000 
 18 C       -4.2460    -9.7770     0.5200 C.3   1 <1>   0.3430 
 19 C       -3.2300    -8.0220     1.8690 C.3   1 <1>   0.2630 
 20 C       -6.6390    -9.1880    -0.1890 C.3   1 <1>  -0.1600 
 21 C       -8.3190    -7.6840    -0.1960 C.3   1 <1>   0.1200 
 22 C       -5.3330    -9.9550    -0.5170 C.3   1 <1>  -0.1600 
 23 O       -8.9200    -7.5640     1.0520 O.3   1 <1>  -0.6800 
 24 H       -2.0900    -5.6960    -0.6910 H     1 <1>   0.1500 
 25 H       -0.9010    -2.1110     1.1530 H     1 <1>   0.1500 
 26 H       -2.2570    -0.8270    -0.4580 H     1 <1>   0.1500 
 27 H       -3.7320    -1.9870    -2.0400 H     1 <1>   0.1500 
 28 H       -3.5640    -5.4740    -2.8630 H     1 <1>   0.0800 
 29 H       -4.7360    -4.1530    -2.7760 H     1 <1>   0.0800 
 30 H       -4.3720    -4.9990    -0.2940 H     1 <1>   0.4500 
 31 H       -4.7640    -7.5160    -1.7700 H     1 <1>   0.0800 
 32 H       -3.3820    -7.0650    -0.7890 H     1 <1>   0.0800 
 33 H       -6.4250    -4.1650    -0.9110 H     1 <1>   0.0800 
 34 H       -6.7410    -5.5510    -1.9290 H     1 <1>   0.0800 
 35 H       -5.0330    -6.6020     1.0150 H     1 <1>   0.0800 
 36 H       -6.4590    -5.5910     1.1110 H     1 <1>   0.0800 
 37 H       -7.8470    -5.5450     0.2640 H     1 <1>   0.0800 
 38 H       -5.1630    -8.7020     1.9640 H     1 <1>   0.4500 
 39 H       -3.2780    -9.7790     0.0430 H     1 <1>   0.0800 
 40 H       -4.2760   -10.5840     1.2360 H     1 <1>   0.0800 
 41 H       -2.4400    -7.8990     1.1450 H     1 <1>   0.0800 
 42 H       -2.8940    -8.7310     2.6080 H     1 <1>   0.0800 
 43 H       -3.3790    -7.0720     2.3590 H     1 <1>   0.0800 
 44 H       -7.0910    -9.6790     0.6610 H     1 <1>   0.0800 
 45 H       -7.1910    -9.4930    -1.0660 H     1 <1>   0.0800 
 46 H       -8.7640    -8.5770    -0.6030 H     1 <1>   0.0800 
 47 H       -8.7120    -6.9230    -0.8520 H     1 <1>   0.0800 
 48 H       -4.9560    -9.6550    -1.4790 H     1 <1>   0.0800 
 49 H       -5.5470   -11.0080    -0.5980 H     1 <1>   0.0800 
 50 H       -9.8940    -7.6670     0.9960 H     1 <1>   0.4000 
@<TRIPOS>BOND
  1   1   2  ar  
  2   2   3  ar  
  3   2   4  1   
  4   4   5  ar  
  5   4   6  ar  
  6   5   7  ar  
  7   5  24  1   
  8   6   8  ar  
  9   6  25  1   
 10   7   9  ar  
 11   7  10  1   
 12   8   9  ar  
 13   8  26  1   
 14   9  27  1   
 15  10  11  1   
 16  10  28  1   
 17  10  29  1   
 18  11  12  1   
 19  11  13  1   
 20  11  30  1   
 21  12  14  1   
 22  12  31  1   
 23  12  32  1   
 24  13  15  1   
 25  13  33  1   
 26  13  34  1   
 27  14  16  1   
 28  14  17  1   
 29  14  35  1   
 30  15  17  1   
 31  15  36  1   
 32  15  37  1   
 33  16  18  1   
 34  16  19  1   
 35  16  38  1   
 36  17  20  1   
 37  17  21  1   
 38  18  22  1   
 39  18  39  1   
 40  18  40  1   
 41  19  41  1   
 42  19  42  1   
 43  19  43  1   
 44  20  22  1   
 45  20  44  1   
 46  20  45  1   
 47  21  23  1   
 48  21  46  1   
 49  21  47  1   
 50  22  48  1   
 51  22  49  1   
 52  23  50  1   
@<TRIPOS>SUBSTRUCTURE
  1 ****  12 GROUP 4 **** **** 0

# MOE 2024.06 (io_trps.svl 2023.06)
