@<TRIPOS>MOLECULE
NONAME
54 57 1 0 0 
SMALL
USER_CHARGES


@<TRIPOS>ATOM
  1 O       -0.7570    -0.6510     0.3170 O.3   1 <1>  -0.3570 
  2 C       -0.4960    -1.9990     0.2780 C.2   1 <1>   0.0910 
  3 C        0.2910     0.2550     0.0390 C.3   1 <1>   0.0400 
  4 C        0.3420    -2.6170    -0.7170 C.2   1 <1>   0.5410 
  5 C       -1.0840    -2.7710     1.2330 C.2   1 <1>  -0.0500 
  6 O        0.8960    -2.0130    -1.6370 O.2   1 <1>  -0.5700 
  7 C        0.5200    -4.0220    -0.6230 C.2   1 <1>  -0.1360 
  8 N       -0.8840    -4.1360     1.2700 N.pl3 1 <1>  -0.6000 
  9 C       -0.0820    -4.7620     0.3480 C.2   1 <1>  -0.0380 
 10 C        0.0890    -6.2740     0.4650 C.3   1 <1>   0.2480 
 11 N       -1.2220    -6.9670     0.4690 N.3   1 <1>  -0.8100 
 12 C       -1.9810    -6.7080    -0.7850 C.3   1 <1>   0.1100 
 13 C       -1.0540    -8.4240     0.6780 C.3   1 <1>   0.1100 
 14 C       -3.3160    -7.4890    -0.8520 C.3   1 <1>   0.3430 
 15 C       -2.4070    -9.1800     0.7010 C.3   1 <1>   0.3430 
 16 N       -3.5560    -8.2560     0.4190 N.4   1 <1>  -0.9590 
 17 C       -4.8950    -8.9030     0.5640 C.3   1 <1>   0.4230 
 18 C       -5.1850    -9.9350    -0.5360 C.3   1 <1>  -0.0170 
 19 C       -5.9900    -7.8360     0.5930 C.3   1 <1>  -0.1600 
 20 C       -6.6080   -10.4640    -0.4390 C.ar  1 <1>  -0.1430 
 21 C       -7.3200    -8.4760     1.0040 C.3   1 <1>  -0.0170 
 22 C       -7.5950    -9.7800     0.2640 C.ar  1 <1>  -0.1430 
 23 C       -6.9210   -11.6510    -1.0830 C.ar  1 <1>  -0.1500 
 24 C       -8.8800   -10.2990     0.3130 C.ar  1 <1>  -0.1500 
 25 C       -8.2050   -12.1620    -1.0280 C.ar  1 <1>  -0.1500 
 26 C       -9.1860   -11.4850    -0.3290 C.ar  1 <1>  -0.1500 
 27 H        0.0140     1.2170     0.4280 H     1 <1>   0.0800 
 28 H        0.4230     0.3220    -1.0260 H     1 <1>   0.0800 
 29 H        1.1940    -0.0880     0.5130 H     1 <1>   0.0800 
 30 H       -1.7200    -2.3330     1.9840 H     1 <1>   0.1500 
 31 H        1.1570    -4.4620    -1.3660 H     1 <1>   0.1500 
 32 H       -1.3420    -4.7090     1.9910 H     1 <1>   0.4000 
 33 H        0.6060    -6.4850     1.3860 H     1 <1>   0.0800 
 34 H        0.6960    -6.6360    -0.3480 H     1 <1>   0.0800 
 35 H       -1.3800    -6.9680    -1.6410 H     1 <1>   0.0800 
 36 H       -2.2040    -5.6560    -0.8600 H     1 <1>   0.0800 
 37 H       -0.5470    -8.5960     1.6130 H     1 <1>   0.0800 
 38 H       -0.4360    -8.8370    -0.1020 H     1 <1>   0.0800 
 39 H       -3.2880    -8.1630    -1.6910 H     1 <1>   0.0800 
 40 H       -4.1170    -6.7880    -1.0210 H     1 <1>   0.0800 
 41 H       -2.5340    -9.6340     1.6700 H     1 <1>   0.0800 
 42 H       -2.3790    -9.9720    -0.0280 H     1 <1>   0.0800 
 43 H       -3.4600    -7.5330     1.1480 H     1 <1>   0.4500 
 44 H       -4.9250    -9.4180     1.5110 H     1 <1>   0.0800 
 45 H       -4.5030   -10.7600    -0.4450 H     1 <1>   0.0800 
 46 H       -5.0720    -9.4940    -1.5090 H     1 <1>   0.0800 
 47 H       -6.1120    -7.4000    -0.3840 H     1 <1>   0.0800 
 48 H       -5.7480    -7.0590     1.2960 H     1 <1>   0.0800 
 49 H       -8.1220    -7.7810     0.8200 H     1 <1>   0.0800 
 50 H       -7.3080    -8.6860     2.0600 H     1 <1>   0.0800 
 51 H       -6.1720   -12.1910    -1.6350 H     1 <1>   0.1500 
 52 H       -9.6540    -9.7840     0.8550 H     1 <1>   0.1500 
 53 H       -8.4420   -13.0840    -1.5300 H     1 <1>   0.1500 
 54 H      -10.1860   -11.8800    -0.2860 H     1 <1>   0.1500 
@<TRIPOS>BOND
  1   1   2  1   
  2   1   3  1   
  3   2   4  1   
  4   2   5  2   
  5   3  27  1   
  6   3  28  1   
  7   3  29  1   
  8   4   6  2   
  9   4   7  1   
 10   5   8  1   
 11   5  30  1   
 12   7   9  2   
 13   7  31  1   
 14   8   9  1   
 15   8  32  1   
 16   9  10  1   
 17  10  11  1   
 18  10  33  1   
 19  10  34  1   
 20  11  12  1   
 21  11  13  1   
 22  12  14  1   
 23  12  35  1   
 24  12  36  1   
 25  13  15  1   
 26  13  37  1   
 27  13  38  1   
 28  14  16  1   
 29  14  39  1   
 30  14  40  1   
 31  15  16  1   
 32  15  41  1   
 33  15  42  1   
 34  16  17  1   
 35  16  43  1   
 36  17  18  1   
 37  17  19  1   
 38  17  44  1   
 39  18  20  1   
 40  18  45  1   
 41  18  46  1   
 42  19  21  1   
 43  19  47  1   
 44  19  48  1   
 45  20  22  ar  
 46  20  23  ar  
 47  21  22  1   
 48  21  49  1   
 49  21  50  1   
 50  22  24  ar  
 51  23  25  ar  
 52  23  51  1   
 53  24  26  ar  
 54  24  52  1   
 55  25  26  ar  
 56  25  53  1   
 57  26  54  1   
@<TRIPOS>SUBSTRUCTURE
  1 ****  14 GROUP 4 **** **** 0

# MOE 2024.06 (io_trps.svl 2023.06)
