@<TRIPOS>MOLECULE
NONAME
53 57 1 0 0 
SMALL
USER_CHARGES


@<TRIPOS>ATOM
  1 F       -0.8700     0.8570     0.2580 F     1 <1>  -0.1900 
  2 C       -2.1850     0.9460     0.2690 C.ar  1 <1>   0.1900 
  3 C       -2.8330     2.1740     0.3600 C.ar  1 <1>   0.4100 
  4 C       -2.9290    -0.1960     0.1980 C.ar  1 <1>   0.1600 
  5 N       -4.1490     2.2120     0.3830 N.ar  1 <1>  -0.6200 
  6 N       -2.1710     3.3950     0.4270 N.pl3 1 <1>  -0.8380 
  7 N       -4.2470    -0.1610     0.2110 N.ar  1 <1>  -0.6200 
  8 C       -4.7960     1.0510     0.3070 C.ar  1 <1>   0.7200 
  9 C       -1.2830     3.8040    -0.7010 C.3   1 <1>   0.2090 
 10 C       -2.8470     4.5630     1.0700 C.3   1 <1>   0.2090 
 11 N       -6.1760     1.1040     0.3200 N.pl3 1 <1>  -0.8380 
 12 C       -0.3590     4.9620    -0.2810 C.3   1 <1>   0.1200 
 13 C       -1.8360     5.6790     1.3890 C.3   1 <1>   0.1200 
 14 C       -6.9400     2.3610     0.6040 C.3   1 <1>   0.2090 
 15 C       -7.0000    -0.0600    -0.1270 C.3   1 <1>   0.2090 
 16 O       -1.0970     6.0280     0.2510 O.3   1 <1>  -0.5600 
 17 C       -7.6980     2.8410    -0.6540 C.3   1 <1>   0.1430 
 18 C       -8.4040     0.3740    -0.5880 C.3   1 <1>  -0.1600 
 19 C       -8.7150     3.8730    -0.1940 C.ar  1 <1>   0.1670 
 20 C       -8.3420     1.6600    -1.4320 C.3   1 <1>  -0.1600 
 21 C       -6.7820     3.6880    -1.5780 C.3   1 <1>  -0.1600 
 22 N       -9.8490     3.6120     0.4190 N.ar  1 <1>  -0.6200 
 23 C       -8.3040     5.1420    -0.4760 C.ar  1 <1>  -0.1440 
 24 C       -6.9620     5.1570    -1.1630 C.3   1 <1>  -0.0170 
 25 C      -10.5650     4.6830     0.7280 C.ar  1 <1>   0.4770 
 26 C       -9.1260     6.1790    -0.1090 C.ar  1 <1>   0.1600 
 27 N      -10.2720     5.9570     0.5000 N.ar  1 <1>  -0.6200 
 28 C      -11.8800     4.4270     1.4240 C.3   1 <1>  -0.0970 
 29 H       -2.4430    -1.1520     0.1300 H     1 <1>   0.1500 
 30 H       -1.8890     4.1220    -1.5320 H     1 <1>   0.0800 
 31 H       -0.6830     2.9740    -1.0260 H     1 <1>   0.0800 
 32 H       -3.3270     4.2440     1.9790 H     1 <1>   0.0800 
 33 H       -3.6040     4.9460     0.4080 H     1 <1>   0.0800 
 34 H        0.1840     5.3310    -1.1330 H     1 <1>   0.0800 
 35 H        0.3460     4.6270     0.4600 H     1 <1>   0.0800 
 36 H       -1.1550     5.3560     2.1570 H     1 <1>   0.0800 
 37 H       -2.3510     6.5580     1.7300 H     1 <1>   0.0800 
 38 H       -6.3050     3.1440     0.9740 H     1 <1>   0.0800 
 39 H       -7.6520     2.1470     1.3830 H     1 <1>   0.0800 
 40 H       -7.0790    -0.7710     0.6770 H     1 <1>   0.0800 
 41 H       -6.5020    -0.5420    -0.9520 H     1 <1>   0.0800 
 42 H       -9.0300     0.5350     0.2730 H     1 <1>   0.0800 
 43 H       -8.8470    -0.4200    -1.1610 H     1 <1>   0.0800 
 44 H       -7.7530     1.4390    -2.3050 H     1 <1>   0.0800 
 45 H       -9.3290     1.9300    -1.7650 H     1 <1>   0.0800 
 46 H       -7.1140     3.5940    -2.5970 H     1 <1>   0.0800 
 47 H       -5.7540     3.3770    -1.5280 H     1 <1>   0.0800 
 48 H       -6.9530     5.8140    -2.0150 H     1 <1>   0.0800 
 49 H       -6.1980     5.4490    -0.4640 H     1 <1>   0.0800 
 50 H       -8.8440     7.1970    -0.3130 H     1 <1>   0.1500 
 51 H      -11.9050     3.4300     1.8230 H     1 <1>   0.0800 
 52 H      -12.6810     4.5470     0.7210 H     1 <1>   0.0800 
 53 H      -12.0070     5.1280     2.2280 H     1 <1>   0.0800 
@<TRIPOS>BOND
  1   1   2  1   
  2   2   3  ar  
  3   2   4  ar  
  4   3   5  ar  
  5   3   6  1   
  6   4   7  ar  
  7   4  29  1   
  8   5   8  ar  
  9   6   9  1   
 10   6  10  1   
 11   7   8  ar  
 12   8  11  1   
 13   9  12  1   
 14   9  30  1   
 15   9  31  1   
 16  10  13  1   
 17  10  32  1   
 18  10  33  1   
 19  11  14  1   
 20  11  15  1   
 21  12  16  1   
 22  12  34  1   
 23  12  35  1   
 24  13  16  1   
 25  13  36  1   
 26  13  37  1   
 27  14  17  1   
 28  14  38  1   
 29  14  39  1   
 30  15  18  1   
 31  15  40  1   
 32  15  41  1   
 33  17  19  1   
 34  17  20  1   
 35  17  21  1   
 36  18  20  1   
 37  18  42  1   
 38  18  43  1   
 39  19  22  ar  
 40  19  23  ar  
 41  20  44  1   
 42  20  45  1   
 43  21  24  1   
 44  21  46  1   
 45  21  47  1   
 46  22  25  ar  
 47  23  24  1   
 48  23  26  ar  
 49  24  48  1   
 50  24  49  1   
 51  25  27  ar  
 52  25  28  1   
 53  26  27  ar  
 54  26  50  1   
 55  28  51  1   
 56  28  52  1   
 57  28  53  1   
@<TRIPOS>SUBSTRUCTURE
  1 ****  14 GROUP 4 **** **** 0

# MOE 2024.06 (io_trps.svl 2023.06)
