@<TRIPOS>MOLECULE
NONAME
52 54 1 0 0 
SMALL
USER_CHARGES


@<TRIPOS>ATOM
  1 O       -1.8040    -0.0700     1.9480 O.2   1 <1>  -0.5700 
  2 C       -2.0140     0.6760     1.0020 C.2   1 <1>   0.7160 
  3 N       -2.7100     0.1220    -0.0620 N.am  1 <1>  -0.6600 
  4 C       -1.5630     2.0650     1.0430 C.2   1 <1>   0.2030 
  5 C       -2.7540    -1.3500    -0.2430 C.3   1 <1>   0.1400 
  6 C       -3.8000     0.8550    -0.7610 C.3   1 <1>   0.1400 
  7 N       -1.5740     2.9380     0.0490 N.2   1 <1>  -0.7070 
  8 C       -1.0280     2.6650     2.1900 C.2   1 <1>  -0.1500 
  9 C       -4.0860    -1.8810     0.3280 C.3   1 <1>   0.4230 
 10 C       -5.1450     0.3400    -0.2280 C.3   1 <1>  -0.1600 
 11 N       -1.0570     4.0720     0.5460 N.pl3 1 <1>   0.3140 
 12 C       -0.7220     3.9280     1.8430 C.2   1 <1>  -0.3020 
 13 N       -4.1680    -3.4010     0.3900 N.4   1 <1>  -0.9590 
 14 C       -5.3220    -1.2030    -0.3400 C.3   1 <1>   0.0000 
 15 C       -0.9040     5.2960    -0.2900 C.3   1 <1>   0.1760 
 16 C       -5.5610    -3.9330     0.5370 C.3   1 <1>   0.3430 
 17 C       -3.4520    -4.1330    -0.7060 C.3   1 <1>   0.2630 
 18 C       -6.6100    -1.6160     0.4320 C.3   1 <1>  -0.1600 
 19 C       -5.4230    -1.6240    -1.8340 C.3   1 <1>   0.1200 
 20 C        0.5710     5.7130    -0.3820 C.3   1 <1>  -0.2400 
 21 C       -1.7670     6.4400     0.2590 C.3   1 <1>  -0.2400 
 22 C       -6.4630    -2.9200     1.2400 C.3   1 <1>  -0.1600 
 23 O       -6.4030    -0.9110    -2.5050 O.3   1 <1>  -0.6800 
 24 H       -2.6540    -1.5680    -1.2900 H     1 <1>   0.0800 
 25 H       -1.9270    -1.8020     0.2760 H     1 <1>   0.0800 
 26 H       -3.7340     1.9130    -0.5800 H     1 <1>   0.0800 
 27 H       -3.7200     0.7000    -1.8240 H     1 <1>   0.0800 
 28 H       -0.9020     2.1780     3.1420 H     1 <1>   0.1500 
 29 H       -4.0990    -1.5400     1.3510 H     1 <1>   0.0800 
 30 H       -5.2100     0.6420     0.8030 H     1 <1>   0.0800 
 31 H       -5.9370     0.8530    -0.7460 H     1 <1>   0.0800 
 32 H       -0.2910     4.7180     2.4300 H     1 <1>   0.1500 
 33 H       -3.6820    -3.6380     1.2690 H     1 <1>   0.4500 
 34 H       -1.2510     5.0490    -1.2780 H     1 <1>   0.0800 
 35 H       -5.9770    -4.1410    -0.4360 H     1 <1>   0.0800 
 36 H       -5.5440    -4.8560     1.0950 H     1 <1>   0.0800 
 37 H       -3.8810    -3.8920    -1.6650 H     1 <1>   0.0800 
 38 H       -3.5270    -5.1980    -0.5550 H     1 <1>   0.0800 
 39 H       -2.4070    -3.8680    -0.7190 H     1 <1>   0.0800 
 40 H       -6.9010    -0.8430     1.1250 H     1 <1>   0.0800 
 41 H       -7.4340    -1.7220    -0.2520 H     1 <1>   0.0800 
 42 H       -5.6620    -2.6670    -1.9360 H     1 <1>   0.0800 
 43 H       -4.5030    -1.4350    -2.3580 H     1 <1>   0.0800 
 44 H        0.9530     5.9880     0.5850 H     1 <1>   0.0800 
 45 H        0.6730     6.5560    -1.0420 H     1 <1>   0.0800 
 46 H        1.1570     4.9020    -0.7780 H     1 <1>   0.0800 
 47 H       -1.4400     6.7280     1.2430 H     1 <1>   0.0800 
 48 H       -2.7970     6.1330     0.3040 H     1 <1>   0.0800 
 49 H       -1.6980     7.2960    -0.3880 H     1 <1>   0.0800 
 50 H       -7.4370    -3.3540     1.3870 H     1 <1>   0.0800 
 51 H       -6.0620    -2.7090     2.2170 H     1 <1>   0.0800 
 52 H       -7.2930    -1.0570    -2.1290 H     1 <1>   0.4000 
@<TRIPOS>BOND
  1   1   2  2   
  2   2   3  am  
  3   2   4  1   
  4   3   5  1   
  5   3   6  1   
  6   4   7  2   
  7   4   8  1   
  8   5   9  1   
  9   5  24  1   
 10   5  25  1   
 11   6  10  1   
 12   6  26  1   
 13   6  27  1   
 14   7  11  1   
 15   8  12  2   
 16   8  28  1   
 17   9  13  1   
 18   9  14  1   
 19   9  29  1   
 20  10  14  1   
 21  10  30  1   
 22  10  31  1   
 23  11  12  1   
 24  11  15  1   
 25  12  32  1   
 26  13  16  1   
 27  13  17  1   
 28  13  33  1   
 29  14  18  1   
 30  14  19  1   
 31  15  20  1   
 32  15  21  1   
 33  15  34  1   
 34  16  22  1   
 35  16  35  1   
 36  16  36  1   
 37  17  37  1   
 38  17  38  1   
 39  17  39  1   
 40  18  22  1   
 41  18  40  1   
 42  18  41  1   
 43  19  23  1   
 44  19  42  1   
 45  19  43  1   
 46  20  44  1   
 47  20  45  1   
 48  20  46  1   
 49  21  47  1   
 50  21  48  1   
 51  21  49  1   
 52  22  50  1   
 53  22  51  1   
 54  23  52  1   
@<TRIPOS>SUBSTRUCTURE
  1 ****   3 GROUP 4 **** **** 0

# MOE 2024.06 (io_trps.svl 2023.06)
