@<TRIPOS>MOLECULE
NONAME
61 64 1 0 0 
SMALL
USER_CHARGES


@<TRIPOS>ATOM
  1 O       -1.5540    -0.1930     1.8050 O.2   1 <1>  -0.5700 
  2 C       -1.6090     0.2820     0.6960 C.2   1 <1>   0.5690 
  3 N       -0.9770     1.4410     0.3940 N.am  1 <1>  -0.7300 
  4 C       -2.4110    -0.4030    -0.4110 C.3   1 <1>  -0.0190 
  5 C       -0.3400     2.3270     1.3810 C.3   1 <1>   0.2840 
  6 C       -3.6840     0.4000    -0.7430 C.3   1 <1>  -0.1600 
  7 C       -2.7860    -1.8610    -0.0720 C.3   1 <1>  -0.1600 
  8 C       -0.6780     3.7540     0.9910 C.ar  1 <1>  -0.1440 
  9 C       -4.5010    -0.2690    -1.8500 C.3   1 <1>   0.2090 
 10 C       -3.6190    -2.5100    -1.1790 C.3   1 <1>   0.2090 
 11 C       -1.9540     4.2450     1.2190 C.ar  1 <1>  -0.1500 
 12 C        0.2700     4.5720     0.3940 C.ar  1 <1>  -0.1500 
 13 N       -4.8190    -1.6660    -1.4450 N.pl3 1 <1>  -0.8380 
 14 C       -2.2790     5.5390     0.8530 C.ar  1 <1>  -0.1500 
 15 C       -0.0530     5.8680     0.0280 C.ar  1 <1>  -0.1500 
 16 C       -6.1110    -2.1140    -1.2370 C.ar  1 <1>   0.7200 
 17 C       -1.3360     6.3580     0.2550 C.ar  1 <1>   0.0820 
 18 N       -6.2740    -3.4140    -1.0230 N.ar  1 <1>  -0.6200 
 19 N       -7.0850    -1.2050    -1.2660 N.ar  1 <1>  -0.6200 
 20 O       -1.7380     7.6100    -0.0760 O.3   1 <1>  -0.3620 
 21 C       -7.5000    -3.8460    -0.8110 C.ar  1 <1>   0.3100 
 22 C       -8.3000    -1.6440    -1.0590 C.ar  1 <1>   0.1600 
 23 C       -0.8500     8.5340    -0.6650 C.3   1 <1>   0.0400 
 24 C       -7.7230    -5.2510    -0.5630 C.ar  1 <1>   0.0000 
 25 C       -8.5630    -2.9670    -0.8240 C.ar  1 <1>  -0.1500 
 26 C       -7.3360    -5.8800     0.6260 C.ar  1 <1>   0.1670 
 27 C       -8.3520    -6.0300    -1.5220 C.ar  1 <1>  -0.1500 
 28 N       -7.5380    -7.1590     0.9030 N.ar  1 <1>  -0.6200 
 29 C       -6.6270    -5.0940     1.7150 C.3   1 <1>  -0.0970 
 30 C       -8.5610    -7.3620    -1.2430 C.ar  1 <1>  -0.1500 
 31 C       -8.1420    -7.8750    -0.0280 C.ar  1 <1>   0.1670 
 32 C       -8.3610    -9.3360     0.3030 C.3   1 <1>  -0.0970 
 33 H       -1.0860     1.8650    -0.5270 H     1 <1>   0.3700 
 34 H       -1.7880    -0.4240    -1.2860 H     1 <1>   0.0800 
 35 H        0.7250     2.1690     1.3710 H     1 <1>   0.0800 
 36 H       -0.7100     2.1130     2.3700 H     1 <1>   0.0800 
 37 H       -3.4250     1.3950    -1.0550 H     1 <1>   0.0800 
 38 H       -4.3010     0.4820     0.1350 H     1 <1>   0.0800 
 39 H       -3.3560    -1.8890     0.8410 H     1 <1>   0.0800 
 40 H       -1.8930    -2.4380     0.0850 H     1 <1>   0.0800 
 41 H       -3.9310    -0.2940    -2.7630 H     1 <1>   0.0800 
 42 H       -5.3900     0.3070    -2.0400 H     1 <1>   0.0800 
 43 H       -3.8860    -3.5070    -0.8770 H     1 <1>   0.0800 
 44 H       -3.0380    -2.5860    -2.0820 H     1 <1>   0.0800 
 45 H       -2.6990     3.6190     1.6810 H     1 <1>   0.1500 
 46 H        1.2640     4.2040     0.2100 H     1 <1>   0.1500 
 47 H       -3.2680     5.9220     1.0290 H     1 <1>   0.1500 
 48 H        0.7020     6.4770    -0.4310 H     1 <1>   0.1500 
 49 H       -9.1040    -0.9290    -1.0770 H     1 <1>   0.1500 
 50 H       -1.3840     9.4530    -0.8270 H     1 <1>   0.0800 
 51 H       -0.5070     8.1390    -1.6050 H     1 <1>   0.0800 
 52 H       -0.0270     8.7030     0.0070 H     1 <1>   0.0800 
 53 H       -9.5630    -3.3150    -0.6520 H     1 <1>   0.1500 
 54 H       -8.6600    -5.6030    -2.4600 H     1 <1>   0.1500 
 55 H       -5.6020    -4.9390     1.4340 H     1 <1>   0.0800 
 56 H       -6.6510    -5.6330     2.6450 H     1 <1>   0.0800 
 57 H       -7.0970    -4.1400     1.8650 H     1 <1>   0.0800 
 58 H       -9.0440    -7.9950    -1.9640 H     1 <1>   0.1500 
 59 H       -8.9610    -9.4150     1.1900 H     1 <1>   0.0800 
 60 H       -7.4120    -9.8060     0.4840 H     1 <1>   0.0800 
 61 H       -8.8560    -9.8480    -0.5010 H     1 <1>   0.0800 
@<TRIPOS>BOND
  1   1   2  2   
  2   2   3  am  
  3   2   4  1   
  4   3   5  1   
  5   3  33  1   
  6   4   6  1   
  7   4   7  1   
  8   4  34  1   
  9   5   8  1   
 10   5  35  1   
 11   5  36  1   
 12   6   9  1   
 13   6  37  1   
 14   6  38  1   
 15   7  10  1   
 16   7  39  1   
 17   7  40  1   
 18   8  11  ar  
 19   8  12  ar  
 20   9  13  1   
 21   9  41  1   
 22   9  42  1   
 23  10  13  1   
 24  10  43  1   
 25  10  44  1   
 26  11  14  ar  
 27  11  45  1   
 28  12  15  ar  
 29  12  46  1   
 30  13  16  1   
 31  14  17  ar  
 32  14  47  1   
 33  15  17  ar  
 34  15  48  1   
 35  16  18  ar  
 36  16  19  ar  
 37  17  20  1   
 38  18  21  ar  
 39  19  22  ar  
 40  20  23  1   
 41  21  24  1   
 42  21  25  ar  
 43  22  25  ar  
 44  22  49  1   
 45  23  50  1   
 46  23  51  1   
 47  23  52  1   
 48  24  26  ar  
 49  24  27  ar  
 50  25  53  1   
 51  26  28  ar  
 52  26  29  1   
 53  27  30  ar  
 54  27  54  1   
 55  28  31  ar  
 56  29  55  1   
 57  29  56  1   
 58  29  57  1   
 59  30  31  ar  
 60  30  58  1   
 61  31  32  1   
 62  32  59  1   
 63  32  60  1   
 64  32  61  1   
@<TRIPOS>SUBSTRUCTURE
  1 ****   6 GROUP 4 **** **** 0

# MOE 2024.06 (io_trps.svl 2023.06)
