@<TRIPOS>MOLECULE
NONAME
54 55 1 0 0 
SMALL
USER_CHARGES


@<TRIPOS>ATOM
  1 O        0.0450     0.4510     0.5680 O.2   1 <1>  -0.5700 
  2 C       -0.9020     0.8270    -0.0890 C.2   1 <1>   0.5690 
  3 N       -1.9670    -0.0070    -0.3320 N.am  1 <1>  -0.6600 
  4 C       -0.9010     2.2660    -0.6540 C.3   1 <1>   0.1710 
  5 C       -1.9780    -1.4190     0.1650 C.3   1 <1>   0.1400 
  6 C       -3.2000     0.3390    -1.1040 C.3   1 <1>   0.1400 
  7 N        0.3130     3.0880    -0.3690 N.3   1 <1>  -0.8100 
  8 C       -3.3090    -1.7410     0.8640 C.3   1 <1>   0.1200 
  9 C       -4.4610    -0.0800    -0.3270 C.3   1 <1>   0.1200 
 10 C        0.4660     4.2770    -1.2480 C.3   1 <1>   0.1100 
 11 C        0.4460     3.4580     1.0670 C.3   1 <1>   0.1100 
 12 O       -4.3920    -1.4280     0.0340 O.3   1 <1>  -0.5600 
 13 C        1.7200     5.1290    -0.8790 C.3   1 <1>   0.4230 
 14 C        1.8480     4.0460     1.3610 C.3   1 <1>   0.3430 
 15 N        2.5600     4.3160     0.0690 N.4   1 <1>  -0.9590 
 16 C        1.2820     6.4960    -0.3160 C.3   1 <1>  -0.1600 
 17 C        4.0150     4.6040     0.2060 C.3   1 <1>   0.3430 
 18 C        2.4250     7.4310     0.0750 C.3   1 <1>   0.1200 
 19 C        4.7480     4.5130    -1.1450 C.3   1 <1>  -0.0800 
 20 O        1.8710     8.6100     0.5210 O.3   1 <1>  -0.6800 
 21 C        4.5470     3.1520    -1.8350 C.3   1 <1>  -0.2400 
 22 C        6.2470     4.7540    -0.9290 C.3   1 <1>  -0.2400 
 23 H       -1.7670     2.7790    -0.2770 H     1 <1>   0.0800 
 24 H       -1.0070     2.1770    -1.7200 H     1 <1>   0.0800 
 25 H       -1.1700    -1.5890     0.8550 H     1 <1>   0.0800 
 26 H       -1.8460    -2.0870    -0.6670 H     1 <1>   0.0800 
 27 H       -3.1840    -0.1840    -2.0450 H     1 <1>   0.0800 
 28 H       -3.2520     1.3910    -1.3090 H     1 <1>   0.0800 
 29 H       -3.4000    -1.1820     1.7790 H     1 <1>   0.0800 
 30 H       -3.3630    -2.7900     1.0930 H     1 <1>   0.0800 
 31 H       -5.3360     0.0490    -0.9400 H     1 <1>   0.0800 
 32 H       -4.5740     0.5110     0.5650 H     1 <1>   0.0800 
 33 H       -0.4250     4.8820    -1.2010 H     1 <1>   0.0800 
 34 H        0.5680     3.9430    -2.2670 H     1 <1>   0.0800 
 35 H        0.3030     2.5970     1.6970 H     1 <1>   0.0800 
 36 H       -0.3100     4.1780     1.3310 H     1 <1>   0.0800 
 37 H        2.2740     5.3040    -1.7870 H     1 <1>   0.0800 
 38 H        2.4060     3.3290     1.9400 H     1 <1>   0.0800 
 39 H        1.7560     4.9480     1.9440 H     1 <1>   0.0800 
 40 H        2.4880     3.3800    -0.3700 H     1 <1>   0.4500 
 41 H        0.6360     6.3570     0.5320 H     1 <1>   0.0800 
 42 H        0.7050     6.9880    -1.0790 H     1 <1>   0.0800 
 43 H        4.4530     3.8820     0.8760 H     1 <1>   0.0800 
 44 H        4.1710     5.5780     0.6350 H     1 <1>   0.0800 
 45 H        3.0800     7.6490    -0.7530 H     1 <1>   0.0800 
 46 H        2.9900     7.0320     0.8970 H     1 <1>   0.0800 
 47 H        4.3910     5.2930    -1.7940 H     1 <1>   0.0800 
 48 H        1.5240     9.1560    -0.2140 H     1 <1>   0.4000 
 49 H        4.8690     2.3470    -1.1950 H     1 <1>   0.0800 
 50 H        5.1250     3.1080    -2.7420 H     1 <1>   0.0800 
 51 H        3.5180     2.9890    -2.1010 H     1 <1>   0.0800 
 52 H        6.6740     3.9940    -0.2970 H     1 <1>   0.0800 
 53 H        6.4180     5.7150    -0.4740 H     1 <1>   0.0800 
 54 H        6.7680     4.7380    -1.8720 H     1 <1>   0.0800 
@<TRIPOS>BOND
  1   1   2  2   
  2   2   3  am  
  3   2   4  1   
  4   3   5  1   
  5   3   6  1   
  6   4   7  1   
  7   4  23  1   
  8   4  24  1   
  9   5   8  1   
 10   5  25  1   
 11   5  26  1   
 12   6   9  1   
 13   6  27  1   
 14   6  28  1   
 15   7  10  1   
 16   7  11  1   
 17   8  12  1   
 18   8  29  1   
 19   8  30  1   
 20   9  12  1   
 21   9  31  1   
 22   9  32  1   
 23  10  13  1   
 24  10  33  1   
 25  10  34  1   
 26  11  14  1   
 27  11  35  1   
 28  11  36  1   
 29  13  15  1   
 30  13  16  1   
 31  13  37  1   
 32  14  15  1   
 33  14  38  1   
 34  14  39  1   
 35  15  17  1   
 36  15  40  1   
 37  16  18  1   
 38  16  41  1   
 39  16  42  1   
 40  17  19  1   
 41  17  43  1   
 42  17  44  1   
 43  18  20  1   
 44  18  45  1   
 45  18  46  1   
 46  19  21  1   
 47  19  22  1   
 48  19  47  1   
 49  20  48  1   
 50  21  49  1   
 51  21  50  1   
 52  21  51  1   
 53  22  52  1   
 54  22  53  1   
 55  22  54  1   
@<TRIPOS>SUBSTRUCTURE
  1 ****   7 GROUP 4 **** **** 0

# MOE 2024.06 (io_trps.svl 2023.06)
