@<TRIPOS>MOLECULE
NONAME
58 61 1 0 0 
SMALL
USER_CHARGES


@<TRIPOS>ATOM
  1 O        2.9930    -1.0310    -3.4390 O.2   1 <1>  -0.5700 
  2 C        2.8340    -1.6320    -2.3930 C.2   1 <1>   0.5440 
  3 N        3.4700    -1.1310    -1.2660 N.am  1 <1>  -0.6600 
  4 C        1.9670    -2.8070    -2.3600 C.ar  1 <1>   0.3960 
  5 C        3.6740     0.3360    -1.1040 C.3   1 <1>   0.1400 
  6 C        3.5880    -1.8840     0.0200 C.3   1 <1>   0.1400 
  7 N        1.1610    -2.9940    -1.3030 N.ar  1 <1>  -0.6200 
  8 C        2.0020    -3.7070    -3.4280 C.ar  1 <1>   0.1600 
  9 C        2.6530     0.8860    -0.0870 C.3   1 <1>   0.3430 
 10 C        2.5510    -1.3530     1.0290 C.3   1 <1>   0.3430 
 11 C        0.4660    -4.1120    -1.3530 C.ar  1 <1>   0.4100 
 12 N        1.2970    -4.8280    -3.5050 N.ar  1 <1>  -0.6200 
 13 N        2.6780     0.1400     1.2300 N.4   1 <1>  -0.9590 
 14 N       -0.3330    -4.3290    -0.2470 N.pl3 1 <1>  -0.8380 
 15 C        0.5370    -4.9980    -2.4420 C.ar  1 <1>   0.1600 
 16 C        1.6030     0.6330     2.1410 C.3   1 <1>   0.2630 
 17 C       -1.6450    -3.6220    -0.1920 C.3   1 <1>   0.2090 
 18 C       -0.5040    -5.6830     0.3410 C.3   1 <1>   0.2090 
 19 C       -2.6300    -4.5800     0.4960 C.3   1 <1>   0.2000 
 20 C       -2.0060    -5.9590     0.2770 C.3   1 <1>  -0.0800 
 21 O       -2.6680    -4.3160     1.8710 O.3   1 <1>  -0.5600 
 22 C       -2.4740    -7.0420     1.2660 C.3   1 <1>   0.0200 
 23 C       -3.6340    -3.3950     2.2700 C.3   1 <1>   0.0400 
 24 C       -1.9610    -8.4290     0.9150 C.2   1 <1>  -0.0400 
 25 O       -2.1540    -9.4010     1.7670 O.3   1 <1>  -0.0190 
 26 C       -1.3120    -8.9400    -0.1450 C.2   1 <1>  -0.1500 
 27 N       -1.6690   -10.5300     1.3380 N.2   1 <1>  -0.4100 
 28 C       -1.1550   -10.2830     0.1880 C.2   1 <1>   0.1080 
 29 C       -0.4740   -11.3190    -0.6780 C.3   1 <1>  -0.0590 
 30 H        4.6790     0.5260    -0.7670 H     1 <1>   0.0800 
 31 H        3.5450     0.8430    -2.0450 H     1 <1>   0.0800 
 32 H        3.4380    -2.9380    -0.1380 H     1 <1>   0.0800 
 33 H        4.5810    -1.7600     0.4160 H     1 <1>   0.0800 
 34 H        2.6520    -3.4820    -4.2560 H     1 <1>   0.1500 
 35 H        1.6720     0.8040    -0.5260 H     1 <1>   0.0800 
 36 H        2.8510     1.9320     0.0800 H     1 <1>   0.0800 
 37 H        2.6790    -1.8640     1.9690 H     1 <1>   0.0800 
 38 H        1.5660    -1.5900     0.6600 H     1 <1>   0.0800 
 39 H        3.5930     0.3150     1.6680 H     1 <1>   0.4500 
 40 H       -0.0760    -5.8780    -2.4150 H     1 <1>   0.1500 
 41 H        0.6340     0.4540     1.7050 H     1 <1>   0.0800 
 42 H        1.7140     1.6920     2.3150 H     1 <1>   0.0800 
 43 H        1.6530     0.1230     3.0900 H     1 <1>   0.0800 
 44 H       -1.5540    -2.6990     0.3520 H     1 <1>   0.0800 
 45 H       -1.9800    -3.4120    -1.1930 H     1 <1>   0.0800 
 46 H        0.0700    -6.4290    -0.1790 H     1 <1>   0.0800 
 47 H       -0.1810    -5.6510     1.3690 H     1 <1>   0.0800 
 48 H       -3.6250    -4.5180     0.0890 H     1 <1>   0.0800 
 49 H       -2.2460    -6.2730    -0.7230 H     1 <1>   0.0800 
 50 H       -3.5490    -7.0730     1.2820 H     1 <1>   0.0800 
 51 H       -2.1420    -6.7960     2.2600 H     1 <1>   0.0800 
 52 H       -3.5460    -3.2580     3.3330 H     1 <1>   0.0800 
 53 H       -4.6110    -3.7840     2.0390 H     1 <1>   0.0800 
 54 H       -3.4700    -2.4580     1.7690 H     1 <1>   0.0800 
 55 H       -0.9780    -8.4760    -1.0530 H     1 <1>   0.1500 
 56 H       -0.8970   -11.3070    -1.6650 H     1 <1>   0.0800 
 57 H       -0.6090   -12.2970    -0.2530 H     1 <1>   0.0800 
 58 H        0.5780   -11.1080    -0.7390 H     1 <1>   0.0800 
@<TRIPOS>BOND
  1   1   2  2   
  2   2   3  am  
  3   2   4  1   
  4   3   5  1   
  5   3   6  1   
  6   4   7  ar  
  7   4   8  ar  
  8   5   9  1   
  9   5  30  1   
 10   5  31  1   
 11   6  10  1   
 12   6  32  1   
 13   6  33  1   
 14   7  11  ar  
 15   8  12  ar  
 16   8  34  1   
 17   9  13  1   
 18   9  35  1   
 19   9  36  1   
 20  10  13  1   
 21  10  37  1   
 22  10  38  1   
 23  11  14  1   
 24  11  15  ar  
 25  12  15  ar  
 26  13  16  1   
 27  13  39  1   
 28  14  17  1   
 29  14  18  1   
 30  15  40  1   
 31  16  41  1   
 32  16  42  1   
 33  16  43  1   
 34  17  19  1   
 35  17  44  1   
 36  17  45  1   
 37  18  20  1   
 38  18  46  1   
 39  18  47  1   
 40  19  20  1   
 41  19  21  1   
 42  19  48  1   
 43  20  22  1   
 44  20  49  1   
 45  21  23  1   
 46  22  24  1   
 47  22  50  1   
 48  22  51  1   
 49  23  52  1   
 50  23  53  1   
 51  23  54  1   
 52  24  25  1   
 53  24  26  2   
 54  25  27  1   
 55  26  28  1   
 56  26  55  1   
 57  27  28  2   
 58  28  29  1   
 59  29  56  1   
 60  29  57  1   
 61  29  58  1   
@<TRIPOS>SUBSTRUCTURE
  1 ****  14 GROUP 4 **** **** 0

# MOE 2024.06 (io_trps.svl 2023.06)
