@<TRIPOS>MOLECULE
NONAME
43 45 1 0 0 
SMALL
USER_CHARGES


@<TRIPOS>ATOM
  1 O       -0.8760    -0.0280     1.1110 O.2   1 <1>  -0.5700 
  2 C       -1.6610     0.8180     0.7280 C.2   1 <1>   0.6160 
  3 N       -2.7520     0.4350    -0.0290 N.am  1 <1>  -0.6600 
  4 C       -1.4330     2.2000     1.0970 C.2   1 <1>   0.0140 
  5 C       -3.9610     1.3040    -0.1560 C.3   1 <1>   0.2200 
  6 C       -2.8200    -0.9570    -0.5730 C.3   1 <1>   0.0600 
  7 C       -1.3090     2.6010     2.3990 C.2   1 <1>  -0.1360 
  8 C       -1.3310     3.2080     0.0900 C.2   1 <1>  -0.1500 
  9 C       -5.2660     0.6360     0.2710 C.3   1 <1>  -0.1600 
 10 C       -4.2250     1.7630    -1.5860 C.3   1 <1>  -0.1600 
 11 C       -1.1280     3.9610     2.7450 C.2   1 <1>   0.6160 
 12 C       -1.1580     4.5160     0.4130 C.2   1 <1>  -0.0290 
 13 C       -6.3580     1.4910    -0.3850 C.3   1 <1>  -0.0800 
 14 C       -5.6930     2.2100    -1.5740 C.3   1 <1>  -0.0800 
 15 O       -1.0390     4.3580     3.8960 O.2   1 <1>  -0.5700 
 16 N       -1.0680     4.8760     1.7350 N.am  1 <1>  -0.5390 
 17 C       -1.0480     5.6280    -0.6100 C.3   1 <1>  -0.1020 
 18 C       -6.9090     2.5900     0.5350 C.3   1 <1>  -0.1600 
 19 C       -5.8660     3.7150    -1.3210 C.3   1 <1>  -0.1600 
 20 C       -7.0400     3.8110    -0.3610 C.3   1 <1>   0.2000 
 21 O       -6.9480     4.9630     0.3880 O.3   1 <1>  -0.6800 
 22 H       -3.8480     2.1820     0.4560 H     1 <1>   0.0800 
 23 H       -3.3790    -0.9840    -1.4900 H     1 <1>   0.0800 
 24 H       -3.2870    -1.6030     0.1490 H     1 <1>   0.0800 
 25 H       -1.8280    -1.3260    -0.7710 H     1 <1>   0.0800 
 26 H       -1.3500     1.8980     3.2100 H     1 <1>   0.1500 
 27 H       -1.3900     2.8880    -0.9360 H     1 <1>   0.1500 
 28 H       -5.3370    -0.3580    -0.1310 H     1 <1>   0.0800 
 29 H       -5.3610     0.5920     1.3410 H     1 <1>   0.0800 
 30 H       -3.5620     2.5530    -1.8880 H     1 <1>   0.0800 
 31 H       -4.1230     0.9390    -2.2670 H     1 <1>   0.0800 
 32 H       -7.1690     0.8710    -0.7330 H     1 <1>   0.0800 
 33 H       -6.1820     1.9380    -2.4950 H     1 <1>   0.0800 
 34 H       -0.9260     5.8410     2.0380 H     1 <1>   0.3700 
 35 H       -0.0980     6.1220    -0.5150 H     1 <1>   0.0800 
 36 H       -1.8340     6.3460    -0.4600 H     1 <1>   0.0800 
 37 H       -1.1300     5.2340    -1.6080 H     1 <1>   0.0800 
 38 H       -6.2130     2.7950     1.3290 H     1 <1>   0.0800 
 39 H       -7.8600     2.3110     0.9530 H     1 <1>   0.0800 
 40 H       -6.0670     4.2460    -2.2350 H     1 <1>   0.0800 
 41 H       -4.9840     4.1200    -0.8560 H     1 <1>   0.0800 
 42 H       -7.9780     3.8080    -0.8920 H     1 <1>   0.0800 
 43 H       -6.1220     4.9600     0.9050 H     1 <1>   0.4000 
@<TRIPOS>BOND
  1   1   2  2   
  2   2   3  am  
  3   2   4  1   
  4   3   5  1   
  5   3   6  1   
  6   4   7  2   
  7   4   8  1   
  8   5   9  1   
  9   5  10  1   
 10   5  22  1   
 11   6  23  1   
 12   6  24  1   
 13   6  25  1   
 14   7  11  1   
 15   7  26  1   
 16   8  12  2   
 17   8  27  1   
 18   9  13  1   
 19   9  28  1   
 20   9  29  1   
 21  10  14  1   
 22  10  30  1   
 23  10  31  1   
 24  11  15  2   
 25  11  16  am  
 26  12  16  1   
 27  12  17  1   
 28  13  14  1   
 29  13  18  1   
 30  13  32  1   
 31  14  19  1   
 32  14  33  1   
 33  16  34  1   
 34  17  35  1   
 35  17  36  1   
 36  17  37  1   
 37  18  20  1   
 38  18  38  1   
 39  18  39  1   
 40  19  20  1   
 41  19  40  1   
 42  19  41  1   
 43  20  21  1   
 44  20  42  1   
 45  21  43  1   
@<TRIPOS>SUBSTRUCTURE
  1 ****   5 GROUP 4 **** **** 0

# MOE 2024.06 (io_trps.svl 2023.06)
