@<TRIPOS>MOLECULE
NONAME
55 57 1 0 0 
SMALL
USER_CHARGES


@<TRIPOS>ATOM
  1 CL       1.1090    -1.6640     2.0450 Cl    1 <1>  -0.1770 
  2 C        1.3380    -1.2470     0.3560 C.ar  1 <1>   0.1770 
  3 C        0.4770    -1.7510    -0.6260 C.ar  1 <1>   0.1000 
  4 C        2.3930    -0.4130     0.0390 C.ar  1 <1>  -0.1500 
  5 N       -0.6090    -2.5960    -0.3690 N.pl3 1 <1>  -0.8380 
  6 C        0.7220    -1.3850    -1.9440 C.ar  1 <1>  -0.1500 
  7 C        2.6150    -0.0620    -1.2830 C.ar  1 <1>  -0.1500 
  8 C       -1.7570    -1.9980     0.3430 C.3   1 <1>   0.2090 
  9 C       -0.2810    -3.9880     0.0130 C.3   1 <1>   0.2090 
 10 C        1.7770    -0.5500    -2.2720 C.ar  1 <1>  -0.1500 
 11 C       -2.9920    -2.8510     0.0720 C.3   1 <1>  -0.1600 
 12 C       -1.5040    -4.8630    -0.2380 C.3   1 <1>  -0.1600 
 13 C       -2.7370    -4.3080     0.4850 C.3   1 <1>   0.4230 
 14 N       -3.8970    -5.1960     0.1880 N.4   1 <1>  -0.9590 
 15 C       -3.8280    -6.4860     0.9430 C.3   1 <1>   0.3430 
 16 C       -5.2640    -4.6000     0.2180 C.3   1 <1>   0.3430 
 17 C       -4.7810    -7.5290     0.3520 C.3   1 <1>  -0.1060 
 18 C       -6.2970    -5.5880    -0.3150 C.3   1 <1>  -0.1600 
 19 C       -4.3970    -7.7680    -1.1090 C.2   1 <1>   0.9060 
 20 C       -6.2010    -6.9320     0.4090 C.3   1 <1>   0.2000 
 21 C       -4.7100    -8.8390     1.1870 C.3   1 <1>  -0.1600 
 22 O       -5.1090    -8.5030    -1.7950 O.co2 1 <1>  -0.9000 
 23 O       -3.4530    -7.1260    -1.5950 O.co2 1 <1>  -0.9000 
 24 O       -7.0980    -7.7880    -0.1870 O.3   1 <1>  -0.6800 
 25 C       -3.3150    -9.4860     1.2320 C.3   1 <1>  -0.1600 
 26 C       -3.3500   -10.7950     2.0250 C.3   1 <1>  -0.2400 
 27 H        3.0350    -0.0440     0.8180 H     1 <1>   0.1500 
 28 H        0.0730    -1.7650    -2.7120 H     1 <1>   0.1500 
 29 H        3.4340     0.5880    -1.5400 H     1 <1>   0.1500 
 30 H       -1.5500    -1.9570     1.3990 H     1 <1>   0.0800 
 31 H       -1.9160    -0.9930    -0.0120 H     1 <1>   0.0800 
 32 H        0.5480    -4.3380    -0.5790 H     1 <1>   0.0800 
 33 H        0.0010    -4.0240     1.0520 H     1 <1>   0.0800 
 34 H        1.9450    -0.2810    -3.3000 H     1 <1>   0.1500 
 35 H       -3.2200    -2.7960    -0.9780 H     1 <1>   0.0800 
 36 H       -3.8020    -2.4310     0.6370 H     1 <1>   0.0800 
 37 H       -1.2740    -5.8590     0.0910 H     1 <1>   0.0800 
 38 H       -1.6840    -4.8990    -1.2990 H     1 <1>   0.0800 
 39 H       -2.5490    -4.3220     1.5460 H     1 <1>   0.0800 
 40 H       -3.7270    -5.5450    -0.7930 H     1 <1>   0.4500 
 41 H       -2.8290    -6.8820     0.8810 H     1 <1>   0.0800 
 42 H       -4.0670    -6.3210     1.9800 H     1 <1>   0.0800 
 43 H       -5.5150    -4.3260     1.2290 H     1 <1>   0.0800 
 44 H       -5.2930    -3.7140    -0.3950 H     1 <1>   0.0800 
 45 H       -6.1450    -5.7200    -1.3720 H     1 <1>   0.0800 
 46 H       -7.2810    -5.1790    -0.1710 H     1 <1>   0.0800 
 47 H       -6.5140    -6.8130     1.4330 H     1 <1>   0.0800 
 48 H       -5.0440    -8.6470     2.1920 H     1 <1>   0.0800 
 49 H       -5.3930    -9.5530     0.7570 H     1 <1>   0.0800 
 50 H       -6.6260    -8.2200    -0.9610 H     1 <1>   0.4000 
 51 H       -2.9810    -9.6990     0.2290 H     1 <1>   0.0800 
 52 H       -2.5990    -8.8280     1.6910 H     1 <1>   0.0800 
 53 H       -4.0330   -11.4900     1.5660 H     1 <1>   0.0800 
 54 H       -3.6650   -10.6180     3.0380 H     1 <1>   0.0800 
 55 H       -2.3720   -11.2420     2.0410 H     1 <1>   0.0800 
@<TRIPOS>BOND
  1   1   2  1   
  2   2   3  ar  
  3   2   4  ar  
  4   3   5  1   
  5   3   6  ar  
  6   4   7  ar  
  7   4  27  1   
  8   5   8  1   
  9   5   9  1   
 10   6  10  ar  
 11   6  28  1   
 12   7  10  ar  
 13   7  29  1   
 14   8  11  1   
 15   8  30  1   
 16   8  31  1   
 17   9  12  1   
 18   9  32  1   
 19   9  33  1   
 20  10  34  1   
 21  11  13  1   
 22  11  35  1   
 23  11  36  1   
 24  12  13  1   
 25  12  37  1   
 26  12  38  1   
 27  13  14  1   
 28  13  39  1   
 29  14  15  1   
 30  14  16  1   
 31  14  40  1   
 32  15  17  1   
 33  15  41  1   
 34  15  42  1   
 35  16  18  1   
 36  16  43  1   
 37  16  44  1   
 38  17  19  1   
 39  17  20  1   
 40  17  21  1   
 41  18  20  1   
 42  18  45  1   
 43  18  46  1   
 44  19  22  ar  
 45  19  23  ar  
 46  20  24  1   
 47  20  47  1   
 48  21  25  1   
 49  21  48  1   
 50  21  49  1   
 51  24  50  1   
 52  25  26  1   
 53  25  51  1   
 54  25  52  1   
 55  26  53  1   
 56  26  54  1   
 57  26  55  1   
@<TRIPOS>SUBSTRUCTURE
  1 ****  13 GROUP 4 **** **** 0

# MOE 2024.06 (io_trps.svl 2023.06)
