@<TRIPOS>MOLECULE
NONAME
51 53 1 0 0 
SMALL
USER_CHARGES


@<TRIPOS>ATOM
  1 S       -1.3940    -0.8670    -0.0340 S.o2  1 <1>   1.2040 
  2 O       -2.1850    -0.3830    -1.1470 O.2   1 <1>  -0.6500 
  3 O       -1.9360    -1.9100     0.8030 O.2   1 <1>  -0.6500 
  4 C        0.3130    -1.2020    -0.5170 C.ar  1 <1>  -0.0090 
  5 C       -1.2450     0.5410     1.0420 C.3   1 <1>  -0.0550 
  6 C        1.1240    -2.0280     0.2530 C.ar  1 <1>  -0.1500 
  7 C        0.8670    -0.6130    -1.6480 C.ar  1 <1>  -0.1500 
  8 C       -2.6170     0.8500     1.6340 C.3   1 <1>   0.3430 
  9 C        2.4460    -2.2540    -0.0890 C.ar  1 <1>  -0.1500 
 10 C        2.1880    -0.8350    -1.9960 C.ar  1 <1>  -0.1500 
 11 N       -3.5990     1.2840     0.5930 N.4   1 <1>  -0.9590 
 12 C        2.9800    -1.6540    -1.2140 C.ar  1 <1>  -0.1500 
 13 C       -5.0020     0.9640     1.0100 C.3   1 <1>   0.3430 
 14 C       -3.4520     2.7120     0.1920 C.3   1 <1>   0.3430 
 15 C       -6.0080     1.2240    -0.1280 C.3   1 <1>   0.0000 
 16 C       -4.3970     3.0180    -0.9690 C.3   1 <1>  -0.1600 
 17 C       -7.4200     0.8930     0.3970 C.3   1 <1>   0.2000 
 18 C       -5.8560     2.6800    -0.6250 C.3   1 <1>  -0.1600 
 19 C       -5.8230     0.1950    -1.2600 C.3   1 <1>  -0.1600 
 20 O       -8.3620     1.4720    -0.4530 O.3   1 <1>  -0.5600 
 21 C       -7.5310    -0.6350     0.2910 C.3   1 <1>  -0.1600 
 22 C       -6.5200    -1.0790    -0.7760 C.3   1 <1>  -0.1600 
 23 C       -9.6310     1.6600     0.0940 C.3   1 <1>   0.0400 
 24 H       -0.5730     0.3050     1.8440 H     1 <1>   0.0800 
 25 H       -0.8580     1.3920     0.5170 H     1 <1>   0.0800 
 26 H        0.7220    -2.5100     1.1290 H     1 <1>   0.1500 
 27 H        0.2630     0.0220    -2.2740 H     1 <1>   0.1500 
 28 H       -2.5280     1.6140     2.3900 H     1 <1>   0.0800 
 29 H       -2.9820    -0.0470     2.1140 H     1 <1>   0.0800 
 30 H        3.0610    -2.8980     0.5180 H     1 <1>   0.1500 
 31 H        2.6020    -0.3730    -2.8780 H     1 <1>   0.1500 
 32 H       -3.4370     0.7180    -0.2690 H     1 <1>   0.4500 
 33 H        4.0080    -1.8290    -1.4830 H     1 <1>   0.1500 
 34 H       -5.0650    -0.0720     1.3000 H     1 <1>   0.0800 
 35 H       -5.2700     1.5690     1.8600 H     1 <1>   0.0800 
 36 H       -3.6900     3.3530     1.0260 H     1 <1>   0.0800 
 37 H       -2.4380     2.9110    -0.1150 H     1 <1>   0.0800 
 38 H       -4.3260     4.0630    -1.2150 H     1 <1>   0.0800 
 39 H       -4.0860     2.4640    -1.8380 H     1 <1>   0.0800 
 40 H       -7.5810     1.2580     1.3980 H     1 <1>   0.0800 
 41 H       -6.4730     2.8430    -1.4940 H     1 <1>   0.0800 
 42 H       -6.2050     3.3530     0.1410 H     1 <1>   0.0800 
 43 H       -6.3430     0.5450    -2.1370 H     1 <1>   0.0800 
 44 H       -4.8000     0.0120    -1.5310 H     1 <1>   0.0800 
 45 H       -7.2690    -1.0830     1.2340 H     1 <1>   0.0800 
 46 H       -8.5270    -0.9480     0.0340 H     1 <1>   0.0800 
 47 H       -5.8050    -1.7630    -0.3500 H     1 <1>   0.0800 
 48 H       -7.0160    -1.5690    -1.5970 H     1 <1>   0.0800 
 49 H      -10.2610     2.0860    -0.6670 H     1 <1>   0.0800 
 50 H       -9.5630     2.3390     0.9270 H     1 <1>   0.0800 
 51 H      -10.0360     0.7150     0.4080 H     1 <1>   0.0800 
@<TRIPOS>BOND
  1   1   2  2   
  2   1   3  2   
  3   1   4  1   
  4   1   5  1   
  5   4   6  ar  
  6   4   7  ar  
  7   5   8  1   
  8   5  24  1   
  9   5  25  1   
 10   6   9  ar  
 11   6  26  1   
 12   7  10  ar  
 13   7  27  1   
 14   8  11  1   
 15   8  28  1   
 16   8  29  1   
 17   9  12  ar  
 18   9  30  1   
 19  10  12  ar  
 20  10  31  1   
 21  11  13  1   
 22  11  14  1   
 23  11  32  1   
 24  12  33  1   
 25  13  15  1   
 26  13  34  1   
 27  13  35  1   
 28  14  16  1   
 29  14  36  1   
 30  14  37  1   
 31  15  17  1   
 32  15  18  1   
 33  15  19  1   
 34  16  18  1   
 35  16  38  1   
 36  16  39  1   
 37  17  20  1   
 38  17  21  1   
 39  17  40  1   
 40  18  41  1   
 41  18  42  1   
 42  19  22  1   
 43  19  43  1   
 44  19  44  1   
 45  20  23  1   
 46  21  22  1   
 47  21  45  1   
 48  21  46  1   
 49  22  47  1   
 50  22  48  1   
 51  23  49  1   
 52  23  50  1   
 53  23  51  1   
@<TRIPOS>SUBSTRUCTURE
  1 ****  11 GROUP 4 **** **** 0

# MOE 2024.06 (io_trps.svl 2023.06)
