@<TRIPOS>MOLECULE
NONAME
46 48 1 0 0 
SMALL
USER_CHARGES


@<TRIPOS>ATOM
  1 CL       0.4670     0.3900     1.9360 Cl    1 <1>  -0.1770 
  2 C        1.6530    -0.6750     1.2270 C.ar  1 <1>   0.1770 
  3 C        2.6910    -0.1340     0.4960 C.ar  1 <1>  -0.1500 
  4 C        1.5250    -2.0370     1.4100 C.ar  1 <1>  -0.1500 
  5 C        3.6310    -0.9920    -0.0650 C.ar  1 <1>   0.0830 
  6 C        2.4510    -2.9130     0.8450 C.ar  1 <1>   0.0860 
  7 O        4.6890    -0.5680    -0.7970 O.3   1 <1>  -0.3630 
  8 C        3.5030    -2.3590     0.1180 C.ar  1 <1>  -0.1500 
  9 C        2.3310    -4.3490     1.0090 C.2   1 <1>   0.5440 
 10 C        4.9530     0.8050    -0.9850 C.3   1 <1>   0.0400 
 11 O        3.2930    -4.9960     1.3760 O.2   1 <1>  -0.5700 
 12 N        1.1500    -5.0030     0.7420 N.am  1 <1>  -0.6600 
 13 C        0.0880    -4.4890    -0.1630 C.3   1 <1>   0.1400 
 14 C        0.9700    -6.4600     0.9390 C.3   1 <1>   0.1400 
 15 C       -0.7880    -5.7000    -0.5190 C.3   1 <1>   0.2000 
 16 C        0.1180    -6.9060    -0.2490 C.3   1 <1>  -0.0800 
 17 O       -1.8870    -5.7600     0.3460 O.3   1 <1>  -0.5600 
 18 C       -0.6260    -8.2320    -0.0110 C.3   1 <1>   0.0200 
 19 C       -2.9960    -5.0150    -0.0480 C.3   1 <1>   0.0400 
 20 C        0.3050    -9.4300     0.0790 C.2   1 <1>  -0.0400 
 21 O       -0.2030   -10.6000     0.3620 O.3   1 <1>  -0.0190 
 22 C        1.6290    -9.5890    -0.0800 C.2   1 <1>  -0.1500 
 23 N        0.7070   -11.5310     0.4040 N.2   1 <1>  -0.4100 
 24 C        1.8220   -10.9490     0.1430 C.2   1 <1>   0.1080 
 25 C        3.1580   -11.6550     0.0880 C.3   1 <1>  -0.0590 
 26 H        2.7440     0.9310     0.3820 H     1 <1>   0.1500 
 27 H        0.7100    -2.4230     1.9960 H     1 <1>   0.1500 
 28 H        4.2420    -3.0130    -0.3130 H     1 <1>   0.1500 
 29 H        5.8510     0.8950    -1.5700 H     1 <1>   0.0800 
 30 H        5.0950     1.2690    -0.0250 H     1 <1>   0.0800 
 31 H        4.1290     1.2510    -1.5120 H     1 <1>   0.0800 
 32 H       -0.4880    -3.7190     0.3180 H     1 <1>   0.0800 
 33 H        0.5480    -4.0970    -1.0540 H     1 <1>   0.0800 
 34 H        1.9130    -6.9760     0.9740 H     1 <1>   0.0800 
 35 H        0.4420    -6.6200     1.8640 H     1 <1>   0.0800 
 36 H       -1.1360    -5.6790    -1.5380 H     1 <1>   0.0800 
 37 H        0.7700    -7.0210    -1.0970 H     1 <1>   0.0800 
 38 H       -1.3180    -8.4020    -0.8160 H     1 <1>   0.0800 
 39 H       -1.1960    -8.1720     0.9010 H     1 <1>   0.0800 
 40 H       -3.7590    -5.1320     0.7010 H     1 <1>   0.0800 
 41 H       -3.3580    -5.3880    -0.9910 H     1 <1>   0.0800 
 42 H       -2.7260    -3.9770    -0.1290 H     1 <1>   0.0800 
 43 H        2.3950    -8.8760    -0.3200 H     1 <1>   0.1500 
 44 H        3.8430   -11.1920     0.7740 H     1 <1>   0.0800 
 45 H        3.5580   -11.6010    -0.9070 H     1 <1>   0.0800 
 46 H        3.0380   -12.6880     0.3600 H     1 <1>   0.0800 
@<TRIPOS>BOND
  1   1   2  1   
  2   2   3  ar  
  3   2   4  ar  
  4   3   5  ar  
  5   3  26  1   
  6   4   6  ar  
  7   4  27  1   
  8   5   7  1   
  9   5   8  ar  
 10   6   8  ar  
 11   6   9  1   
 12   7  10  1   
 13   8  28  1   
 14   9  11  2   
 15   9  12  am  
 16  10  29  1   
 17  10  30  1   
 18  10  31  1   
 19  12  13  1   
 20  12  14  1   
 21  13  15  1   
 22  13  32  1   
 23  13  33  1   
 24  14  16  1   
 25  14  34  1   
 26  14  35  1   
 27  15  16  1   
 28  15  17  1   
 29  15  36  1   
 30  16  18  1   
 31  16  37  1   
 32  17  19  1   
 33  18  20  1   
 34  18  38  1   
 35  18  39  1   
 36  19  40  1   
 37  19  41  1   
 38  19  42  1   
 39  20  21  1   
 40  20  22  2   
 41  21  23  1   
 42  22  24  1   
 43  22  43  1   
 44  23  24  2   
 45  24  25  1   
 46  25  44  1   
 47  25  45  1   
 48  25  46  1   
@<TRIPOS>SUBSTRUCTURE
  1 ****  12 GROUP 4 **** **** 0

# MOE 2024.06 (io_trps.svl 2023.06)
