@<TRIPOS>MOLECULE
NONAME
55 59 1 0 0 
SMALL
USER_CHARGES


@<TRIPOS>ATOM
  1 S       -1.0610     0.3610     0.1020 S.3   1 <1>  -0.0800 
  2 C       -0.4020     1.6630     1.0920 C.2   1 <1>   0.0410 
  3 C       -2.0400    -0.2560     1.4220 C.2   1 <1>  -0.1400 
  4 C        0.5200     2.5900     0.4860 C.2   1 <1>   0.2880 
  5 C       -0.9200     1.5580     2.3420 C.2   1 <1>  -0.1500 
  6 C       -1.8420     0.4840     2.5290 C.2   1 <1>  -0.1500 
  7 C       -2.9210    -1.4440     1.1090 C.3   1 <1>   0.5230 
  8 N        0.7880     2.6380    -0.7970 N.2   1 <1>  -0.7070 
  9 C        1.2460     3.5650     1.1770 C.2   1 <1>  -0.1500 
 10 N       -3.7670    -1.0730    -0.0550 N.4   1 <1>  -0.9590 
 11 N        1.6850     3.6290    -0.9350 N.pl3 1 <1>   0.3000 
 12 C        1.9760     4.2070     0.2440 C.2   1 <1>  -0.3020 
 13 C       -4.7170     0.0380     0.2950 C.3   1 <1>   0.3430 
 14 C       -4.4770    -2.2350    -0.6530 C.3   1 <1>   0.3430 
 15 C       -5.4570     0.5590    -0.9460 C.3   1 <1>   0.1430 
 16 C       -5.1930    -1.7880    -1.9330 C.3   1 <1>  -0.1600 
 17 C       -6.4740     1.5730    -0.4880 C.ar  1 <1>   0.1670 
 18 C       -6.1500    -0.6070    -1.6850 C.3   1 <1>  -0.1600 
 19 C       -4.5430     1.3930    -1.8850 C.3   1 <1>  -0.1600 
 20 N       -7.3110     1.3810     0.4980 N.ar  1 <1>  -0.6200 
 21 C       -6.4040     2.7260    -1.2070 C.ar  1 <1>  -0.1430 
 22 C       -5.3370     2.6570    -2.2700 C.3   1 <1>  -0.0170 
 23 C       -8.1160     2.4160     0.7590 C.ar  1 <1>   0.7200 
 24 C       -7.2700     3.7340    -0.8680 C.ar  1 <1>   0.1600 
 25 N       -8.1260     3.5880     0.1160 N.ar  1 <1>  -0.6200 
 26 N       -9.0110     2.2600     1.7950 N.pl3 1 <1>  -0.8380 
 27 C       -9.7060     3.4270     2.4070 C.3   1 <1>   0.1290 
 28 C       -9.5190     0.9260     2.2170 C.3   1 <1>   0.1290 
 29 H       -0.6820     2.2230     3.1540 H     1 <1>   0.1500 
 30 H       -2.3100     0.3330     3.4890 H     1 <1>   0.1500 
 31 H       -3.5330    -1.6930     1.9600 H     1 <1>   0.0800 
 32 H       -2.3000    -2.2900     0.8630 H     1 <1>   0.0800 
 33 H        1.2090     3.7400     2.2370 H     1 <1>   0.1500 
 34 H       -3.1120    -0.6950    -0.7540 H     1 <1>   0.4500 
 35 H        2.0820     3.8880    -1.8480 H     1 <1>   0.2700 
 36 H        2.6700     5.0220     0.3470 H     1 <1>   0.1500 
 37 H       -4.1870     0.8590     0.7500 H     1 <1>   0.0800 
 38 H       -5.4470    -0.3160     1.0050 H     1 <1>   0.0800 
 39 H       -5.2010    -2.6210     0.0470 H     1 <1>   0.0800 
 40 H       -3.7760    -3.0200    -0.8900 H     1 <1>   0.0800 
 41 H       -5.7550    -2.6180    -2.3240 H     1 <1>   0.0800 
 42 H       -4.4610    -1.5250    -2.6770 H     1 <1>   0.0800 
 43 H       -6.5630    -0.2600    -2.6170 H     1 <1>   0.0800 
 44 H       -6.9760    -0.9530    -1.0840 H     1 <1>   0.0800 
 45 H       -4.2330     0.8530    -2.7620 H     1 <1>   0.0800 
 46 H       -3.6620     1.7090    -1.3520 H     1 <1>   0.0800 
 47 H       -5.7980     2.5420    -3.2370 H     1 <1>   0.0800 
 48 H       -4.7140     3.5360    -2.2670 H     1 <1>   0.0800 
 49 H       -7.2590     4.6680    -1.4030 H     1 <1>   0.1500 
 50 H       -9.0760     4.3000     2.3740 H     1 <1>   0.0800 
 51 H       -9.9430     3.2190     3.4360 H     1 <1>   0.0800 
 52 H      -10.6130     3.6310     1.8660 H     1 <1>   0.0800 
 53 H       -9.2950     0.1790     1.4770 H     1 <1>   0.0800 
 54 H      -10.5870     0.9640     2.3440 H     1 <1>   0.0800 
 55 H       -9.0620     0.6460     3.1500 H     1 <1>   0.0800 
@<TRIPOS>BOND
  1   1   2  1   
  2   1   3  1   
  3   2   4  1   
  4   2   5  2   
  5   3   6  2   
  6   3   7  1   
  7   4   8  2   
  8   4   9  1   
  9   5   6  1   
 10   5  29  1   
 11   6  30  1   
 12   7  10  1   
 13   7  31  1   
 14   7  32  1   
 15   8  11  1   
 16   9  12  2   
 17   9  33  1   
 18  10  13  1   
 19  10  14  1   
 20  10  34  1   
 21  11  12  1   
 22  11  35  1   
 23  12  36  1   
 24  13  15  1   
 25  13  37  1   
 26  13  38  1   
 27  14  16  1   
 28  14  39  1   
 29  14  40  1   
 30  15  17  1   
 31  15  18  1   
 32  15  19  1   
 33  16  18  1   
 34  16  41  1   
 35  16  42  1   
 36  17  20  ar  
 37  17  21  ar  
 38  18  43  1   
 39  18  44  1   
 40  19  22  1   
 41  19  45  1   
 42  19  46  1   
 43  20  23  ar  
 44  21  22  1   
 45  21  24  ar  
 46  22  47  1   
 47  22  48  1   
 48  23  25  ar  
 49  23  26  1   
 50  24  25  ar  
 51  24  49  1   
 52  26  27  1   
 53  26  28  1   
 54  27  50  1   
 55  27  51  1   
 56  27  52  1   
 57  28  53  1   
 58  28  54  1   
 59  28  55  1   
@<TRIPOS>SUBSTRUCTURE
  1 ****  13 GROUP 4 **** **** 0

# MOE 2024.06 (io_trps.svl 2023.06)
