@<TRIPOS>MOLECULE
NONAME
52 56 1 0 0 
SMALL
USER_CHARGES


@<TRIPOS>ATOM
  1 O       -0.5610    -2.5530    -2.5770 O.2   1 <1>  -0.5700 
  2 C        0.0000    -2.1800    -1.5760 C.2   1 <1>   0.5690 
  3 N        0.7540    -2.9470    -0.7650 N.am  1 <1>  -0.6600 
  4 C       -0.0840    -0.7730    -1.0520 C.3   1 <1>  -0.0990 
  5 C        1.2570    -2.2260     0.4150 C.3   1 <1>   0.1400 
  6 C        1.0110    -4.4130    -0.9300 C.3   1 <1>   0.2010 
  7 C        0.9120    -0.7590     0.1220 C.3   1 <1>  -0.1600 
  8 C        0.4820    -5.2590     0.2340 C.2   1 <1>   0.5690 
  9 O        1.3040    -5.6820     1.0160 O.2   1 <1>  -0.5700 
 10 N       -0.8590    -5.5250     0.3890 N.am  1 <1>  -0.6600 
 11 C       -1.9370    -5.0480    -0.5250 C.3   1 <1>   0.1400 
 12 C       -1.3730    -6.2820     1.5650 C.3   1 <1>   0.1400 
 13 C       -2.7300    -6.2510    -1.0350 C.3   1 <1>  -0.1600 
 14 C       -2.1670    -7.4950     1.0790 C.3   1 <1>  -0.1600 
 15 C       -3.2910    -7.0880     0.1220 C.3   1 <1>   0.4600 
 16 O       -4.1850    -6.2970     0.8750 O.3   1 <1>  -0.5600 
 17 C       -4.0230    -8.3220    -0.3930 C.2   1 <1>  -0.3320 
 18 C       -5.5020    -6.1480     0.3990 C.3   1 <1>   0.1200 
 19 N       -3.4620    -9.3930    -1.0320 N.pl3 1 <1>   0.0330 
 20 C       -5.3510    -8.5190    -0.2780 C.2   1 <1>  -0.1810 
 21 C       -6.2420    -7.4960     0.3810 C.3   1 <1>   0.0210 
 22 C       -4.4640   -10.2870    -1.3200 C.ar  1 <1>  -0.1520 
 23 C       -5.6690    -9.7650    -0.8550 C.ar  1 <1>   0.0000 
 24 C       -4.4220   -11.5300    -1.9580 C.ar  1 <1>  -0.1500 
 25 C       -6.8500   -10.4930    -1.0260 C.ar  1 <1>  -0.1500 
 26 C       -5.5920   -12.2350    -2.1200 C.ar  1 <1>  -0.1500 
 27 C       -6.8070   -11.7160    -1.6540 C.ar  1 <1>  -0.1500 
 28 H       -1.0870    -0.5850    -0.7160 H     1 <1>   0.0800 
 29 H        0.1880    -0.0690    -1.8180 H     1 <1>   0.0800 
 30 H        2.3190    -2.3690     0.5260 H     1 <1>   0.0800 
 31 H        0.7460    -2.5760     1.2960 H     1 <1>   0.0800 
 32 H        2.0710    -4.5670    -1.0060 H     1 <1>   0.0800 
 33 H        0.5700    -4.7580    -1.8480 H     1 <1>   0.0800 
 34 H        0.5020    -0.2750     0.9910 H     1 <1>   0.0800 
 35 H        1.8090    -0.2410    -0.1690 H     1 <1>   0.0800 
 36 H       -1.5360    -4.5110    -1.3630 H     1 <1>   0.0800 
 37 H       -2.5870    -4.3810     0.0160 H     1 <1>   0.0800 
 38 H       -2.0100    -5.6370     2.1480 H     1 <1>   0.0800 
 39 H       -0.5640    -6.6090     2.1950 H     1 <1>   0.0800 
 40 H       -2.0780    -6.8610    -1.6310 H     1 <1>   0.0800 
 41 H       -3.5260    -5.9230    -1.6750 H     1 <1>   0.0800 
 42 H       -2.5910    -8.0150     1.9180 H     1 <1>   0.0800 
 43 H       -1.4910    -8.1680     0.5860 H     1 <1>   0.0800 
 44 H       -5.4630    -5.7300    -0.5910 H     1 <1>   0.0800 
 45 H       -6.0080    -5.4550     1.0470 H     1 <1>   0.0800 
 46 H       -2.4710    -9.5270    -1.2520 H     1 <1>   0.2700 
 47 H       -7.1620    -7.3970    -0.1650 H     1 <1>   0.0800 
 48 H       -6.4670    -7.8040     1.3860 H     1 <1>   0.0800 
 49 H       -3.4850   -11.9220    -2.3120 H     1 <1>   0.1500 
 50 H       -7.7740   -10.0830    -0.6620 H     1 <1>   0.1500 
 51 H       -5.5860   -13.1940    -2.6080 H     1 <1>   0.1500 
 52 H       -7.7070   -12.2880    -1.7930 H     1 <1>   0.1500 
@<TRIPOS>BOND
  1   1   2  2   
  2   2   3  am  
  3   2   4  1   
  4   3   5  1   
  5   3   6  1   
  6   4   7  1   
  7   4  28  1   
  8   4  29  1   
  9   5   7  1   
 10   5  30  1   
 11   5  31  1   
 12   6   8  1   
 13   6  32  1   
 14   6  33  1   
 15   7  34  1   
 16   7  35  1   
 17   8   9  2   
 18   8  10  am  
 19  10  11  1   
 20  10  12  1   
 21  11  13  1   
 22  11  36  1   
 23  11  37  1   
 24  12  14  1   
 25  12  38  1   
 26  12  39  1   
 27  13  15  1   
 28  13  40  1   
 29  13  41  1   
 30  14  15  1   
 31  14  42  1   
 32  14  43  1   
 33  15  16  1   
 34  15  17  1   
 35  16  18  1   
 36  17  19  1   
 37  17  20  2   
 38  18  21  1   
 39  18  44  1   
 40  18  45  1   
 41  19  22  1   
 42  19  46  1   
 43  20  21  1   
 44  20  23  1   
 45  21  47  1   
 46  21  48  1   
 47  22  23  ar  
 48  22  24  ar  
 49  23  25  ar  
 50  24  26  ar  
 51  24  49  1   
 52  25  27  ar  
 53  25  50  1   
 54  26  27  ar  
 55  26  51  1   
 56  27  52  1   
@<TRIPOS>SUBSTRUCTURE
  1 ****  13 GROUP 4 **** **** 0

# MOE 2024.06 (io_trps.svl 2023.06)
