@<TRIPOS>MOLECULE
NONAME
46 49 1 0 0 
SMALL
USER_CHARGES


@<TRIPOS>ATOM
  1 O       -0.3800     1.4190     2.1840 O.2   1 <1>  -0.5700 
  2 C       -0.1180     2.3760     1.4800 C.2   1 <1>   0.6160 
  3 N       -1.1420     3.1160     0.9300 N.am  1 <1>  -0.6600 
  4 C        1.2620     2.7180     1.2380 C.2   1 <1>  -0.0140 
  5 C       -2.5760     2.8330     1.2380 C.3   1 <1>   0.1400 
  6 C       -0.9490     4.1840    -0.0900 C.3   1 <1>   0.1400 
  7 C        2.0570     1.9200     0.3320 C.ar  1 <1>   0.0280 
  8 C        1.8340     3.8010     1.8370 C.2   1 <1>  -0.1360 
  9 C       -3.3480     2.4070    -0.0360 C.3   1 <1>   0.0000 
 10 C       -1.6830     3.8040    -1.3800 C.3   1 <1>  -0.1600 
 11 C        3.3850     2.3110     0.0770 C.ar  1 <1>   0.1170 
 12 C        1.5780     0.7750    -0.3150 C.ar  1 <1>  -0.1500 
 13 C        3.1740     4.1850     1.5850 C.2   1 <1>   0.6160 
 14 C       -4.8400     2.1400     0.2500 C.3   1 <1>   0.2000 
 15 C       -3.1670     3.4880    -1.1250 C.3   1 <1>  -0.1600 
 16 C       -2.8740     1.0230    -0.5140 C.3   1 <1>  -0.1600 
 17 N        3.8960     3.4350     0.7140 N.am  1 <1>  -0.5470 
 18 C        4.1760     1.5790    -0.8050 C.ar  1 <1>  -0.1500 
 19 C        2.3710     0.0570    -1.1850 C.ar  1 <1>  -0.1500 
 20 O        3.6970     5.1560     2.0960 O.2   1 <1>  -0.5700 
 21 O       -5.3710     2.9950     1.2010 O.3   1 <1>  -0.6800 
 22 C       -4.9530     0.6890     0.7250 C.3   1 <1>  -0.1600 
 23 C       -3.6250     0.0150     0.3570 C.3   1 <1>  -0.1600 
 24 C        3.6740     0.4610    -1.4340 C.ar  1 <1>  -0.1500 
 25 H       -2.6590     2.0720     1.9940 H     1 <1>   0.0800 
 26 H       -3.0090     3.7340     1.6380 H     1 <1>   0.0800 
 27 H       -1.3460     5.1080     0.2950 H     1 <1>   0.0800 
 28 H        0.0940     4.3350    -0.3070 H     1 <1>   0.0800 
 29 H        1.2900     4.4180     2.5260 H     1 <1>   0.1500 
 30 H       -1.6060     4.6170    -2.0810 H     1 <1>   0.0800 
 31 H       -1.1950     2.9520    -1.8200 H     1 <1>   0.0800 
 32 H        0.5740     0.4360    -0.1300 H     1 <1>   0.1500 
 33 H       -5.4110     2.2640    -0.6560 H     1 <1>   0.0800 
 34 H       -3.6310     3.1740    -2.0430 H     1 <1>   0.0800 
 35 H       -3.6640     4.3880    -0.8030 H     1 <1>   0.0800 
 36 H       -3.1620     0.8740    -1.5400 H     1 <1>   0.0800 
 37 H       -1.8090     0.8930    -0.4370 H     1 <1>   0.0800 
 38 H        4.8570     3.7390     0.5670 H     1 <1>   0.3700 
 39 H        5.1870     1.8900    -0.9940 H     1 <1>   0.1500 
 40 H        1.9820    -0.8210    -1.6720 H     1 <1>   0.1500 
 41 H       -5.0710     2.7290     2.0900 H     1 <1>   0.4000 
 42 H       -5.1140     0.6230     1.7870 H     1 <1>   0.0800 
 43 H       -5.7670     0.2080     0.2130 H     1 <1>   0.0800 
 44 H       -3.0560    -0.1770     1.2520 H     1 <1>   0.0800 
 45 H       -3.7770    -0.9170    -0.1600 H     1 <1>   0.0800 
 46 H        4.2880    -0.1040    -2.1150 H     1 <1>   0.1500 
@<TRIPOS>BOND
  1   1   2  2   
  2   2   3  am  
  3   2   4  1   
  4   3   5  1   
  5   3   6  1   
  6   4   7  1   
  7   4   8  2   
  8   5   9  1   
  9   5  25  1   
 10   5  26  1   
 11   6  10  1   
 12   6  27  1   
 13   6  28  1   
 14   7  11  ar  
 15   7  12  ar  
 16   8  13  1   
 17   8  29  1   
 18   9  14  1   
 19   9  15  1   
 20   9  16  1   
 21  10  15  1   
 22  10  30  1   
 23  10  31  1   
 24  11  17  1   
 25  11  18  ar  
 26  12  19  ar  
 27  12  32  1   
 28  13  17  am  
 29  13  20  2   
 30  14  21  1   
 31  14  22  1   
 32  14  33  1   
 33  15  34  1   
 34  15  35  1   
 35  16  23  1   
 36  16  36  1   
 37  16  37  1   
 38  17  38  1   
 39  18  24  ar  
 40  18  39  1   
 41  19  24  ar  
 42  19  40  1   
 43  21  41  1   
 44  22  23  1   
 45  22  42  1   
 46  22  43  1   
 47  23  44  1   
 48  23  45  1   
 49  24  46  1   
@<TRIPOS>SUBSTRUCTURE
  1 ****   2 GROUP 4 **** **** 0

# MOE 2024.06 (io_trps.svl 2023.06)
