@<TRIPOS>MOLECULE
NONAME
48 51 1 0 0 
SMALL
USER_CHARGES


@<TRIPOS>ATOM
  1 S       -1.3480    -0.6170    -2.5270 S.3   1 <1>  -0.0800 
  2 C       -0.9170     0.9100    -1.8000 C.2   1 <1>   0.1980 
  3 C       -2.9650    -0.4020    -1.9430 C.2   1 <1>  -0.1100 
  4 N       -1.8710     1.4910    -1.1960 N.2   1 <1>  -0.5650 
  5 C        0.5120     1.3750    -1.9580 C.3   1 <1>  -0.0600 
  6 C       -3.0750     0.7590    -1.2590 C.2   1 <1>   0.1410 
  7 C       -4.3180     1.2380    -0.6540 C.2   1 <1>   0.7160 
  8 O       -5.3600     0.6610    -0.9130 O.2   1 <1>  -0.5700 
  9 N       -4.3500     2.2950     0.2340 N.am  1 <1>  -0.6600 
 10 C       -5.4700     3.3000     0.3020 C.3   1 <1>   0.2200 
 11 C       -3.4070     2.2800     1.3930 C.3   1 <1>   0.1400 
 12 C       -4.9940     4.7210     0.7360 C.3   1 <1>   0.1380 
 13 C       -6.3440     3.4100    -0.9620 C.3   1 <1>  -0.1600 
 14 C       -3.8430     3.2340     2.5120 C.3   1 <1>  -0.1600 
 15 C       -4.2470     5.5060    -0.3920 C.2   1 <1>  -0.2760 
 16 C       -6.3190     5.4290     1.1570 C.3   1 <1>   0.1200 
 17 C       -4.0530     4.6590     1.9740 C.3   1 <1>  -0.1600 
 18 C       -7.1950     4.6910    -0.9490 C.3   1 <1>   0.1200 
 19 C       -4.5110     6.7570    -0.8020 C.2   1 <1>  -0.2880 
 20 C       -3.1000     4.7670    -1.0910 C.3   1 <1>  -0.0220 
 21 O       -7.4390     5.0910     0.3670 O.3   1 <1>  -0.5600 
 22 C       -3.7730     7.4670    -1.9300 C.3   1 <1>   0.2580 
 23 C       -2.2210     5.7130    -1.9170 C.3   1 <1>   0.1200 
 24 O       -3.0250     6.5590    -2.6800 O.3   1 <1>  -0.5600 
 25 H       -3.6950    -1.1590    -2.1650 H     1 <1>   0.1500 
 26 H        0.6410     2.3240    -1.4710 H     1 <1>   0.0800 
 27 H        0.7460     1.4820    -3.0010 H     1 <1>   0.0800 
 28 H        1.1790     0.6590    -1.5150 H     1 <1>   0.0800 
 29 H       -6.1300     2.9440     1.0760 H     1 <1>   0.0800 
 30 H       -3.3400     1.2780     1.7820 H     1 <1>   0.0800 
 31 H       -2.4270     2.5670     1.0570 H     1 <1>   0.0800 
 32 H       -7.0110     2.5690    -1.0070 H     1 <1>   0.0800 
 33 H       -5.7420     3.4100    -1.8510 H     1 <1>   0.0800 
 34 H       -4.7480     2.8660     2.9640 H     1 <1>   0.0800 
 35 H       -3.0860     3.2480     3.2760 H     1 <1>   0.0800 
 36 H       -6.2240     6.4960     1.1780 H     1 <1>   0.0800 
 37 H       -6.5780     5.1220     2.1550 H     1 <1>   0.0800 
 38 H       -3.0890     5.0590     1.7140 H     1 <1>   0.0800 
 39 H       -4.4230     5.2820     2.7680 H     1 <1>   0.0800 
 40 H       -8.1430     4.5170    -1.4260 H     1 <1>   0.0800 
 41 H       -6.7000     5.4950    -1.4630 H     1 <1>   0.0800 
 42 H       -5.2710     7.3920    -0.3910 H     1 <1>   0.1500 
 43 H       -3.4900     4.0110    -1.7460 H     1 <1>   0.0800 
 44 H       -2.4620     4.2830    -0.3790 H     1 <1>   0.0800 
 45 H       -3.1100     8.2200    -1.5400 H     1 <1>   0.0800 
 46 H       -4.4740     7.9300    -2.6020 H     1 <1>   0.0800 
 47 H       -1.5960     5.1520    -2.5890 H     1 <1>   0.0800 
 48 H       -1.6010     6.3170    -1.2770 H     1 <1>   0.0800 
@<TRIPOS>BOND
  1   1   2  1   
  2   1   3  1   
  3   2   4  2   
  4   2   5  1   
  5   3   6  2   
  6   3  25  1   
  7   4   6  1   
  8   5  26  1   
  9   5  27  1   
 10   5  28  1   
 11   6   7  1   
 12   7   8  2   
 13   7   9  am  
 14   9  10  1   
 15   9  11  1   
 16  10  12  1   
 17  10  13  1   
 18  10  29  1   
 19  11  14  1   
 20  11  30  1   
 21  11  31  1   
 22  12  15  1   
 23  12  16  1   
 24  12  17  1   
 25  13  18  1   
 26  13  32  1   
 27  13  33  1   
 28  14  17  1   
 29  14  34  1   
 30  14  35  1   
 31  15  19  2   
 32  15  20  1   
 33  16  21  1   
 34  16  36  1   
 35  16  37  1   
 36  17  38  1   
 37  17  39  1   
 38  18  21  1   
 39  18  40  1   
 40  18  41  1   
 41  19  22  1   
 42  19  42  1   
 43  20  23  1   
 44  20  43  1   
 45  20  44  1   
 46  22  24  1   
 47  22  45  1   
 48  22  46  1   
 49  23  24  1   
 50  23  47  1   
 51  23  48  1   
@<TRIPOS>SUBSTRUCTURE
  1 ****   9 GROUP 4 **** **** 0

# MOE 2024.06 (io_trps.svl 2023.06)
