@<TRIPOS>MOLECULE
NONAME
47 49 1 0 0 
SMALL
USER_CHARGES


@<TRIPOS>ATOM
  1 O        0.2220    -0.0610     1.5420 O.2   1 <1>  -0.5750 
  2 C        0.9620    -1.0110     1.5290 C.2   1 <1>   0.8490 
  3 N        1.7840    -1.2190     0.4650 N.pl3 1 <1>  -0.7330 
  4 C        0.9420    -1.9490     2.7470 C.3   1 <1>  -0.0280 
  5 C        1.9010    -0.4550    -0.6240 C.cat 1 <1>   1.0690 
  6 C        2.3140    -2.5690     3.1120 C.3   1 <1>  -0.1680 
  7 C       -0.1480    -3.0460     2.6180 C.3   1 <1>  -0.1680 
  8 N        1.0790     0.5240    -0.9550 N.pl3 1 <1>  -0.7040 
  9 N        2.8620    -0.5480    -1.5470 N.pl3 1 <1>  -0.7670 
 10 C        2.7560    -3.7180     2.1900 C.3   1 <1>   0.1320 
 11 C        0.3780    -4.4080     2.1430 C.3   1 <1>   0.1320 
 12 C        1.4950     1.0770    -2.1400 C.2   1 <1>   0.1930 
 13 C        2.6010     0.4100    -2.5110 C.2   1 <1>   0.1930 
 14 C        4.0430    -1.4500    -1.6020 C.3   1 <1>   0.2670 
 15 N        1.6140    -4.1870     1.3530 N.am  1 <1>  -0.6640 
 16 C        1.7030    -4.3050    -0.0090 C.2   1 <1>   0.5640 
 17 O        2.6020    -3.7330    -0.5830 O.2   1 <1>  -0.5750 
 18 C        0.6370    -5.0330    -0.8340 C.3   1 <1>  -0.0280 
 19 C        1.1140    -5.5870    -2.1810 C.3   1 <1>  -0.1680 
 20 C       -0.5390    -4.1330    -1.2290 C.3   1 <1>  -0.1680 
 21 C       -0.1680    -5.8140    -2.9800 C.3   1 <1>  -0.1680 
 22 C       -1.1970    -4.8220    -2.4270 C.3   1 <1>  -0.1680 
 23 H        2.2250    -2.1420     0.3980 H     1 <1>   0.4440 
 24 H        0.6570    -1.3250     3.5760 H     1 <1>   0.0720 
 25 H        2.2460    -2.9650     4.1110 H     1 <1>   0.0720 
 26 H        3.0770    -1.8110     3.1380 H     1 <1>   0.0720 
 27 H       -0.9250    -2.7140     1.9510 H     1 <1>   0.0720 
 28 H       -0.6150    -3.1950     3.5770 H     1 <1>   0.0720 
 29 H        0.2970     0.7860    -0.3430 H     1 <1>   0.4440 
 30 H        3.1130    -4.5420     2.7860 H     1 <1>   0.0720 
 31 H        3.5760    -3.3960     1.5710 H     1 <1>   0.0720 
 32 H       -0.3800    -4.9220     1.5810 H     1 <1>   0.0720 
 33 H        0.6220    -5.0210     2.9950 H     1 <1>   0.0720 
 34 H        0.9820     1.8940    -2.6270 H     1 <1>   0.1420 
 35 H        3.2180     0.5500    -3.3860 H     1 <1>   0.1420 
 36 H        4.2770    -1.8330    -0.6240 H     1 <1>   0.0720 
 37 H        4.9000    -0.9110    -1.9680 H     1 <1>   0.0720 
 38 H        3.8440    -2.2750    -2.2660 H     1 <1>   0.0720 
 39 H        0.2640    -5.8690    -0.2690 H     1 <1>   0.0720 
 40 H        1.6850    -6.4920    -2.0650 H     1 <1>   0.0720 
 41 H        1.7160    -4.8550    -2.6920 H     1 <1>   0.0720 
 42 H       -0.1650    -3.1730    -1.5410 H     1 <1>   0.0720 
 43 H       -1.2360    -3.9940    -0.4220 H     1 <1>   0.0720 
 44 H       -0.5190    -6.8200    -2.8190 H     1 <1>   0.0720 
 45 H       -0.0020    -5.6700    -4.0340 H     1 <1>   0.0720 
 46 H       -1.4770    -4.0990    -3.1740 H     1 <1>   0.0720 
 47 H       -2.0790    -5.3540    -2.1140 H     1 <1>   0.0720 
@<TRIPOS>BOND
  1   1   2  2   
  2   2   3  1   
  3   2   4  1   
  4   3   5  ar  
  5   3  23  1   
  6   4   6  1   
  7   4   7  1   
  8   4  24  1   
  9   5   8  ar  
 10   5   9  ar  
 11   6  10  1   
 12   6  25  1   
 13   6  26  1   
 14   7  11  1   
 15   7  27  1   
 16   7  28  1   
 17   8  12  1   
 18   8  29  1   
 19   9  13  1   
 20   9  14  1   
 21  10  15  1   
 22  10  30  1   
 23  10  31  1   
 24  11  15  1   
 25  11  32  1   
 26  11  33  1   
 27  12  13  2   
 28  12  34  1   
 29  13  35  1   
 30  14  36  1   
 31  14  37  1   
 32  14  38  1   
 33  15  16  am  
 34  16  17  2   
 35  16  18  1   
 36  18  19  1   
 37  18  20  1   
 38  18  39  1   
 39  19  21  1   
 40  19  40  1   
 41  19  41  1   
 42  20  22  1   
 43  20  42  1   
 44  20  43  1   
 45  21  22  1   
 46  21  44  1   
 47  21  45  1   
 48  22  46  1   
 49  22  47  1   
@<TRIPOS>SUBSTRUCTURE
  1 ****   3 GROUP 4 **** **** 0

# MOE 2024.06 (io_trps.svl 2023.06)
