@<TRIPOS>MOLECULE
NONAME
51 53 1 0 0 
SMALL
USER_CHARGES


@<TRIPOS>ATOM
  1 O        0.7060    -1.1610     0.6330 O.3   1 <1>  -0.3630 
  2 C        0.4070    -2.3340     0.0550 C.ar  1 <1>   0.7020 
  3 C        1.8850    -0.9710     1.3910 C.3   1 <1>   0.0400 
  4 N        1.2370    -3.3600     0.2360 N.ar  1 <1>  -0.6200 
  5 N       -0.7160    -2.3360    -0.6490 N.ar  1 <1>  -0.6200 
  6 C        0.8930    -4.4810    -0.3480 C.ar  1 <1>   0.1600 
  7 C       -1.0320    -3.4680    -1.2250 C.ar  1 <1>   0.1600 
  8 C       -0.2580    -4.5980    -1.0920 C.ar  1 <1>  -0.1440 
  9 C       -0.6710    -5.9060    -1.7320 C.3   1 <1>   0.4870 
 10 N       -1.2000    -6.8540    -0.7060 N.4   1 <1>  -0.9590 
 11 C       -1.7280    -8.0990    -1.3610 C.3   1 <1>   0.3430 
 12 C       -2.1950    -6.2360     0.2230 C.3   1 <1>   0.3430 
 13 C       -2.1130    -9.1930    -0.3420 C.3   1 <1>   0.0000 
 14 C       -2.5910    -7.2350     1.3050 C.3   1 <1>  -0.1600 
 15 C       -3.0770    -8.5430     0.6850 C.3   1 <1>   0.2000 
 16 C       -2.9260   -10.2720    -1.0940 C.3   1 <1>   0.1200 
 17 C       -0.8510    -9.8880     0.2730 C.3   1 <1>  -0.0170 
 18 O       -3.3930    -9.4220     1.7000 O.3   1 <1>  -0.6800 
 19 O       -2.2750   -10.6100    -2.2740 O.3   1 <1>  -0.6800 
 20 C        0.3770    -9.0120     0.5040 C.ar  1 <1>  -0.1440 
 21 C        1.2740    -8.7990    -0.5350 C.ar  1 <1>  -0.1500 
 22 C        0.6340    -8.4460     1.7430 C.ar  1 <1>  -0.1500 
 23 C        2.3920    -8.0060    -0.3470 C.ar  1 <1>  -0.1500 
 24 C        1.7480    -7.6460     1.9300 C.ar  1 <1>  -0.1500 
 25 C        2.6270    -7.4260     0.8860 C.ar  1 <1>  -0.1500 
 26 H        1.9010     0.0470     1.7370 H     1 <1>   0.0800 
 27 H        2.7380    -1.1620     0.7640 H     1 <1>   0.0800 
 28 H        1.8740    -1.6460     2.2290 H     1 <1>   0.0800 
 29 H        1.5510    -5.3220    -0.2210 H     1 <1>   0.1500 
 30 H       -1.9380    -3.4800    -1.8090 H     1 <1>   0.1500 
 31 H        0.1790    -6.3460    -2.2300 H     1 <1>   0.0800 
 32 H       -1.4290    -5.7130    -2.4740 H     1 <1>   0.0800 
 33 H       -0.3920    -7.1610    -0.1300 H     1 <1>   0.4500 
 34 H       -2.5990    -7.8530    -1.9470 H     1 <1>   0.0800 
 35 H       -0.9900    -8.5060    -2.0330 H     1 <1>   0.0800 
 36 H       -1.7750    -5.3600     0.6930 H     1 <1>   0.0800 
 37 H       -3.0710    -5.9360    -0.3280 H     1 <1>   0.0800 
 38 H       -3.3890    -6.8050     1.8840 H     1 <1>   0.0800 
 39 H       -1.7630    -7.3930     1.9650 H     1 <1>   0.0800 
 40 H       -4.0080    -8.3290     0.1840 H     1 <1>   0.0800 
 41 H       -3.9090    -9.9160    -1.3580 H     1 <1>   0.0800 
 42 H       -3.0340   -11.1600    -0.4910 H     1 <1>   0.0800 
 43 H       -1.1050   -10.3910     1.1890 H     1 <1>   0.0800 
 44 H       -0.5300   -10.6740    -0.3900 H     1 <1>   0.0800 
 45 H       -2.6620    -9.5210     2.3410 H     1 <1>   0.4000 
 46 H       -2.6990   -11.3900    -2.6940 H     1 <1>   0.4000 
 47 H        1.1190    -9.2660    -1.4940 H     1 <1>   0.1500 
 48 H       -0.0140    -8.6360     2.5810 H     1 <1>   0.1500 
 49 H        3.0920    -7.8540    -1.1520 H     1 <1>   0.1500 
 50 H        1.9430    -7.2070     2.8950 H     1 <1>   0.1500 
 51 H        3.5020    -6.8140     1.0400 H     1 <1>   0.1500 
@<TRIPOS>BOND
  1   1   2  1   
  2   1   3  1   
  3   2   4  ar  
  4   2   5  ar  
  5   3  26  1   
  6   3  27  1   
  7   3  28  1   
  8   4   6  ar  
  9   5   7  ar  
 10   6   8  ar  
 11   6  29  1   
 12   7   8  ar  
 13   7  30  1   
 14   8   9  1   
 15   9  10  1   
 16   9  31  1   
 17   9  32  1   
 18  10  11  1   
 19  10  12  1   
 20  10  33  1   
 21  11  13  1   
 22  11  34  1   
 23  11  35  1   
 24  12  14  1   
 25  12  36  1   
 26  12  37  1   
 27  13  15  1   
 28  13  16  1   
 29  13  17  1   
 30  14  15  1   
 31  14  38  1   
 32  14  39  1   
 33  15  18  1   
 34  15  40  1   
 35  16  19  1   
 36  16  41  1   
 37  16  42  1   
 38  17  20  1   
 39  17  43  1   
 40  17  44  1   
 41  18  45  1   
 42  19  46  1   
 43  20  21  ar  
 44  20  22  ar  
 45  21  23  ar  
 46  21  47  1   
 47  22  24  ar  
 48  22  48  1   
 49  23  25  ar  
 50  23  49  1   
 51  24  25  ar  
 52  24  50  1   
 53  25  51  1   
@<TRIPOS>SUBSTRUCTURE
  1 ****  10 GROUP 4 **** **** 0

# MOE 2024.06 (io_trps.svl 2023.06)
