@<TRIPOS>MOLECULE
NONAME
49 52 1 0 0 
SMALL
USER_CHARGES


@<TRIPOS>ATOM
  1 O       -0.7580     0.4300    -1.8180 O.co2 1 <1>  -0.9000 
  2 C       -1.1700     0.6730    -0.6800 C.2   1 <1>   0.9060 
  3 O       -1.8670    -0.1140    -0.0330 O.co2 1 <1>  -0.9000 
  4 C       -0.8320     2.0140    -0.0600 C.3   1 <1>  -0.1060 
  5 C       -2.1350     2.6090     0.5080 C.3   1 <1>   0.2000 
  6 C       -0.4230     2.9050    -1.2400 C.3   1 <1>   0.3430 
  7 C        0.2770     1.7900     1.0220 C.3   1 <1>  -0.0170 
  8 O       -2.4780     1.9320     1.6560 O.3   1 <1>  -0.6800 
  9 C       -2.0590     4.1140     0.8210 C.3   1 <1>  -0.1600 
 10 N       -0.3060     4.3680    -0.9150 N.4   1 <1>  -0.9590 
 11 C        1.6980     2.1400     0.5890 C.ar  1 <1>  -0.1440 
 12 C       -0.7010     4.7250     0.4800 C.3   1 <1>   0.3430 
 13 C        1.0860     4.8420    -1.2380 C.3   1 <1>   0.5240 
 14 C        2.2850     1.4990    -0.4920 C.ar  1 <1>  -0.1500 
 15 C        2.4220     3.0990     1.2830 C.ar  1 <1>  -0.1500 
 16 C        1.2080     6.3680    -1.2080 C.2   1 <1>   0.3350 
 17 C        3.5590     1.8450    -0.9040 C.ar  1 <1>  -0.1500 
 18 C        3.6980     3.4460     0.8720 C.ar  1 <1>  -0.1500 
 19 N        0.2580     7.1790    -1.4640 N.2   1 <1>  -0.4100 
 20 N        2.3450     6.9700    -0.8920 N.2   1 <1>  -0.5650 
 21 C        4.2640     2.8250    -0.2270 C.ar  1 <1>  -0.1500 
 22 O        0.7360     8.3800    -1.3310 O.3   1 <1>  -0.0190 
 23 C        1.9870     8.1900    -0.9880 C.2   1 <1>   0.3930 
 24 C        2.8660     9.4070    -0.7450 C.3   1 <1>  -0.0150 
 25 C        4.0330     9.3600     0.1950 C.3   1 <1>  -0.2000 
 26 C        2.8040    10.1370     0.5630 C.3   1 <1>  -0.2000 
 27 H       -2.9360     2.4410    -0.1960 H     1 <1>   0.0800 
 28 H       -1.1720     2.7820    -2.0070 H     1 <1>   0.0800 
 29 H        0.4940     2.5320    -1.6620 H     1 <1>   0.0800 
 30 H        0.0420     2.3530     1.9070 H     1 <1>   0.0800 
 31 H        0.2670     0.7580     1.3340 H     1 <1>   0.0800 
 32 H       -2.4870     0.9640     1.4120 H     1 <1>   0.4000 
 33 H       -2.8170     4.6240     0.2550 H     1 <1>   0.0800 
 34 H       -2.2650     4.2890     1.8620 H     1 <1>   0.0800 
 35 H       -0.9320     4.8830    -1.5470 H     1 <1>   0.4500 
 36 H        0.0360     4.3500     1.1700 H     1 <1>   0.0800 
 37 H       -0.7480     5.7970     0.5910 H     1 <1>   0.0800 
 38 H        1.7880     4.4290    -0.5380 H     1 <1>   0.0800 
 39 H        1.3680     4.5010    -2.2190 H     1 <1>   0.0800 
 40 H        1.7500     0.7210    -1.0190 H     1 <1>   0.1500 
 41 H        2.0040     3.5800     2.1500 H     1 <1>   0.1500 
 42 H        4.0030     1.3430    -1.7470 H     1 <1>   0.1500 
 43 H        4.2550     4.1940     1.4110 H     1 <1>   0.1500 
 44 H        5.2570     3.0910    -0.5460 H     1 <1>   0.1500 
 45 H        2.9800     9.9990    -1.6360 H     1 <1>   0.1000 
 46 H        4.2430     8.4430     0.7180 H     1 <1>   0.1000 
 47 H        4.9280     9.8970    -0.0690 H     1 <1>   0.1000 
 48 H        2.8490    11.2120     0.5560 H     1 <1>   0.1000 
 49 H        2.1730     9.7550     1.3460 H     1 <1>   0.1000 
@<TRIPOS>BOND
  1   1   2  ar  
  2   2   3  ar  
  3   2   4  1   
  4   4   5  1   
  5   4   6  1   
  6   4   7  1   
  7   5   8  1   
  8   5   9  1   
  9   5  27  1   
 10   6  10  1   
 11   6  28  1   
 12   6  29  1   
 13   7  11  1   
 14   7  30  1   
 15   7  31  1   
 16   8  32  1   
 17   9  12  1   
 18   9  33  1   
 19   9  34  1   
 20  10  12  1   
 21  10  13  1   
 22  10  35  1   
 23  11  14  ar  
 24  11  15  ar  
 25  12  36  1   
 26  12  37  1   
 27  13  16  1   
 28  13  38  1   
 29  13  39  1   
 30  14  17  ar  
 31  14  40  1   
 32  15  18  ar  
 33  15  41  1   
 34  16  19  2   
 35  16  20  1   
 36  17  21  ar  
 37  17  42  1   
 38  18  21  ar  
 39  18  43  1   
 40  19  22  1   
 41  20  23  2   
 42  21  44  1   
 43  22  23  1   
 44  23  24  1   
 45  24  25  1   
 46  24  26  1   
 47  24  45  1   
 48  25  26  1   
 49  25  46  1   
 50  25  47  1   
 51  26  48  1   
 52  26  49  1   
@<TRIPOS>SUBSTRUCTURE
  1 ****  13 GROUP 4 **** **** 0

# MOE 2024.06 (io_trps.svl 2023.06)
