@<TRIPOS>MOLECULE
NONAME
39 41 1 0 0 
SMALL
USER_CHARGES


@<TRIPOS>ATOM
  1 O       -0.2010    -0.9930     1.8450 O.co2 1 <1>  -0.9000 
  2 C       -0.3540    -1.4620     0.7040 C.2   1 <1>   1.0330 
  3 O       -1.3720    -1.1370     0.0630 O.co2 1 <1>  -0.9000 
  4 C        0.6700    -2.2490     0.0960 C.2   1 <1>  -0.2330 
  5 C        0.6160    -3.6170    -0.1880 C.2   1 <1>   0.3720 
  6 C        1.9070    -1.8740    -0.3240 C.2   1 <1>   0.0870 
  7 N        1.7210    -4.0140    -0.7230 N.2   1 <1>  -0.4100 
  8 N       -0.4660    -4.4750     0.0740 N.pl3 1 <1>  -0.8210 
  9 O        2.4820    -2.9550    -0.7970 O.3   1 <1>  -0.0190 
 10 C        2.6230    -0.6160    -0.3460 C.ar  1 <1>   0.0530 
 11 C       -0.3030    -5.9250    -0.1530 C.3   1 <1>   0.2890 
 12 C       -1.7760    -4.0320    -0.4710 C.3   1 <1>   0.2090 
 13 C        3.9860    -0.5730    -0.6550 C.ar  1 <1>  -0.1500 
 14 C        2.0050     0.6070    -0.0730 C.ar  1 <1>  -0.1500 
 15 C       -1.7110    -6.4380    -0.4320 C.3   1 <1>  -0.1600 
 16 C        0.3180    -6.5680     1.0830 C.3   1 <1>  -0.2400 
 17 C       -2.4020    -5.2650    -1.1130 C.3   1 <1>  -0.1600 
 18 C        4.6890     0.6170    -0.6900 C.ar  1 <1>  -0.1500 
 19 C        2.7000     1.8020    -0.1030 C.ar  1 <1>  -0.1500 
 20 C        4.0550     1.8160    -0.4150 C.ar  1 <1>   0.0820 
 21 O        4.8090     2.9410    -0.4660 O.3   1 <1>  -0.3630 
 22 C        4.2580     4.2030    -0.1630 C.3   1 <1>   0.0400 
 23 H        0.3160    -6.0920    -1.0190 H     1 <1>   0.0800 
 24 H       -1.6560    -3.2460    -1.1980 H     1 <1>   0.0800 
 25 H       -2.3840    -3.6680     0.3410 H     1 <1>   0.0800 
 26 H        4.5050    -1.4890    -0.8690 H     1 <1>   0.1500 
 27 H        0.9580     0.6330     0.1720 H     1 <1>   0.1500 
 28 H       -2.2080    -6.6560     0.4970 H     1 <1>   0.0800 
 29 H       -1.6990    -7.3210    -1.0450 H     1 <1>   0.0800 
 30 H       -0.2760    -6.3500     1.9520 H     1 <1>   0.0800 
 31 H        1.3080    -6.1770     1.2300 H     1 <1>   0.0800 
 32 H        0.3830    -7.6320     0.9540 H     1 <1>   0.0800 
 33 H       -2.1710    -5.2590    -2.1630 H     1 <1>   0.0800 
 34 H       -3.4690    -5.2780    -0.9830 H     1 <1>   0.0800 
 35 H        5.7360     0.6240    -0.9300 H     1 <1>   0.1500 
 36 H        2.1640     2.7050     0.1210 H     1 <1>   0.1500 
 37 H        5.0360     4.9380    -0.2540 H     1 <1>   0.0800 
 38 H        3.8840     4.1860     0.8460 H     1 <1>   0.0800 
 39 H        3.4690     4.4150    -0.8620 H     1 <1>   0.0800 
@<TRIPOS>BOND
  1   1   2  ar  
  2   2   3  ar  
  3   2   4  1   
  4   4   5  1   
  5   4   6  2   
  6   5   7  2   
  7   5   8  1   
  8   6   9  1   
  9   6  10  1   
 10   7   9  1   
 11   8  11  1   
 12   8  12  1   
 13  10  13  ar  
 14  10  14  ar  
 15  11  15  1   
 16  11  16  1   
 17  11  23  1   
 18  12  17  1   
 19  12  24  1   
 20  12  25  1   
 21  13  18  ar  
 22  13  26  1   
 23  14  19  ar  
 24  14  27  1   
 25  15  17  1   
 26  15  28  1   
 27  15  29  1   
 28  16  30  1   
 29  16  31  1   
 30  16  32  1   
 31  17  33  1   
 32  17  34  1   
 33  18  20  ar  
 34  18  35  1   
 35  19  20  ar  
 36  19  36  1   
 37  20  21  1   
 38  21  22  1   
 39  22  37  1   
 40  22  38  1   
 41  22  39  1   
@<TRIPOS>SUBSTRUCTURE
  1 ****   6 GROUP 4 **** **** 0

# MOE 2024.06 (io_trps.svl 2023.06)
