@<TRIPOS>MOLECULE
NONAME
47 47 1 0 0 
SMALL
USER_CHARGES


@<TRIPOS>ATOM
  1 O        2.6930    -1.0150     2.2350 O.2   1 <1>  -0.5700 
  2 C        2.4860    -1.0600     1.0420 C.2   1 <1>   0.5690 
  3 N        2.3530     0.0520     0.2630 N.am  1 <1>  -0.4930 
  4 C        2.3870    -2.4300     0.3310 C.3   1 <1>   0.2810 
  5 C        2.4570     1.4380     0.5470 C.2   1 <1>   0.0630 
  6 N        1.1540    -2.5550    -0.5050 N.am  1 <1>  -0.7300 
  7 C        2.4500    -3.6330     1.2940 C.3   1 <1>  -0.1600 
  8 C        2.1360     2.1730     1.6940 C.2   1 <1>   0.1080 
  9 C        2.8960     2.3610    -0.3380 C.2   1 <1>  -0.3320 
 10 C        0.9930    -1.9970    -1.7250 C.2   1 <1>   0.5690 
 11 C        2.4740    -4.9970     0.5800 C.3   1 <1>  -0.1600 
 12 N        2.3630     3.4410     1.5420 N.2   1 <1>  -0.7070 
 13 C        1.5680     1.6360     2.9880 C.3   1 <1>  -0.0590 
 14 N        2.8340     3.5620     0.2890 N.pl3 1 <1>   0.3140 
 15 C        3.3800     2.1620    -1.7690 C.3   1 <1>  -0.0600 
 16 O        1.8290    -1.2720    -2.2040 O.2   1 <1>  -0.5700 
 17 C       -0.2790    -2.2720    -2.4810 C.3   1 <1>  -0.1790 
 18 C        2.6160    -6.1400     1.5890 C.3   1 <1>  -0.2400 
 19 C        3.2080     4.8830    -0.2540 C.3   1 <1>   0.0960 
 20 C        2.0220     5.5370    -0.9780 C.3   1 <1>  -0.1600 
 21 C        2.4030     6.9040    -1.5580 C.3   1 <1>  -0.2400 
 22 H        2.2140    -0.1520    -0.7350 H     1 <1>   0.3700 
 23 H        3.2390    -2.4920    -0.3250 H     1 <1>   0.0800 
 24 H        0.4060    -3.1100    -0.0880 H     1 <1>   0.3700 
 25 H        1.6200    -3.5840     1.9770 H     1 <1>   0.0800 
 26 H        3.3480    -3.5420     1.8810 H     1 <1>   0.0800 
 27 H        3.3010    -5.0300    -0.1090 H     1 <1>   0.0800 
 28 H        1.5680    -5.1420     0.0170 H     1 <1>   0.0800 
 29 H        0.8590     0.8550     2.7840 H     1 <1>   0.0800 
 30 H        1.0730     2.4230     3.5250 H     1 <1>   0.0800 
 31 H        2.3640     1.2460     3.5940 H     1 <1>   0.0800 
 32 H        3.3470     1.1230    -2.0440 H     1 <1>   0.0800 
 33 H        4.3940     2.5030    -1.8680 H     1 <1>   0.0800 
 34 H        2.7560     2.7100    -2.4520 H     1 <1>   0.0800 
 35 H       -0.4420    -3.3310    -2.5490 H     1 <1>   0.0800 
 36 H       -0.2060    -1.8670    -3.4730 H     1 <1>   0.0800 
 37 H       -1.1070    -1.8110    -1.9760 H     1 <1>   0.0800 
 38 H        3.5310    -6.0400     2.1460 H     1 <1>   0.0800 
 39 H        2.6320    -7.0850     1.0750 H     1 <1>   0.0800 
 40 H        1.7900    -6.1400     2.2780 H     1 <1>   0.0800 
 41 H        4.0380     4.7590    -0.9240 H     1 <1>   0.0800 
 42 H        3.5220     5.5020     0.5670 H     1 <1>   0.0800 
 43 H        1.2120     5.6610    -0.2780 H     1 <1>   0.0800 
 44 H        1.6860     4.8950    -1.7740 H     1 <1>   0.0800 
 45 H        2.7200     7.5700    -0.7740 H     1 <1>   0.0800 
 46 H        1.5540     7.3410    -2.0530 H     1 <1>   0.0800 
 47 H        3.2010     6.8030    -2.2720 H     1 <1>   0.0800 
@<TRIPOS>BOND
  1   1   2  2   
  2   2   3  am  
  3   2   4  1   
  4   3   5  1   
  5   3  22  1   
  6   4   6  1   
  7   4   7  1   
  8   4  23  1   
  9   5   8  1   
 10   5   9  2   
 11   6  10  am  
 12   6  24  1   
 13   7  11  1   
 14   7  25  1   
 15   7  26  1   
 16   8  12  2   
 17   8  13  1   
 18   9  14  1   
 19   9  15  1   
 20  10  16  2   
 21  10  17  1   
 22  11  18  1   
 23  11  27  1   
 24  11  28  1   
 25  12  14  1   
 26  13  29  1   
 27  13  30  1   
 28  13  31  1   
 29  14  19  1   
 30  15  32  1   
 31  15  33  1   
 32  15  34  1   
 33  17  35  1   
 34  17  36  1   
 35  17  37  1   
 36  18  38  1   
 37  18  39  1   
 38  18  40  1   
 39  19  20  1   
 40  19  41  1   
 41  19  42  1   
 42  20  21  1   
 43  20  43  1   
 44  20  44  1   
 45  21  45  1   
 46  21  46  1   
 47  21  47  1   
@<TRIPOS>SUBSTRUCTURE
  1 ****   3 GROUP 4 **** **** 0

# MOE 2024.06 (io_trps.svl 2023.06)
