@<TRIPOS>MOLECULE
NONAME
50 52 1 0 0 
SMALL
USER_CHARGES


@<TRIPOS>ATOM
  1 F       -1.2390    -0.1930    -1.2120 F     1 <1>  -0.1900 
  2 C       -2.2990     0.3530    -0.6660 C.ar  1 <1>   0.1900 
  3 C       -2.7310     1.5920    -1.1190 C.ar  1 <1>   0.0830 
  4 C       -2.9520    -0.3250     0.3440 C.ar  1 <1>  -0.1500 
  5 O       -2.0840     2.2430    -2.1040 O.3   1 <1>  -0.5330 
  6 C       -3.8490     2.1620    -0.5360 C.ar  1 <1>  -0.1500 
  7 C       -4.0780     0.2480     0.9230 C.ar  1 <1>  -0.1440 
  8 C       -4.5150     1.4920     0.4800 C.ar  1 <1>  -0.1500 
  9 C       -4.8140    -0.4840     2.0420 C.3   1 <1>   0.0440 
 10 C       -5.1710    -1.9210     1.6770 C.2   1 <1>   0.5690 
 11 O       -4.6660    -2.8020     2.3310 O.2   1 <1>  -0.5700 
 12 N       -6.0440    -2.2260     0.6590 N.am  1 <1>  -0.6600 
 13 C       -6.2690    -3.6400     0.2490 C.3   1 <1>   0.1400 
 14 C       -6.9230    -1.2500    -0.0430 C.3   1 <1>   0.1400 
 15 C       -7.7290    -4.0370     0.5530 C.3   1 <1>   0.4230 
 16 C       -8.3830    -1.6170     0.2570 C.3   1 <1>  -0.1600 
 17 N       -8.0230    -5.5170     0.3390 N.4   1 <1>  -0.9590 
 18 C       -8.7540    -3.0800    -0.1290 C.3   1 <1>   0.0000 
 19 C       -9.4830    -5.8400     0.2220 C.3   1 <1>   0.3430 
 20 C       -7.2630    -6.1730    -0.7760 C.3   1 <1>   0.2630 
 21 C      -10.1800    -3.3950     0.4130 C.3   1 <1>  -0.1600 
 22 C       -8.7080    -3.2550    -1.6750 C.3   1 <1>   0.1200 
 23 C      -10.3320    -4.8210     0.9800 C.3   1 <1>  -0.1600 
 24 O       -9.4760    -2.3010    -2.3210 O.3   1 <1>  -0.6800 
 25 H       -2.5800    -1.2820     0.6690 H     1 <1>   0.1500 
 26 H       -1.3110     1.7380    -2.4230 H     1 <1>   0.4500 
 27 H       -4.1890     3.1240    -0.8780 H     1 <1>   0.1500 
 28 H       -5.3790     1.9560     0.9250 H     1 <1>   0.1500 
 29 H       -5.7110     0.0380     2.3150 H     1 <1>   0.0800 
 30 H       -4.1800    -0.4990     2.9100 H     1 <1>   0.0800 
 31 H       -6.0490    -3.7260    -0.8000 H     1 <1>   0.0800 
 32 H       -5.6030    -4.2930     0.7840 H     1 <1>   0.0800 
 33 H       -6.7330    -0.2450     0.2860 H     1 <1>   0.0800 
 34 H       -6.7310    -1.2850    -1.1030 H     1 <1>   0.0800 
 35 H       -7.8440    -3.8600     1.6100 H     1 <1>   0.0800 
 36 H       -8.5390    -1.4660     1.3120 H     1 <1>   0.0800 
 37 H       -9.0260    -0.9180    -0.2490 H     1 <1>   0.0800 
 38 H       -7.7060    -5.9660     1.2120 H     1 <1>   0.4500 
 39 H       -9.7780    -5.8250    -0.8150 H     1 <1>   0.0800 
 40 H       -9.6710    -6.8300     0.6060 H     1 <1>   0.0800 
 41 H       -7.5110    -5.7210    -1.7220 H     1 <1>   0.0800 
 42 H       -7.5040    -7.2230    -0.8240 H     1 <1>   0.0800 
 43 H       -6.2010    -6.0800    -0.6160 H     1 <1>   0.0800 
 44 H      -10.4460    -2.7090     1.2010 H     1 <1>   0.0800 
 45 H      -10.9120    -3.2490    -0.3620 H     1 <1>   0.0800 
 46 H       -9.0750    -4.2180    -1.9770 H     1 <1>   0.0800 
 47 H       -7.7070    -3.1400    -2.0510 H     1 <1>   0.0800 
 48 H      -11.3670    -5.1120     0.9260 H     1 <1>   0.0800 
 49 H      -10.0560    -4.8380     2.0210 H     1 <1>   0.0800 
 50 H      -10.4300    -2.3920    -2.1230 H     1 <1>   0.4000 
@<TRIPOS>BOND
  1   1   2  1   
  2   2   3  ar  
  3   2   4  ar  
  4   3   5  1   
  5   3   6  ar  
  6   4   7  ar  
  7   4  25  1   
  8   5  26  1   
  9   6   8  ar  
 10   6  27  1   
 11   7   8  ar  
 12   7   9  1   
 13   8  28  1   
 14   9  10  1   
 15   9  29  1   
 16   9  30  1   
 17  10  11  2   
 18  10  12  am  
 19  12  13  1   
 20  12  14  1   
 21  13  15  1   
 22  13  31  1   
 23  13  32  1   
 24  14  16  1   
 25  14  33  1   
 26  14  34  1   
 27  15  17  1   
 28  15  18  1   
 29  15  35  1   
 30  16  18  1   
 31  16  36  1   
 32  16  37  1   
 33  17  19  1   
 34  17  20  1   
 35  17  38  1   
 36  18  21  1   
 37  18  22  1   
 38  19  23  1   
 39  19  39  1   
 40  19  40  1   
 41  20  41  1   
 42  20  42  1   
 43  20  43  1   
 44  21  23  1   
 45  21  44  1   
 46  21  45  1   
 47  22  24  1   
 48  22  46  1   
 49  22  47  1   
 50  23  48  1   
 51  23  49  1   
 52  24  50  1   
@<TRIPOS>SUBSTRUCTURE
  1 ****  12 GROUP 4 **** **** 0

# MOE 2024.06 (io_trps.svl 2023.06)
