@<TRIPOS>MOLECULE
NONAME
44 48 1 0 0 
SMALL
USER_CHARGES


@<TRIPOS>ATOM
  1 S       -3.9430     2.0820    -0.5540 S.3   1 <1>  -0.1570 
  2 C       -3.8570     0.5450     0.3280 C.2   1 <1>   0.2420 
  3 C       -2.5810     1.5810    -1.5930 C.2   1 <1>  -0.0490 
  4 N       -4.5440     0.0600     1.3080 N.2   1 <1>  -0.5650 
  5 N       -2.8700    -0.2230    -0.1730 N.pl3 1 <1>   0.3340 
  6 C       -2.1570     0.3540    -1.2450 C.2   1 <1>  -0.1810 
  7 C       -3.9540    -1.1480     1.4720 C.2   1 <1>   0.0460 
  8 C       -2.9420    -1.3370     0.5850 C.2   1 <1>  -0.3020 
  9 C       -4.4500    -2.1030     2.5430 C.3   1 <1>   0.0820 
 10 C       -4.3400    -3.5540     2.1050 C.2   1 <1>   0.5690 
 11 O       -3.5190    -4.2380     2.6710 O.2   1 <1>  -0.5700 
 12 N       -5.1470    -4.0670     1.1150 N.am  1 <1>  -0.6600 
 13 C       -6.1580    -3.2920     0.3390 C.3   1 <1>   0.1400 
 14 C       -5.0370    -5.4900     0.6830 C.3   1 <1>   0.1400 
 15 C       -7.5280    -3.9500     0.5080 C.3   1 <1>  -0.1600 
 16 C       -6.3960    -6.1730     0.8450 C.3   1 <1>  -0.1600 
 17 C       -7.5000    -5.4270     0.0880 C.3   1 <1>   0.4610 
 18 O       -7.1570    -5.5120    -1.2840 O.3   1 <1>  -0.5600 
 19 C       -8.8570    -6.0940     0.3280 C.2   1 <1>  -0.1810 
 20 C       -8.1600    -5.2840    -2.2460 C.3   1 <1>   0.1200 
 21 C       -9.6170    -6.4980    -0.6970 C.2   1 <1>  -0.1400 
 22 C       -9.4560    -6.3580     1.6060 C.2   1 <1>  -0.1500 
 23 C       -9.2710    -6.3420    -2.1530 C.3   1 <1>   0.0200 
 24 S      -11.1040    -7.2450    -0.1550 S.3   1 <1>  -0.0800 
 25 C      -10.6540    -6.9690     1.5210 C.2   1 <1>  -0.1100 
 26 H       -2.2650     2.2810    -2.3470 H     1 <1>   0.1500 
 27 H       -1.3580    -0.2160    -1.6810 H     1 <1>   0.1500 
 28 H       -2.2860    -2.1780     0.4520 H     1 <1>   0.1500 
 29 H       -5.4740    -1.8870     2.7800 H     1 <1>   0.0800 
 30 H       -3.8720    -1.9530     3.4350 H     1 <1>   0.0800 
 31 H       -5.8760    -3.2930    -0.7010 H     1 <1>   0.0800 
 32 H       -6.2120    -2.2690     0.6640 H     1 <1>   0.0800 
 33 H       -4.2990    -6.0130     1.2670 H     1 <1>   0.0800 
 34 H       -4.7280    -5.5220    -0.3480 H     1 <1>   0.0800 
 35 H       -8.2670    -3.4170    -0.0600 H     1 <1>   0.0800 
 36 H       -7.8140    -3.8820     1.5410 H     1 <1>   0.0800 
 37 H       -6.6310    -6.2110     1.8920 H     1 <1>   0.0800 
 38 H       -6.3420    -7.1840     0.4860 H     1 <1>   0.0800 
 39 H       -7.6980    -5.3150    -3.2170 H     1 <1>   0.0800 
 40 H       -8.5660    -4.3000    -2.0890 H     1 <1>   0.0800 
 41 H       -8.9650    -6.0820     2.5230 H     1 <1>   0.1500 
 42 H       -8.9280    -7.2800    -2.5510 H     1 <1>   0.0800 
 43 H      -10.1300    -6.0200    -2.7120 H     1 <1>   0.0800 
 44 H      -11.3450    -7.2970     2.2770 H     1 <1>   0.1500 
@<TRIPOS>BOND
  1   1   2  1   
  2   1   3  1   
  3   2   4  2   
  4   2   5  1   
  5   3   6  2   
  6   3  26  1   
  7   4   7  1   
  8   5   6  1   
  9   5   8  1   
 10   6  27  1   
 11   7   8  2   
 12   7   9  1   
 13   8  28  1   
 14   9  10  1   
 15   9  29  1   
 16   9  30  1   
 17  10  11  2   
 18  10  12  am  
 19  12  13  1   
 20  12  14  1   
 21  13  15  1   
 22  13  31  1   
 23  13  32  1   
 24  14  16  1   
 25  14  33  1   
 26  14  34  1   
 27  15  17  1   
 28  15  35  1   
 29  15  36  1   
 30  16  17  1   
 31  16  37  1   
 32  16  38  1   
 33  17  18  1   
 34  17  19  1   
 35  18  20  1   
 36  19  21  2   
 37  19  22  1   
 38  20  23  1   
 39  20  39  1   
 40  20  40  1   
 41  21  23  1   
 42  21  24  1   
 43  22  25  2   
 44  22  41  1   
 45  23  42  1   
 46  23  43  1   
 47  24  25  1   
 48  25  44  1   
@<TRIPOS>SUBSTRUCTURE
  1 ****  13 GROUP 4 **** **** 0

# MOE 2024.06 (io_trps.svl 2023.06)
