@<TRIPOS>MOLECULE
NONAME
58 61 1 0 0 
SMALL
USER_CHARGES


@<TRIPOS>ATOM
  1 O       -0.3250     0.0080    -0.0430 O.2   1 <1>  -0.5700 
  2 C       -1.2360     0.7990    -0.0430 C.2   1 <1>   0.5690 
  3 N       -2.4890     0.4280    -0.4710 N.am  1 <1>  -0.6600 
  4 C       -0.9280     2.2000     0.4390 C.3   1 <1>  -0.0990 
  5 C       -2.7340    -0.9620    -0.9570 C.3   1 <1>   0.1400 
  6 C       -3.7370     1.2290    -0.3220 C.3   1 <1>   0.1400 
  7 C       -0.6850     3.1220    -0.7570 C.3   1 <1>   0.0960 
  8 C       -3.6490    -1.7060     0.0430 C.3   1 <1>   0.4230 
  9 C       -4.6420     0.5190     0.6920 C.3   1 <1>  -0.1600 
 10 N       -0.4500     4.5040    -0.2950 N.pl3 1 <1>   0.0480 
 11 N       -3.8250    -3.1880    -0.2640 N.4   1 <1>  -0.9590 
 12 C       -4.9870    -0.9460     0.2920 C.3   1 <1>   0.0000 
 13 C        0.7080     4.9750     0.2400 C.ar  1 <1>  -0.1520 
 14 C       -1.3240     5.5510    -0.2470 C.2   1 <1>   0.0060 
 15 C       -5.0010    -3.8190     0.4210 C.3   1 <1>   0.3430 
 16 C       -3.8260    -3.5550    -1.7190 C.3   1 <1>   0.2630 
 17 C       -5.7460    -1.6200     1.4720 C.3   1 <1>  -0.1600 
 18 C       -5.8620    -0.9650    -0.9950 C.3   1 <1>   0.1200 
 19 C        0.4500     6.2900     0.5800 C.ar  1 <1>   0.2270 
 20 C        1.9630     4.4040     0.4720 C.ar  1 <1>  -0.1500 
 21 N       -0.8310     6.6220     0.2640 N.2   1 <1>  -0.5650 
 22 C       -2.7530     5.4740    -0.7470 C.3   1 <1>  -0.0600 
 23 C       -5.3400    -3.0860     1.7180 C.3   1 <1>  -0.1600 
 24 O       -6.9420    -0.1040    -0.8910 O.3   1 <1>  -0.6800 
 25 C        1.4470     7.0690     1.1640 C.ar  1 <1>  -0.1500 
 26 C        2.9430     5.1810     1.0500 C.ar  1 <1>  -0.1500 
 27 C        2.6870     6.5130     1.3960 C.ar  1 <1>  -0.1500 
 28 H       -1.7190     2.5710     1.0610 H     1 <1>   0.0800 
 29 H       -0.0370     2.1620     1.0400 H     1 <1>   0.0800 
 30 H       -3.1820    -0.9060    -1.9320 H     1 <1>   0.0800 
 31 H       -1.8040    -1.4960    -1.0500 H     1 <1>   0.0800 
 32 H       -3.5310     2.2280     0.0160 H     1 <1>   0.0800 
 33 H       -4.2320     1.3090    -1.2760 H     1 <1>   0.0800 
 34 H       -1.5300     3.1100    -1.4200 H     1 <1>   0.0800 
 35 H        0.1790     2.7920    -1.3070 H     1 <1>   0.0800 
 36 H       -3.1220    -1.6570     0.9820 H     1 <1>   0.0800 
 37 H       -4.1340     0.5310     1.6420 H     1 <1>   0.0800 
 38 H       -5.5400     1.0980     0.8210 H     1 <1>   0.0800 
 39 H       -2.9910    -3.6340     0.1480 H     1 <1>   0.4500 
 40 H       -5.8630    -3.7830    -0.2260 H     1 <1>   0.0800 
 41 H       -4.7890    -4.8560     0.6310 H     1 <1>   0.0800 
 42 H       -4.6540    -3.0890    -2.2270 H     1 <1>   0.0800 
 43 H       -3.9130    -4.6240    -1.8330 H     1 <1>   0.0800 
 44 H       -2.9080    -3.2420    -2.1900 H     1 <1>   0.0800 
 45 H       -5.5740    -1.0830     2.3910 H     1 <1>   0.0800 
 46 H       -6.8080    -1.5760     1.3000 H     1 <1>   0.0800 
 47 H       -6.2520    -1.9460    -1.1980 H     1 <1>   0.0800 
 48 H       -5.3040    -0.6400    -1.8540 H     1 <1>   0.0800 
 49 H        2.1560     3.3810     0.2030 H     1 <1>   0.1500 
 50 H       -3.2280     6.4320    -0.6300 H     1 <1>   0.0800 
 51 H       -3.3050     4.7480    -0.1810 H     1 <1>   0.0800 
 52 H       -2.7680     5.2120    -1.7890 H     1 <1>   0.0800 
 53 H       -6.1490    -3.5970     2.2120 H     1 <1>   0.0800 
 54 H       -4.4910    -3.1310     2.3800 H     1 <1>   0.0800 
 55 H       -7.5960    -0.4060    -0.2290 H     1 <1>   0.4000 
 56 H        1.2200     8.0860     1.4180 H     1 <1>   0.1500 
 57 H        3.9190     4.7690     1.2400 H     1 <1>   0.1500 
 58 H        3.4680     7.1010     1.8470 H     1 <1>   0.1500 
@<TRIPOS>BOND
  1   1   2  2   
  2   2   3  am  
  3   2   4  1   
  4   3   5  1   
  5   3   6  1   
  6   4   7  1   
  7   4  28  1   
  8   4  29  1   
  9   5   8  1   
 10   5  30  1   
 11   5  31  1   
 12   6   9  1   
 13   6  32  1   
 14   6  33  1   
 15   7  10  1   
 16   7  34  1   
 17   7  35  1   
 18   8  11  1   
 19   8  12  1   
 20   8  36  1   
 21   9  12  1   
 22   9  37  1   
 23   9  38  1   
 24  10  13  1   
 25  10  14  1   
 26  11  15  1   
 27  11  16  1   
 28  11  39  1   
 29  12  17  1   
 30  12  18  1   
 31  13  19  ar  
 32  13  20  ar  
 33  14  21  2   
 34  14  22  1   
 35  15  23  1   
 36  15  40  1   
 37  15  41  1   
 38  16  42  1   
 39  16  43  1   
 40  16  44  1   
 41  17  23  1   
 42  17  45  1   
 43  17  46  1   
 44  18  24  1   
 45  18  47  1   
 46  18  48  1   
 47  19  21  1   
 48  19  25  ar  
 49  20  26  ar  
 50  20  49  1   
 51  22  50  1   
 52  22  51  1   
 53  22  52  1   
 54  23  53  1   
 55  23  54  1   
 56  24  55  1   
 57  25  27  ar  
 58  25  56  1   
 59  26  27  ar  
 60  26  57  1   
 61  27  58  1   
@<TRIPOS>SUBSTRUCTURE
  1 ****   2 GROUP 4 **** **** 0

# MOE 2024.06 (io_trps.svl 2023.06)
