@<TRIPOS>MOLECULE
NONAME
52 54 1 0 0 
SMALL
USER_CHARGES


@<TRIPOS>ATOM
  1 O       -0.8470     0.2200     2.0080 O.2   1 <1>  -0.5700 
  2 C       -1.3230     0.6460     0.9830 C.2   1 <1>   0.5690 
  3 N       -1.9080    -0.1750     0.0590 N.am  1 <1>  -0.6600 
  4 C       -1.2430     2.1400     0.7200 C.3   1 <1>  -0.0990 
  5 C       -1.9690    -1.6600     0.2930 C.3   1 <1>   0.3640 
  6 C       -2.5660     0.3240    -1.1910 C.3   1 <1>   0.1400 
  7 C       -0.6650     2.9180     1.9110 C.3   1 <1>   0.0960 
  8 C       -0.8140    -2.4030    -0.4020 C.ar  1 <1>  -0.1440 
  9 C       -3.3530    -2.2560    -0.1230 C.3   1 <1>   0.2000 
 10 C       -3.2060    -0.8090    -2.0070 C.3   1 <1>   0.1200 
 11 N       -0.5000     4.3460     1.5770 N.pl3 1 <1>   0.3140 
 12 C       -0.6270    -3.7460    -0.0950 C.ar  1 <1>  -0.1500 
 13 C        0.0590    -1.8080    -1.3090 C.ar  1 <1>  -0.1500 
 14 O       -4.0120    -1.5780    -1.1720 O.3   1 <1>  -0.5600 
 15 C       -4.3260    -2.2750     1.0620 C.3   1 <1>   0.1200 
 16 N       -1.5050     5.0950     1.0800 N.2   1 <1>  -0.7070 
 17 C        0.6270     5.0740     1.7100 C.2   1 <1>  -0.3020 
 18 C        0.3780    -4.4900    -0.6900 C.ar  1 <1>   0.0820 
 19 C        1.0800    -2.5360    -1.8950 C.ar  1 <1>  -0.1500 
 20 O       -3.9350    -3.2360     1.9910 O.3   1 <1>  -0.6800 
 21 C       -0.9920     6.2760     0.9150 C.2   1 <1>   0.1390 
 22 C        0.3440     6.3250     1.2910 C.2   1 <1>  -0.1500 
 23 O        0.4500    -5.8060    -0.3680 O.3   1 <1>  -0.3630 
 24 C        1.2570    -3.8720    -1.5830 C.ar  1 <1>   0.0820 
 25 C        0.2480    -6.7270    -1.4170 C.3   1 <1>   0.0400 
 26 O        2.2990    -4.5170    -2.1610 O.3   1 <1>  -0.3630 
 27 C        3.3390    -4.9120    -1.2940 C.3   1 <1>   0.0400 
 28 H       -0.6210     2.3000    -0.1410 H     1 <1>   0.0800 
 29 H       -2.2300     2.5090     0.5160 H     1 <1>   0.0800 
 30 H       -1.8430    -1.8490     1.3460 H     1 <1>   0.0800 
 31 H       -3.3380     1.0260    -0.9280 H     1 <1>   0.0800 
 32 H       -1.8430     0.8340    -1.8020 H     1 <1>   0.0800 
 33 H        0.2940     2.5170     2.1840 H     1 <1>   0.0800 
 34 H       -1.3230     2.8400     2.7570 H     1 <1>   0.0800 
 35 H       -3.2210    -3.2670    -0.4600 H     1 <1>   0.0800 
 36 H       -2.4630    -1.4430    -2.4600 H     1 <1>   0.0800 
 37 H       -3.8290    -0.4010    -2.7840 H     1 <1>   0.0800 
 38 H       -1.2670    -4.2390     0.6150 H     1 <1>   0.1500 
 39 H       -0.0330    -0.7700    -1.5660 H     1 <1>   0.1500 
 40 H       -5.3220    -2.5160     0.7330 H     1 <1>   0.0800 
 41 H       -4.3300    -1.3180     1.5540 H     1 <1>   0.0800 
 42 H        1.5490     4.6710     2.0880 H     1 <1>   0.1500 
 43 H        1.7520    -2.0680    -2.5910 H     1 <1>   0.1500 
 44 H       -4.1990    -4.1310     1.7000 H     1 <1>   0.4000 
 45 H       -1.5470     7.1140     0.5290 H     1 <1>   0.1500 
 46 H        0.9840     7.1880     1.2470 H     1 <1>   0.1500 
 47 H        0.1780    -7.7110    -0.9920 H     1 <1>   0.0800 
 48 H        1.0790    -6.6820    -2.0980 H     1 <1>   0.0800 
 49 H       -0.6660    -6.4780    -1.9270 H     1 <1>   0.0800 
 50 H        4.1300    -5.3360    -1.8860 H     1 <1>   0.0800 
 51 H        2.9670    -5.6440    -0.6000 H     1 <1>   0.0800 
 52 H        3.6970    -4.0460    -0.7650 H     1 <1>   0.0800 
@<TRIPOS>BOND
  1   1   2  2   
  2   2   3  am  
  3   2   4  1   
  4   3   5  1   
  5   3   6  1   
  6   4   7  1   
  7   4  28  1   
  8   4  29  1   
  9   5   8  1   
 10   5   9  1   
 11   5  30  1   
 12   6  10  1   
 13   6  31  1   
 14   6  32  1   
 15   7  11  1   
 16   7  33  1   
 17   7  34  1   
 18   8  12  ar  
 19   8  13  ar  
 20   9  14  1   
 21   9  15  1   
 22   9  35  1   
 23  10  14  1   
 24  10  36  1   
 25  10  37  1   
 26  11  16  1   
 27  11  17  1   
 28  12  18  ar  
 29  12  38  1   
 30  13  19  ar  
 31  13  39  1   
 32  15  20  1   
 33  15  40  1   
 34  15  41  1   
 35  16  21  2   
 36  17  22  2   
 37  17  42  1   
 38  18  23  1   
 39  18  24  ar  
 40  19  24  ar  
 41  19  43  1   
 42  20  44  1   
 43  21  22  1   
 44  21  45  1   
 45  22  46  1   
 46  23  25  1   
 47  24  26  1   
 48  25  47  1   
 49  25  48  1   
 50  25  49  1   
 51  26  27  1   
 52  27  50  1   
 53  27  51  1   
 54  27  52  1   
@<TRIPOS>SUBSTRUCTURE
  1 ****   3 GROUP 4 **** **** 0

# MOE 2024.06 (io_trps.svl 2023.06)
