@<TRIPOS>MOLECULE
NONAME
43 46 1 0 0 
SMALL
USER_CHARGES


@<TRIPOS>ATOM
  1 S        1.5000     0.8760     0.2670 S.3   1 <1>  -0.0800 
  2 C       -0.0800     1.6420     0.2970 C.2   1 <1>  -0.1400 
  3 C        0.8480    -0.5700     1.0270 C.2   1 <1>  -0.1100 
  4 C       -0.9890     0.8330     0.8580 C.2   1 <1>  -0.1810 
  5 C       -0.3270     3.0420    -0.2520 C.3   1 <1>   0.4600 
  6 C       -0.4700    -0.4340     1.2710 C.2   1 <1>  -0.1500 
  7 C       -2.4180     1.3050     1.0000 C.3   1 <1>   0.0210 
  8 O       -1.7190     3.3020    -0.2150 O.3   1 <1>  -0.5600 
  9 C        0.0850     3.1350    -1.7260 C.3   1 <1>  -0.1600 
 10 C        0.3990     4.1100     0.5780 C.3   1 <1>  -0.1600 
 11 C       -2.4510     2.8430     0.8980 C.3   1 <1>   0.1200 
 12 C       -0.1090     4.5480    -2.2810 C.3   1 <1>   0.1400 
 13 C        0.1910     5.5070    -0.0100 C.3   1 <1>   0.1400 
 14 N        0.6460     5.5080    -1.4280 N.am  1 <1>  -0.6600 
 15 C        1.7240     6.2040    -1.9230 C.2   1 <1>   0.5690 
 16 O        2.0290     6.1580    -3.0910 O.2   1 <1>  -0.5700 
 17 C        2.6080     7.0530    -1.0180 C.3   1 <1>   0.0440 
 18 C        3.3600     6.2220     0.0180 C.ar  1 <1>  -0.1430 
 19 C        3.9750     5.0300    -0.3440 C.ar  1 <1>   0.1600 
 20 C        3.4350     6.6340     1.3340 C.ar  1 <1>  -0.1500 
 21 N        4.6300     4.2330     0.4860 N.ar  1 <1>  -0.6200 
 22 C        4.1160     5.8160     2.2100 C.ar  1 <1>  -0.1500 
 23 C        4.6840     4.6440     1.7410 C.ar  1 <1>   0.1600 
 24 H        1.5310    -1.3800     1.2110 H     1 <1>   0.1500 
 25 H       -1.1030    -1.1750     1.7270 H     1 <1>   0.1500 
 26 H       -2.8140     1.0030     1.9530 H     1 <1>   0.0800 
 27 H       -3.0230     0.8730     0.2240 H     1 <1>   0.0800 
 28 H       -0.4900     2.4320    -2.3000 H     1 <1>   0.0800 
 29 H        1.1210     2.8700    -1.8300 H     1 <1>   0.0800 
 30 H        1.4520     3.8930     0.5880 H     1 <1>   0.0800 
 31 H        0.0630     4.0810     1.5960 H     1 <1>   0.0800 
 32 H       -2.0360     3.2850     1.7850 H     1 <1>   0.0800 
 33 H       -3.4650     3.1840     0.7860 H     1 <1>   0.0800 
 34 H       -1.1540     4.8090    -2.2710 H     1 <1>   0.0800 
 35 H        0.2330     4.5860    -3.3010 H     1 <1>   0.0800 
 36 H        0.7240     6.2310     0.5770 H     1 <1>   0.0800 
 37 H       -0.8540     5.7630     0.0220 H     1 <1>   0.0800 
 38 H        1.9970     7.7960    -0.5410 H     1 <1>   0.0800 
 39 H        3.3260     7.5720    -1.6270 H     1 <1>   0.0800 
 40 H        3.9240     4.7090    -1.3720 H     1 <1>   0.1500 
 41 H        2.9850     7.5510     1.6720 H     1 <1>   0.1500 
 42 H        4.2090     6.0800     3.2470 H     1 <1>   0.1500 
 43 H        5.2130     4.0120     2.4350 H     1 <1>   0.1500 
@<TRIPOS>BOND
  1   1   2  1   
  2   1   3  1   
  3   2   4  2   
  4   2   5  1   
  5   3   6  2   
  6   3  24  1   
  7   4   6  1   
  8   4   7  1   
  9   5   8  1   
 10   5   9  1   
 11   5  10  1   
 12   6  25  1   
 13   7  11  1   
 14   7  26  1   
 15   7  27  1   
 16   8  11  1   
 17   9  12  1   
 18   9  28  1   
 19   9  29  1   
 20  10  13  1   
 21  10  30  1   
 22  10  31  1   
 23  11  32  1   
 24  11  33  1   
 25  12  14  1   
 26  12  34  1   
 27  12  35  1   
 28  13  14  1   
 29  13  36  1   
 30  13  37  1   
 31  14  15  am  
 32  15  16  2   
 33  15  17  1   
 34  17  18  1   
 35  17  38  1   
 36  17  39  1   
 37  18  19  ar  
 38  18  20  ar  
 39  19  21  ar  
 40  19  40  1   
 41  20  22  ar  
 42  20  41  1   
 43  21  23  ar  
 44  22  23  ar  
 45  22  42  1   
 46  23  43  1   
@<TRIPOS>SUBSTRUCTURE
  1 ****  10 GROUP 4 **** **** 0

# MOE 2024.06 (io_trps.svl 2023.06)
