@<TRIPOS>MOLECULE
NONAME
46 48 1 0 0 
SMALL
USER_CHARGES


@<TRIPOS>ATOM
  1 O       -1.7520     1.0250     2.4090 O.2   1 <1>  -0.5700 
  2 C       -1.9930     1.3840     1.2700 C.2   1 <1>   0.5440 
  3 N       -2.7060     0.5100     0.4610 N.am  1 <1>  -0.6600 
  4 C       -1.4630     2.6520     0.7840 C.ar  1 <1>   0.3960 
  5 C       -3.6650     0.8950    -0.6260 C.3   1 <1>   0.2200 
  6 C       -2.5200    -0.9600     0.6700 C.3   1 <1>   0.0600 
  7 N       -1.8940     3.8270     1.2750 N.ar  1 <1>  -0.6200 
  8 C       -0.5000     2.5970    -0.2280 C.ar  1 <1>   0.1600 
  9 C       -4.1600     2.3400    -0.5550 C.3   1 <1>  -0.1600 
 10 C       -4.9640     0.0940    -0.5190 C.3   1 <1>  -0.1600 
 11 C       -1.2990     4.8680     0.7220 C.ar  1 <1>   0.1600 
 12 N        0.0810     3.6400    -0.7990 N.ar  1 <1>  -0.6200 
 13 C       -5.5170     2.3640    -1.2660 C.3   1 <1>  -0.0800 
 14 C       -6.0460     0.9240    -1.2230 C.3   1 <1>  -0.0800 
 15 C       -0.3450     4.7790    -0.2840 C.ar  1 <1>   0.1600 
 16 C       -6.5530     3.2300    -0.5370 C.3   1 <1>  -0.1600 
 17 C       -7.3700     0.9720    -0.4470 C.3   1 <1>  -0.1600 
 18 C       -7.2630     2.2440     0.3880 C.3   1 <1>   0.4230 
 19 N       -8.5780     2.7130     0.9190 N.4   1 <1>  -0.9590 
 20 C       -9.5770     3.1320    -0.1180 C.3   1 <1>   0.2630 
 21 C       -8.3710     3.8120     1.9130 C.3   1 <1>   0.2630 
 22 H       -3.2140     0.7170    -1.5880 H     1 <1>   0.0800 
 23 H       -2.4830    -1.4700    -0.2770 H     1 <1>   0.0800 
 24 H       -3.3310    -1.3510     1.2590 H     1 <1>   0.0800 
 25 H       -1.5990    -1.1500     1.1950 H     1 <1>   0.0800 
 26 H       -0.2020     1.6230    -0.5760 H     1 <1>   0.1500 
 27 H       -4.2860     2.6190     0.4770 H     1 <1>   0.0800 
 28 H       -3.4740     3.0170    -1.0330 H     1 <1>   0.0800 
 29 H       -4.8660    -0.8740    -0.9780 H     1 <1>   0.0800 
 30 H       -5.2110    -0.0280     0.5210 H     1 <1>   0.0800 
 31 H       -1.5790     5.8440     1.0790 H     1 <1>   0.1500 
 32 H       -5.3880     2.6890    -2.2870 H     1 <1>   0.0800 
 33 H       -6.1980     0.5510    -2.2240 H     1 <1>   0.0800 
 34 H        0.0820     5.6870    -0.6750 H     1 <1>   0.1500 
 35 H       -7.2270     3.6290    -1.2730 H     1 <1>   0.0800 
 36 H       -6.0910     4.0380     0.0030 H     1 <1>   0.0800 
 37 H       -7.5130     0.0980     0.1630 H     1 <1>   0.0800 
 38 H       -8.1710     1.0440    -1.1600 H     1 <1>   0.0800 
 39 H       -6.6010     2.0330     1.2140 H     1 <1>   0.0800 
 40 H       -8.9790     1.9100     1.4270 H     1 <1>   0.4500 
 41 H       -9.2170     3.9880    -0.6650 H     1 <1>   0.0800 
 42 H      -10.5120     3.3950     0.3500 H     1 <1>   0.0800 
 43 H       -9.7610     2.3300    -0.8130 H     1 <1>   0.0800 
 44 H       -7.9520     4.6800     1.4290 H     1 <1>   0.0800 
 45 H       -7.6950     3.4920     2.6900 H     1 <1>   0.0800 
 46 H       -9.3090     4.0900     2.3670 H     1 <1>   0.0800 
@<TRIPOS>BOND
  1   1   2  2   
  2   2   3  am  
  3   2   4  1   
  4   3   5  1   
  5   3   6  1   
  6   4   7  ar  
  7   4   8  ar  
  8   5   9  1   
  9   5  10  1   
 10   5  22  1   
 11   6  23  1   
 12   6  24  1   
 13   6  25  1   
 14   7  11  ar  
 15   8  12  ar  
 16   8  26  1   
 17   9  13  1   
 18   9  27  1   
 19   9  28  1   
 20  10  14  1   
 21  10  29  1   
 22  10  30  1   
 23  11  15  ar  
 24  11  31  1   
 25  12  15  ar  
 26  13  14  1   
 27  13  16  1   
 28  13  32  1   
 29  14  17  1   
 30  14  33  1   
 31  15  34  1   
 32  16  18  1   
 33  16  35  1   
 34  16  36  1   
 35  17  18  1   
 36  17  37  1   
 37  17  38  1   
 38  18  19  1   
 39  18  39  1   
 40  19  20  1   
 41  19  21  1   
 42  19  40  1   
 43  20  41  1   
 44  20  42  1   
 45  20  43  1   
 46  21  44  1   
 47  21  45  1   
 48  21  46  1   
@<TRIPOS>SUBSTRUCTURE
  1 ****   9 GROUP 4 **** **** 0

# MOE 2024.06 (io_trps.svl 2023.06)
