@<TRIPOS>MOLECULE
NONAME
49 51 1 0 0 
SMALL
USER_CHARGES


@<TRIPOS>ATOM
  1 S       -0.8940     0.1800     1.0460 S.o2  1 <1>   1.2040 
  2 O       -0.9980    -0.3390     2.3910 O.2   1 <1>  -0.6500 
  3 O       -1.1330     1.5830     0.7930 O.2   1 <1>  -0.6500 
  4 C       -1.9180    -0.8170    -0.0630 C.ar  1 <1>  -0.0090 
  5 C        0.7500    -0.1880     0.4650 C.3   1 <1>  -0.1350 
  6 C       -2.0360    -2.1870     0.1200 C.ar  1 <1>  -0.1500 
  7 C       -2.5890    -0.2430    -1.1360 C.ar  1 <1>  -0.1500 
  8 C       -2.7950    -2.9940    -0.7250 C.ar  1 <1>   0.0860 
  9 C       -3.3470    -1.0160    -1.9970 C.ar  1 <1>  -0.1500 
 10 C       -2.8900    -4.4220    -0.4900 C.2   1 <1>   0.5440 
 11 C       -3.4450    -2.3790    -1.7930 C.ar  1 <1>  -0.1500 
 12 O       -1.8740    -5.0720    -0.3350 O.2   1 <1>  -0.5700 
 13 N       -4.1060    -5.0580    -0.4220 N.am  1 <1>  -0.6600 
 14 C       -5.4070    -4.3800    -0.2280 C.3   1 <1>   0.1400 
 15 C       -4.2360    -6.5130    -0.1960 C.3   1 <1>   0.1400 
 16 C       -6.2700    -5.3870     0.5430 C.3   1 <1>  -0.0800 
 17 C       -5.7150    -6.7610     0.1210 C.3   1 <1>  -0.0800 
 18 C       -7.8140    -5.2220     0.3930 C.3   1 <1>   0.2800 
 19 C       -6.4900    -7.3190    -1.0830 C.3   1 <1>  -0.1600 
 20 O       -8.1180    -4.6140    -0.8110 O.3   1 <1>  -0.6800 
 21 C       -8.4960    -6.6030     0.3700 C.3   1 <1>  -0.1600 
 22 C       -8.4310    -4.3470     1.5060 C.3   1 <1>  -0.1600 
 23 C       -7.9790    -7.5290    -0.7520 C.3   1 <1>  -0.1600 
 24 C       -7.9010    -2.9040     1.5910 C.3   1 <1>  -0.2400 
 25 H        0.9530    -1.2380     0.5530 H     1 <1>   0.0800 
 26 H        1.4730     0.3490     1.0480 H     1 <1>   0.0800 
 27 H        0.8580     0.1010    -0.5630 H     1 <1>   0.0800 
 28 H       -1.5290    -2.6580     0.9460 H     1 <1>   0.1500 
 29 H       -2.5190     0.8200    -1.3000 H     1 <1>   0.1500 
 30 H       -3.8600    -0.5560    -2.8250 H     1 <1>   0.1500 
 31 H       -4.0290    -2.9820    -2.4670 H     1 <1>   0.1500 
 32 H       -5.2920    -3.4610     0.3190 H     1 <1>   0.0800 
 33 H       -5.8170    -4.1690    -1.1990 H     1 <1>   0.0800 
 34 H       -3.9130    -7.0560    -1.0680 H     1 <1>   0.0800 
 35 H       -3.6210    -6.7940     0.6420 H     1 <1>   0.0800 
 36 H       -6.0250    -5.2780     1.5840 H     1 <1>   0.0800 
 37 H       -5.7890    -7.4650     0.9310 H     1 <1>   0.0800 
 38 H       -6.4090    -6.6200    -1.8990 H     1 <1>   0.0800 
 39 H       -6.0570    -8.2490    -1.4090 H     1 <1>   0.0800 
 40 H       -9.0840    -4.5920    -0.9240 H     1 <1>   0.4000 
 41 H       -8.3020    -7.0810     1.3150 H     1 <1>   0.0800 
 42 H       -9.5630    -6.4970     0.2900 H     1 <1>   0.0800 
 43 H       -9.4980    -4.3110     1.3700 H     1 <1>   0.0800 
 44 H       -8.2580    -4.8250     2.4550 H     1 <1>   0.0800 
 45 H       -8.1410    -8.5520    -0.4560 H     1 <1>   0.0800 
 46 H       -8.5510    -7.3600    -1.6480 H     1 <1>   0.0800 
 47 H       -8.0050    -2.4020     0.6450 H     1 <1>   0.0800 
 48 H       -6.8660    -2.8920     1.8810 H     1 <1>   0.0800 
 49 H       -8.4590    -2.3540     2.3290 H     1 <1>   0.0800 
@<TRIPOS>BOND
  1   1   2  2   
  2   1   3  2   
  3   1   4  1   
  4   1   5  1   
  5   4   6  ar  
  6   4   7  ar  
  7   5  25  1   
  8   5  26  1   
  9   5  27  1   
 10   6   8  ar  
 11   6  28  1   
 12   7   9  ar  
 13   7  29  1   
 14   8  10  1   
 15   8  11  ar  
 16   9  11  ar  
 17   9  30  1   
 18  10  12  2   
 19  10  13  am  
 20  11  31  1   
 21  13  14  1   
 22  13  15  1   
 23  14  16  1   
 24  14  32  1   
 25  14  33  1   
 26  15  17  1   
 27  15  34  1   
 28  15  35  1   
 29  16  17  1   
 30  16  18  1   
 31  16  36  1   
 32  17  19  1   
 33  17  37  1   
 34  18  20  1   
 35  18  21  1   
 36  18  22  1   
 37  19  23  1   
 38  19  38  1   
 39  19  39  1   
 40  20  40  1   
 41  21  23  1   
 42  21  41  1   
 43  21  42  1   
 44  22  24  1   
 45  22  43  1   
 46  22  44  1   
 47  23  45  1   
 48  23  46  1   
 49  24  47  1   
 50  24  48  1   
 51  24  49  1   
@<TRIPOS>SUBSTRUCTURE
  1 ****  14 GROUP 4 **** **** 0

# MOE 2024.06 (io_trps.svl 2023.06)
