@<TRIPOS>MOLECULE
NONAME
47 49 1 0 0 
SMALL
USER_CHARGES


@<TRIPOS>ATOM
  1 O       -4.1420    -3.2340     0.0970 O.co2 1 <1>  -0.9000 
  2 C       -4.5830    -2.8340    -0.9820 C.2   1 <1>   0.9060 
  3 O       -5.4420    -3.4950    -1.5810 O.co2 1 <1>  -0.9000 
  4 C       -4.3440    -1.3960    -1.4000 C.3   1 <1>   0.0140 
  5 O       -5.5840    -0.6860    -1.4870 O.3   1 <1>  -0.3630 
  6 C       -5.9200     0.2010    -0.5260 C.ar  1 <1>   0.0830 
  7 C       -6.3690    -0.1770     0.7420 C.ar  1 <1>  -0.1440 
  8 C       -5.8560     1.5410    -0.8720 C.ar  1 <1>  -0.1500 
  9 C       -6.7380     0.8150     1.6410 C.ar  1 <1>  -0.1500 
 10 C       -6.4680    -1.6230     1.2090 C.3   1 <1>   0.4870 
 11 C       -6.2260     2.5170     0.0330 C.ar  1 <1>  -0.1500 
 12 C       -6.6680     2.1530     1.2910 C.ar  1 <1>  -0.1500 
 13 N       -7.2290    -2.4640     0.2560 N.4   1 <1>  -0.9590 
 14 C       -8.5270    -1.9850    -0.2830 C.3   1 <1>   0.3430 
 15 C       -7.3360    -3.8880     0.6220 C.3   1 <1>   0.3430 
 16 C       -9.3900    -3.2480    -0.4380 C.3   1 <1>   0.2000 
 17 C       -8.3880    -4.4070    -0.3510 C.3   1 <1>  -0.0800 
 18 O      -10.2920    -3.3130     0.6220 O.3   1 <1>  -0.6800 
 19 C       -8.9470    -5.7980     0.0010 C.3   1 <1>  -0.0170 
 20 C       -7.8580    -6.8380     0.2580 C.ar  1 <1>  -0.1430 
 21 C       -8.0810    -7.8680     1.1510 C.ar  1 <1>  -0.1500 
 22 C       -6.6190    -6.8370    -0.3590 C.ar  1 <1>  -0.1500 
 23 C       -7.0900    -8.8080     1.3840 C.ar  1 <1>   0.1600 
 24 C       -5.6940    -7.8200    -0.0500 C.ar  1 <1>   0.1600 
 25 N       -5.9010    -8.8080     0.8070 N.ar  1 <1>  -0.6200 
 26 H       -3.8900    -1.3880    -2.3710 H     1 <1>   0.0800 
 27 H       -3.7010    -0.9080    -0.6930 H     1 <1>   0.0800 
 28 H       -5.5170     1.8130    -1.8560 H     1 <1>   0.1500 
 29 H       -7.0810     0.5600     2.6290 H     1 <1>   0.1500 
 30 H       -6.9530    -1.6490     2.1690 H     1 <1>   0.0800 
 31 H       -5.4750    -2.0220     1.3380 H     1 <1>   0.0800 
 32 H       -6.1710     3.5570    -0.2420 H     1 <1>   0.1500 
 33 H       -6.9550     2.9120     1.9980 H     1 <1>   0.1500 
 34 H       -6.5970    -2.5330    -0.5790 H     1 <1>   0.4500 
 35 H       -8.9980    -1.2800     0.3800 H     1 <1>   0.0800 
 36 H       -8.3600    -1.5220    -1.2420 H     1 <1>   0.0800 
 37 H       -6.3880    -4.3900     0.4920 H     1 <1>   0.0800 
 38 H       -7.6720    -3.9980     1.6380 H     1 <1>   0.0800 
 39 H       -9.9510    -3.2470    -1.3570 H     1 <1>   0.0800 
 40 H       -7.9110    -4.4830    -1.3130 H     1 <1>   0.0800 
 41 H       -9.8350    -3.3320     1.4840 H     1 <1>   0.4000 
 42 H       -9.5710    -6.1420    -0.8050 H     1 <1>   0.0800 
 43 H       -9.5650    -5.7330     0.8790 H     1 <1>   0.0800 
 44 H       -9.0170    -7.9550     1.6690 H     1 <1>   0.1500 
 45 H       -6.3350    -6.0860    -1.0790 H     1 <1>   0.1500 
 46 H       -7.2870    -9.6030     2.0830 H     1 <1>   0.1500 
 47 H       -4.7330    -7.7870    -0.5350 H     1 <1>   0.1500 
@<TRIPOS>BOND
  1   1   2  ar  
  2   2   3  ar  
  3   2   4  1   
  4   4   5  1   
  5   4  26  1   
  6   4  27  1   
  7   5   6  1   
  8   6   7  ar  
  9   6   8  ar  
 10   7   9  ar  
 11   7  10  1   
 12   8  11  ar  
 13   8  28  1   
 14   9  12  ar  
 15   9  29  1   
 16  10  13  1   
 17  10  30  1   
 18  10  31  1   
 19  11  12  ar  
 20  11  32  1   
 21  12  33  1   
 22  13  14  1   
 23  13  15  1   
 24  13  34  1   
 25  14  16  1   
 26  14  35  1   
 27  14  36  1   
 28  15  17  1   
 29  15  37  1   
 30  15  38  1   
 31  16  17  1   
 32  16  18  1   
 33  16  39  1   
 34  17  19  1   
 35  17  40  1   
 36  18  41  1   
 37  19  20  1   
 38  19  42  1   
 39  19  43  1   
 40  20  21  ar  
 41  20  22  ar  
 42  21  23  ar  
 43  21  44  1   
 44  22  24  ar  
 45  22  45  1   
 46  23  25  ar  
 47  23  46  1   
 48  24  25  ar  
 49  24  47  1   
@<TRIPOS>SUBSTRUCTURE
  1 ****  13 GROUP 4 **** **** 0

# MOE 2024.06 (io_trps.svl 2023.06)
