@<TRIPOS>MOLECULE
NONAME
51 52 1 0 0 
SMALL
USER_CHARGES


@<TRIPOS>ATOM
  1 O       -1.5570    -0.3390     0.9660 O.2   1 <1>  -0.5700 
  2 C       -2.4200     0.4720     1.2230 C.2   1 <1>   0.5690 
  3 N       -3.5730     0.0820     1.8590 N.am  1 <1>  -0.6600 
  4 C       -2.1920     1.9350     0.8070 C.3   1 <1>  -0.0190 
  5 C       -3.7090    -1.3130     2.3570 C.3   1 <1>   0.3200 
  6 C       -4.8040     0.9180     1.9820 C.3   1 <1>   0.1400 
  7 C       -1.2600     2.0770    -0.4130 C.3   1 <1>  -0.1600 
  8 C       -1.6330     2.7550     1.9850 C.3   1 <1>  -0.1600 
  9 C       -4.2350    -2.1750     1.2340 C.2   1 <1>  -0.3320 
 10 C       -5.6420     0.8380     0.7000 C.3   1 <1>   0.1200 
 11 C       -1.0580     3.5480    -0.8060 C.3   1 <1>  -0.1600 
 12 C       -1.4350     4.2270     1.6000 C.3   1 <1>  -0.1600 
 13 N       -3.5460    -2.3420     0.0930 N.pl3 1 <1>   0.0330 
 14 C       -5.3700    -2.8950     1.1020 C.2   1 <1>   0.0770 
 15 O       -6.7410     1.6770     0.8240 O.3   1 <1>  -0.6800 
 16 C       -0.5190     4.3820     0.3730 C.3   1 <1>  -0.0800 
 17 C       -4.3130    -3.1480    -0.6710 C.2   1 <1>   0.0060 
 18 N       -5.4180    -3.5010    -0.1000 N.2   1 <1>  -0.5650 
 19 C       -0.3820     5.8750     0.0170 C.3   1 <1>  -0.1600 
 20 C       -3.9030    -3.5860    -2.0600 C.3   1 <1>  -0.0600 
 21 C        0.6550     6.1520    -1.0820 C.3   1 <1>  -0.1600 
 22 C        0.8420     7.6570    -1.2940 C.3   1 <1>  -0.2400 
 23 H       -3.1330     2.3610     0.5170 H     1 <1>   0.0800 
 24 H       -4.3760    -1.3460     3.2010 H     1 <1>   0.0800 
 25 H       -2.7500    -1.6840     2.6800 H     1 <1>   0.0800 
 26 H       -4.5330     1.9420     2.1700 H     1 <1>   0.0800 
 27 H       -5.3920     0.5750     2.8160 H     1 <1>   0.0800 
 28 H       -1.6750     1.5370    -1.2470 H     1 <1>   0.0800 
 29 H       -0.3010     1.6410    -0.1860 H     1 <1>   0.0800 
 30 H       -0.6890     2.3350     2.2900 H     1 <1>   0.0800 
 31 H       -2.3040     2.6930     2.8230 H     1 <1>   0.0800 
 32 H       -5.9960    -0.1620     0.5190 H     1 <1>   0.0800 
 33 H       -5.0700     1.1750    -0.1460 H     1 <1>   0.0800 
 34 H       -1.9950     3.9600    -1.1390 H     1 <1>   0.0800 
 35 H       -0.3690     3.5860    -1.6300 H     1 <1>   0.0800 
 36 H       -1.0070     4.7530     2.4370 H     1 <1>   0.0800 
 37 H       -2.3940     4.6700     1.3900 H     1 <1>   0.0800 
 38 H       -2.6340    -1.9160    -0.1200 H     1 <1>   0.2700 
 39 H       -6.1710    -3.0130     1.8120 H     1 <1>   0.1500 
 40 H       -7.4540     1.2430     1.3330 H     1 <1>   0.4000 
 41 H        0.4560     4.0060     0.6360 H     1 <1>   0.0800 
 42 H       -0.0860     6.4110     0.9020 H     1 <1>   0.0800 
 43 H       -1.3390     6.2620    -0.2900 H     1 <1>   0.0800 
 44 H       -2.9820    -4.1370    -2.0150 H     1 <1>   0.0800 
 45 H       -3.7770    -2.7280    -2.6940 H     1 <1>   0.0800 
 46 H       -4.6640    -4.2190    -2.4800 H     1 <1>   0.0800 
 47 H        0.3380     5.7110    -2.0110 H     1 <1>   0.0800 
 48 H        1.6000     5.7140    -0.8070 H     1 <1>   0.0800 
 49 H       -0.0880     8.1140    -1.5860 H     1 <1>   0.0800 
 50 H        1.5660     7.8320    -2.0700 H     1 <1>   0.0800 
 51 H        1.1900     8.1250    -0.3910 H     1 <1>   0.0800 
@<TRIPOS>BOND
  1   1   2  2   
  2   2   3  am  
  3   2   4  1   
  4   3   5  1   
  5   3   6  1   
  6   4   7  1   
  7   4   8  1   
  8   4  23  1   
  9   5   9  1   
 10   5  24  1   
 11   5  25  1   
 12   6  10  1   
 13   6  26  1   
 14   6  27  1   
 15   7  11  1   
 16   7  28  1   
 17   7  29  1   
 18   8  12  1   
 19   8  30  1   
 20   8  31  1   
 21   9  13  1   
 22   9  14  2   
 23  10  15  1   
 24  10  32  1   
 25  10  33  1   
 26  11  16  1   
 27  11  34  1   
 28  11  35  1   
 29  12  16  1   
 30  12  36  1   
 31  12  37  1   
 32  13  17  1   
 33  13  38  1   
 34  14  18  1   
 35  14  39  1   
 36  15  40  1   
 37  16  19  1   
 38  16  41  1   
 39  17  18  2   
 40  17  20  1   
 41  19  21  1   
 42  19  42  1   
 43  19  43  1   
 44  20  44  1   
 45  20  45  1   
 46  20  46  1   
 47  21  22  1   
 48  21  47  1   
 49  21  48  1   
 50  22  49  1   
 51  22  50  1   
 52  22  51  1   
@<TRIPOS>SUBSTRUCTURE
  1 ****   2 GROUP 4 **** **** 0

# MOE 2024.06 (io_trps.svl 2023.06)
