@<TRIPOS>MOLECULE
NONAME
46 47 1 0 0 
SMALL
USER_CHARGES


@<TRIPOS>ATOM
  1 S        1.0650     1.7220    -0.7720 S.o2  1 <1>   1.3330 
  2 O        2.3030     2.3680    -0.3860 O.2   1 <1>  -0.6500 
  3 O        0.1080     2.5060    -1.5130 O.2   1 <1>  -0.6500 
  4 N        1.3960     0.2750    -1.5840 N.am  1 <1>  -0.8490 
  5 C        0.2410     1.1940     0.7360 C.3   1 <1>  -0.0550 
  6 C        2.7240    -0.2820    -1.3030 C.3   1 <1>   0.1160 
  7 C        1.1800     0.3620    -3.0340 C.3   1 <1>   0.1160 
  8 C       -0.1570     2.3130     1.7390 C.3   1 <1>  -0.0800 
  9 C       -1.1060     3.3610     1.1420 C.3   1 <1>   0.2000 
 10 C        1.0310     3.1480     2.2290 C.3   1 <1>   0.3430 
 11 O       -1.9650     3.7950     2.1430 O.3   1 <1>  -0.6800 
 12 C       -0.2180     4.5340     0.6940 C.3   1 <1>   0.3430 
 13 N        1.1450     4.2680     1.2630 N.4   1 <1>  -0.9590 
 14 C        1.8520     5.4790     1.7480 C.3   1 <1>   0.4860 
 15 C        2.0210     6.4170     0.5690 C.ar  1 <1>  -0.1440 
 16 C        1.3360     7.6210     0.5280 C.ar  1 <1>  -0.1500 
 17 C        2.8490     6.0720    -0.4880 C.ar  1 <1>  -0.1500 
 18 C        1.4720     8.4650    -0.5600 C.ar  1 <1>  -0.1500 
 19 C        2.9830     6.9170    -1.5750 C.ar  1 <1>  -0.1500 
 20 C        2.2960     8.1260    -1.6280 C.ar  1 <1>  -0.1440 
 21 C        2.4270     9.0710    -2.8340 C.3   1 <1>   1.1630 
 22 F        3.5000     8.8250    -3.5770 F     1 <1>  -0.3400 
 23 F        2.5120    10.3450    -2.4700 F     1 <1>  -0.3400 
 24 F        1.3820     8.9840    -3.6450 F     1 <1>  -0.3400 
 25 H       -0.6480     0.6570     0.4610 H     1 <1>   0.0800 
 26 H        0.8770     0.4940     1.2430 H     1 <1>   0.0800 
 27 H        2.8280    -1.2470    -1.7710 H     1 <1>   0.0800 
 28 H        2.8600    -0.4050    -0.2420 H     1 <1>   0.0800 
 29 H        3.4950     0.3720    -1.6780 H     1 <1>   0.0800 
 30 H        1.3620    -0.5930    -3.4970 H     1 <1>   0.0800 
 31 H        1.8370     1.0970    -3.4700 H     1 <1>   0.0800 
 32 H        0.1600     0.6440    -3.2410 H     1 <1>   0.0800 
 33 H       -0.6230     1.8240     2.5780 H     1 <1>   0.0800 
 34 H       -1.7130     2.9850     0.3350 H     1 <1>   0.0800 
 35 H        1.9400     2.5680     2.2700 H     1 <1>   0.0800 
 36 H        0.8120     3.5370     3.2110 H     1 <1>   0.0800 
 37 H       -1.5120     4.0590     2.9660 H     1 <1>   0.4000 
 38 H       -0.6260     5.4640     1.0530 H     1 <1>   0.0800 
 39 H       -0.1610     4.5690    -0.3830 H     1 <1>   0.0800 
 40 H        1.7250     3.9170     0.4730 H     1 <1>   0.4500 
 41 H        1.2850     5.9590     2.5280 H     1 <1>   0.0800 
 42 H        2.8230     5.2130     2.1350 H     1 <1>   0.0800 
 43 H        0.6900     7.9200     1.3370 H     1 <1>   0.1500 
 44 H        3.4000     5.1450    -0.4840 H     1 <1>   0.1500 
 45 H        0.9280     9.3970    -0.5740 H     1 <1>   0.1500 
 46 H        3.6300     6.6220    -2.3860 H     1 <1>   0.1500 
@<TRIPOS>BOND
  1   1   2  2   
  2   1   3  2   
  3   1   4  am  
  4   1   5  1   
  5   4   6  1   
  6   4   7  1   
  7   5   8  1   
  8   5  25  1   
  9   5  26  1   
 10   6  27  1   
 11   6  28  1   
 12   6  29  1   
 13   7  30  1   
 14   7  31  1   
 15   7  32  1   
 16   8   9  1   
 17   8  10  1   
 18   8  33  1   
 19   9  11  1   
 20   9  12  1   
 21   9  34  1   
 22  10  13  1   
 23  10  35  1   
 24  10  36  1   
 25  11  37  1   
 26  12  13  1   
 27  12  38  1   
 28  12  39  1   
 29  13  14  1   
 30  13  40  1   
 31  14  15  1   
 32  14  41  1   
 33  14  42  1   
 34  15  16  ar  
 35  15  17  ar  
 36  16  18  ar  
 37  16  43  1   
 38  17  19  ar  
 39  17  44  1   
 40  18  20  ar  
 41  18  45  1   
 42  19  20  ar  
 43  19  46  1   
 44  20  21  1   
 45  21  22  1   
 46  21  23  1   
 47  21  24  1   
@<TRIPOS>SUBSTRUCTURE
  1 ****  13 GROUP 4 **** **** 0

# MOE 2024.06 (io_trps.svl 2023.06)
