@<TRIPOS>MOLECULE
NONAME
61 65 1 0 0 
SMALL
USER_CHARGES


@<TRIPOS>ATOM
  1 O        0.0760     0.3770     0.9570 O.2   1 <1>  -0.5700 
  2 C        0.1170     1.5920     0.9450 C.2   1 <1>   0.5440 
  3 N        1.3550     2.1860     0.9970 N.am  1 <1>  -0.6600 
  4 C       -1.1120     2.3360     0.7530 C.ar  1 <1>   0.0860 
  5 C        1.6780     3.5140     1.5910 C.3   1 <1>   0.1400 
  6 C        2.4390     1.6360     0.1350 C.3   1 <1>   0.1400 
  7 C       -1.7750     2.2130    -0.4680 C.ar  1 <1>  -0.1500 
  8 C       -1.6980     3.1560     1.7200 C.ar  1 <1>  -0.1500 
  9 C        2.1200     4.5580     0.5260 C.3   1 <1>   0.2800 
 10 C        3.2960     2.7470    -0.5030 C.3   1 <1>   0.1200 
 11 C       -2.9540     2.8830    -0.7240 C.ar  1 <1>  -0.1500 
 12 C       -2.8760     3.8410     1.4690 C.ar  1 <1>  -0.1500 
 13 O        2.5650     3.9370    -0.6590 O.3   1 <1>  -0.5600 
 14 C        3.2690     5.4460     1.0470 C.3   1 <1>  -0.1600 
 15 C        0.9130     5.4300     0.1360 C.3   1 <1>  -0.1600 
 16 C       -3.5090     3.7100     0.2370 C.ar  1 <1>   0.0830 
 17 C        3.6250     6.5590     0.0550 C.3   1 <1>   0.1400 
 18 C        1.2970     6.5910    -0.7820 C.3   1 <1>   0.1400 
 19 O       -4.6560     4.3440    -0.0940 O.3   1 <1>  -0.3630 
 20 N        2.4050     7.3710    -0.1630 N.am  1 <1>  -0.6600 
 21 C       -4.9770     5.6350     0.3770 C.3   1 <1>   0.1200 
 22 C        2.3330     8.6590     0.3030 C.2   1 <1>   0.5690 
 23 C       -3.9170     6.6200    -0.1240 C.3   1 <1>  -0.1600 
 24 O        3.3190     9.3280     0.4960 O.2   1 <1>  -0.5700 
 25 C        0.9980     9.2590     0.6850 C.3   1 <1>  -0.0990 
 26 C       -4.3790     8.0840    -0.0400 C.3   1 <1>   0.0960 
 27 C        0.2400     9.9090    -0.4810 C.3   1 <1>   0.0210 
 28 N       -3.2150     8.9940    -0.0600 N.pl3 1 <1>   0.3140 
 29 C       -1.2390     9.7420    -0.2040 C.2   1 <1>   0.0460 
 30 N       -3.0770     9.9890     0.8200 N.2   1 <1>  -0.4180 
 31 C       -2.0730     8.8380    -0.7330 C.2   1 <1>  -0.3020 
 32 N       -1.8800    10.4540     0.7280 N.2   1 <1>  -0.2270 
 33 H        2.4820     3.3690     2.2910 H     1 <1>   0.0800 
 34 H        0.8490     3.8880     2.1600 H     1 <1>   0.0800 
 35 H        1.9990     1.0470    -0.6520 H     1 <1>   0.0800 
 36 H        3.0630     0.9800     0.7160 H     1 <1>   0.0800 
 37 H       -1.3530     1.5700    -1.2210 H     1 <1>   0.1500 
 38 H       -1.2290     3.2420     2.6840 H     1 <1>   0.1500 
 39 H        3.6330     2.4360    -1.4760 H     1 <1>   0.0800 
 40 H        4.1620     2.9460     0.1020 H     1 <1>   0.0800 
 41 H       -3.4530     2.7690    -1.6700 H     1 <1>   0.1500 
 42 H       -3.3030     4.4590     2.2370 H     1 <1>   0.1500 
 43 H        4.1420     4.8550     1.2480 H     1 <1>   0.0800 
 44 H        2.9770     5.9050     1.9750 H     1 <1>   0.0800 
 45 H        0.4630     5.8420     1.0200 H     1 <1>   0.0800 
 46 H        0.1740     4.8180    -0.3490 H     1 <1>   0.0800 
 47 H        3.9540     6.1430    -0.8820 H     1 <1>   0.0800 
 48 H        4.4200     7.1660     0.4540 H     1 <1>   0.0800 
 49 H        0.4390     7.2100    -0.9630 H     1 <1>   0.0800 
 50 H        1.6330     6.2040    -1.7300 H     1 <1>   0.0800 
 51 H       -5.0420     5.6160     1.4500 H     1 <1>   0.0800 
 52 H       -5.9430     5.8810    -0.0290 H     1 <1>   0.0800 
 53 H       -3.6820     6.3920    -1.1490 H     1 <1>   0.0800 
 54 H       -3.0330     6.4920     0.4770 H     1 <1>   0.0800 
 55 H        1.1520     9.9960     1.4520 H     1 <1>   0.0800 
 56 H        0.4060     8.4780     1.1240 H     1 <1>   0.0800 
 57 H       -4.9070     8.2520     0.8820 H     1 <1>   0.0800 
 58 H       -5.0290     8.3300    -0.8600 H     1 <1>   0.0800 
 59 H        0.4850     9.4270    -1.4100 H     1 <1>   0.0800 
 60 H        0.4950    10.9510    -0.5640 H     1 <1>   0.0800 
 61 H       -1.9140     8.0950    -1.4900 H     1 <1>   0.1500 
@<TRIPOS>BOND
  1   1   2  2   
  2   2   3  am  
  3   2   4  1   
  4   3   5  1   
  5   3   6  1   
  6   4   7  ar  
  7   4   8  ar  
  8   5   9  1   
  9   5  33  1   
 10   5  34  1   
 11   6  10  1   
 12   6  35  1   
 13   6  36  1   
 14   7  11  ar  
 15   7  37  1   
 16   8  12  ar  
 17   8  38  1   
 18   9  13  1   
 19   9  14  1   
 20   9  15  1   
 21  10  13  1   
 22  10  39  1   
 23  10  40  1   
 24  11  16  ar  
 25  11  41  1   
 26  12  16  ar  
 27  12  42  1   
 28  14  17  1   
 29  14  43  1   
 30  14  44  1   
 31  15  18  1   
 32  15  45  1   
 33  15  46  1   
 34  16  19  1   
 35  17  20  1   
 36  17  47  1   
 37  17  48  1   
 38  18  20  1   
 39  18  49  1   
 40  18  50  1   
 41  19  21  1   
 42  20  22  am  
 43  21  23  1   
 44  21  51  1   
 45  21  52  1   
 46  22  24  2   
 47  22  25  1   
 48  23  26  1   
 49  23  53  1   
 50  23  54  1   
 51  25  27  1   
 52  25  55  1   
 53  25  56  1   
 54  26  28  1   
 55  26  57  1   
 56  26  58  1   
 57  27  29  1   
 58  27  59  1   
 59  27  60  1   
 60  28  30  1   
 61  28  31  1   
 62  29  31  2   
 63  29  32  1   
 64  30  32  2   
 65  31  61  1   
@<TRIPOS>SUBSTRUCTURE
  1 ****  15 GROUP 4 **** **** 0

# MOE 2024.06 (io_trps.svl 2023.06)
