@<TRIPOS>MOLECULE
NONAME
54 57 1 0 0 
SMALL
USER_CHARGES


@<TRIPOS>ATOM
  1 O       -1.2280    -0.9360     0.6230 O.2   1 <1>  -0.5700 
  2 C       -2.0790    -0.1970     0.1650 C.2   1 <1>   0.5440 
  3 N       -1.6810     0.9770    -0.4410 N.am  1 <1>  -0.6600 
  4 C       -3.4690    -0.5680     0.2840 C.ar  1 <1>   0.0860 
  5 C       -0.2580     1.2230    -0.8280 C.3   1 <1>   0.1400 
  6 C       -2.5190     2.2140    -0.4860 C.3   1 <1>   0.1400 
  7 C       -3.9530    -1.1210     1.4650 C.ar  1 <1>   0.1600 
  8 C       -4.3850    -0.4130    -0.7520 C.ar  1 <1>  -0.1500 
  9 C        0.3090     2.4330    -0.0700 C.3   1 <1>   0.1200 
 10 C       -1.8160     3.3740     0.2410 C.3   1 <1>   0.1200 
 11 N       -5.2010    -1.4860     1.6990 N.ar  1 <1>  -0.6200 
 12 C       -5.6850    -0.7930    -0.5290 C.ar  1 <1>  -0.1500 
 13 O       -0.5160     3.5520    -0.2450 O.3   1 <1>  -0.5600 
 14 C       -6.0700    -1.3190     0.7060 C.ar  1 <1>   0.4100 
 15 N       -7.3710    -1.7060     0.9480 N.pl3 1 <1>  -0.8380 
 16 C       -7.6820    -2.8570     1.8610 C.3   1 <1>   0.3900 
 17 C       -8.5420    -1.2090     0.1750 C.3   1 <1>   0.1290 
 18 C       -8.2800    -4.0350     1.0910 C.2   1 <1>   0.1080 
 19 N       -9.5430    -4.3490     1.1420 N.2   1 <1>  -0.7070 
 20 C       -7.5640    -4.8940     0.2550 C.2   1 <1>  -0.1810 
 21 N       -9.6600    -5.4210     0.3380 N.pl3 1 <1>   0.3000 
 22 C       -8.4790    -5.7680    -0.2110 C.2   1 <1>  -0.3320 
 23 C       -6.0820    -4.8470    -0.0730 C.3   1 <1>   0.0210 
 24 C       -8.2950    -6.9290    -1.1700 C.3   1 <1>   0.0200 
 25 C       -5.3920    -6.1970     0.1560 C.3   1 <1>  -0.1600 
 26 C       -7.1680    -7.8670    -0.7200 C.3   1 <1>  -0.1600 
 27 C       -5.7540    -7.2810    -0.8750 C.3   1 <1>  -0.1600 
 28 H       -0.2080     1.4150    -1.8850 H     1 <1>   0.0800 
 29 H        0.3490     0.3580    -0.6240 H     1 <1>   0.0800 
 30 H       -3.4750     2.0450    -0.0230 H     1 <1>   0.0800 
 31 H       -2.6870     2.4910    -1.5120 H     1 <1>   0.0800 
 32 H       -3.2490    -1.2670     2.2670 H     1 <1>   0.1500 
 33 H       -4.0710    -0.0150    -1.7010 H     1 <1>   0.1500 
 34 H        1.2860     2.6820    -0.4440 H     1 <1>   0.0800 
 35 H        0.3840     2.2170     0.9820 H     1 <1>   0.0800 
 36 H       -1.7650     3.1830     1.2990 H     1 <1>   0.0800 
 37 H       -2.3530     4.2920     0.0820 H     1 <1>   0.0800 
 38 H       -6.4120    -0.6980    -1.3110 H     1 <1>   0.1500 
 39 H       -8.3870    -2.5310     2.6050 H     1 <1>   0.0800 
 40 H       -6.8030    -3.1960     2.3770 H     1 <1>   0.0800 
 41 H       -8.3650    -0.2070    -0.1730 H     1 <1>   0.0800 
 42 H       -9.4170    -1.2040     0.8010 H     1 <1>   0.0800 
 43 H       -8.7230    -1.8570    -0.6660 H     1 <1>   0.0800 
 44 H      -10.5580    -5.8930     0.1860 H     1 <1>   0.2700 
 45 H       -5.6020    -4.1150     0.5490 H     1 <1>   0.0800 
 46 H       -5.9560    -4.5320    -1.0940 H     1 <1>   0.0800 
 47 H       -8.0870    -6.5500    -2.1550 H     1 <1>   0.0800 
 48 H       -9.2090    -7.4940    -1.2230 H     1 <1>   0.0800 
 49 H       -5.6150    -6.5460     1.1490 H     1 <1>   0.0800 
 50 H       -4.3300    -6.0330     0.1050 H     1 <1>   0.0800 
 51 H       -7.2240    -8.7580    -1.3190 H     1 <1>   0.0800 
 52 H       -7.3310    -8.1570     0.3040 H     1 <1>   0.0800 
 53 H       -5.0530    -8.0890    -0.7540 H     1 <1>   0.0800 
 54 H       -5.6230    -6.8960    -1.8720 H     1 <1>   0.0800 
@<TRIPOS>BOND
  1   1   2  2   
  2   2   3  am  
  3   2   4  1   
  4   3   5  1   
  5   3   6  1   
  6   4   7  ar  
  7   4   8  ar  
  8   5   9  1   
  9   5  28  1   
 10   5  29  1   
 11   6  10  1   
 12   6  30  1   
 13   6  31  1   
 14   7  11  ar  
 15   7  32  1   
 16   8  12  ar  
 17   8  33  1   
 18   9  13  1   
 19   9  34  1   
 20   9  35  1   
 21  10  13  1   
 22  10  36  1   
 23  10  37  1   
 24  11  14  ar  
 25  12  14  ar  
 26  12  38  1   
 27  14  15  1   
 28  15  16  1   
 29  15  17  1   
 30  16  18  1   
 31  16  39  1   
 32  16  40  1   
 33  17  41  1   
 34  17  42  1   
 35  17  43  1   
 36  18  19  2   
 37  18  20  1   
 38  19  21  1   
 39  20  22  2   
 40  20  23  1   
 41  21  22  1   
 42  21  44  1   
 43  22  24  1   
 44  23  25  1   
 45  23  45  1   
 46  23  46  1   
 47  24  26  1   
 48  24  47  1   
 49  24  48  1   
 50  25  27  1   
 51  25  49  1   
 52  25  50  1   
 53  26  27  1   
 54  26  51  1   
 55  26  52  1   
 56  27  53  1   
 57  27  54  1   
@<TRIPOS>SUBSTRUCTURE
  1 ****  14 GROUP 4 **** **** 0

# MOE 2024.06 (io_trps.svl 2023.06)
