@<TRIPOS>MOLECULE
NONAME
52 54 1 0 0 
SMALL
USER_CHARGES


@<TRIPOS>ATOM
  1 O        1.8560    -3.9810     1.0760 O.2   1 <1>  -0.5700 
  2 C        1.5890    -3.0410     0.3410 C.2   1 <1>   0.5440 
  3 N        2.0320    -1.7790     0.7060 N.am  1 <1>  -0.6600 
  4 C        0.8120    -3.2820    -0.8720 C.ar  1 <1>   0.3960 
  5 C        3.0760    -1.5960     1.7550 C.3   1 <1>   0.0600 
  6 C        1.3780    -0.5110     0.2720 C.3   1 <1>   0.0600 
  7 N       -0.2450    -4.1030    -0.8120 N.ar  1 <1>  -0.6200 
  8 C        1.1940    -2.6720    -2.0700 C.ar  1 <1>   0.1600 
  9 C       -0.8500    -4.2910    -1.9710 C.ar  1 <1>   0.4100 
 10 N        0.5750    -2.8110    -3.2340 N.ar  1 <1>  -0.6200 
 11 N       -1.9040    -5.1920    -1.9510 N.pl3 1 <1>  -0.8380 
 12 C       -0.4470    -3.6400    -3.1470 C.ar  1 <1>   0.1600 
 13 C       -1.6980    -6.4430    -1.1660 C.3   1 <1>   0.2090 
 14 C       -3.2840    -4.6310    -1.8340 C.3   1 <1>   0.2090 
 15 C       -2.2640    -6.1710     0.2400 C.3   1 <1>   0.4230 
 16 C       -3.8430    -4.7310    -0.3890 C.3   1 <1>  -0.1600 
 17 N       -1.5480    -6.7760     1.4260 N.4   1 <1>  -0.9590 
 18 C       -3.8580    -6.2450     0.1950 C.3   1 <1>   0.0000 
 19 C       -1.4510    -8.2390     1.3740 C.3   1 <1>   0.3430 
 20 C       -0.2070    -6.1340     1.6290 C.3   1 <1>   0.2630 
 21 C       -3.9030    -7.7790     0.7060 C.3   1 <1>  -0.1600 
 22 C       -5.4620    -6.2290     0.1900 C.3   1 <1>   0.1200 
 23 C       -2.7040    -8.7640     0.7000 C.3   1 <1>  -0.1600 
 24 O       -5.8880    -5.5120     1.3060 O.3   1 <1>  -0.6800 
 25 H        3.7630    -0.8230     1.4590 H     1 <1>   0.0800 
 26 H        3.6310    -2.5060     1.9030 H     1 <1>   0.0800 
 27 H        2.6110    -1.3200     2.6860 H     1 <1>   0.0800 
 28 H        1.1660     0.1010     1.1320 H     1 <1>   0.0800 
 29 H        0.4490    -0.7070    -0.2350 H     1 <1>   0.0800 
 30 H        2.0340     0.0310    -0.3870 H     1 <1>   0.0800 
 31 H        2.0620    -2.0360    -2.0590 H     1 <1>   0.1500 
 32 H       -1.0080    -3.8420    -4.0410 H     1 <1>   0.1500 
 33 H       -2.2160    -7.2510    -1.6500 H     1 <1>   0.0800 
 34 H       -0.6480    -6.6750    -1.1210 H     1 <1>   0.0800 
 35 H       -3.2780    -3.5970    -2.1420 H     1 <1>   0.0800 
 36 H       -3.9310    -5.1660    -2.5090 H     1 <1>   0.0800 
 37 H       -1.9720    -5.1500     0.3820 H     1 <1>   0.0800 
 38 H       -3.3190    -4.0410     0.2540 H     1 <1>   0.0800 
 39 H       -4.7770    -4.1960    -0.4560 H     1 <1>   0.0800 
 40 H       -2.1380    -6.5350     2.2340 H     1 <1>   0.4500 
 41 H       -0.5820    -8.5440     0.8130 H     1 <1>   0.0800 
 42 H       -1.3710    -8.6330     2.3750 H     1 <1>   0.0800 
 43 H        0.4390    -6.3240     0.7870 H     1 <1>   0.0800 
 44 H        0.2670    -6.5110     2.5200 H     1 <1>   0.0800 
 45 H       -0.3130    -5.0650     1.7260 H     1 <1>   0.0800 
 46 H       -4.2970    -7.7830     1.7120 H     1 <1>   0.0800 
 47 H       -4.5700    -8.3640     0.0910 H     1 <1>   0.0800 
 48 H       -6.0100    -7.1530     0.2590 H     1 <1>   0.0800 
 49 H       -5.8880    -5.7890    -0.6980 H     1 <1>   0.0800 
 50 H       -2.4590    -9.0340    -0.3120 H     1 <1>   0.0800 
 51 H       -2.9900    -9.6810     1.1870 H     1 <1>   0.0800 
 52 H       -6.8660    -5.4640     1.3460 H     1 <1>   0.4000 
@<TRIPOS>BOND
  1   1   2  2   
  2   2   3  am  
  3   2   4  1   
  4   3   5  1   
  5   3   6  1   
  6   4   7  ar  
  7   4   8  ar  
  8   5  25  1   
  9   5  26  1   
 10   5  27  1   
 11   6  28  1   
 12   6  29  1   
 13   6  30  1   
 14   7   9  ar  
 15   8  10  ar  
 16   8  31  1   
 17   9  11  1   
 18   9  12  ar  
 19  10  12  ar  
 20  11  13  1   
 21  11  14  1   
 22  12  32  1   
 23  13  15  1   
 24  13  33  1   
 25  13  34  1   
 26  14  16  1   
 27  14  35  1   
 28  14  36  1   
 29  15  17  1   
 30  15  18  1   
 31  15  37  1   
 32  16  18  1   
 33  16  38  1   
 34  16  39  1   
 35  17  19  1   
 36  17  20  1   
 37  17  40  1   
 38  18  21  1   
 39  18  22  1   
 40  19  23  1   
 41  19  41  1   
 42  19  42  1   
 43  20  43  1   
 44  20  44  1   
 45  20  45  1   
 46  21  23  1   
 47  21  46  1   
 48  21  47  1   
 49  22  24  1   
 50  22  48  1   
 51  22  49  1   
 52  23  50  1   
 53  23  51  1   
 54  24  52  1   
@<TRIPOS>SUBSTRUCTURE
  1 ****   7 GROUP 4 **** **** 0

# MOE 2024.06 (io_trps.svl 2023.06)
