@<TRIPOS>MOLECULE
NONAME
47 50 1 0 0 
SMALL
USER_CHARGES


@<TRIPOS>ATOM
  1 O       -0.6620     0.1430    -0.6440 O.2   1 <1>  -0.5700 
  2 C       -1.4300     0.8190     0.0140 C.2   1 <1>   0.5440 
  3 N       -2.5200     0.2040     0.5880 N.am  1 <1>  -0.6600 
  4 C       -1.1930     2.2390     0.1530 C.ar  1 <1>   0.0860 
  5 C       -2.5920    -1.2860     0.7320 C.3   1 <1>   0.1400 
  6 C       -3.8660     0.8510     0.6780 C.3   1 <1>   0.1400 
  7 C       -1.4540     2.9000     1.3510 C.ar  1 <1>   0.1600 
  8 C       -0.6920     3.0080    -0.8900 C.ar  1 <1>  -0.1500 
  9 C       -3.6670    -1.8800    -0.1950 C.3   1 <1>   0.3440 
 10 C       -4.8820     0.1360    -0.2370 C.3   1 <1>   0.2950 
 11 N       -1.3010     4.1930     1.5750 N.ar  1 <1>  -0.6200 
 12 C       -0.5120     4.3560    -0.6780 C.ar  1 <1>  -0.1500 
 13 O       -4.8970    -1.2370     0.0230 O.3   1 <1>  -0.5600 
 14 C       -3.8180    -3.3780     0.0540 C.ar  1 <1>  -0.1430 
 15 C       -6.3030     0.6620    -0.0150 C.3   1 <1>  -0.1950 
 16 C       -0.8310     4.9080     0.5630 C.ar  1 <1>   0.3930 
 17 C       -3.0280    -4.2700    -0.6590 C.ar  1 <1>  -0.1500 
 18 C       -4.7160    -3.8750     0.9890 C.ar  1 <1>  -0.1500 
 19 C       -7.3580     0.5120    -1.0650 C.3   1 <1>  -0.2000 
 20 C       -6.8020     1.8710    -0.7430 C.3   1 <1>  -0.2000 
 21 O       -0.6840     6.2180     0.8310 O.3   1 <1>  -0.3620 
 22 C       -3.1330    -5.6330    -0.4410 C.ar  1 <1>  -0.1500 
 23 C       -4.8230    -5.2370     1.2080 C.ar  1 <1>  -0.1500 
 24 C       -0.1320     7.1410    -0.0810 C.3   1 <1>   0.0400 
 25 C       -4.0310    -6.1180     0.4930 C.ar  1 <1>  -0.1500 
 26 H       -1.6410    -1.7370     0.5050 H     1 <1>   0.0800 
 27 H       -2.8330    -1.5340     1.7500 H     1 <1>   0.0800 
 28 H       -4.2140     0.8080     1.6960 H     1 <1>   0.0800 
 29 H       -3.8140     1.8860     0.3890 H     1 <1>   0.0800 
 30 H       -1.8160     2.3130     2.1780 H     1 <1>   0.1500 
 31 H       -0.4520     2.5480    -1.8330 H     1 <1>   0.1500 
 32 H       -3.3860    -1.7200    -1.2220 H     1 <1>   0.0800 
 33 H       -4.6050     0.2770    -1.2680 H     1 <1>   0.0800 
 34 H       -0.1270     4.9640    -1.4720 H     1 <1>   0.1500 
 35 H       -6.6180     0.5440     1.0080 H     1 <1>   0.1000 
 36 H       -2.3240    -3.9080    -1.3880 H     1 <1>   0.1500 
 37 H       -5.3400    -3.1990     1.5480 H     1 <1>   0.1500 
 38 H       -7.0940     0.0420    -1.9960 H     1 <1>   0.1000 
 39 H       -8.3580     0.2660    -0.7510 H     1 <1>   0.1000 
 40 H       -7.4310     2.5710    -0.2180 H     1 <1>   0.1000 
 41 H       -6.1790     2.3500    -1.4780 H     1 <1>   0.1000 
 42 H       -2.5170    -6.3160    -0.9990 H     1 <1>   0.1500 
 43 H       -5.5240    -5.6110     1.9340 H     1 <1>   0.1500 
 44 H       -0.1060     8.1040     0.3970 H     1 <1>   0.0800 
 45 H       -0.7550     7.1850    -0.9560 H     1 <1>   0.0800 
 46 H        0.8680     6.8310    -0.3310 H     1 <1>   0.0800 
 47 H       -4.1140    -7.1770     0.6630 H     1 <1>   0.1500 
@<TRIPOS>BOND
  1   1   2  2   
  2   2   3  am  
  3   2   4  1   
  4   3   5  1   
  5   3   6  1   
  6   4   7  ar  
  7   4   8  ar  
  8   5   9  1   
  9   5  26  1   
 10   5  27  1   
 11   6  10  1   
 12   6  28  1   
 13   6  29  1   
 14   7  11  ar  
 15   7  30  1   
 16   8  12  ar  
 17   8  31  1   
 18   9  13  1   
 19   9  14  1   
 20   9  32  1   
 21  10  13  1   
 22  10  15  1   
 23  10  33  1   
 24  11  16  ar  
 25  12  16  ar  
 26  12  34  1   
 27  14  17  ar  
 28  14  18  ar  
 29  15  19  1   
 30  15  20  1   
 31  15  35  1   
 32  16  21  1   
 33  17  22  ar  
 34  17  36  1   
 35  18  23  ar  
 36  18  37  1   
 37  19  20  1   
 38  19  38  1   
 39  19  39  1   
 40  20  40  1   
 41  20  41  1   
 42  21  24  1   
 43  22  25  ar  
 44  22  42  1   
 45  23  25  ar  
 46  23  43  1   
 47  24  44  1   
 48  24  45  1   
 49  24  46  1   
 50  25  47  1   
@<TRIPOS>SUBSTRUCTURE
  1 ****   3 GROUP 4 **** **** 0

# MOE 2024.06 (io_trps.svl 2023.06)
