@<TRIPOS>MOLECULE
NONAME
55 58 1 0 0 
SMALL
USER_CHARGES


@<TRIPOS>ATOM
  1 S       -1.0660    -0.9530     0.1300 S.3   1 <1>  -0.0800 
  2 C       -0.9250     0.7800    -0.1490 C.2   1 <1>   0.4620 
  3 C       -1.4130    -1.1830    -1.5640 C.2   1 <1>  -0.1400 
  4 N       -1.1160     1.1180    -1.3740 N.2   1 <1>  -0.5650 
  5 N       -0.6500     1.6130     0.9080 N.pl3 1 <1>  -0.8220 
  6 C       -1.3800     0.0170    -2.1630 C.2   1 <1>   0.0770 
  7 C       -1.6870    -2.5890    -2.0540 C.3   1 <1>   0.2900 
  8 C       -0.4640     3.0630     0.7100 C.3   1 <1>   0.2090 
  9 C       -0.1400     1.1730     2.2220 C.3   1 <1>   0.2090 
 10 N       -2.8830    -3.1340    -1.3800 N.3   1 <1>  -0.8100 
 11 C       -0.0580     3.5850     2.0830 C.3   1 <1>  -0.1600 
 12 C        0.5940     2.3900     2.7740 C.3   1 <1>  -0.1600 
 13 C       -4.1180    -2.3560    -1.6560 C.3   1 <1>   0.1100 
 14 C       -3.0910    -4.5690    -1.6660 C.3   1 <1>   0.1100 
 15 C       -5.3140    -2.8420    -0.7950 C.3   1 <1>   0.4230 
 16 C       -4.3560    -5.1290    -0.9700 C.3   1 <1>   0.3430 
 17 N       -4.9800    -4.1140    -0.0500 N.4   1 <1>  -0.9590 
 18 C       -6.5960    -3.0170    -1.6420 C.3   1 <1>   0.1200 
 19 C       -6.1690    -4.5800     0.7330 C.3   1 <1>   0.4230 
 20 O       -7.6530    -3.4870    -0.8510 O.3   1 <1>  -0.5600 
 21 C       -7.4160    -4.6940    -0.1780 C.3   1 <1>   0.1200 
 22 C       -5.8470    -5.8840     1.4790 C.3   1 <1>  -0.1600 
 23 C       -6.8880    -6.2150     2.5600 C.3   1 <1>  -0.1600 
 24 C       -6.4880    -7.4740     3.3340 C.3   1 <1>  -0.2400 
 25 H       -1.5500     0.1960    -3.2110 H     1 <1>   0.1500 
 26 H       -0.8320    -3.2040    -1.8280 H     1 <1>   0.0800 
 27 H       -1.8320    -2.5830    -3.1210 H     1 <1>   0.0800 
 28 H        0.3220     3.2230    -0.0080 H     1 <1>   0.0800 
 29 H       -1.3740     3.5190     0.3590 H     1 <1>   0.0800 
 30 H       -0.9730     0.9150     2.8540 H     1 <1>   0.0800 
 31 H        0.5230     0.3290     2.1250 H     1 <1>   0.0800 
 32 H        0.6040     4.4290     2.0070 H     1 <1>   0.0800 
 33 H       -0.9440     3.8790     2.6170 H     1 <1>   0.0800 
 34 H        0.5250     2.4460     3.8460 H     1 <1>   0.0800 
 35 H        1.6300     2.3260     2.4910 H     1 <1>   0.0800 
 36 H       -3.9580    -1.3140    -1.4330 H     1 <1>   0.0800 
 37 H       -4.3590    -2.4240    -2.7040 H     1 <1>   0.0800 
 38 H       -3.1730    -4.7270    -2.7290 H     1 <1>   0.0800 
 39 H       -2.2340    -5.1240    -1.3220 H     1 <1>   0.0800 
 40 H       -5.5200    -2.0680    -0.0750 H     1 <1>   0.0800 
 41 H       -4.0790    -6.0110    -0.4160 H     1 <1>   0.0800 
 42 H       -5.0680    -5.4270    -1.7210 H     1 <1>   0.0800 
 43 H       -4.2210    -3.8340     0.5870 H     1 <1>   0.4500 
 44 H       -6.4400    -3.7070    -2.4520 H     1 <1>   0.0800 
 45 H       -6.8980    -2.0700    -2.0540 H     1 <1>   0.0800 
 46 H       -6.3940    -3.8320     1.4770 H     1 <1>   0.0800 
 47 H       -8.2910    -4.9040     0.4120 H     1 <1>   0.0800 
 48 H       -7.3000    -5.4790    -0.9040 H     1 <1>   0.0800 
 49 H       -5.7990    -6.7080     0.7880 H     1 <1>   0.0800 
 50 H       -4.8900    -5.7820     1.9610 H     1 <1>   0.0800 
 51 H       -6.9740    -5.3950     3.2540 H     1 <1>   0.0800 
 52 H       -7.8560    -6.3810     2.1180 H     1 <1>   0.0800 
 53 H       -5.5400    -7.3370     3.8240 H     1 <1>   0.0800 
 54 H       -6.4190    -8.3230     2.6760 H     1 <1>   0.0800 
 55 H       -7.2260    -7.6920     4.0870 H     1 <1>   0.0800 
@<TRIPOS>BOND
  1   1   2  1   
  2   1   3  1   
  3   2   4  2   
  4   2   5  1   
  5   3   6  2   
  6   3   7  1   
  7   4   6  1   
  8   5   8  1   
  9   5   9  1   
 10   6  25  1   
 11   7  10  1   
 12   7  26  1   
 13   7  27  1   
 14   8  11  1   
 15   8  28  1   
 16   8  29  1   
 17   9  12  1   
 18   9  30  1   
 19   9  31  1   
 20  10  13  1   
 21  10  14  1   
 22  11  12  1   
 23  11  32  1   
 24  11  33  1   
 25  12  34  1   
 26  12  35  1   
 27  13  15  1   
 28  13  36  1   
 29  13  37  1   
 30  14  16  1   
 31  14  38  1   
 32  14  39  1   
 33  15  17  1   
 34  15  18  1   
 35  15  40  1   
 36  16  17  1   
 37  16  41  1   
 38  16  42  1   
 39  17  19  1   
 40  17  43  1   
 41  18  20  1   
 42  18  44  1   
 43  18  45  1   
 44  19  21  1   
 45  19  22  1   
 46  19  46  1   
 47  20  21  1   
 48  21  47  1   
 49  21  48  1   
 50  22  23  1   
 51  22  49  1   
 52  22  50  1   
 53  23  24  1   
 54  23  51  1   
 55  23  52  1   
 56  24  53  1   
 57  24  54  1   
 58  24  55  1   
@<TRIPOS>SUBSTRUCTURE
  1 ****  10 GROUP 4 **** **** 0

# MOE 2024.06 (io_trps.svl 2023.06)
