@<TRIPOS>MOLECULE
NONAME
40 42 1 0 0 
SMALL
USER_CHARGES


@<TRIPOS>ATOM
  1 F       -0.5820    -0.5710    -0.1710 F     1 <1>  -0.1900 
  2 C       -1.7580    -1.1590    -0.1120 C.ar  1 <1>   0.1900 
  3 C       -2.9650    -0.4730    -0.2160 C.ar  1 <1>   0.3930 
  4 C       -1.7910    -2.5180     0.0600 C.ar  1 <1>   0.1600 
  5 O       -3.1050     0.8620    -0.3890 O.3   1 <1>  -0.3620 
  6 N       -4.1070    -1.1220    -0.1500 N.ar  1 <1>  -0.6200 
  7 N       -2.9290    -3.1750     0.1270 N.ar  1 <1>  -0.6200 
  8 C       -2.0370     1.7810    -0.4520 C.3   1 <1>   0.0400 
  9 C       -4.0260    -2.4320     0.0200 C.ar  1 <1>   0.7200 
 10 N       -5.2240    -3.0510     0.0930 N.pl3 1 <1>  -0.8690 
 11 C       -5.4550    -4.4800    -0.2360 C.3   1 <1>   0.2090 
 12 C       -5.5920    -5.2930     1.0460 C.3   1 <1>  -0.0170 
 13 C       -5.9380    -6.7250     0.7030 C.ar  1 <1>   0.4770 
 14 N       -4.9470    -7.6050     0.7730 N.ar  1 <1>  -0.6200 
 15 N       -7.1990    -6.9470     0.3580 N.ar  1 <1>  -0.6200 
 16 C       -5.2490    -8.8500     0.4700 C.ar  1 <1>   0.1670 
 17 C       -7.4620    -8.1980     0.0670 C.ar  1 <1>   0.1670 
 18 C       -6.5310    -9.1920     0.1040 C.ar  1 <1>  -0.1430 
 19 C       -4.1220    -9.8590     0.5460 C.3   1 <1>  -0.0970 
 20 C       -8.8150    -8.7070    -0.3500 C.3   1 <1>  -0.0170 
 21 C       -7.1330   -10.5220    -0.2880 C.3   1 <1>  -0.0170 
 22 C       -8.6460   -10.2380    -0.3390 C.3   1 <1>  -0.1600 
 23 H       -0.8730    -3.0720     0.1430 H     1 <1>   0.1500 
 24 H       -2.4520     2.7660    -0.5730 H     1 <1>   0.0800 
 25 H       -1.4170     1.5430    -1.2990 H     1 <1>   0.0800 
 26 H       -1.4760     1.7340     0.4650 H     1 <1>   0.0800 
 27 H       -5.9960    -2.4140    -0.1000 H     1 <1>   0.4000 
 28 H       -4.6380    -4.8680    -0.8230 H     1 <1>   0.0800 
 29 H       -6.3560    -4.5670    -0.8190 H     1 <1>   0.0800 
 30 H       -6.3730    -4.8820     1.6570 H     1 <1>   0.0800 
 31 H       -4.6680    -5.2610     1.5920 H     1 <1>   0.0800 
 32 H       -3.3180    -9.5440    -0.0940 H     1 <1>   0.0800 
 33 H       -4.4450   -10.8360     0.2410 H     1 <1>   0.0800 
 34 H       -3.7580    -9.9110     1.5560 H     1 <1>   0.0800 
 35 H       -9.0400    -8.3460    -1.3380 H     1 <1>   0.0800 
 36 H       -9.5740    -8.3850     0.3400 H     1 <1>   0.0800 
 37 H       -6.9040   -11.2860     0.4330 H     1 <1>   0.0800 
 38 H       -6.7670   -10.8110    -1.2580 H     1 <1>   0.0800 
 39 H       -9.1070   -10.6930    -1.1990 H     1 <1>   0.0800 
 40 H       -9.1060   -10.6320     0.5510 H     1 <1>   0.0800 
@<TRIPOS>BOND
  1   1   2  1   
  2   2   3  ar  
  3   2   4  ar  
  4   3   5  1   
  5   3   6  ar  
  6   4   7  ar  
  7   4  23  1   
  8   5   8  1   
  9   6   9  ar  
 10   7   9  ar  
 11   8  24  1   
 12   8  25  1   
 13   8  26  1   
 14   9  10  1   
 15  10  11  1   
 16  10  27  1   
 17  11  12  1   
 18  11  28  1   
 19  11  29  1   
 20  12  13  1   
 21  12  30  1   
 22  12  31  1   
 23  13  14  ar  
 24  13  15  ar  
 25  14  16  ar  
 26  15  17  ar  
 27  16  18  ar  
 28  16  19  1   
 29  17  18  ar  
 30  17  20  1   
 31  18  21  1   
 32  19  32  1   
 33  19  33  1   
 34  19  34  1   
 35  20  22  1   
 36  20  35  1   
 37  20  36  1   
 38  21  22  1   
 39  21  37  1   
 40  21  38  1   
 41  22  39  1   
 42  22  40  1   
@<TRIPOS>SUBSTRUCTURE
  1 ****  11 GROUP 4 **** **** 0

# MOE 2024.06 (io_trps.svl 2023.06)
