@<TRIPOS>MOLECULE
NONAME
44 45 1 0 0 
SMALL
USER_CHARGES


@<TRIPOS>ATOM
  1 S       -0.0190     0.2740     0.1340 S.o2  1 <1>   1.0900 
  2 O       -1.1640     0.9630     0.6800 O.2   1 <1>  -0.6500 
  3 O        0.7130    -0.6660     0.9490 O.2   1 <1>  -0.6500 
  4 C        1.1370     1.4870    -0.4780 C.3   1 <1>  -0.0550 
  5 C       -0.5430    -0.5740    -1.3430 C.3   1 <1>  -0.1350 
  6 C        1.6550     2.3670     0.6550 C.3   1 <1>   0.1100 
  7 N        2.7520     3.2140     0.1470 N.3   1 <1>  -0.8100 
  8 C        2.8380     4.5460     0.8240 C.3   1 <1>   0.3700 
  9 C        4.0340     2.4870     0.2330 C.3   1 <1>   0.1100 
 10 C        1.5260     5.3520     0.8080 C.2   1 <1>   0.2980 
 11 C        3.9560     5.3830     0.1740 C.3   1 <1>  -0.1600 
 12 C        5.1520     3.2790    -0.4460 C.3   1 <1>  -0.1600 
 13 O        0.8150     5.3620     1.9090 O.3   1 <1>  -0.0190 
 14 N        1.0420     6.0420    -0.1530 N.2   1 <1>  -0.5650 
 15 C        5.3090     4.6630     0.1870 C.3   1 <1>  -0.1600 
 16 N       -0.2020     6.1160     1.6250 N.2   1 <1>  -0.4100 
 17 C       -0.0590     6.5010     0.4210 C.2   1 <1>   0.3350 
 18 C       -1.0180     7.4070    -0.3220 C.3   1 <1>   0.0210 
 19 C       -0.3600     8.7550    -0.6010 C.3   1 <1>   0.1200 
 20 O       -1.2860     9.5780    -1.2380 O.3   1 <1>  -0.5600 
 21 C       -0.7880    10.8350    -1.5640 C.3   1 <1>   0.0400 
 22 H        0.6610     2.1190    -1.2020 H     1 <1>   0.0800 
 23 H        1.9590     0.9850    -0.9480 H     1 <1>   0.0800 
 24 H       -1.2480    -1.3420    -1.0900 H     1 <1>   0.0800 
 25 H        0.2940    -1.0310    -1.8330 H     1 <1>   0.0800 
 26 H       -1.0160     0.1090    -2.0220 H     1 <1>   0.0800 
 27 H        1.9990     1.7610     1.4790 H     1 <1>   0.0800 
 28 H        0.8270     2.9560     1.0090 H     1 <1>   0.0800 
 29 H        3.1020     4.3840     1.8550 H     1 <1>   0.0800 
 30 H        3.9500     1.5300    -0.2530 H     1 <1>   0.0800 
 31 H        4.2880     2.3140     1.2660 H     1 <1>   0.0800 
 32 H        4.0450     6.3200     0.6920 H     1 <1>   0.0800 
 33 H        3.6780     5.5980    -0.8430 H     1 <1>   0.0800 
 34 H        4.9220     3.3780    -1.4930 H     1 <1>   0.0800 
 35 H        6.0770     2.7360    -0.3620 H     1 <1>   0.0800 
 36 H        5.6550     4.5590     1.2010 H     1 <1>   0.0800 
 37 H        6.0360     5.2370    -0.3610 H     1 <1>   0.0800 
 38 H       -1.8990     7.5540     0.2750 H     1 <1>   0.0800 
 39 H       -1.2940     6.9390    -1.2480 H     1 <1>   0.0800 
 40 H        0.4950     8.6270    -1.2450 H     1 <1>   0.0800 
 41 H       -0.0580     9.2220     0.3210 H     1 <1>   0.0800 
 42 H       -1.5740    11.3910    -2.0450 H     1 <1>   0.0800 
 43 H        0.0430    10.7240    -2.2390 H     1 <1>   0.0800 
 44 H       -0.4830    11.3420    -0.6650 H     1 <1>   0.0800 
@<TRIPOS>BOND
  1   1   2  2   
  2   1   3  2   
  3   1   4  1   
  4   1   5  1   
  5   4   6  1   
  6   4  22  1   
  7   4  23  1   
  8   5  24  1   
  9   5  25  1   
 10   5  26  1   
 11   6   7  1   
 12   6  27  1   
 13   6  28  1   
 14   7   8  1   
 15   7   9  1   
 16   8  10  1   
 17   8  11  1   
 18   8  29  1   
 19   9  12  1   
 20   9  30  1   
 21   9  31  1   
 22  10  13  1   
 23  10  14  2   
 24  11  15  1   
 25  11  32  1   
 26  11  33  1   
 27  12  15  1   
 28  12  34  1   
 29  12  35  1   
 30  13  16  1   
 31  14  17  1   
 32  15  36  1   
 33  15  37  1   
 34  16  17  2   
 35  17  18  1   
 36  18  19  1   
 37  18  38  1   
 38  18  39  1   
 39  19  20  1   
 40  19  40  1   
 41  19  41  1   
 42  20  21  1   
 43  21  42  1   
 44  21  43  1   
 45  21  44  1   
@<TRIPOS>SUBSTRUCTURE
  1 ****  10 GROUP 4 **** **** 0

# MOE 2024.06 (io_trps.svl 2023.06)
