@<TRIPOS>MOLECULE
NONAME
47 50 1 0 0 
SMALL
USER_CHARGES


@<TRIPOS>ATOM
  1 S       -0.2600     0.0900    -1.3970 S.3   1 <1>  -0.0800 
  2 C       -1.3070     1.1080    -0.4190 C.2   1 <1>  -0.1400 
  3 C       -1.5520    -1.0840    -1.6150 C.2   1 <1>  -0.1100 
  4 C       -2.5250     0.5630    -0.3060 C.2   1 <1>  -0.1810 
  5 C       -0.8350     2.4200     0.2000 C.3   1 <1>   0.4600 
  6 C       -2.6730    -0.6900    -0.9810 C.2   1 <1>  -0.1500 
  7 C       -3.5890     1.2810     0.4910 C.3   1 <1>   0.0210 
  8 O       -1.8640     2.9260     1.0280 O.3   1 <1>  -0.5600 
  9 C        0.3660     2.1820     1.1350 C.3   1 <1>  -0.1600 
 10 C       -0.5330     3.4670    -0.8860 C.3   1 <1>  -0.1600 
 11 C       -3.2030     2.7680     0.6170 C.3   1 <1>   0.1200 
 12 C        1.6940     2.6200     0.5150 C.3   1 <1>   0.1400 
 13 C        0.3280     4.5980    -0.3280 C.3   1 <1>   0.1400 
 14 N        1.6450     4.0670     0.1420 N.am  1 <1>  -0.6600 
 15 C        2.7790     4.8340     0.2340 C.2   1 <1>   0.5690 
 16 O        3.8470     4.3530     0.5340 O.2   1 <1>  -0.5700 
 17 C        2.7110     6.3290    -0.0500 C.3   1 <1>  -0.0990 
 18 C        3.9680     7.1010     0.3750 C.3   1 <1>  -0.0170 
 19 C        3.7960     8.5830     0.0840 C.ar  1 <1>  -0.1430 
 20 C        4.1720     9.1020    -1.1450 C.ar  1 <1>  -0.1500 
 21 C        3.2550     9.4270     1.0420 C.ar  1 <1>  -0.1500 
 22 C        4.0080    10.4500    -1.4150 C.ar  1 <1>  -0.1500 
 23 C        3.0900    10.7750     0.7740 C.ar  1 <1>  -0.1500 
 24 C        3.4660    11.2870    -0.4560 C.ar  1 <1>  -0.1500 
 25 H       -1.3310    -1.9570    -2.2020 H     1 <1>   0.1500 
 26 H       -3.6030    -1.2300    -0.9580 H     1 <1>   0.1500 
 27 H       -3.6720     0.8410     1.4690 H     1 <1>   0.0800 
 28 H       -4.5410     1.2000    -0.0020 H     1 <1>   0.0800 
 29 H        0.4250     1.1410     1.3940 H     1 <1>   0.0800 
 30 H        0.2350     2.7340     2.0480 H     1 <1>   0.0800 
 31 H       -1.4440     3.8590    -1.2940 H     1 <1>   0.0800 
 32 H        0.0020     3.0080    -1.6970 H     1 <1>   0.0800 
 33 H       -3.8280     3.2510     1.3460 H     1 <1>   0.0800 
 34 H       -3.3330     3.2640    -0.3280 H     1 <1>   0.0800 
 35 H        1.9040     2.0360    -0.3650 H     1 <1>   0.0800 
 36 H        2.4880     2.4490     1.2230 H     1 <1>   0.0800 
 37 H       -0.1810     5.0640     0.5000 H     1 <1>   0.0800 
 38 H        0.4800     5.3340    -1.0980 H     1 <1>   0.0800 
 39 H        1.8680     6.7420     0.4730 H     1 <1>   0.0800 
 40 H        2.5590     6.4670    -1.1040 H     1 <1>   0.0800 
 41 H        4.8250     6.7240    -0.1550 H     1 <1>   0.0800 
 42 H        4.1470     6.9540     1.4260 H     1 <1>   0.0800 
 43 H        4.5940     8.4590    -1.8970 H     1 <1>   0.1500 
 44 H        2.9600     9.0380     2.0000 H     1 <1>   0.1500 
 45 H        4.3020    10.8470    -2.3710 H     1 <1>   0.1500 
 46 H        2.6710    11.4250     1.5210 H     1 <1>   0.1500 
 47 H        3.3390    12.3350    -0.6650 H     1 <1>   0.1500 
@<TRIPOS>BOND
  1   1   2  1   
  2   1   3  1   
  3   2   4  2   
  4   2   5  1   
  5   3   6  2   
  6   3  25  1   
  7   4   6  1   
  8   4   7  1   
  9   5   8  1   
 10   5   9  1   
 11   5  10  1   
 12   6  26  1   
 13   7  11  1   
 14   7  27  1   
 15   7  28  1   
 16   8  11  1   
 17   9  12  1   
 18   9  29  1   
 19   9  30  1   
 20  10  13  1   
 21  10  31  1   
 22  10  32  1   
 23  11  33  1   
 24  11  34  1   
 25  12  14  1   
 26  12  35  1   
 27  12  36  1   
 28  13  14  1   
 29  13  37  1   
 30  13  38  1   
 31  14  15  am  
 32  15  16  2   
 33  15  17  1   
 34  17  18  1   
 35  17  39  1   
 36  17  40  1   
 37  18  19  1   
 38  18  41  1   
 39  18  42  1   
 40  19  20  ar  
 41  19  21  ar  
 42  20  22  ar  
 43  20  43  1   
 44  21  23  ar  
 45  21  44  1   
 46  22  24  ar  
 47  22  45  1   
 48  23  24  ar  
 49  23  46  1   
 50  24  47  1   
@<TRIPOS>SUBSTRUCTURE
  1 ****  13 GROUP 4 **** **** 0

# MOE 2024.06 (io_trps.svl 2023.06)
