@<TRIPOS>MOLECULE
NONAME
49 51 1 0 0 
SMALL
USER_CHARGES


@<TRIPOS>ATOM
  1 O       -0.9240    -0.0230    -0.8710 O.2   1 <1>  -0.5700 
  2 C       -1.5690     1.0090    -0.7810 C.2   1 <1>   0.7160 
  3 N       -2.9200     0.8980    -0.4810 N.am  1 <1>  -0.6600 
  4 C       -0.8750     2.2710    -1.0030 C.2   1 <1>   0.1410 
  5 C       -3.4900    -0.3760     0.0580 C.3   1 <1>   0.1400 
  6 C       -3.9150     1.9670    -0.7800 C.3   1 <1>   0.1400 
  7 N       -1.2680     3.4780    -0.5270 N.2   1 <1>  -0.2270 
  8 C        0.2820     2.4700    -1.6800 C.2   1 <1>  -0.3020 
  9 C       -4.2570    -0.1660     1.3730 C.3   1 <1>   0.1400 
 10 C       -4.3210     2.6750     0.5170 C.3   1 <1>  -0.1600 
 11 N       -0.4210     4.3710    -0.8920 N.2   1 <1>  -0.4180 
 12 N        0.5370     3.7690    -1.5970 N.pl3 1 <1>   0.3000 
 13 N       -5.5550     0.5430     1.1480 N.am  1 <1>  -0.6600 
 14 C       -5.5140     2.0350     1.2410 C.3   1 <1>   0.1400 
 15 C       -6.7520    -0.1010     0.9370 C.2   1 <1>   0.5690 
 16 O       -7.7910     0.5080     0.8350 O.2   1 <1>  -0.5700 
 17 C       -6.7980    -1.6210     0.8310 C.3   1 <1>  -0.0990 
 18 C       -8.1390    -2.1730     0.3270 C.3   1 <1>  -0.0170 
 19 C       -8.0670    -3.6870     0.2040 C.ar  1 <1>  -0.1430 
 20 C       -8.3880    -4.4910     1.2860 C.ar  1 <1>  -0.1500 
 21 C       -7.6730    -4.2760    -0.9880 C.ar  1 <1>  -0.1500 
 22 C       -8.3120    -5.8690     1.1770 C.ar  1 <1>  -0.1500 
 23 C       -7.5960    -5.6540    -1.1000 C.ar  1 <1>  -0.1500 
 24 C       -7.9170    -6.4600    -0.0120 C.ar  1 <1>   0.0830 
 25 O       -7.8690    -7.8160    -0.0340 O.3   1 <1>  -0.3630 
 26 C       -7.5260    -8.5180    -1.2080 C.3   1 <1>   0.0400 
 27 H       -2.6980    -1.0790     0.2510 H     1 <1>   0.0800 
 28 H       -4.1370    -0.8160    -0.6790 H     1 <1>   0.0800 
 29 H       -4.7790     1.5420    -1.2620 H     1 <1>   0.0800 
 30 H       -3.4910     2.6800    -1.4650 H     1 <1>   0.0800 
 31 H        0.9030     1.7560    -2.1890 H     1 <1>   0.1500 
 32 H       -3.6450     0.3920     2.0610 H     1 <1>   0.0800 
 33 H       -4.4410    -1.1240     1.8250 H     1 <1>   0.0800 
 34 H       -4.5960     3.6870     0.2790 H     1 <1>   0.0800 
 35 H       -3.4770     2.7380     1.1800 H     1 <1>   0.0800 
 36 H        1.3350     4.2790    -1.9910 H     1 <1>   0.2700 
 37 H       -6.4150     2.4410     0.8120 H     1 <1>   0.0800 
 38 H       -5.5000     2.3210     2.2790 H     1 <1>   0.0800 
 39 H       -6.5980    -2.0350     1.8020 H     1 <1>   0.0800 
 40 H       -6.0290    -1.9470     0.1580 H     1 <1>   0.0800 
 41 H       -8.3750    -1.7400    -0.6300 H     1 <1>   0.0800 
 42 H       -8.9270    -1.9000     1.0080 H     1 <1>   0.0800 
 43 H       -8.6980    -4.0500     2.2170 H     1 <1>   0.1500 
 44 H       -7.4230    -3.6620    -1.8350 H     1 <1>   0.1500 
 45 H       -8.5610    -6.4950     2.0140 H     1 <1>   0.1500 
 46 H       -7.2860    -6.0770    -2.0350 H     1 <1>   0.1500 
 47 H       -7.5720    -9.5700    -0.9930 H     1 <1>   0.0800 
 48 H       -6.5250    -8.2480    -1.4960 H     1 <1>   0.0800 
 49 H       -8.2310    -8.2710    -1.9810 H     1 <1>   0.0800 
@<TRIPOS>BOND
  1   1   2  2   
  2   2   3  am  
  3   2   4  1   
  4   3   5  1   
  5   3   6  1   
  6   4   7  1   
  7   4   8  2   
  8   5   9  1   
  9   5  27  1   
 10   5  28  1   
 11   6  10  1   
 12   6  29  1   
 13   6  30  1   
 14   7  11  2   
 15   8  12  1   
 16   8  31  1   
 17   9  13  1   
 18   9  32  1   
 19   9  33  1   
 20  10  14  1   
 21  10  34  1   
 22  10  35  1   
 23  11  12  1   
 24  12  36  1   
 25  13  14  1   
 26  13  15  am  
 27  14  37  1   
 28  14  38  1   
 29  15  16  2   
 30  15  17  1   
 31  17  18  1   
 32  17  39  1   
 33  17  40  1   
 34  18  19  1   
 35  18  41  1   
 36  18  42  1   
 37  19  20  ar  
 38  19  21  ar  
 39  20  22  ar  
 40  20  43  1   
 41  21  23  ar  
 42  21  44  1   
 43  22  24  ar  
 44  22  45  1   
 45  23  24  ar  
 46  23  46  1   
 47  24  25  1   
 48  25  26  1   
 49  26  47  1   
 50  26  48  1   
 51  26  49  1   
@<TRIPOS>SUBSTRUCTURE
  1 ****   5 GROUP 4 **** **** 0

# MOE 2024.06 (io_trps.svl 2023.06)
