@<TRIPOS>MOLECULE
NONAME
60 64 1 0 0 
SMALL
USER_CHARGES


@<TRIPOS>ATOM
  1 O        0.6010     1.3790    -2.5140 O.2   1 <1>  -0.5700 
  2 C        1.3560     1.2240    -1.5760 C.2   1 <1>   0.5440 
  3 N        1.8330     2.2450    -0.8090 N.am  1 <1>  -0.6600 
  4 C        1.8730    -0.0260    -1.1080 C.ar  1 <1>   0.0860 
  5 C        1.5070     3.6810    -1.0000 C.3   1 <1>   0.2200 
  6 C        2.7280     1.7090     0.2540 C.3   1 <1>   0.2840 
  7 C        2.6900     0.2130    -0.0240 C.ar  1 <1>   0.1660 
  8 C        1.6990    -1.3290    -1.5280 C.ar  1 <1>  -0.1500 
  9 C        2.7710     4.5100    -1.2170 C.3   1 <1>  -0.1600 
 10 C        0.8760     4.2750     0.2570 C.3   1 <1>  -0.1600 
 11 N        3.3410    -0.6970     0.6710 N.ar  1 <1>  -0.6200 
 12 C        2.3560    -2.3430    -0.8370 C.ar  1 <1>   0.0860 
 13 C        3.2240     5.0010     0.1630 C.3   1 <1>  -0.1600 
 14 C        2.0190     4.8540     1.0990 C.3   1 <1>  -0.1600 
 15 C        3.1680    -1.9560     0.2540 C.ar  1 <1>   0.3930 
 16 C        2.1760    -3.7210    -1.2650 C.2   1 <1>   0.5440 
 17 O        3.8340    -2.9040     0.9430 O.3   1 <1>  -0.3630 
 18 O        1.7330    -3.9640    -2.3710 O.2   1 <1>  -0.5700 
 19 N        2.4680    -4.7840    -0.4630 N.am  1 <1>  -0.7300 
 20 C        4.6930    -2.6110     2.0300 C.3   1 <1>   0.0400 
 21 C        2.3890    -6.2140    -0.8340 C.3   1 <1>   0.2200 
 22 C        1.4280    -6.9180     0.1080 C.3   1 <1>  -0.0800 
 23 C        3.7120    -6.8970    -0.4990 C.3   1 <1>   0.1200 
 24 C        2.3230    -7.2070     1.3170 C.3   1 <1>   0.1200 
 25 C        0.8610    -8.2050    -0.5210 C.3   1 <1>  -0.0170 
 26 O        3.6400    -7.2600     0.8490 O.3   1 <1>  -0.5600 
 27 C       -0.1120    -8.9020     0.4180 C.ar  1 <1>  -0.1430 
 28 C        0.2250   -10.0540     1.1000 C.ar  1 <1>  -0.1500 
 29 C       -1.3860    -8.4170     0.6340 C.ar  1 <1>  -0.1500 
 30 C       -0.6990   -10.6440     1.9460 C.ar  1 <1>   0.1600 
 31 C       -2.2350    -9.0850     1.5010 C.ar  1 <1>   0.1600 
 32 N       -1.9220   -10.1860     2.1640 N.ar  1 <1>  -0.6200 
 33 H        0.8400     3.7810    -1.8410 H     1 <1>   0.0800 
 34 H        3.7270     2.0900     0.1450 H     1 <1>   0.0800 
 35 H        2.3370     1.9240     1.2320 H     1 <1>   0.0800 
 36 H        1.0660    -1.5390    -2.3740 H     1 <1>   0.1500 
 37 H        3.5350     3.9580    -1.7370 H     1 <1>   0.0800 
 38 H        2.5080     5.3660    -1.8130 H     1 <1>   0.0800 
 39 H        0.2330     5.0830    -0.0450 H     1 <1>   0.0800 
 40 H        0.2840     3.5550     0.7940 H     1 <1>   0.0800 
 41 H        4.0420     4.4020     0.5220 H     1 <1>   0.0800 
 42 H        3.5510     6.0260     0.1110 H     1 <1>   0.0800 
 43 H        1.7360     5.8050     1.5170 H     1 <1>   0.0800 
 44 H        2.2620     4.1870     1.9080 H     1 <1>   0.0800 
 45 H        2.9610    -4.6030     0.4180 H     1 <1>   0.3700 
 46 H        5.1040    -3.5350     2.3960 H     1 <1>   0.0800 
 47 H        4.1240    -2.1270     2.8050 H     1 <1>   0.0800 
 48 H        5.4830    -1.9670     1.6860 H     1 <1>   0.0800 
 49 H        2.1260    -6.3250    -1.8730 H     1 <1>   0.0800 
 50 H        0.6090    -6.2740     0.3780 H     1 <1>   0.0800 
 51 H        4.5600    -6.2540    -0.6570 H     1 <1>   0.0800 
 52 H        3.8280    -7.7990    -1.0730 H     1 <1>   0.0800 
 53 H        2.0880    -8.1340     1.8090 H     1 <1>   0.0800 
 54 H        2.2660    -6.4030     2.0300 H     1 <1>   0.0800 
 55 H        1.6600    -8.8780    -0.7770 H     1 <1>   0.0800 
 56 H        0.3420    -7.9570    -1.4310 H     1 <1>   0.0800 
 57 H        1.1970   -10.4970     0.9860 H     1 <1>   0.1500 
 58 H       -1.7260    -7.5270     0.1370 H     1 <1>   0.1500 
 59 H       -0.4180   -11.5410     2.4710 H     1 <1>   0.1500 
 60 H       -3.2250    -8.6910     1.6580 H     1 <1>   0.1500 
@<TRIPOS>BOND
  1   1   2  2   
  2   2   3  am  
  3   2   4  1   
  4   3   5  1   
  5   3   6  1   
  6   4   7  ar  
  7   4   8  ar  
  8   5   9  1   
  9   5  10  1   
 10   5  33  1   
 11   6   7  1   
 12   6  34  1   
 13   6  35  1   
 14   7  11  ar  
 15   8  12  ar  
 16   8  36  1   
 17   9  13  1   
 18   9  37  1   
 19   9  38  1   
 20  10  14  1   
 21  10  39  1   
 22  10  40  1   
 23  11  15  ar  
 24  12  15  ar  
 25  12  16  1   
 26  13  14  1   
 27  13  41  1   
 28  13  42  1   
 29  14  43  1   
 30  14  44  1   
 31  15  17  1   
 32  16  18  2   
 33  16  19  am  
 34  17  20  1   
 35  19  21  1   
 36  19  45  1   
 37  20  46  1   
 38  20  47  1   
 39  20  48  1   
 40  21  22  1   
 41  21  23  1   
 42  21  49  1   
 43  22  24  1   
 44  22  25  1   
 45  22  50  1   
 46  23  26  1   
 47  23  51  1   
 48  23  52  1   
 49  24  26  1   
 50  24  53  1   
 51  24  54  1   
 52  25  27  1   
 53  25  55  1   
 54  25  56  1   
 55  27  28  ar  
 56  27  29  ar  
 57  28  30  ar  
 58  28  57  1   
 59  29  31  ar  
 60  29  58  1   
 61  30  32  ar  
 62  30  59  1   
 63  31  32  ar  
 64  31  60  1   
@<TRIPOS>SUBSTRUCTURE
  1 ****  12 GROUP 4 **** **** 0

# MOE 2024.06 (io_trps.svl 2023.06)
