@<TRIPOS>MOLECULE
NONAME
50 52 1 0 0 
SMALL
USER_CHARGES


@<TRIPOS>ATOM
  1 CL      -0.7740    -2.8010    -3.8970 Cl    1 <1>  -0.1770 
  2 C        0.6590    -2.6630    -2.9110 C.ar  1 <1>   0.1770 
  3 C        1.3750    -3.8040    -2.6060 C.ar  1 <1>  -0.1500 
  4 C        1.0550    -1.4220    -2.4500 C.ar  1 <1>  -0.1500 
  5 C        2.5120    -3.7050    -1.8180 C.ar  1 <1>  -0.1440 
  6 C        2.1900    -1.3200    -1.6640 C.ar  1 <1>  -0.1500 
  7 C        2.9230    -2.4620    -1.3420 C.ar  1 <1>   0.0830 
  8 C        3.3080    -4.9440    -1.4670 C.3   1 <1>   0.4870 
  9 O        4.0400    -2.4490    -0.5670 O.3   1 <1>  -0.3630 
 10 N        2.6300    -5.6300    -0.3410 N.4   1 <1>  -0.9590 
 11 C        4.5570    -1.2820     0.0390 C.3   1 <1>   0.2000 
 12 C        2.5960    -4.8430     0.9350 C.3   1 <1>   0.3430 
 13 C        3.1480    -6.9760    -0.0080 C.3   1 <1>   0.3430 
 14 C        6.0200    -1.5640     0.3710 C.3   1 <1>  -0.2400 
 15 C        3.7540    -0.9860     1.3080 C.3   1 <1>  -0.2400 
 16 C        2.8610    -5.8550     2.0620 C.3   1 <1>   0.2000 
 17 C        2.6320    -7.2210     1.4110 C.3   1 <1>  -0.0800 
 18 O        4.1870    -5.7720     2.4710 O.3   1 <1>  -0.6800 
 19 C        1.1280    -7.6110     1.4860 C.3   1 <1>  -0.0170 
 20 C        0.5210    -8.1230     0.1840 C.ar  1 <1>   0.1670 
 21 N        0.2160    -7.2040    -0.7250 N.ar  1 <1>  -0.6200 
 22 C        0.3030    -9.4880     0.0050 C.ar  1 <1>   0.1600 
 23 C       -0.3500    -7.7410    -1.7980 C.ar  1 <1>   0.1600 
 24 N       -0.2280   -10.0200    -1.0800 N.ar  1 <1>  -0.6200 
 25 C       -0.5610    -9.1030    -1.9710 C.ar  1 <1>   0.1600 
 26 H        1.0330    -4.7480    -2.9900 H     1 <1>   0.1500 
 27 H        0.4780    -0.5500    -2.7060 H     1 <1>   0.1500 
 28 H        2.4790    -0.3460    -1.3170 H     1 <1>   0.1500 
 29 H        4.3140    -4.6740    -1.1910 H     1 <1>   0.0800 
 30 H        3.3510    -5.5950    -2.3250 H     1 <1>   0.0800 
 31 H        1.6410    -5.7900    -0.6240 H     1 <1>   0.4500 
 32 H        4.5080    -0.4670    -0.6630 H     1 <1>   0.0800 
 33 H        3.3470    -4.0700     0.9500 H     1 <1>   0.0800 
 34 H        1.6240    -4.3930     1.0550 H     1 <1>   0.0800 
 35 H        2.7990    -7.7220    -0.7050 H     1 <1>   0.0800 
 36 H        4.2260    -6.9670    -0.0050 H     1 <1>   0.0800 
 37 H        6.1040    -2.3890     1.0550 H     1 <1>   0.0800 
 38 H        6.4640    -0.6980     0.8270 H     1 <1>   0.0800 
 39 H        6.5660    -1.7860    -0.5280 H     1 <1>   0.0800 
 40 H        3.8290    -1.8030     2.0020 H     1 <1>   0.0800 
 41 H        2.7210    -0.8070     1.0770 H     1 <1>   0.0800 
 42 H        4.1440    -0.1040     1.7840 H     1 <1>   0.0800 
 43 H        2.2440    -5.6800     2.9280 H     1 <1>   0.0800 
 44 H        3.2140    -7.9890     1.8930 H     1 <1>   0.0800 
 45 H        4.8250    -5.7870     1.7320 H     1 <1>   0.4000 
 46 H        0.5330    -6.7680     1.7940 H     1 <1>   0.0800 
 47 H        1.0040    -8.3550     2.2540 H     1 <1>   0.0800 
 48 H        0.5770   -10.1730     0.7900 H     1 <1>   0.1500 
 49 H       -0.6670    -7.0750    -2.5830 H     1 <1>   0.1500 
 50 H       -1.0240    -9.4470    -2.8800 H     1 <1>   0.1500 
@<TRIPOS>BOND
  1   1   2  1   
  2   2   3  ar  
  3   2   4  ar  
  4   3   5  ar  
  5   3  26  1   
  6   4   6  ar  
  7   4  27  1   
  8   5   7  ar  
  9   5   8  1   
 10   6   7  ar  
 11   6  28  1   
 12   7   9  1   
 13   8  10  1   
 14   8  29  1   
 15   8  30  1   
 16   9  11  1   
 17  10  12  1   
 18  10  13  1   
 19  10  31  1   
 20  11  14  1   
 21  11  15  1   
 22  11  32  1   
 23  12  16  1   
 24  12  33  1   
 25  12  34  1   
 26  13  17  1   
 27  13  35  1   
 28  13  36  1   
 29  14  37  1   
 30  14  38  1   
 31  14  39  1   
 32  15  40  1   
 33  15  41  1   
 34  15  42  1   
 35  16  17  1   
 36  16  18  1   
 37  16  43  1   
 38  17  19  1   
 39  17  44  1   
 40  18  45  1   
 41  19  20  1   
 42  19  46  1   
 43  19  47  1   
 44  20  21  ar  
 45  20  22  ar  
 46  21  23  ar  
 47  22  24  ar  
 48  22  48  1   
 49  23  25  ar  
 50  23  49  1   
 51  24  25  ar  
 52  25  50  1   
@<TRIPOS>SUBSTRUCTURE
  1 ****  10 GROUP 4 **** **** 0

# MOE 2024.06 (io_trps.svl 2023.06)
