@<TRIPOS>MOLECULE
NONAME
39 41 1 0 0 
SMALL
USER_CHARGES


@<TRIPOS>ATOM
  1 O        0.8500     0.3420    -0.0540 O.2   1 <1>  -0.5700 
  2 C        2.0230     0.0690    -0.1830 C.2   1 <1>   0.7800 
  3 O        2.5260    -1.0860     0.2290 O.3   1 <1>  -0.4300 
  4 N        2.9760     0.8780    -0.6920 N.am  1 <1>  -0.6600 
  5 C        3.9220    -1.1340     0.0020 C.3   1 <1>   0.1200 
  6 C        4.2990     0.2810    -0.4610 C.3   1 <1>   0.2200 
  7 C        2.8660     2.3520    -0.8550 C.3   1 <1>   0.1400 
  8 C        5.0790     1.0650     0.6160 C.3   1 <1>   0.2090 
  9 C        3.6730     3.0870     0.2300 C.3   1 <1>   0.2090 
 10 N        5.0610     2.5370     0.3420 N.pl3 1 <1>  -0.8380 
 11 C        6.0450     3.3410     0.8840 C.ar  1 <1>   0.4100 
 12 N        6.6860     2.8970     1.9500 N.ar  1 <1>  -0.6200 
 13 C        6.3450     4.5640     0.3370 C.ar  1 <1>  -0.1500 
 14 C        7.5950     3.7160     2.4410 C.ar  1 <1>   0.4700 
 15 C        7.3180     5.3330     0.9290 C.ar  1 <1>   0.4100 
 16 N        7.9530     4.9070     2.0070 N.ar  1 <1>  -0.6200 
 17 N        7.6620     6.5720     0.4170 N.pl3 1 <1>  -0.8380 
 18 C        8.0180     6.6870    -1.0170 C.3   1 <1>   0.2090 
 19 C        8.3000     7.5830     1.3060 C.3   1 <1>   0.1290 
 20 C        7.0060     7.5950    -1.7060 C.3   1 <1>  -0.2400 
 21 H        4.1120    -1.8570    -0.7710 H     1 <1>   0.0800 
 22 H        4.4190    -1.4240     0.9110 H     1 <1>   0.0800 
 23 H        4.8660     0.2500    -1.3750 H     1 <1>   0.0800 
 24 H        1.8320     2.6480    -0.8000 H     1 <1>   0.0800 
 25 H        3.2430     2.6260    -1.8240 H     1 <1>   0.0800 
 26 H        6.0960     0.7130     0.6420 H     1 <1>   0.0800 
 27 H        4.6420     0.8880     1.5840 H     1 <1>   0.0800 
 28 H        3.1730     2.9730     1.1770 H     1 <1>   0.0800 
 29 H        3.7020     4.1380     0.0010 H     1 <1>   0.0800 
 30 H        5.8330     4.9140    -0.5320 H     1 <1>   0.1500 
 31 H        8.1160     3.3650     3.3150 H     1 <1>   0.1500 
 32 H        8.0120     5.7140    -1.4790 H     1 <1>   0.0800 
 33 H        9.0110     7.0930    -1.1150 H     1 <1>   0.0800 
 34 H        7.8670     7.5310     2.2900 H     1 <1>   0.0800 
 35 H        8.1450     8.5720     0.9150 H     1 <1>   0.0800 
 36 H        9.3560     7.3870     1.3810 H     1 <1>   0.0800 
 37 H        6.0160     7.1930    -1.6010 H     1 <1>   0.0800 
 38 H        7.2390     7.6700    -2.7520 H     1 <1>   0.0800 
 39 H        7.0360     8.5800    -1.2770 H     1 <1>   0.0800 
@<TRIPOS>BOND
  1   1   2  2   
  2   2   3  1   
  3   2   4  am  
  4   3   5  1   
  5   4   6  1   
  6   4   7  1   
  7   5   6  1   
  8   5  21  1   
  9   5  22  1   
 10   6   8  1   
 11   6  23  1   
 12   7   9  1   
 13   7  24  1   
 14   7  25  1   
 15   8  10  1   
 16   8  26  1   
 17   8  27  1   
 18   9  10  1   
 19   9  28  1   
 20   9  29  1   
 21  10  11  1   
 22  11  12  ar  
 23  11  13  ar  
 24  12  14  ar  
 25  13  15  ar  
 26  13  30  1   
 27  14  16  ar  
 28  14  31  1   
 29  15  16  ar  
 30  15  17  1   
 31  17  18  1   
 32  17  19  1   
 33  18  20  1   
 34  18  32  1   
 35  18  33  1   
 36  19  34  1   
 37  19  35  1   
 38  19  36  1   
 39  20  37  1   
 40  20  38  1   
 41  20  39  1   
@<TRIPOS>SUBSTRUCTURE
  1 ****  10 GROUP 4 **** **** 0

# MOE 2024.06 (io_trps.svl 2023.06)
