@<TRIPOS>MOLECULE
NONAME
54 57 1 0 0 
SMALL
USER_CHARGES


@<TRIPOS>ATOM
  1 O        0.0420     0.8510     1.0550 O.2   1 <1>  -0.5700 
  2 C        0.0180     2.0520     0.9660 C.2   1 <1>   0.5690 
  3 N       -1.1240     2.7370     1.1880 N.am  1 <1>  -0.7300 
  4 C        1.2800     2.8170     0.5580 C.3   1 <1>   0.1810 
  5 C       -1.2350     4.2130     1.0860 C.3   1 <1>   0.3640 
  6 O        1.2140     4.1960     0.8520 O.3   1 <1>  -0.5600 
  7 C       -2.4900     4.5490     0.2830 C.ar  1 <1>  -0.1440 
  8 C        0.0220     4.8440     0.4270 C.3   1 <1>   0.2610 
  9 C       -2.8060     3.8690    -0.8880 C.ar  1 <1>  -0.1500 
 10 C       -3.3330     5.5620     0.7180 C.ar  1 <1>  -0.1500 
 11 C        0.1030     6.3610     0.6820 C.2   1 <1>   0.5690 
 12 C       -3.9420     4.1950    -1.6060 C.ar  1 <1>  -0.1500 
 13 C       -4.4700     5.8890     0.0000 C.ar  1 <1>  -0.1500 
 14 O       -0.5340     6.8270     1.6030 O.2   1 <1>  -0.5700 
 15 N        0.8740     7.1740    -0.1220 N.am  1 <1>  -0.6600 
 16 C       -4.7760     5.2060    -1.1630 C.ar  1 <1>  -0.1500 
 17 C        0.9050     8.6520     0.0720 C.3   1 <1>   0.1400 
 18 C        1.8490     6.6920    -1.1380 C.3   1 <1>   0.1400 
 19 C        2.3080     9.0850     0.5020 C.3   1 <1>  -0.1600 
 20 C        3.2640     7.0930    -0.7120 C.3   1 <1>  -0.1600 
 21 C        3.3860     8.6110    -0.4930 C.3   1 <1>  -0.0800 
 22 C        4.8040     8.9760    -0.0170 C.3   1 <1>  -0.0170 
 23 C        5.0030    10.4820     0.0940 C.ar  1 <1>  -0.1430 
 24 C        4.9850    11.1060     1.3320 C.ar  1 <1>  -0.1500 
 25 C        5.2060    11.2430    -1.0470 C.ar  1 <1>  -0.1500 
 26 C        5.1650    12.4760     1.4280 C.ar  1 <1>  -0.1500 
 27 C        5.3860    12.6120    -0.9530 C.ar  1 <1>  -0.1500 
 28 C        5.3650    13.2300     0.2850 C.ar  1 <1>  -0.1500 
 29 H       -1.9680     2.2260     1.4520 H     1 <1>   0.3700 
 30 H        1.4390     2.7040    -0.4990 H     1 <1>   0.0800 
 31 H        2.1250     2.4120     1.0820 H     1 <1>   0.0800 
 32 H       -1.3390     4.5970     2.0860 H     1 <1>   0.0800 
 33 H       -0.0600     4.6990    -0.6330 H     1 <1>   0.0800 
 34 H       -2.1710     3.0780    -1.2480 H     1 <1>   0.1500 
 35 H       -3.1070     6.1090     1.6180 H     1 <1>   0.1500 
 36 H       -4.1800     3.6620    -2.5110 H     1 <1>   0.1500 
 37 H       -5.1150     6.6780     0.3470 H     1 <1>   0.1500 
 38 H       -5.6600     5.4610    -1.7210 H     1 <1>   0.1500 
 39 H        0.6410     9.1320    -0.8550 H     1 <1>   0.0800 
 40 H        0.1900     8.9570     0.8170 H     1 <1>   0.0800 
 41 H        1.8070     5.6240    -1.2520 H     1 <1>   0.0800 
 42 H        1.6130     7.1380    -2.0890 H     1 <1>   0.0800 
 43 H        2.3260    10.1580     0.5790 H     1 <1>   0.0800 
 44 H        2.5060     8.6830     1.4800 H     1 <1>   0.0800 
 45 H        3.5080     6.5680     0.1960 H     1 <1>   0.0800 
 46 H        3.9590     6.7780    -1.4700 H     1 <1>   0.0800 
 47 H        3.2110     9.1020    -1.4360 H     1 <1>   0.0800 
 48 H        5.5270     8.5880    -0.7120 H     1 <1>   0.0800 
 49 H        4.9960     8.5130     0.9350 H     1 <1>   0.0800 
 50 H        4.8300    10.5300     2.2270 H     1 <1>   0.1500 
 51 H        5.2240    10.7720    -2.0130 H     1 <1>   0.1500 
 52 H        5.1490    12.9530     2.3920 H     1 <1>   0.1500 
 53 H        5.5420    13.1970    -1.8420 H     1 <1>   0.1500 
 54 H        5.5040    14.2940     0.3600 H     1 <1>   0.1500 
@<TRIPOS>BOND
  1   1   2  2   
  2   2   3  am  
  3   2   4  1   
  4   3   5  1   
  5   3  29  1   
  6   4   6  1   
  7   4  30  1   
  8   4  31  1   
  9   5   7  1   
 10   5   8  1   
 11   5  32  1   
 12   6   8  1   
 13   7   9  ar  
 14   7  10  ar  
 15   8  11  1   
 16   8  33  1   
 17   9  12  ar  
 18   9  34  1   
 19  10  13  ar  
 20  10  35  1   
 21  11  14  2   
 22  11  15  am  
 23  12  16  ar  
 24  12  36  1   
 25  13  16  ar  
 26  13  37  1   
 27  15  17  1   
 28  15  18  1   
 29  16  38  1   
 30  17  19  1   
 31  17  39  1   
 32  17  40  1   
 33  18  20  1   
 34  18  41  1   
 35  18  42  1   
 36  19  21  1   
 37  19  43  1   
 38  19  44  1   
 39  20  21  1   
 40  20  45  1   
 41  20  46  1   
 42  21  22  1   
 43  21  47  1   
 44  22  23  1   
 45  22  48  1   
 46  22  49  1   
 47  23  24  ar  
 48  23  25  ar  
 49  24  26  ar  
 50  24  50  1   
 51  25  27  ar  
 52  25  51  1   
 53  26  28  ar  
 54  26  52  1   
 55  27  28  ar  
 56  27  53  1   
 57  28  54  1   
@<TRIPOS>SUBSTRUCTURE
  1 ****  15 GROUP 4 **** **** 0

# MOE 2024.06 (io_trps.svl 2023.06)
