@<TRIPOS>MOLECULE
NONAME
41 42 1 0 0 
SMALL
USER_CHARGES


@<TRIPOS>ATOM
  1 S        0.4300     0.2830    -1.4040 S.o2  1 <1>   1.3330 
  2 O        0.7370    -1.0290    -1.9290 O.2   1 <1>  -0.6500 
  3 O       -0.4460     1.1630    -2.1420 O.2   1 <1>  -0.6500 
  4 N       -0.2510     0.0770     0.1400 N.am  1 <1>  -0.8490 
  5 C        1.9790     1.1270    -1.0740 C.3   1 <1>  -0.0550 
  6 C       -1.1460    -1.0840     0.1980 C.3   1 <1>   0.1160 
  7 C       -0.9570     1.2680     0.6260 C.3   1 <1>   0.1160 
  8 C        3.0320     0.2580    -0.3530 C.3   1 <1>  -0.0800 
  9 C        4.4070     0.8950    -0.2200 C.3   1 <1>   0.2200 
 10 C        2.6950    -0.1200     1.0950 C.3   1 <1>   0.1200 
 11 N        4.2960     2.3150     0.1990 N.am  1 <1>  -0.7300 
 12 C        4.9700     0.0890     0.9420 C.3   1 <1>   0.1200 
 13 O        3.8950    -0.0730     1.8150 O.3   1 <1>  -0.5600 
 14 C        4.4410     3.3910    -0.6300 C.2   1 <1>   0.5440 
 15 O        4.5800     3.1760    -1.8170 O.2   1 <1>  -0.5700 
 16 C        4.4220     4.7490    -0.1220 C.ar  1 <1>   0.0860 
 17 C        3.7800     5.0750     1.0750 C.ar  1 <1>   0.1600 
 18 C        5.0380     5.7890    -0.8060 C.ar  1 <1>  -0.1500 
 19 N        3.7140     6.2780     1.6270 N.ar  1 <1>  -0.6200 
 20 C        4.9830     7.0510    -0.2570 C.ar  1 <1>   0.0820 
 21 C        4.3190     7.2410     0.9490 C.ar  1 <1>   0.1600 
 22 O        5.5780     8.0680    -0.9080 O.3   1 <1>  -0.5330 
 23 H        2.3970     1.4380    -2.0130 H     1 <1>   0.0800 
 24 H        1.7850     2.0130    -0.5050 H     1 <1>   0.0800 
 25 H       -1.5540    -1.1930     1.1880 H     1 <1>   0.0800 
 26 H       -0.6020    -1.9820    -0.0420 H     1 <1>   0.0800 
 27 H       -1.9520    -0.9710    -0.5080 H     1 <1>   0.0800 
 28 H       -1.2880     1.1150     1.6390 H     1 <1>   0.0800 
 29 H       -1.8140     1.4780     0.0060 H     1 <1>   0.0800 
 30 H       -0.3030     2.1230     0.6080 H     1 <1>   0.0800 
 31 H        3.1500    -0.6580    -0.9070 H     1 <1>   0.0800 
 32 H        5.0020     0.8010    -1.1130 H     1 <1>   0.0800 
 33 H        2.2810    -1.1120     1.1640 H     1 <1>   0.0800 
 34 H        2.0200     0.5860     1.5470 H     1 <1>   0.0800 
 35 H        4.2240     2.4260     1.2130 H     1 <1>   0.3700 
 36 H        5.7800     0.5860     1.4460 H     1 <1>   0.0800 
 37 H        5.2830    -0.8880     0.6150 H     1 <1>   0.0800 
 38 H        3.2810     4.2880     1.6130 H     1 <1>   0.1500 
 39 H        5.5430     5.6160    -1.7400 H     1 <1>   0.1500 
 40 H        4.2820     8.2290     1.3730 H     1 <1>   0.1500 
 41 H        5.4920     8.9360    -0.4720 H     1 <1>   0.4500 
@<TRIPOS>BOND
  1   1   2  2   
  2   1   3  2   
  3   1   4  am  
  4   1   5  1   
  5   4   6  1   
  6   4   7  1   
  7   5   8  1   
  8   5  23  1   
  9   5  24  1   
 10   6  25  1   
 11   6  26  1   
 12   6  27  1   
 13   7  28  1   
 14   7  29  1   
 15   7  30  1   
 16   8   9  1   
 17   8  10  1   
 18   8  31  1   
 19   9  11  1   
 20   9  12  1   
 21   9  32  1   
 22  10  13  1   
 23  10  33  1   
 24  10  34  1   
 25  11  14  am  
 26  11  35  1   
 27  12  13  1   
 28  12  36  1   
 29  12  37  1   
 30  14  15  2   
 31  14  16  1   
 32  16  17  ar  
 33  16  18  ar  
 34  17  19  ar  
 35  17  38  1   
 36  18  20  ar  
 37  18  39  1   
 38  19  21  ar  
 39  20  21  ar  
 40  20  22  1   
 41  21  40  1   
 42  22  41  1   
@<TRIPOS>SUBSTRUCTURE
  1 ****  11 GROUP 4 **** **** 0

# MOE 2024.06 (io_trps.svl 2023.06)
