@<TRIPOS>MOLECULE
NONAME
45 48 1 0 0 
SMALL
USER_CHARGES


@<TRIPOS>ATOM
  1 O       -0.7720     0.2060     0.8750 O.2   1 <1>  -0.5700 
  2 C       -1.6760     0.7630     0.2970 C.2   1 <1>   0.5770 
  3 N       -2.7310     0.0460    -0.1990 N.am  1 <1>  -0.6600 
  4 C       -1.6370     2.2790     0.1130 C.3   1 <1>   0.0530 
  5 C       -3.9080     0.5770    -0.9320 C.3   1 <1>   0.1400 
  6 C       -2.8330    -1.4280    -0.0570 C.3   1 <1>   0.1400 
  7 C       -0.4010     3.0320     0.6850 C.3   1 <1>   0.0000 
  8 C       -2.4870     3.0670     1.1450 C.3   1 <1>   0.0000 
  9 C       -4.9440    -0.5420    -0.8370 C.3   1 <1>   0.2000 
 10 C       -4.0970    -1.8220    -0.8350 C.3   1 <1>  -0.0800 
 11 C       -1.3830     4.1550     1.1060 C.3   1 <1>   0.0000 
 12 O       -5.6010    -0.4120     0.3780 O.3   1 <1>  -0.6800 
 13 C       -4.8200    -3.0670    -0.2770 C.3   1 <1>  -0.0160 
 14 C       -4.0780    -4.4050    -0.3910 C.ar  1 <1>  -0.1440 
 15 C       -4.5980    -5.5510     0.2620 C.ar  1 <1>   0.0000 
 16 C       -2.9250    -4.5740    -1.1070 C.ar  1 <1>  -0.1500 
 17 C       -3.8810    -6.7670     0.1480 C.ar  1 <1>   0.3100 
 18 C       -5.7950    -5.5640     1.0190 C.ar  1 <1>  -0.1500 
 19 C       -2.2970    -5.8240    -1.1590 C.ar  1 <1>   0.1600 
 20 N       -2.7340    -6.8870    -0.5640 N.ar  1 <1>  -0.6200 
 21 C       -4.3720    -7.9140     0.7930 C.ar  1 <1>  -0.1500 
 22 C       -6.2480    -6.7000     1.6340 C.ar  1 <1>  -0.1500 
 23 C       -5.5280    -7.8910     1.5230 C.ar  1 <1>  -0.1500 
 24 H       -1.8480     2.5860    -0.8980 H     1 <1>   0.0000 
 25 H       -4.2770     1.4940    -0.5070 H     1 <1>   0.0800 
 26 H       -3.6350     0.7370    -1.9610 H     1 <1>   0.0800 
 27 H       -1.9500    -1.9040    -0.4490 H     1 <1>   0.0800 
 28 H       -2.9280    -1.6730     0.9870 H     1 <1>   0.0800 
 29 H        0.0510     2.5550     1.5380 H     1 <1>   0.0000 
 30 H        0.3090     3.3360    -0.0640 H     1 <1>   0.0000 
 31 H       -3.4370     3.4010     0.7660 H     1 <1>   0.0000 
 32 H       -2.5520     2.5770     2.1020 H     1 <1>   0.0000 
 33 H       -5.6750    -0.5110    -1.6270 H     1 <1>   0.0800 
 34 H       -3.8180    -2.0100    -1.8560 H     1 <1>   0.0800 
 35 H       -1.5420     4.8830     0.3280 H     1 <1>   0.0000 
 36 H       -1.1650     4.5890     2.0660 H     1 <1>   0.0000 
 37 H       -4.9340    -0.2990     1.0860 H     1 <1>   0.4000 
 38 H       -5.7640    -3.1660    -0.7850 H     1 <1>   0.0800 
 39 H       -5.0310    -2.8910     0.7630 H     1 <1>   0.0800 
 40 H       -2.4560    -3.7810    -1.6530 H     1 <1>   0.1500 
 41 H       -6.3720    -4.6640     1.1170 H     1 <1>   0.1500 
 42 H       -1.3880    -5.9050    -1.7320 H     1 <1>   0.1500 
 43 H       -3.8020    -8.8190     0.6910 H     1 <1>   0.1500 
 44 H       -7.1590    -6.6910     2.2070 H     1 <1>   0.1500 
 45 H       -5.8930    -8.7780     2.0120 H     1 <1>   0.1500 
@<TRIPOS>BOND
  1   1   2  2   
  2   2   3  am  
  3   2   4  1   
  4   3   5  1   
  5   3   6  1   
  6   4   7  1   
  7   4   8  1   
  8   4  24  1   
  9   5   9  1   
 10   5  25  1   
 11   5  26  1   
 12   6  10  1   
 13   6  27  1   
 14   6  28  1   
 15   7  11  1   
 16   7  29  1   
 17   7  30  1   
 18   8  11  1   
 19   8  31  1   
 20   8  32  1   
 21   9  10  1   
 22   9  12  1   
 23   9  33  1   
 24  10  13  1   
 25  10  34  1   
 26  11  35  1   
 27  11  36  1   
 28  12  37  1   
 29  13  14  1   
 30  13  38  1   
 31  13  39  1   
 32  14  15  ar  
 33  14  16  ar  
 34  15  17  ar  
 35  15  18  ar  
 36  16  19  ar  
 37  16  40  1   
 38  17  20  ar  
 39  17  21  ar  
 40  18  22  ar  
 41  18  41  1   
 42  19  20  ar  
 43  19  42  1   
 44  21  23  ar  
 45  21  43  1   
 46  22  23  ar  
 47  22  44  1   
 48  23  45  1   
@<TRIPOS>SUBSTRUCTURE
  1 ****   6 GROUP 4 **** **** 0

# MOE 2024.06 (io_trps.svl 2023.06)
