@<TRIPOS>MOLECULE
Untitled Document
61 65 1 0 0 
SMALL
USER_CHARGES


@<TRIPOS>ATOM
  1 O       -0.6110    -0.9450     1.6100 O.2   1 <1>  -0.5700 
  2 C       -0.4450    -2.0240     1.0800 C.2   1 <1>   0.9370 
  3 N       -1.5360    -2.6430     0.4550 N.pl3 1 <1>  -0.5760 
  4 C        0.8070    -2.6580     1.0830 C.2   1 <1>  -0.1360 
  5 C       -1.3620    -3.8480    -0.1400 C.cat 1 <1>   0.7390 
  6 C       -2.7720    -2.0430     0.4350 C.2   1 <1>   0.1910 
  7 C        0.9790    -3.8630     0.4950 C.2   1 <1>   0.3870 
  8 N       -0.1370    -4.4200    -0.1070 N.pl3 1 <1>  -0.6450 
  9 C       -2.4520    -4.4760    -0.7790 C.2   1 <1>  -0.1680 
 10 C       -3.8530    -2.6240    -0.1740 C.2   1 <1>  -0.1380 
 11 C        2.2510    -4.5580     0.4690 C.2   1 <1>   0.2430 
 12 C       -3.6830    -3.8690    -0.7950 C.2   1 <1>  -0.1500 
 13 C       -2.2950    -5.8350    -1.4640 C.3   1 <1>  -0.1020 
 14 C       -5.2340    -1.9630    -0.2020 C.3   1 <1>   0.0580 
 15 N        3.3740    -3.9700     0.8180 N.2   1 <1>  -0.7070 
 16 C        2.4840    -5.8790     0.0990 C.2   1 <1>  -0.1500 
 17 C       -5.2070    -0.6180    -0.9440 C.3   1 <1>  -0.1600 
 18 C       -5.8020    -1.7710     1.2130 C.3   1 <1>  -0.1600 
 19 N        4.3290    -4.9020     0.6720 N.pl3 1 <1>   0.6010 
 20 C        3.8250    -6.0830     0.2350 C.2   1 <1>  -0.2370 
 21 C       -6.5870     0.0440    -0.9510 C.3   1 <1>   0.3430 
 22 C       -7.1740    -1.0940     1.1760 C.3   1 <1>   0.3430 
 23 C        5.6770    -4.7730     0.9090 C.2   1 <1>  -0.1810 
 24 C        4.7450    -7.1500     0.0490 C.2   1 <1>   0.4740 
 25 N       -7.0820     0.2080     0.4480 N.4   1 <1>  -0.9590 
 26 C        6.4880    -5.8350     0.7040 C.2   1 <1>   0.0330 
 27 N        6.0100    -7.0380     0.2680 N.2   1 <1>  -0.6210 
 28 C        4.2090    -8.4900    -0.4320 C.3   1 <1>  -0.0990 
 29 C       -8.4040     0.9090     0.4590 C.3   1 <1>   0.2630 
 30 C        7.9820    -5.7860     0.9370 C.3   1 <1>  -0.1020 
 31 C        3.5420    -9.2910     0.6960 C.3   1 <1>  -0.2400 
 32 H        1.6120    -2.1420     1.5710 H     1 <1>   0.1500 
 33 H       -2.8780    -1.0830     0.9200 H     1 <1>   0.1500 
 34 H       -0.0290    -5.3170    -0.5840 H     1 <1>   0.4500 
 35 H       -4.5240    -4.3410    -1.2800 H     1 <1>   0.1500 
 36 H       -1.5720    -5.7780    -2.2600 H     1 <1>   0.0800 
 37 H       -3.2270    -6.1590    -1.8950 H     1 <1>   0.0800 
 38 H       -1.9870    -6.5840    -0.7550 H     1 <1>   0.0800 
 39 H       -5.9100    -2.6120    -0.7360 H     1 <1>   0.0800 
 40 H        1.7620    -6.6070    -0.2230 H     1 <1>   0.1500 
 41 H       -4.8960    -0.7800    -1.9620 H     1 <1>   0.0800 
 42 H       -4.4980     0.0550    -0.4940 H     1 <1>   0.0800 
 43 H       -5.1360    -1.1810     1.8170 H     1 <1>   0.0800 
 44 H       -5.9040    -2.7310     1.6880 H     1 <1>   0.0800 
 45 H       -7.2760    -0.5680    -1.5120 H     1 <1>   0.0800 
 46 H       -6.5210     1.0060    -1.4350 H     1 <1>   0.0800 
 47 H       -7.5210    -0.9290     2.1850 H     1 <1>   0.0800 
 48 H       -7.8810    -1.7390     0.6790 H     1 <1>   0.0800 
 49 H        6.0070    -3.8120     1.2510 H     1 <1>   0.1500 
 50 H       -6.4070     0.8010     0.9520 H     1 <1>   0.4500 
 51 H        5.0260    -9.0650    -0.8320 H     1 <1>   0.0800 
 52 H        3.5090    -8.3260    -1.2310 H     1 <1>   0.0800 
 53 H       -9.1450     0.3230    -0.0600 H     1 <1>   0.0800 
 54 H       -8.3230     1.8690    -0.0270 H     1 <1>   0.0800 
 55 H       -8.7370     1.0670     1.4720 H     1 <1>   0.0800 
 56 H        8.2560    -6.5160     1.6770 H     1 <1>   0.0800 
 57 H        8.2860    -4.8140     1.2780 H     1 <1>   0.0800 
 58 H        8.4990    -6.0120     0.0220 H     1 <1>   0.0800 
 59 H        4.2540    -9.4800     1.4810 H     1 <1>   0.0800 
 60 H        3.1910   -10.2370     0.3210 H     1 <1>   0.0800 
 61 H        2.7080    -8.7530     1.1100 H     1 <1>   0.0800 
@<TRIPOS>BOND
  1   1   2  2   
  2   2   3  1   
  3   2   4  1   
  4   3   5  ar  
  5   3   6  1   
  6   4   7  2   
  7   4  32  1   
  8   5   8  ar  
  9   5   9  1   
 10   6  10  2   
 11   6  33  1   
 12   7   8  1   
 13   7  11  1   
 14   8  34  1   
 15   9  12  2   
 16   9  13  1   
 17  10  12  1   
 18  10  14  1   
 19  11  15  2   
 20  11  16  1   
 21  12  35  1   
 22  13  36  1   
 23  13  37  1   
 24  13  38  1   
 25  14  17  1   
 26  14  18  1   
 27  14  39  1   
 28  15  19  1   
 29  16  20  2   
 30  16  40  1   
 31  17  21  1   
 32  17  41  1   
 33  17  42  1   
 34  18  22  1   
 35  18  43  1   
 36  18  44  1   
 37  19  20  1   
 38  19  23  1   
 39  20  24  1   
 40  21  25  1   
 41  21  45  1   
 42  21  46  1   
 43  22  25  1   
 44  22  47  1   
 45  22  48  1   
 46  23  26  2   
 47  23  49  1   
 48  24  27  2   
 49  24  28  1   
 50  25  29  1   
 51  25  50  1   
 52  26  27  1   
 53  26  30  1   
 54  28  31  1   
 55  28  51  1   
 56  28  52  1   
 57  29  53  1   
 58  29  54  1   
 59  29  55  1   
 60  30  56  1   
 61  30  57  1   
 62  30  58  1   
 63  31  59  1   
 64  31  60  1   
 65  31  61  1   
@<TRIPOS>SUBSTRUCTURE
  1 ****   8 GROUP 4 **** **** 0

# MOE 2024.06 (io_trps.svl 2023.06)
