@<TRIPOS>MOLECULE
NONAME
52 54 1 0 0 
SMALL
USER_CHARGES


@<TRIPOS>ATOM
  1 O       -0.2410    -0.7500    -0.8750 O.2   1 <1>  -0.5700 
  2 C        0.5150    -1.6170    -0.5100 C.2   1 <1>   0.5690 
  3 N        0.1020    -2.7790     0.0820 N.am  1 <1>  -0.6600 
  4 C        2.0050    -1.4250    -0.7080 C.3   1 <1>  -0.0990 
  5 C        1.0880    -3.7990     0.5130 C.3   1 <1>   0.1400 
  6 C       -1.3310    -3.0640     0.3690 C.3   1 <1>   0.0600 
  7 C        2.6460    -2.7080    -1.2700 C.3   1 <1>  -0.0800 
  8 C        2.1440    -4.0060    -0.5910 C.3   1 <1>  -0.0800 
  9 C        4.1760    -2.7240    -1.1560 C.3   1 <1>  -0.1600 
 10 C        3.4010    -4.7380    -0.0980 C.3   1 <1>  -0.1600 
 11 C        4.5180    -4.1980    -0.9880 C.3   1 <1>   0.4230 
 12 N        5.8970    -4.4750    -0.4900 N.4   1 <1>  -0.9590 
 13 C        6.2820    -3.9730     0.8620 C.3   1 <1>   0.4860 
 14 C        6.2420    -5.9200    -0.6240 C.3   1 <1>   0.2630 
 15 C        6.8020    -2.5510     0.7690 C.ar  1 <1>  -0.1440 
 16 C        7.8130    -2.2030    -0.1250 C.ar  1 <1>   0.0820 
 17 C        6.2660    -1.5830     1.6050 C.ar  1 <1>  -0.1500 
 18 O        8.3270    -3.1810    -0.9200 O.3   1 <1>  -0.3630 
 19 C        8.2590    -0.8850    -0.1790 C.ar  1 <1>  -0.1500 
 20 C        6.7170    -0.2770     1.5440 C.ar  1 <1>  -0.1500 
 21 C        9.5130    -2.9710    -1.6620 C.3   1 <1>   0.0400 
 22 C        7.7120     0.0780     0.6510 C.ar  1 <1>  -0.1440 
 23 C        8.1970     1.5170     0.5960 C.3   1 <1>  -0.0970 
 24 H        2.1740    -0.6020    -1.3780 H     1 <1>   0.0800 
 25 H        2.4260    -1.1710     0.2470 H     1 <1>   0.0800 
 26 H        1.5520    -3.4520     1.4210 H     1 <1>   0.0800 
 27 H        0.5900    -4.7310     0.7220 H     1 <1>   0.0800 
 28 H       -1.6360    -3.9560    -0.1480 H     1 <1>   0.0800 
 29 H       -1.9520    -2.2480     0.0400 H     1 <1>   0.0800 
 30 H       -1.4720    -3.1970     1.4270 H     1 <1>   0.0800 
 31 H        2.3790    -2.7700    -2.3130 H     1 <1>   0.0800 
 32 H        1.6840    -4.6110    -1.3560 H     1 <1>   0.0800 
 33 H        4.4600    -2.1610    -0.2900 H     1 <1>   0.0800 
 34 H        4.6390    -2.3000    -2.0300 H     1 <1>   0.0800 
 35 H        3.2890    -5.8030    -0.1950 H     1 <1>   0.0800 
 36 H        3.5770    -4.4820     0.9300 H     1 <1>   0.0800 
 37 H        4.4070    -4.6560    -1.9590 H     1 <1>   0.0800 
 38 H        6.5510    -3.9500    -1.1010 H     1 <1>   0.4500 
 39 H        5.4480    -4.0230     1.5410 H     1 <1>   0.0800 
 40 H        7.0750    -4.5840     1.2620 H     1 <1>   0.0800 
 41 H        5.6340    -6.5150     0.0370 H     1 <1>   0.0800 
 42 H        7.2800    -6.0790    -0.3790 H     1 <1>   0.0800 
 43 H        6.0780    -6.2500    -1.6370 H     1 <1>   0.0800 
 44 H        5.4930    -1.8270     2.3140 H     1 <1>   0.1500 
 45 H        9.0330    -0.5870    -0.8610 H     1 <1>   0.1500 
 46 H        6.2920     0.4660     2.1980 H     1 <1>   0.1500 
 47 H        9.7940    -3.9000    -2.1250 H     1 <1>   0.0800 
 48 H       10.2930    -2.6490    -0.9940 H     1 <1>   0.0800 
 49 H        9.3290    -2.2300    -2.4200 H     1 <1>   0.0800 
 50 H        7.3630     2.1930     0.6580 H     1 <1>   0.0800 
 51 H        8.7220     1.7110    -0.3210 H     1 <1>   0.0800 
 52 H        8.8600     1.7090     1.4200 H     1 <1>   0.0800 
@<TRIPOS>BOND
  1   1   2  2   
  2   2   3  am  
  3   2   4  1   
  4   3   5  1   
  5   3   6  1   
  6   4   7  1   
  7   4  24  1   
  8   4  25  1   
  9   5   8  1   
 10   5  26  1   
 11   5  27  1   
 12   6  28  1   
 13   6  29  1   
 14   6  30  1   
 15   7   8  1   
 16   7   9  1   
 17   7  31  1   
 18   8  10  1   
 19   8  32  1   
 20   9  11  1   
 21   9  33  1   
 22   9  34  1   
 23  10  11  1   
 24  10  35  1   
 25  10  36  1   
 26  11  12  1   
 27  11  37  1   
 28  12  13  1   
 29  12  14  1   
 30  12  38  1   
 31  13  15  1   
 32  13  39  1   
 33  13  40  1   
 34  14  41  1   
 35  14  42  1   
 36  14  43  1   
 37  15  16  ar  
 38  15  17  ar  
 39  16  18  1   
 40  16  19  ar  
 41  17  20  ar  
 42  17  44  1   
 43  18  21  1   
 44  19  22  ar  
 45  19  45  1   
 46  20  22  ar  
 47  20  46  1   
 48  21  47  1   
 49  21  48  1   
 50  21  49  1   
 51  22  23  1   
 52  23  50  1   
 53  23  51  1   
 54  23  52  1   
@<TRIPOS>SUBSTRUCTURE
  1 ****   9 GROUP 4 **** **** 0

# MOE 2024.06 (io_trps.svl 2023.06)
