@<TRIPOS>MOLECULE
NONAME
59 61 1 0 0 
SMALL
USER_CHARGES


@<TRIPOS>ATOM
  1 O        0.3550     0.3380    -0.9300 O.2   1 <1>  -0.5700 
  2 C        0.3220     1.5300    -0.7380 C.2   1 <1>   0.5690 
  3 N       -0.7940     2.1640    -0.2560 N.am  1 <1>  -0.6600 
  4 C        1.5780     2.3410    -1.0800 C.3   1 <1>   0.1810 
  5 C       -0.7890     3.6370     0.0150 C.3   1 <1>   0.3640 
  6 C       -2.0120     1.4130     0.1690 C.3   1 <1>   0.0600 
  7 O        1.6090     3.6270    -0.4990 O.3   1 <1>  -0.5600 
  8 C       -2.1050     4.2740    -0.4560 C.ar  1 <1>  -0.1430 
  9 C        0.4050     4.3490    -0.6650 C.3   1 <1>   0.2610 
 10 C       -2.9720     4.9390     0.4130 C.ar  1 <1>  -0.1430 
 11 C       -2.4410     4.1840    -1.8030 C.ar  1 <1>  -0.1500 
 12 C        0.5690     5.7740    -0.1330 C.2   1 <1>   0.5690 
 13 C       -4.1260     5.5220    -0.0870 C.ar  1 <1>  -0.1500 
 14 C       -2.7150     5.0470     1.9110 C.3   1 <1>  -0.0960 
 15 C       -3.5950     4.7670    -2.2910 C.ar  1 <1>  -0.1500 
 16 O        0.4450     6.0180     1.0490 O.2   1 <1>  -0.5700 
 17 N        0.9750     6.7720    -0.9770 N.am  1 <1>  -0.6600 
 18 C       -4.4380     5.4430    -1.4310 C.ar  1 <1>  -0.1500 
 19 C        0.5740     8.1850    -0.6650 C.3   1 <1>   0.1400 
 20 C        2.3790     6.7130    -1.4680 C.3   1 <1>   0.1400 
 21 C        1.5830     8.9080     0.2930 C.3   1 <1>   0.5030 
 22 C        3.3440     7.2370    -0.3760 C.3   1 <1>   0.3430 
 23 N        2.6290     7.9350     0.7640 N.4   1 <1>  -0.9590 
 24 C        0.8080     9.4370     1.5070 C.3   1 <1>  -0.2400 
 25 C        2.2580    10.0850    -0.4230 C.3   1 <1>  -0.2400 
 26 C        3.5640     8.4160     1.8190 C.3   1 <1>   0.3430 
 27 C        4.2320     7.2290     2.5030 C.3   1 <1>  -0.2400 
 28 H        1.6450     2.4480    -2.1470 H     1 <1>   0.0800 
 29 H        2.4430     1.8060    -0.7340 H     1 <1>   0.0800 
 30 H       -0.6780     3.7600     1.0760 H     1 <1>   0.0800 
 31 H       -2.2720     1.6770     1.1790 H     1 <1>   0.0800 
 32 H       -1.8400     0.3510     0.1260 H     1 <1>   0.0800 
 33 H       -2.8360     1.6520    -0.4800 H     1 <1>   0.0800 
 34 H        0.2200     4.4190    -1.7210 H     1 <1>   0.0800 
 35 H       -1.8080     3.6480    -2.4880 H     1 <1>   0.1500 
 36 H       -4.8010     6.0440     0.5700 H     1 <1>   0.1500 
 37 H       -3.5640     5.4710     2.4180 H     1 <1>   0.0800 
 38 H       -1.8670     5.6760     2.1040 H     1 <1>   0.0800 
 39 H       -2.5380     4.0740     2.3330 H     1 <1>   0.0800 
 40 H       -3.8400     4.6920    -3.3360 H     1 <1>   0.1500 
 41 H       -5.3370     5.9000    -1.8050 H     1 <1>   0.1500 
 42 H        0.4780     8.7340    -1.5860 H     1 <1>   0.0800 
 43 H       -0.4080     8.1710    -0.2210 H     1 <1>   0.0800 
 44 H        2.6470     5.7040    -1.7320 H     1 <1>   0.0800 
 45 H        2.4720     7.3140    -2.3560 H     1 <1>   0.0800 
 46 H        4.0580     7.9050    -0.8290 H     1 <1>   0.0800 
 47 H        3.8920     6.3950     0.0120 H     1 <1>   0.0800 
 48 H        2.0370     7.1930     1.1880 H     1 <1>   0.4500 
 49 H       -0.0230    10.0350     1.1770 H     1 <1>   0.0800 
 50 H        1.4140    10.0670     2.1310 H     1 <1>   0.0800 
 51 H        0.4150     8.6230     2.0920 H     1 <1>   0.0800 
 52 H        1.5130    10.7990    -0.7280 H     1 <1>   0.0800 
 53 H        2.7780     9.7640    -1.3070 H     1 <1>   0.0800 
 54 H        2.9460    10.5960     0.2250 H     1 <1>   0.0800 
 55 H        4.3080     9.0680     1.3900 H     1 <1>   0.0800 
 56 H        3.0230     8.9700     2.5670 H     1 <1>   0.0800 
 57 H        4.9050     6.7150     1.8410 H     1 <1>   0.0800 
 58 H        3.4950     6.5420     2.8800 H     1 <1>   0.0800 
 59 H        4.8100     7.5860     3.3370 H     1 <1>   0.0800 
@<TRIPOS>BOND
  1   1   2  2   
  2   2   3  am  
  3   2   4  1   
  4   3   5  1   
  5   3   6  1   
  6   4   7  1   
  7   4  28  1   
  8   4  29  1   
  9   5   8  1   
 10   5   9  1   
 11   5  30  1   
 12   6  31  1   
 13   6  32  1   
 14   6  33  1   
 15   7   9  1   
 16   8  10  ar  
 17   8  11  ar  
 18   9  12  1   
 19   9  34  1   
 20  10  13  ar  
 21  10  14  1   
 22  11  15  ar  
 23  11  35  1   
 24  12  16  2   
 25  12  17  am  
 26  13  18  ar  
 27  13  36  1   
 28  14  37  1   
 29  14  38  1   
 30  14  39  1   
 31  15  18  ar  
 32  15  40  1   
 33  17  19  1   
 34  17  20  1   
 35  18  41  1   
 36  19  21  1   
 37  19  42  1   
 38  19  43  1   
 39  20  22  1   
 40  20  44  1   
 41  20  45  1   
 42  21  23  1   
 43  21  24  1   
 44  21  25  1   
 45  22  23  1   
 46  22  46  1   
 47  22  47  1   
 48  23  26  1   
 49  23  48  1   
 50  24  49  1   
 51  24  50  1   
 52  24  51  1   
 53  25  52  1   
 54  25  53  1   
 55  25  54  1   
 56  26  27  1   
 57  26  55  1   
 58  26  56  1   
 59  27  57  1   
 60  27  58  1   
 61  27  59  1   
@<TRIPOS>SUBSTRUCTURE
  1 ****  12 GROUP 4 **** **** 0

# MOE 2024.06 (io_trps.svl 2023.06)
