@<TRIPOS>MOLECULE
NONAME
55 58 1 0 0 
SMALL
USER_CHARGES


@<TRIPOS>ATOM
  1 O       -2.8860     1.2260    -1.9910 O.2   1 <1>  -0.5700 
  2 C       -2.6460     1.2050    -0.7970 C.2   1 <1>   0.7160 
  3 N       -2.6830     0.0000    -0.1250 N.am  1 <1>  -0.6600 
  4 C       -2.2480     2.4040    -0.1350 C.2   1 <1>  -0.0860 
  5 C       -2.8600    -1.3060    -0.8400 C.3   1 <1>   0.1400 
  6 C       -2.6540    -0.1150     1.3610 C.3   1 <1>   0.1400 
  7 C       -3.0450     3.4950     0.2240 C.2   1 <1>   0.3720 
  8 C       -1.0230     2.7260     0.3520 C.2   1 <1>   0.0870 
  9 C       -1.7630    -2.3190    -0.4440 C.3   1 <1>   0.2800 
 10 C       -1.5440    -1.0830     1.7870 C.3   1 <1>  -0.1600 
 11 N       -2.3490     4.3740     0.8610 N.2   1 <1>  -0.4100 
 12 N       -4.4190     3.6040    -0.0400 N.pl3 1 <1>  -0.8210 
 13 O       -1.1340     3.8940     0.9260 O.3   1 <1>  -0.0190 
 14 C        0.2170     1.9980     0.3470 C.ar  1 <1>   0.0530 
 15 O       -0.5500    -1.8380    -0.8830 O.3   1 <1>  -0.6800 
 16 C       -1.6730    -2.4500     1.0860 C.3   1 <1>  -0.1600 
 17 C       -1.9630    -3.6750    -1.1160 C.3   1 <1>  -0.2400 
 18 C       -5.1840     4.6900     0.6360 C.3   1 <1>   0.2090 
 19 C       -4.7850     3.5880    -1.4830 C.3   1 <1>   0.2090 
 20 C        0.5790     1.1850    -0.7290 C.ar  1 <1>  -0.1500 
 21 C        1.0870     2.0510     1.4350 C.ar  1 <1>  -0.1500 
 22 C       -5.7310     5.5610    -0.4840 C.3   1 <1>  -0.1600 
 23 C       -5.9150     4.5960    -1.6460 C.3   1 <1>  -0.1600 
 24 C        1.7330     0.4270    -0.7050 C.ar  1 <1>  -0.1500 
 25 C        2.2460     1.3000     1.4640 C.ar  1 <1>  -0.1500 
 26 C        2.5750     0.4730     0.4020 C.ar  1 <1>   0.0830 
 27 O        3.7110    -0.2530     0.5150 O.3   1 <1>  -0.3620 
 28 C        4.0600    -1.2230    -0.4480 C.3   1 <1>   0.0400 
 29 H       -2.8400    -1.1690    -1.9080 H     1 <1>   0.0800 
 30 H       -3.8230    -1.7090    -0.5830 H     1 <1>   0.0800 
 31 H       -3.6070    -0.4880     1.6960 H     1 <1>   0.0800 
 32 H       -2.4980     0.8430     1.8260 H     1 <1>   0.0800 
 33 H       -1.5900    -1.2230     2.8530 H     1 <1>   0.0800 
 34 H       -0.5860    -0.6440     1.5670 H     1 <1>   0.0800 
 35 H       -0.4340    -0.9400    -0.5130 H     1 <1>   0.4000 
 36 H       -0.8400    -3.0790     1.3480 H     1 <1>   0.0800 
 37 H       -2.5660    -2.9330     1.4410 H     1 <1>   0.0800 
 38 H       -1.9780    -3.5610    -2.1850 H     1 <1>   0.0800 
 39 H       -2.8960    -4.1100    -0.8060 H     1 <1>   0.0800 
 40 H       -1.1670    -4.3450    -0.8460 H     1 <1>   0.0800 
 41 H       -4.5860     5.2670     1.3200 H     1 <1>   0.0800 
 42 H       -5.9960     4.2420     1.1830 H     1 <1>   0.0800 
 43 H       -5.1030     2.6030    -1.7820 H     1 <1>   0.0800 
 44 H       -3.9360     3.8820    -2.0790 H     1 <1>   0.0800 
 45 H       -0.0520     1.1450    -1.6010 H     1 <1>   0.1500 
 46 H        0.8460     2.6840     2.2710 H     1 <1>   0.1500 
 47 H       -4.9930     6.3040    -0.7350 H     1 <1>   0.0800 
 48 H       -6.6460     6.0500    -0.2020 H     1 <1>   0.0800 
 49 H       -6.8550     4.0830    -1.5520 H     1 <1>   0.0800 
 50 H       -5.8750     5.0880    -2.6010 H     1 <1>   0.0800 
 51 H        1.9620    -0.1920    -1.5530 H     1 <1>   0.1500 
 52 H        2.9060     1.3450     2.3110 H     1 <1>   0.1500 
 53 H        4.9590    -1.7120    -0.1190 H     1 <1>   0.0800 
 54 H        4.2330    -0.7340    -1.3890 H     1 <1>   0.0800 
 55 H        3.2620    -1.9410    -0.5270 H     1 <1>   0.0800 
@<TRIPOS>BOND
  1   1   2  2   
  2   2   3  am  
  3   2   4  1   
  4   3   5  1   
  5   3   6  1   
  6   4   7  1   
  7   4   8  2   
  8   5   9  1   
  9   5  29  1   
 10   5  30  1   
 11   6  10  1   
 12   6  31  1   
 13   6  32  1   
 14   7  11  2   
 15   7  12  1   
 16   8  13  1   
 17   8  14  1   
 18   9  15  1   
 19   9  16  1   
 20   9  17  1   
 21  10  16  1   
 22  10  33  1   
 23  10  34  1   
 24  11  13  1   
 25  12  18  1   
 26  12  19  1   
 27  14  20  ar  
 28  14  21  ar  
 29  15  35  1   
 30  16  36  1   
 31  16  37  1   
 32  17  38  1   
 33  17  39  1   
 34  17  40  1   
 35  18  22  1   
 36  18  41  1   
 37  18  42  1   
 38  19  23  1   
 39  19  43  1   
 40  19  44  1   
 41  20  24  ar  
 42  20  45  1   
 43  21  25  ar  
 44  21  46  1   
 45  22  23  1   
 46  22  47  1   
 47  22  48  1   
 48  23  49  1   
 49  23  50  1   
 50  24  26  ar  
 51  24  51  1   
 52  25  26  ar  
 53  25  52  1   
 54  26  27  1   
 55  27  28  1   
 56  28  53  1   
 57  28  54  1   
 58  28  55  1   
@<TRIPOS>SUBSTRUCTURE
  1 ****   4 GROUP 4 **** **** 0

# MOE 2024.06 (io_trps.svl 2023.06)
