@<TRIPOS>MOLECULE
NONAME
44 46 1 0 0 
SMALL
USER_CHARGES


@<TRIPOS>ATOM
  1 S       -0.2340    -0.5220    -0.5530 S.o2  1 <1>   1.0900 
  2 O        0.7230    -1.2250    -1.3750 O.2   1 <1>  -0.6500 
  3 O        0.1300     0.6410     0.2200 O.2   1 <1>  -0.6500 
  4 C       -1.0430    -1.7230     0.4640 C.3   1 <1>  -0.0550 
  5 C       -1.6760    -0.1880    -1.5540 C.3   1 <1>  -0.0550 
  6 C       -2.0230    -2.4100    -0.4810 C.3   1 <1>   0.1760 
  7 C       -2.7080    -1.3050    -1.3130 C.3   1 <1>  -0.1600 
  8 N       -3.0050    -3.2310     0.2690 N.pl3 1 <1>   0.3140 
  9 N       -3.7380    -2.6960     1.2630 N.2   1 <1>  -0.7070 
 10 C       -3.2840    -4.5480     0.1000 C.2   1 <1>  -0.3320 
 11 C       -4.4590    -3.6750     1.7140 C.2   1 <1>   0.1080 
 12 C       -4.2150    -4.8680     1.0260 C.2   1 <1>   0.0630 
 13 C       -2.6330    -5.4480    -0.9420 C.3   1 <1>  -0.0600 
 14 C       -5.4420    -3.4740     2.8450 C.3   1 <1>  -0.0590 
 15 N       -4.7890    -6.1530     1.1900 N.am  1 <1>  -0.4930 
 16 C       -5.1180    -6.8500     2.3120 C.2   1 <1>   0.5690 
 17 O       -5.0080    -6.4040     3.4310 O.2   1 <1>  -0.5700 
 18 C       -5.6230    -8.2740     2.1620 C.3   1 <1>   0.0820 
 19 C       -6.3310    -8.5270     0.8380 C.2   1 <1>   0.0460 
 20 N       -5.5690    -8.5030    -0.3250 N.2   1 <1>  -0.5650 
 21 C       -7.6400    -8.7800     0.6840 C.2   1 <1>  -0.1100 
 22 C       -6.2840    -8.7370    -1.3510 C.2   1 <1>   0.1980 
 23 S       -7.9770    -9.0070    -1.0060 S.3   1 <1>  -0.0800 
 24 C       -5.8530    -8.8060    -2.7970 C.3   1 <1>  -0.0600 
 25 H       -1.5800    -1.2260     1.2510 H     1 <1>   0.0800 
 26 H       -0.3440    -2.4200     0.8840 H     1 <1>   0.0800 
 27 H       -1.3990    -0.1480    -2.5910 H     1 <1>   0.0800 
 28 H       -2.1040     0.7590    -1.2820 H     1 <1>   0.0800 
 29 H       -1.4660    -3.0490    -1.1420 H     1 <1>   0.0800 
 30 H       -3.0760    -1.7000    -2.2440 H     1 <1>   0.0800 
 31 H       -3.5350    -0.8930    -0.7580 H     1 <1>   0.0800 
 32 H       -2.8280    -5.0740    -1.9320 H     1 <1>   0.0800 
 33 H       -3.0210    -6.4490    -0.8760 H     1 <1>   0.0800 
 34 H       -1.5700    -5.4910    -0.7840 H     1 <1>   0.0800 
 35 H       -5.7510    -2.4460     2.8830 H     1 <1>   0.0800 
 36 H       -4.9750    -3.7340     3.7760 H     1 <1>   0.0800 
 37 H       -6.3070    -4.0930     2.6990 H     1 <1>   0.0800 
 38 H       -4.8970    -6.6930     0.3230 H     1 <1>   0.3700 
 39 H       -6.2990    -8.4790     2.9710 H     1 <1>   0.0800 
 40 H       -4.7890    -8.9430     2.2500 H     1 <1>   0.0800 
 41 H       -8.4590    -8.8610     1.3760 H     1 <1>   0.1500 
 42 H       -4.7950    -8.6310    -2.8710 H     1 <1>   0.0800 
 43 H       -6.3730    -8.0590    -3.3690 H     1 <1>   0.0800 
 44 H       -6.0760    -9.7780    -3.1970 H     1 <1>   0.0800 
@<TRIPOS>BOND
  1   1   2  2   
  2   1   3  2   
  3   1   4  1   
  4   1   5  1   
  5   4   6  1   
  6   4  25  1   
  7   4  26  1   
  8   5   7  1   
  9   5  27  1   
 10   5  28  1   
 11   6   7  1   
 12   6   8  1   
 13   6  29  1   
 14   7  30  1   
 15   7  31  1   
 16   8   9  1   
 17   8  10  1   
 18   9  11  2   
 19  10  12  2   
 20  10  13  1   
 21  11  12  1   
 22  11  14  1   
 23  12  15  1   
 24  13  32  1   
 25  13  33  1   
 26  13  34  1   
 27  14  35  1   
 28  14  36  1   
 29  14  37  1   
 30  15  16  am  
 31  15  38  1   
 32  16  17  2   
 33  16  18  1   
 34  18  19  1   
 35  18  39  1   
 36  18  40  1   
 37  19  20  1   
 38  19  21  2   
 39  20  22  2   
 40  21  23  1   
 41  21  41  1   
 42  22  23  1   
 43  22  24  1   
 44  24  42  1   
 45  24  43  1   
 46  24  44  1   
@<TRIPOS>SUBSTRUCTURE
  1 ****  10 GROUP 4 **** **** 0

# MOE 2024.06 (io_trps.svl 2023.06)
