@<TRIPOS>MOLECULE
NONAME
48 49 1 0 0 
SMALL
USER_CHARGES


@<TRIPOS>ATOM
  1 O       -1.1360    -2.0260    -2.5160 O.3   1 <1>  -0.8500 
  2 C       -0.8860    -2.5040    -1.3960 C.2   1 <1>  -0.1500 
  3 C       -1.6310    -2.2590    -0.2370 C.2   1 <1>  -0.1240 
  4 C        0.2390    -3.3630    -1.2960 C.2   1 <1>  -0.1500 
  5 C       -1.2570    -2.8730     0.9700 C.2   1 <1>   0.6160 
  6 C       -2.8660    -1.3400    -0.2150 C.3   1 <1>   0.2020 
  7 C        0.5910    -3.9650    -0.1350 C.2   1 <1>  -0.0290 
  8 O       -1.8540    -2.6530     2.0470 O.2   1 <1>  -0.5700 
  9 N       -0.1630    -3.7570     1.0190 N.am  1 <1>  -0.4690 
 10 C       -4.1540    -2.1370    -0.4310 C.ar  1 <1>  -0.1440 
 11 C       -2.8110    -0.1430    -1.1780 C.3   1 <1>  -0.0990 
 12 C        1.8140    -4.8680    -0.0830 C.3   1 <1>  -0.1020 
 13 C        0.1670    -4.4290     2.3090 C.3   1 <1>   0.0600 
 14 C       -5.1970    -2.0700     0.4810 C.ar  1 <1>  -0.1500 
 15 C       -4.2950    -2.9350    -1.5550 C.ar  1 <1>  -0.1500 
 16 C       -3.8620     0.8890    -0.8500 C.2   1 <1>   0.6590 
 17 C       -6.3730    -2.7750     0.2750 C.ar  1 <1>  -0.1440 
 18 C       -5.4580    -3.6500    -1.7700 C.ar  1 <1>  -0.1500 
 19 O       -4.7150     1.2210    -1.6350 O.2   1 <1>  -0.5700 
 20 O       -3.7860     1.4390     0.3590 O.3   1 <1>  -0.4300 
 21 C       -6.5070    -3.5750    -0.8580 C.ar  1 <1>   0.0820 
 22 C       -7.5030    -2.6510     1.2840 C.3   1 <1>   0.2630 
 23 C       -4.7090     2.4160     0.7880 C.3   1 <1>   0.0400 
 24 O       -7.6730    -4.2600    -1.0210 O.3   1 <1>  -0.3630 
 25 O       -7.7370    -3.8950     1.8330 O.3   1 <1>  -0.6800 
 26 C       -7.9060    -5.0410    -2.1710 C.3   1 <1>   0.0400 
 27 H        0.7860    -3.4960    -2.2100 H     1 <1>   0.1500 
 28 H       -2.9070    -0.9120     0.7690 H     1 <1>   0.0800 
 29 H       -2.9650    -0.4740    -2.1870 H     1 <1>   0.0800 
 30 H       -1.8410     0.3120    -1.1240 H     1 <1>   0.0800 
 31 H        2.4950    -4.5230     0.6730 H     1 <1>   0.0800 
 32 H        2.3250    -4.8570    -1.0280 H     1 <1>   0.0800 
 33 H        1.5170    -5.8790     0.1270 H     1 <1>   0.0800 
 34 H       -0.7220    -4.5640     2.8990 H     1 <1>   0.0800 
 35 H        0.8620    -3.8190     2.8580 H     1 <1>   0.0800 
 36 H        0.5930    -5.3980     2.1370 H     1 <1>   0.0800 
 37 H       -5.0850    -1.4600     1.3600 H     1 <1>   0.1500 
 38 H       -3.4810    -2.9930    -2.2630 H     1 <1>   0.1500 
 39 H       -5.5120    -4.2540    -2.6540 H     1 <1>   0.1500 
 40 H       -8.4040    -2.3230     0.7960 H     1 <1>   0.0800 
 41 H       -7.2570    -1.9720     2.0820 H     1 <1>   0.0800 
 42 H       -4.4580     2.7040     1.7930 H     1 <1>   0.0800 
 43 H       -5.6980     1.9920     0.7570 H     1 <1>   0.0800 
 44 H       -4.6470     3.2640     0.1290 H     1 <1>   0.0800 
 45 H       -7.6650    -4.5370     1.0960 H     1 <1>   0.4000 
 46 H       -8.8920    -5.4610    -2.0970 H     1 <1>   0.0800 
 47 H       -7.1740    -5.8290    -2.2120 H     1 <1>   0.0800 
 48 H       -7.8410    -4.4100    -3.0400 H     1 <1>   0.0800 
@<TRIPOS>BOND
  1   1   2  1   
  2   2   3  2   
  3   2   4  1   
  4   3   5  1   
  5   3   6  1   
  6   4   7  2   
  7   4  27  1   
  8   5   8  2   
  9   5   9  am  
 10   6  10  1   
 11   6  11  1   
 12   6  28  1   
 13   7   9  1   
 14   7  12  1   
 15   9  13  1   
 16  10  14  ar  
 17  10  15  ar  
 18  11  16  1   
 19  11  29  1   
 20  11  30  1   
 21  12  31  1   
 22  12  32  1   
 23  12  33  1   
 24  13  34  1   
 25  13  35  1   
 26  13  36  1   
 27  14  17  ar  
 28  14  37  1   
 29  15  18  ar  
 30  15  38  1   
 31  16  19  2   
 32  16  20  1   
 33  17  21  ar  
 34  17  22  1   
 35  18  21  ar  
 36  18  39  1   
 37  20  23  1   
 38  21  24  1   
 39  22  25  1   
 40  22  40  1   
 41  22  41  1   
 42  23  42  1   
 43  23  43  1   
 44  23  44  1   
 45  24  26  1   
 46  25  45  1   
 47  26  46  1   
 48  26  47  1   
 49  26  48  1   
@<TRIPOS>SUBSTRUCTURE
  1 ****  10 GROUP 4 **** **** 0

# MOE 2024.06 (io_trps.svl 2023.06)
