@<TRIPOS>MOLECULE
NONAME
54 55 1 0 0 
SMALL
USER_CHARGES


@<TRIPOS>ATOM
  1 O        1.2960    -0.0830     2.2020 O.2   1 <1>  -0.5700 
  2 C        2.0600    -0.8730     1.6810 C.2   1 <1>   0.5440 
  3 N        3.4010    -0.5640     1.6060 N.am  1 <1>  -0.6600 
  4 C        1.5460    -2.1090     1.1370 C.ar  1 <1>   0.0860 
  5 C        4.4310    -1.4410     0.9620 C.3   1 <1>   0.1400 
  6 C        3.9340     0.7180     2.1390 C.3   1 <1>   0.1400 
  7 C        1.0220    -2.2020    -0.1580 C.ar  1 <1>   0.1660 
  8 C        1.5860    -3.2700     1.8960 C.ar  1 <1>  -0.1500 
  9 C        4.8400    -0.9400    -0.4320 C.3   1 <1>   0.1400 
 10 C        3.8020     1.8470     1.1070 C.3   1 <1>  -0.1600 
 11 N        0.6030    -3.3250    -0.7180 N.ar  1 <1>  -0.6200 
 12 C        0.8960    -0.9800    -1.0550 C.3   1 <1>  -0.0970 
 13 C        1.1350    -4.4370     1.3240 C.ar  1 <1>  -0.1500 
 14 N        5.2640     0.4970    -0.4180 N.am  1 <1>  -0.6600 
 15 C        4.1330     1.4640    -0.3430 C.3   1 <1>   0.1400 
 16 C        0.6610    -4.4160     0.0230 C.ar  1 <1>   0.1670 
 17 C        6.5880     0.8550    -0.5310 C.2   1 <1>   0.5690 
 18 C        0.1650    -5.6870    -0.6320 C.3   1 <1>  -0.0970 
 19 O        7.4490     0.0090    -0.6400 O.2   1 <1>  -0.5700 
 20 C        7.0140     2.3440    -0.5220 C.3   1 <1>   0.2610 
 21 O        6.8330     2.9200    -1.7820 O.3   1 <1>  -0.6800 
 22 C        8.4770     2.5710    -0.0910 C.3   1 <1>  -0.1600 
 23 C        8.9210     4.0470    -0.0130 C.3   1 <1>  -0.0800 
 24 C       10.4110     4.1200     0.3370 C.3   1 <1>  -0.2400 
 25 C        8.1130     4.8390     1.0240 C.3   1 <1>  -0.2400 
 26 H        4.0660    -2.4480     0.8730 H     1 <1>   0.0800 
 27 H        5.3070    -1.4790     1.5870 H     1 <1>   0.0800 
 28 H        4.9700     0.5910     2.3990 H     1 <1>   0.0800 
 29 H        3.4040     0.9870     3.0380 H     1 <1>   0.0800 
 30 H        1.9620    -3.2470     2.9040 H     1 <1>   0.1500 
 31 H        4.0170    -1.0650    -1.1110 H     1 <1>   0.0800 
 32 H        5.6420    -1.5580    -0.7970 H     1 <1>   0.0800 
 33 H        4.4310     2.6610     1.4140 H     1 <1>   0.0800 
 34 H        2.7910     2.2140     1.1350 H     1 <1>   0.0800 
 35 H        0.9620    -0.0600    -0.5060 H     1 <1>   0.0800 
 36 H       -0.0580    -1.0000    -1.5490 H     1 <1>   0.0800 
 37 H        1.6660    -1.0020    -1.8030 H     1 <1>   0.0800 
 38 H        1.1510    -5.3550     1.8830 H     1 <1>   0.1500 
 39 H        4.3550     2.3480    -0.9160 H     1 <1>   0.0800 
 40 H        3.2620     1.0140    -0.7880 H     1 <1>   0.0800 
 41 H        0.7450    -5.8850    -1.5150 H     1 <1>   0.0800 
 42 H       -0.8650    -5.5640    -0.9160 H     1 <1>   0.0800 
 43 H        0.2450    -6.5260     0.0340 H     1 <1>   0.0800 
 44 H        6.3730     2.8690     0.1580 H     1 <1>   0.0800 
 45 H        7.3850     2.4380    -2.4290 H     1 <1>   0.4000 
 46 H        9.1190     2.0430    -0.7750 H     1 <1>   0.0800 
 47 H        8.6140     2.1170     0.8750 H     1 <1>   0.0800 
 48 H        8.7840     4.5080    -0.9780 H     1 <1>   0.0800 
 49 H       10.5980     3.6780     1.3010 H     1 <1>   0.0800 
 50 H       10.7410     5.1430     0.3590 H     1 <1>   0.0800 
 51 H       10.9950     3.5960    -0.3990 H     1 <1>   0.0800 
 52 H        8.1730     4.3730     1.9910 H     1 <1>   0.0800 
 53 H        7.0810     4.9080     0.7310 H     1 <1>   0.0800 
 54 H        8.4960     5.8410     1.1040 H     1 <1>   0.0800 
@<TRIPOS>BOND
  1   1   2  2   
  2   2   3  am  
  3   2   4  1   
  4   3   5  1   
  5   3   6  1   
  6   4   7  ar  
  7   4   8  ar  
  8   5   9  1   
  9   5  26  1   
 10   5  27  1   
 11   6  10  1   
 12   6  28  1   
 13   6  29  1   
 14   7  11  ar  
 15   7  12  1   
 16   8  13  ar  
 17   8  30  1   
 18   9  14  1   
 19   9  31  1   
 20   9  32  1   
 21  10  15  1   
 22  10  33  1   
 23  10  34  1   
 24  11  16  ar  
 25  12  35  1   
 26  12  36  1   
 27  12  37  1   
 28  13  16  ar  
 29  13  38  1   
 30  14  15  1   
 31  14  17  am  
 32  15  39  1   
 33  15  40  1   
 34  16  18  1   
 35  17  19  2   
 36  17  20  1   
 37  18  41  1   
 38  18  42  1   
 39  18  43  1   
 40  20  21  1   
 41  20  22  1   
 42  20  44  1   
 43  21  45  1   
 44  22  23  1   
 45  22  46  1   
 46  22  47  1   
 47  23  24  1   
 48  23  25  1   
 49  23  48  1   
 50  24  49  1   
 51  24  50  1   
 52  24  51  1   
 53  25  52  1   
 54  25  53  1   
 55  25  54  1   
@<TRIPOS>SUBSTRUCTURE
  1 ****   9 GROUP 4 **** **** 0

# MOE 2024.06 (io_trps.svl 2023.06)
