@<TRIPOS>MOLECULE
NONAME
44 45 1 0 0 
SMALL
USER_CHARGES


@<TRIPOS>ATOM
  1 CL       0.0770     0.8860    -1.3100 Cl    1 <1>  -0.1770 
  2 C       -1.5620     1.1420    -0.7720 C.ar  1 <1>   0.1770 
  3 C       -2.3020     0.0730    -0.3060 C.ar  1 <1>  -0.1500 
  4 C       -2.1030     2.4130    -0.8170 C.ar  1 <1>  -0.1500 
  5 C       -3.6010     0.2820     0.1210 C.ar  1 <1>  -0.1500 
  6 C       -3.4040     2.6100    -0.3890 C.ar  1 <1>  -0.1500 
  7 C       -4.1830     1.5520     0.0860 C.ar  1 <1>   0.0530 
  8 C       -5.5330     1.7870     0.5370 C.2   1 <1>   0.0870 
  9 O       -5.7980     2.8760     1.2140 O.3   1 <1>  -0.0190 
 10 C       -6.7000     1.0910     0.4340 C.2   1 <1>  -0.0860 
 11 N       -7.0480     2.9620     1.5810 N.2   1 <1>  -0.4100 
 12 C       -7.6100     1.9080     1.1190 C.2   1 <1>   0.3720 
 13 C       -7.0000    -0.1590    -0.1970 C.2   1 <1>   0.7160 
 14 N       -8.9660     1.6960     1.3210 N.pl3 1 <1>  -0.8520 
 15 O       -6.2480    -0.6590    -1.0100 O.2   1 <1>  -0.5700 
 16 N       -8.1480    -0.8190     0.1140 N.am  1 <1>  -0.7300 
 17 C       -9.8090     2.0230     0.1370 C.3   1 <1>   0.2090 
 18 C       -8.6590    -2.0400    -0.5330 C.3   1 <1>   0.2200 
 19 C      -11.2600     1.6170     0.3950 C.3   1 <1>   0.1200 
 20 C       -8.2640    -3.2630     0.3160 C.3   1 <1>   0.1200 
 21 C      -10.1720    -1.8710    -0.6890 C.3   1 <1>  -0.2400 
 22 O      -11.9760     1.7660    -0.7890 O.3   1 <1>  -0.5600 
 23 O       -8.8270    -4.4310    -0.1900 O.3   1 <1>  -0.6800 
 24 C      -13.3240     1.4380    -0.6820 C.3   1 <1>   0.0400 
 25 H       -1.8640    -0.9090    -0.2800 H     1 <1>   0.1500 
 26 H       -1.5100     3.2320    -1.1830 H     1 <1>   0.1500 
 27 H       -4.1720    -0.5520     0.4870 H     1 <1>   0.1500 
 28 H       -3.8270     3.5990    -0.4240 H     1 <1>   0.1500 
 29 H       -9.2410     2.3230     2.0880 H     1 <1>   0.4000 
 30 H       -8.7830    -0.3280     0.7550 H     1 <1>   0.3700 
 31 H       -9.7610     3.0820    -0.0590 H     1 <1>   0.0800 
 32 H       -9.4430     1.4940    -0.7260 H     1 <1>   0.0800 
 33 H       -8.2060    -2.1390    -1.5070 H     1 <1>   0.0800 
 34 H      -11.6990     2.2480     1.1470 H     1 <1>   0.0800 
 35 H      -11.3110     0.5850     0.6950 H     1 <1>   0.0800 
 36 H       -8.5990    -3.1460     1.3320 H     1 <1>   0.0800 
 37 H       -7.1950    -3.3850     0.3030 H     1 <1>   0.0800 
 38 H      -10.6520    -1.8260     0.2710 H     1 <1>   0.0800 
 39 H      -10.5800    -2.6990    -1.2410 H     1 <1>   0.0800 
 40 H      -10.3870    -0.9740    -1.2430 H     1 <1>   0.0800 
 41 H       -9.8020    -4.3930    -0.1440 H     1 <1>   0.4000 
 42 H      -13.7820     1.5870    -1.6440 H     1 <1>   0.0800 
 43 H      -13.7910     2.0820     0.0440 H     1 <1>   0.0800 
 44 H      -13.4190     0.4060    -0.3920 H     1 <1>   0.0800 
@<TRIPOS>BOND
  1   1   2  1   
  2   2   3  ar  
  3   2   4  ar  
  4   3   5  ar  
  5   3  25  1   
  6   4   6  ar  
  7   4  26  1   
  8   5   7  ar  
  9   5  27  1   
 10   6   7  ar  
 11   6  28  1   
 12   7   8  1   
 13   8   9  1   
 14   8  10  2   
 15   9  11  1   
 16  10  12  1   
 17  10  13  1   
 18  11  12  2   
 19  12  14  1   
 20  13  15  2   
 21  13  16  am  
 22  14  17  1   
 23  14  29  1   
 24  16  18  1   
 25  16  30  1   
 26  17  19  1   
 27  17  31  1   
 28  17  32  1   
 29  18  20  1   
 30  18  21  1   
 31  18  33  1   
 32  19  22  1   
 33  19  34  1   
 34  19  35  1   
 35  20  23  1   
 36  20  36  1   
 37  20  37  1   
 38  21  38  1   
 39  21  39  1   
 40  21  40  1   
 41  22  24  1   
 42  23  41  1   
 43  24  42  1   
 44  24  43  1   
 45  24  44  1   
@<TRIPOS>SUBSTRUCTURE
  1 ****  10 GROUP 4 **** **** 0

# MOE 2024.06 (io_trps.svl 2023.06)
