@<TRIPOS>MOLECULE
NONAME
54 57 1 0 0 
SMALL
USER_CHARGES


@<TRIPOS>ATOM
  1 O       -0.0130    -0.8580     0.8400 O.3   1 <1>  -0.2800 
  2 C        0.6200    -1.1370    -0.2850 C.2   1 <1>  -0.0400 
  3 C       -0.2130     0.4450     0.8740 C.2   1 <1>  -0.0100 
  4 C        0.8310    -0.0090    -0.9990 C.2   1 <1>  -0.1500 
  5 C        0.9800    -2.5780    -0.5930 C.3   1 <1>   0.5230 
  6 C        0.2840     1.0300    -0.2360 C.2   1 <1>  -0.1500 
  7 N       -0.2710    -3.4000    -0.5120 N.4   1 <1>  -0.9590 
  8 C       -0.5150    -3.8360     0.8930 C.3   1 <1>   0.3430 
  9 C       -0.2630    -4.5150    -1.4960 C.3   1 <1>   0.3430 
 10 C       -1.8490    -4.5780     0.9760 C.3   1 <1>  -0.1600 
 11 C       -1.5930    -5.2740    -1.4290 C.3   1 <1>  -0.1600 
 12 C       -1.8900    -5.7520    -0.0040 C.3   1 <1>   0.4230 
 13 N       -3.2320    -6.3760     0.0670 N.4   1 <1>  -0.9060 
 14 C       -3.3780    -7.7320    -0.5470 C.3   1 <1>   0.4230 
 15 C       -4.8250    -8.2120    -0.4090 C.3   1 <1>  -0.0800 
 16 C       -2.7020    -8.7380     0.3790 C.3   1 <1>   0.1200 
 17 C       -4.8680    -8.7830     1.0200 C.3   1 <1>   0.1200 
 18 C       -5.9450    -7.1960    -0.7130 C.3   1 <1>  -0.0170 
 19 O       -3.5480    -8.7250     1.4790 O.3   1 <1>  -0.5600 
 20 C       -7.3060    -7.8640    -0.6150 C.ar  1 <1>  -0.1430 
 21 C       -8.1160    -7.7230     0.4950 C.ar  1 <1>  -0.1500 
 22 C       -7.8030    -8.6490    -1.6360 C.ar  1 <1>  -0.1500 
 23 C       -9.3440    -8.3640     0.5320 C.ar  1 <1>   0.1600 
 24 C       -9.0460    -9.2460    -1.4980 C.ar  1 <1>   0.1600 
 25 N       -9.8240    -9.1240    -0.4370 N.ar  1 <1>  -0.6200 
 26 H       -0.7130     0.8810     1.7230 H     1 <1>   0.1500 
 27 H        1.3120     0.1260    -1.9540 H     1 <1>   0.1500 
 28 H        1.7170    -2.9320     0.1100 H     1 <1>   0.0800 
 29 H        1.3990    -2.6230    -1.5850 H     1 <1>   0.0800 
 30 H        0.2800     2.0730    -0.5060 H     1 <1>   0.1500 
 31 H       -1.0050    -2.7160    -0.7580 H     1 <1>   0.4500 
 32 H        0.2860    -4.4810     1.2220 H     1 <1>   0.0800 
 33 H       -0.5410    -2.9800     1.5510 H     1 <1>   0.0800 
 34 H       -0.1200    -4.1270    -2.4930 H     1 <1>   0.0800 
 35 H        0.5530    -5.1870    -1.2780 H     1 <1>   0.0800 
 36 H       -2.6430    -3.8810     0.7750 H     1 <1>   0.0800 
 37 H       -1.9670    -4.9410     1.9820 H     1 <1>   0.0800 
 38 H       -1.5270    -6.1170    -2.0940 H     1 <1>   0.0800 
 39 H       -2.3770    -4.6270    -1.7840 H     1 <1>   0.0800 
 40 H       -1.1420    -6.4710     0.2930 H     1 <1>   0.0800 
 41 H       -3.9570    -5.7480    -0.2940 H     1 <1>   0.4500 
 42 H       -3.4610    -6.5570     1.0610 H     1 <1>   0.4500 
 43 H       -3.0170    -7.7690    -1.5620 H     1 <1>   0.0800 
 44 H       -4.9560    -9.0450    -1.0800 H     1 <1>   0.0800 
 45 H       -1.7060    -8.4690     0.6810 H     1 <1>   0.0800 
 46 H       -2.6990    -9.7310    -0.0410 H     1 <1>   0.0800 
 47 H       -5.1950    -9.8110     1.0270 H     1 <1>   0.0800 
 48 H       -5.4840    -8.2070     1.6890 H     1 <1>   0.0800 
 49 H       -5.8280    -6.8050    -1.7100 H     1 <1>   0.0800 
 50 H       -5.9200    -6.3700    -0.0250 H     1 <1>   0.0800 
 51 H       -7.8180    -7.1240     1.3350 H     1 <1>   0.1500 
 52 H       -7.2470    -8.8080    -2.5410 H     1 <1>   0.1500 
 53 H       -9.9650    -8.2450     1.4040 H     1 <1>   0.1500 
 54 H       -9.4200    -9.8560    -2.3030 H     1 <1>   0.1500 
@<TRIPOS>BOND
  1   1   2  1   
  2   1   3  1   
  3   2   4  2   
  4   2   5  1   
  5   3   6  2   
  6   3  26  1   
  7   4   6  1   
  8   4  27  1   
  9   5   7  1   
 10   5  28  1   
 11   5  29  1   
 12   6  30  1   
 13   7   8  1   
 14   7   9  1   
 15   7  31  1   
 16   8  10  1   
 17   8  32  1   
 18   8  33  1   
 19   9  11  1   
 20   9  34  1   
 21   9  35  1   
 22  10  12  1   
 23  10  36  1   
 24  10  37  1   
 25  11  12  1   
 26  11  38  1   
 27  11  39  1   
 28  12  13  1   
 29  12  40  1   
 30  13  14  1   
 31  13  41  1   
 32  13  42  1   
 33  14  15  1   
 34  14  16  1   
 35  14  43  1   
 36  15  17  1   
 37  15  18  1   
 38  15  44  1   
 39  16  19  1   
 40  16  45  1   
 41  16  46  1   
 42  17  19  1   
 43  17  47  1   
 44  17  48  1   
 45  18  20  1   
 46  18  49  1   
 47  18  50  1   
 48  20  21  ar  
 49  20  22  ar  
 50  21  23  ar  
 51  21  51  1   
 52  22  24  ar  
 53  22  52  1   
 54  23  25  ar  
 55  23  53  1   
 56  24  25  ar  
 57  24  54  1   
@<TRIPOS>SUBSTRUCTURE
  1 ****  13 GROUP 4 **** **** 0

# MOE 2024.06 (io_trps.svl 2023.06)
