@<TRIPOS>MOLECULE
NONAME
41 44 1 0 0 
SMALL
USER_CHARGES


@<TRIPOS>ATOM
  1 S       -0.9080     0.3410     1.1480 S.3   1 <1>  -0.0800 
  2 C       -1.8550    -0.8590     0.3000 C.2   1 <1>  -0.1100 
  3 C       -0.4290    -0.8350     2.3530 C.2   1 <1>  -0.1100 
  4 C       -1.8170    -2.0660     0.9160 C.2   1 <1>  -0.0860 
  5 C       -0.9810    -2.0330     2.0890 C.2   1 <1>  -0.1500 
  6 C       -2.4860    -3.2850     0.5060 C.2   1 <1>   0.7160 
  7 O       -1.8370    -4.3100     0.4250 O.2   1 <1>  -0.5700 
  8 N       -3.8380    -3.3210     0.2270 N.am  1 <1>  -0.6600 
  9 C       -4.8060    -2.2860     0.7160 C.3   1 <1>   0.1400 
 10 C       -4.4880    -4.5710    -0.2670 C.3   1 <1>   0.1400 
 11 C       -5.8460    -1.9240    -0.3620 C.3   1 <1>   0.1430 
 12 C       -5.5340    -4.2490    -1.3410 C.3   1 <1>  -0.1600 
 13 C       -6.8120    -0.9150     0.2310 C.ar  1 <1>   0.1670 
 14 C       -6.5520    -3.2050    -0.8530 C.3   1 <1>  -0.1600 
 15 C       -5.2170    -1.1260    -1.5350 C.3   1 <1>  -0.1600 
 16 N       -7.7500    -1.1820     1.1130 N.ar  1 <1>  -0.6200 
 17 C       -6.5840     0.3400    -0.2500 C.ar  1 <1>  -0.1430 
 18 C       -5.4380     0.3660    -1.2300 C.3   1 <1>  -0.0170 
 19 C       -8.4660    -0.1300     1.4870 C.ar  1 <1>   0.4770 
 20 C       -7.3850     1.3570     0.2080 C.ar  1 <1>   0.1600 
 21 N       -8.3400     1.1280     1.0850 N.ar  1 <1>  -0.6200 
 22 C       -9.5620    -0.3940     2.4900 C.3   1 <1>  -0.0970 
 23 H       -2.3530    -0.5430    -0.5970 H     1 <1>   0.1500 
 24 H        0.2260    -0.5030     3.1380 H     1 <1>   0.1500 
 25 H       -0.8390    -2.9270     2.6730 H     1 <1>   0.1500 
 26 H       -4.2980    -1.3950     1.0380 H     1 <1>   0.0800 
 27 H       -5.3230    -2.6840     1.5730 H     1 <1>   0.0800 
 28 H       -4.9600    -5.0680     0.5640 H     1 <1>   0.0800 
 29 H       -3.7530    -5.2420    -0.6800 H     1 <1>   0.0800 
 30 H       -6.0500    -5.1540    -1.6090 H     1 <1>   0.0800 
 31 H       -5.0290    -3.8940    -2.2230 H     1 <1>   0.0800 
 32 H       -7.2490    -2.9680    -1.6380 H     1 <1>   0.0800 
 33 H       -7.1180    -3.6250    -0.0390 H     1 <1>   0.0800 
 34 H       -5.7470    -1.3550    -2.4430 H     1 <1>   0.0800 
 35 H       -4.1810    -1.3630    -1.6890 H     1 <1>   0.0800 
 36 H       -5.6860     0.9200    -2.1190 H     1 <1>   0.0800 
 37 H       -4.5700     0.7950    -0.7600 H     1 <1>   0.0800 
 38 H       -7.2440     2.3640    -0.1430 H     1 <1>   0.1500 
 39 H       -9.3590    -1.2970     3.0360 H     1 <1>   0.0800 
 40 H      -10.4970    -0.4970     1.9730 H     1 <1>   0.0800 
 41 H       -9.6290     0.4250     3.1820 H     1 <1>   0.0800 
@<TRIPOS>BOND
  1   1   2  1   
  2   1   3  1   
  3   2   4  2   
  4   2  23  1   
  5   3   5  2   
  6   3  24  1   
  7   4   5  1   
  8   4   6  1   
  9   5  25  1   
 10   6   7  2   
 11   6   8  am  
 12   8   9  1   
 13   8  10  1   
 14   9  11  1   
 15   9  26  1   
 16   9  27  1   
 17  10  12  1   
 18  10  28  1   
 19  10  29  1   
 20  11  13  1   
 21  11  14  1   
 22  11  15  1   
 23  12  14  1   
 24  12  30  1   
 25  12  31  1   
 26  13  16  ar  
 27  13  17  ar  
 28  14  32  1   
 29  14  33  1   
 30  15  18  1   
 31  15  34  1   
 32  15  35  1   
 33  16  19  ar  
 34  17  18  1   
 35  17  20  ar  
 36  18  36  1   
 37  18  37  1   
 38  19  21  ar  
 39  19  22  1   
 40  20  21  ar  
 41  20  38  1   
 42  22  39  1   
 43  22  40  1   
 44  22  41  1   
@<TRIPOS>SUBSTRUCTURE
  1 ****   9 GROUP 4 **** **** 0

# MOE 2024.06 (io_trps.svl 2023.06)
