@<TRIPOS>MOLECULE
NONAME
51 53 1 0 0 
SMALL
USER_CHARGES


@<TRIPOS>ATOM
  1 O       -1.0860    -0.7430    -2.3080 O.2   1 <1>  -0.5700 
  2 C       -1.4650     0.0050    -1.4350 C.2   1 <1>   0.5690 
  3 N       -1.9940    -0.4840    -0.2590 N.am  1 <1>  -0.6600 
  4 C       -1.3370     1.5120    -1.7300 C.3   1 <1>   0.1710 
  5 C       -2.0570    -1.9600    -0.0470 C.3   1 <1>   0.3200 
  6 C       -2.1760     0.3450     0.9830 C.3   1 <1>   0.1400 
  7 N       -0.5410     2.3130    -0.7570 N.3   1 <1>  -0.8100 
  8 C       -3.4500    -2.4900    -0.3230 C.2   1 <1>  -0.3320 
  9 C       -3.3130     1.3750     0.8890 C.3   1 <1>   0.1200 
 10 C        0.8760     1.8770    -0.7550 C.3   1 <1>   0.1100 
 11 C       -0.5990     3.7520    -1.0970 C.3   1 <1>   0.1100 
 12 N       -4.5800    -2.0270     0.2420 N.pl3 1 <1>   0.0330 
 13 C       -3.8290    -3.4940    -1.1440 C.2   1 <1>   0.0770 
 14 O       -4.4320     0.7980     0.3110 O.3   1 <1>  -0.6800 
 15 C        1.7390     2.6790     0.2380 C.3   1 <1>   0.2090 
 16 C        0.1970     4.6220    -0.1060 C.3   1 <1>   0.2090 
 17 C       -5.5740    -2.7800    -0.2720 C.2   1 <1>   0.0060 
 18 N       -5.1630    -3.6790    -1.1030 N.2   1 <1>  -0.5650 
 19 N        1.6140     4.1550     0.0160 N.pl3 1 <1>  -0.8380 
 20 C       -7.0270    -2.5670     0.0920 C.3   1 <1>  -0.0600 
 21 C        2.6690     5.0260     0.2000 C.ar  1 <1>   0.7200 
 22 N        2.4300     6.3250     0.0140 N.ar  1 <1>  -0.6200 
 23 N        3.8410     4.4970     0.5540 N.ar  1 <1>  -0.6200 
 24 C        3.4410     7.1390     0.1930 C.ar  1 <1>   0.1600 
 25 C        4.8340     5.3340     0.7270 C.ar  1 <1>   0.1600 
 26 C        4.6850     6.6870     0.5560 C.ar  1 <1>  -0.1500 
 27 H       -2.3320     1.9110    -1.7880 H     1 <1>   0.0800 
 28 H       -0.9000     1.6180    -2.7080 H     1 <1>   0.0800 
 29 H       -1.7740    -2.2000     0.9630 H     1 <1>   0.0800 
 30 H       -1.3560    -2.4620    -0.6940 H     1 <1>   0.0800 
 31 H       -1.2570     0.8540     1.2130 H     1 <1>   0.0800 
 32 H       -2.3870    -0.2990     1.8190 H     1 <1>   0.0800 
 33 H       -3.0200     2.2210     0.2940 H     1 <1>   0.0800 
 34 H       -3.5830     1.7300     1.8680 H     1 <1>   0.0800 
 35 H        1.2950     1.9910    -1.7410 H     1 <1>   0.0800 
 36 H        0.9340     0.8360    -0.4910 H     1 <1>   0.0800 
 37 H       -1.6240     4.0800    -1.0920 H     1 <1>   0.0800 
 38 H       -0.2020     3.9130    -2.0860 H     1 <1>   0.0800 
 39 H       -4.6810    -1.2160     0.8650 H     1 <1>   0.2700 
 40 H       -3.2040    -4.1060    -1.7730 H     1 <1>   0.1500 
 41 H       -4.1550     0.3420    -0.5160 H     1 <1>   0.4000 
 42 H        2.7600     2.3610     0.1250 H     1 <1>   0.0800 
 43 H        1.4310     2.4500     1.2420 H     1 <1>   0.0800 
 44 H       -0.2700     4.5740     0.8610 H     1 <1>   0.0800 
 45 H        0.1530     5.6420    -0.4430 H     1 <1>   0.0800 
 46 H       -7.3250    -1.5660    -0.1600 H     1 <1>   0.0800 
 47 H       -7.1710    -2.7300     1.1440 H     1 <1>   0.0800 
 48 H       -7.6430    -3.2600    -0.4530 H     1 <1>   0.0800 
 49 H        3.2720     8.1920     0.0470 H     1 <1>   0.1500 
 50 H        5.7900     4.9300     1.0120 H     1 <1>   0.1500 
 51 H        5.5060     7.3640     0.7000 H     1 <1>   0.1500 
@<TRIPOS>BOND
  1   1   2  2   
  2   2   3  am  
  3   2   4  1   
  4   3   5  1   
  5   3   6  1   
  6   4   7  1   
  7   4  27  1   
  8   4  28  1   
  9   5   8  1   
 10   5  29  1   
 11   5  30  1   
 12   6   9  1   
 13   6  31  1   
 14   6  32  1   
 15   7  10  1   
 16   7  11  1   
 17   8  12  1   
 18   8  13  2   
 19   9  14  1   
 20   9  33  1   
 21   9  34  1   
 22  10  15  1   
 23  10  35  1   
 24  10  36  1   
 25  11  16  1   
 26  11  37  1   
 27  11  38  1   
 28  12  17  1   
 29  12  39  1   
 30  13  18  1   
 31  13  40  1   
 32  14  41  1   
 33  15  19  1   
 34  15  42  1   
 35  15  43  1   
 36  16  19  1   
 37  16  44  1   
 38  16  45  1   
 39  17  18  2   
 40  17  20  1   
 41  19  21  1   
 42  20  46  1   
 43  20  47  1   
 44  20  48  1   
 45  21  22  ar  
 46  21  23  ar  
 47  22  24  ar  
 48  23  25  ar  
 49  24  26  ar  
 50  24  49  1   
 51  25  26  ar  
 52  25  50  1   
 53  26  51  1   
@<TRIPOS>SUBSTRUCTURE
  1 ****   7 GROUP 4 **** **** 0

# MOE 2024.06 (io_trps.svl 2023.06)
