@<TRIPOS>MOLECULE
NONAME
44 47 1 0 0 
SMALL
USER_CHARGES


@<TRIPOS>ATOM
  1 S       -0.1930     0.5170    -2.0170 S.3   1 <1>  -0.0800 
  2 C       -0.1420     1.8330    -0.8640 C.2   1 <1>  -0.1400 
  3 C        1.4780     0.8240    -2.4690 C.2   1 <1>  -0.1100 
  4 C        1.0570     2.4300    -0.8370 C.2   1 <1>  -0.1810 
  5 C       -1.3270     2.2220    -0.0230 C.3   1 <1>   0.0200 
  6 C        1.9880     1.8530    -1.7650 C.2   1 <1>  -0.1500 
  7 C        1.3350     3.5980     0.1120 C.3   1 <1>   0.4610 
  8 C       -1.0630     3.6410     0.5060 C.3   1 <1>   0.1200 
  9 O        0.2480     3.7640     1.0070 O.3   1 <1>  -0.5600 
 10 C        2.5590     3.2980     0.9840 C.3   1 <1>  -0.1600 
 11 C        1.5460     4.9060    -0.6640 C.3   1 <1>  -0.1600 
 12 C        2.8970     4.4710     1.9040 C.3   1 <1>   0.1400 
 13 C        1.8860     6.0700     0.2700 C.3   1 <1>   0.1400 
 14 N        3.0730     5.7070     1.0910 N.am  1 <1>  -0.6600 
 15 C        4.3100     6.3020     0.9410 C.2   1 <1>   0.6160 
 16 O        5.3060     5.6330     1.1500 O.2   1 <1>  -0.5700 
 17 C        4.4580     7.6800     0.5310 C.2   1 <1>   0.0140 
 18 C        5.4490     8.0730    -0.3340 C.2   1 <1>  -0.0410 
 19 C        3.5860     8.6960     1.0290 C.2   1 <1>  -0.1500 
 20 N        5.6040     9.3750    -0.7500 N.am  1 <1>  -0.4690 
 21 C        3.7300     9.9850     0.6260 C.2   1 <1>  -0.1360 
 22 C        4.7470    10.3660    -0.2920 C.2   1 <1>   0.6160 
 23 C        6.7020     9.7420    -1.6810 C.3   1 <1>   0.0600 
 24 O        4.8670    11.5230    -0.6710 O.2   1 <1>  -0.5700 
 25 H        1.9070     0.1910    -3.2250 H     1 <1>   0.1500 
 26 H       -1.4390     1.5330     0.7940 H     1 <1>   0.0800 
 27 H       -2.2260     2.2130    -0.6120 H     1 <1>   0.0800 
 28 H        2.9910     2.2320    -1.8610 H     1 <1>   0.1500 
 29 H       -1.7440     3.8700     1.3060 H     1 <1>   0.0800 
 30 H       -1.1980     4.3630    -0.2790 H     1 <1>   0.0800 
 31 H        3.4130     3.1010     0.3630 H     1 <1>   0.0800 
 32 H        2.3700     2.4160     1.5680 H     1 <1>   0.0800 
 33 H        0.6730     5.1370    -1.2430 H     1 <1>   0.0800 
 34 H        2.3580     4.7750    -1.3550 H     1 <1>   0.0800 
 35 H        3.7930     4.2530     2.4610 H     1 <1>   0.0800 
 36 H        2.0980     4.6260     2.6100 H     1 <1>   0.0800 
 37 H        1.0540     6.2750     0.9230 H     1 <1>   0.0800 
 38 H        2.0810     6.9480    -0.3210 H     1 <1>   0.0800 
 39 H        6.1450     7.3420    -0.7110 H     1 <1>   0.1500 
 40 H        2.8240     8.4100     1.7340 H     1 <1>   0.1500 
 41 H        3.0950    10.7750     0.9780 H     1 <1>   0.1500 
 42 H        7.2770     8.8740    -1.9510 H     1 <1>   0.0800 
 43 H        7.3480    10.4600    -1.2070 H     1 <1>   0.0800 
 44 H        6.2860    10.1820    -2.5710 H     1 <1>   0.0800 
@<TRIPOS>BOND
  1   1   2  1   
  2   1   3  1   
  3   2   4  2   
  4   2   5  1   
  5   3   6  2   
  6   3  25  1   
  7   4   6  1   
  8   4   7  1   
  9   5   8  1   
 10   5  26  1   
 11   5  27  1   
 12   6  28  1   
 13   7   9  1   
 14   7  10  1   
 15   7  11  1   
 16   8   9  1   
 17   8  29  1   
 18   8  30  1   
 19  10  12  1   
 20  10  31  1   
 21  10  32  1   
 22  11  13  1   
 23  11  33  1   
 24  11  34  1   
 25  12  14  1   
 26  12  35  1   
 27  12  36  1   
 28  13  14  1   
 29  13  37  1   
 30  13  38  1   
 31  14  15  am  
 32  15  16  2   
 33  15  17  1   
 34  17  18  2   
 35  17  19  1   
 36  18  20  1   
 37  18  39  1   
 38  19  21  2   
 39  19  40  1   
 40  20  22  am  
 41  20  23  1   
 42  21  22  1   
 43  21  41  1   
 44  22  24  2   
 45  23  42  1   
 46  23  43  1   
 47  23  44  1   
@<TRIPOS>SUBSTRUCTURE
  1 ****  13 GROUP 4 **** **** 0

# MOE 2024.06 (io_trps.svl 2023.06)
