@<TRIPOS>MOLECULE
NONAME
47 48 1 0 0 
SMALL
USER_CHARGES


@<TRIPOS>ATOM
  1 CL       0.7940    -0.4220    -0.4030 Cl    1 <1>  -0.1770 
  2 C        0.3670    -2.1150    -0.4460 C.ar  1 <1>   0.1770 
  3 C        1.1850    -3.0030    -1.1200 C.ar  1 <1>  -0.1500 
  4 C       -0.7820    -2.5400     0.1940 C.ar  1 <1>  -0.1500 
  5 C        0.8420    -4.3440    -1.1510 C.ar  1 <1>  -0.1500 
  6 C       -1.1230    -3.8830     0.1610 C.ar  1 <1>  -0.1500 
  7 C       -0.3080    -4.7910    -0.5140 C.ar  1 <1>   0.0820 
  8 O       -0.5660    -6.1200    -0.5960 O.3   1 <1>  -0.3630 
  9 C       -1.7020    -6.6880     0.0050 C.3   1 <1>   0.1200 
 10 C       -1.6650    -8.1880    -0.2900 C.3   1 <1>  -0.1600 
 11 C       -2.8610    -8.8990     0.3410 C.3   1 <1>   0.3430 
 12 N       -2.9140   -10.3330    -0.0860 N.4   1 <1>  -0.9590 
 13 C       -4.2080   -11.0600     0.2390 C.3   1 <1>   0.4840 
 14 C       -1.7330   -11.1150     0.4160 C.3   1 <1>   0.2630 
 15 C       -4.2700   -12.4720    -0.4030 C.2   1 <1>   0.5690 
 16 C       -5.4120   -10.2350    -0.2340 C.3   1 <1>  -0.2400 
 17 O       -3.6660   -12.6350    -1.4370 O.2   1 <1>  -0.5700 
 18 N       -4.9650   -13.4650     0.2280 N.am  1 <1>  -0.5470 
 19 C       -5.1560   -14.7980    -0.0630 C.ar  1 <1>   0.4270 
 20 N       -5.7610   -15.4240     0.9310 N.ar  1 <1>  -0.6200 
 21 C       -4.7730   -15.4220    -1.2490 C.ar  1 <1>  -0.1500 
 22 C       -5.9910   -16.7150     0.7480 C.ar  1 <1>   0.1600 
 23 C       -5.0180   -16.7650    -1.4250 C.ar  1 <1>  -0.1500 
 24 C       -5.6460   -17.4230    -0.3890 C.ar  1 <1>  -0.1500 
 25 H        2.0740    -2.6470    -1.6090 H     1 <1>   0.1500 
 26 H       -1.3980    -1.8260     0.7090 H     1 <1>   0.1500 
 27 H        1.4650    -5.0500    -1.6690 H     1 <1>   0.1500 
 28 H       -2.0190    -4.1930     0.6630 H     1 <1>   0.1500 
 29 H       -2.5760    -6.2250    -0.4230 H     1 <1>   0.0800 
 30 H       -1.6540    -6.4950     1.0630 H     1 <1>   0.0800 
 31 H       -0.7450    -8.5780     0.1060 H     1 <1>   0.0800 
 32 H       -1.6850    -8.3220    -1.3580 H     1 <1>   0.0800 
 33 H       -3.7550    -8.3910     0.0210 H     1 <1>   0.0800 
 34 H       -2.8020    -8.8340     1.4160 H     1 <1>   0.0800 
 35 H       -2.8610   -10.3710    -1.1190 H     1 <1>   0.4500 
 36 H       -4.2790   -11.1850     1.3060 H     1 <1>   0.0800 
 37 H       -1.7240   -11.1390     1.4930 H     1 <1>   0.0800 
 38 H       -0.8120   -10.6720     0.0730 H     1 <1>   0.0800 
 39 H       -1.7660   -12.1290     0.0470 H     1 <1>   0.0800 
 40 H       -5.3190    -9.9870    -1.2770 H     1 <1>   0.0800 
 41 H       -5.5350    -9.3410     0.3490 H     1 <1>   0.0800 
 42 H       -6.3130   -10.8120    -0.1150 H     1 <1>   0.0800 
 43 H       -5.4360   -13.2620     1.1080 H     1 <1>   0.3700 
 44 H       -4.2920   -14.8710    -2.0330 H     1 <1>   0.1500 
 45 H       -6.4830   -17.2410     1.5500 H     1 <1>   0.1500 
 46 H       -4.7340   -17.2780    -2.3290 H     1 <1>   0.1500 
 47 H       -5.8660   -18.4730    -0.4630 H     1 <1>   0.1500 
@<TRIPOS>BOND
  1   1   2  1   
  2   2   3  ar  
  3   2   4  ar  
  4   3   5  ar  
  5   3  25  1   
  6   4   6  ar  
  7   4  26  1   
  8   5   7  ar  
  9   5  27  1   
 10   6   7  ar  
 11   6  28  1   
 12   7   8  1   
 13   8   9  1   
 14   9  10  1   
 15   9  29  1   
 16   9  30  1   
 17  10  11  1   
 18  10  31  1   
 19  10  32  1   
 20  11  12  1   
 21  11  33  1   
 22  11  34  1   
 23  12  13  1   
 24  12  14  1   
 25  12  35  1   
 26  13  15  1   
 27  13  16  1   
 28  13  36  1   
 29  14  37  1   
 30  14  38  1   
 31  14  39  1   
 32  15  17  2   
 33  15  18  am  
 34  16  40  1   
 35  16  41  1   
 36  16  42  1   
 37  18  19  1   
 38  18  43  1   
 39  19  20  ar  
 40  19  21  ar  
 41  20  22  ar  
 42  21  23  ar  
 43  21  44  1   
 44  22  24  ar  
 45  22  45  1   
 46  23  24  ar  
 47  23  46  1   
 48  24  47  1   
@<TRIPOS>SUBSTRUCTURE
  1 ****  12 GROUP 4 **** **** 0

# MOE 2024.06 (io_trps.svl 2023.06)
