@<TRIPOS>MOLECULE
NONAME
56 60 1 0 0 
SMALL
USER_CHARGES


@<TRIPOS>ATOM
  1 O        0.3390     0.3890     0.0800 O.2   1 <1>  -0.5700 
  2 C       -0.2250     1.4460     0.2910 C.2   1 <1>   0.5440 
  3 N       -1.6030     1.4700     0.3560 N.am  1 <1>  -0.6600 
  4 C        0.5640     2.6510     0.4420 C.ar  1 <1>   0.0860 
  5 C       -2.4110     2.7270     0.4380 C.3   1 <1>   0.1400 
  6 C       -2.4010     0.2160     0.1780 C.3   1 <1>   0.1400 
  7 C        0.5910     3.3640     1.6400 C.ar  1 <1>  -0.1500 
  8 C        1.3140     3.1510    -0.6200 C.ar  1 <1>  -0.1500 
  9 C       -3.2430     2.9360    -0.8460 C.3   1 <1>   0.1440 
 10 C       -3.8390     0.5040    -0.2910 C.3   1 <1>  -0.1600 
 11 C        1.3080     4.5390     1.7630 C.ar  1 <1>  -0.1500 
 12 C        2.0330     4.3260    -0.5020 C.ar  1 <1>  -0.1500 
 13 C       -4.2840     3.9950    -0.5260 C.ar  1 <1>   0.1670 
 14 C       -3.8630     1.6080    -1.3610 C.3   1 <1>  -0.1600 
 15 C       -2.4070     3.6330    -1.9510 C.3   1 <1>  -0.1600 
 16 C        2.0400     5.0440     0.6900 C.ar  1 <1>  -0.0230 
 17 N       -5.3690     3.8030     0.1810 N.ar  1 <1>  -0.6200 
 18 C       -3.9410     5.2060    -1.0460 C.ar  1 <1>  -0.1440 
 19 C       -2.6340     5.1470    -1.7960 C.3   1 <1>  -0.0160 
 20 N        2.7750     6.2580     0.8010 N.pl3 1 <1>   0.5930 
 21 C       -6.1380     4.8820     0.3500 C.ar  1 <1>   0.7200 
 22 C       -4.7890     6.2600    -0.8180 C.ar  1 <1>   0.1600 
 23 N        2.9270     7.1350    -0.2270 N.2   1 <1>  -0.7070 
 24 C        3.4170     6.7320     1.8990 C.2   1 <1>  -0.3020 
 25 N       -5.8900     6.1090    -0.1210 N.ar  1 <1>  -0.6200 
 26 N       -7.2960     4.7140     1.0860 N.pl3 1 <1>  -0.8380 
 27 C        3.6390     8.1090     0.2440 C.2   1 <1>   0.1390 
 28 C        3.9790     7.9140     1.5770 C.2   1 <1>  -0.1500 
 29 C       -8.0910     5.8700     1.5840 C.3   1 <1>   0.1290 
 30 C       -7.8540     3.3670     1.3860 C.3   1 <1>   0.1290 
 31 H       -1.7940     3.5900     0.6060 H     1 <1>   0.0800 
 32 H       -3.0750     2.6440     1.2810 H     1 <1>   0.0800 
 33 H       -2.4180    -0.3280     1.1060 H     1 <1>   0.0800 
 34 H       -1.9140    -0.4020    -0.5580 H     1 <1>   0.0800 
 35 H        0.0320     2.9850     2.4790 H     1 <1>   0.1500 
 36 H        1.3260     2.6040    -1.5470 H     1 <1>   0.1500 
 37 H       -4.4400     0.8020     0.5510 H     1 <1>   0.0800 
 38 H       -4.2670    -0.4000    -0.6860 H     1 <1>   0.0800 
 39 H        1.2930     5.0680     2.7010 H     1 <1>   0.1500 
 40 H        2.5970     4.6940    -1.3440 H     1 <1>   0.1500 
 41 H       -3.3000     1.2480    -2.2040 H     1 <1>   0.0800 
 42 H       -4.8730     1.7760    -1.6930 H     1 <1>   0.0800 
 43 H       -2.7830     3.3470    -2.9180 H     1 <1>   0.0800 
 44 H       -1.3650     3.3730    -1.9030 H     1 <1>   0.0800 
 45 H       -2.6960     5.6390    -2.7510 H     1 <1>   0.0800 
 46 H       -1.8530     5.5920    -1.2030 H     1 <1>   0.0800 
 47 H       -4.5610     7.2360    -1.2090 H     1 <1>   0.1500 
 48 H        3.4380     6.1980     2.8290 H     1 <1>   0.1500 
 49 H        3.9310     8.9690    -0.3380 H     1 <1>   0.1500 
 50 H        4.5650     8.5810     2.1850 H     1 <1>   0.1500 
 51 H       -7.4520     6.7170     1.7680 H     1 <1>   0.0800 
 52 H       -8.5830     5.6120     2.5050 H     1 <1>   0.0800 
 53 H       -8.8280     6.1430     0.8490 H     1 <1>   0.0800 
 54 H       -7.5710     2.6620     0.6230 H     1 <1>   0.0800 
 55 H       -8.9280     3.4100     1.4220 H     1 <1>   0.0800 
 56 H       -7.4780     3.0260     2.3340 H     1 <1>   0.0800 
@<TRIPOS>BOND
  1   1   2  2   
  2   2   3  am  
  3   2   4  1   
  4   3   5  1   
  5   3   6  1   
  6   4   7  ar  
  7   4   8  ar  
  8   5   9  1   
  9   5  31  1   
 10   5  32  1   
 11   6  10  1   
 12   6  33  1   
 13   6  34  1   
 14   7  11  ar  
 15   7  35  1   
 16   8  12  ar  
 17   8  36  1   
 18   9  13  1   
 19   9  14  1   
 20   9  15  1   
 21  10  14  1   
 22  10  37  1   
 23  10  38  1   
 24  11  16  ar  
 25  11  39  1   
 26  12  16  ar  
 27  12  40  1   
 28  13  17  ar  
 29  13  18  ar  
 30  14  41  1   
 31  14  42  1   
 32  15  19  1   
 33  15  43  1   
 34  15  44  1   
 35  16  20  1   
 36  17  21  ar  
 37  18  19  1   
 38  18  22  ar  
 39  19  45  1   
 40  19  46  1   
 41  20  23  1   
 42  20  24  1   
 43  21  25  ar  
 44  21  26  1   
 45  22  25  ar  
 46  22  47  1   
 47  23  27  2   
 48  24  28  2   
 49  24  48  1   
 50  26  29  1   
 51  26  30  1   
 52  27  28  1   
 53  27  49  1   
 54  28  50  1   
 55  29  51  1   
 56  29  52  1   
 57  29  53  1   
 58  30  54  1   
 59  30  55  1   
 60  30  56  1   
@<TRIPOS>SUBSTRUCTURE
  1 ****   5 GROUP 4 **** **** 0

# MOE 2024.06 (io_trps.svl 2023.06)
