@<TRIPOS>MOLECULE
NONAME
52 54 1 0 0 
SMALL
USER_CHARGES


@<TRIPOS>ATOM
  1 S       -0.7610     0.6230    -0.3300 S.3   1 <1>  -0.4600 
  2 C       -1.8560     1.6800     0.6380 C.3   1 <1>   0.0700 
  3 C       -1.3420    -1.0380     0.0680 C.3   1 <1>   0.0700 
  4 C       -3.2920     1.3650     0.2130 C.3   1 <1>  -0.1600 
  5 C       -2.8230    -1.1090    -0.3090 C.3   1 <1>  -0.1600 
  6 C       -3.6670    -0.0980     0.4920 C.3   1 <1>   0.4230 
  7 N       -5.1320    -0.2770     0.2470 N.4   1 <1>  -0.9590 
  8 C       -5.6490    -1.5430     0.8860 C.3   1 <1>   0.3430 
  9 C       -5.5050    -0.2130    -1.2050 C.3   1 <1>   0.3430 
 10 C       -7.1850    -1.6040     1.0390 C.3   1 <1>   0.1400 
 11 C       -6.7830     0.6020    -1.4100 C.3   1 <1>  -0.1600 
 12 N       -7.8930    -1.2810    -0.2380 N.am  1 <1>  -0.6600 
 13 C       -7.9750     0.1720    -0.5480 C.3   1 <1>   0.1400 
 14 C       -8.4270    -2.1950    -1.1160 C.2   1 <1>   0.5690 
 15 O       -8.8160    -1.8540    -2.2050 O.2   1 <1>  -0.5700 
 16 C       -8.5330    -3.6690    -0.7790 C.3   1 <1>  -0.0990 
 17 C       -9.7900    -3.9540     0.0500 C.3   1 <1>   0.0200 
 18 C       -9.8370    -5.4180     0.4560 C.2   1 <1>  -0.3320 
 19 N      -10.1570    -6.4510    -0.3600 N.pl3 1 <1>   0.3140 
 20 C       -9.5840    -5.9500     1.6720 C.2   1 <1>  -0.1500 
 21 N      -10.1020    -7.6230     0.2930 N.2   1 <1>  -0.7070 
 22 C      -10.5400    -6.4050    -1.7790 C.3   1 <1>   0.0160 
 23 C       -9.7630    -7.3170     1.5060 C.2   1 <1>   0.1390 
 24 H       -1.5880     2.6990     0.4150 H     1 <1>   0.0800 
 25 H       -1.6750     1.4730     1.6790 H     1 <1>   0.0800 
 26 H       -1.1700    -1.2020     1.1180 H     1 <1>   0.0800 
 27 H       -0.7490    -1.7260    -0.5120 H     1 <1>   0.0800 
 28 H       -3.3860     1.5920    -0.8340 H     1 <1>   0.0800 
 29 H       -3.9450     2.0180     0.7630 H     1 <1>   0.0800 
 30 H       -3.1560    -2.1110    -0.1140 H     1 <1>   0.0800 
 31 H       -2.9020    -0.9240    -1.3650 H     1 <1>   0.0800 
 32 H       -3.4800    -0.2780     1.5390 H     1 <1>   0.0800 
 33 H       -5.6040     0.5140     0.6990 H     1 <1>   0.4500 
 34 H       -5.2140    -1.6510     1.8660 H     1 <1>   0.0800 
 35 H       -5.3320    -2.3910     0.3010 H     1 <1>   0.0800 
 36 H       -5.6550    -1.2100    -1.5870 H     1 <1>   0.0800 
 37 H       -4.7140     0.2430    -1.7780 H     1 <1>   0.0800 
 38 H       -7.4960    -0.9120     1.8020 H     1 <1>   0.0800 
 39 H       -7.4630    -2.5830     1.3860 H     1 <1>   0.0800 
 40 H       -7.0720     0.4920    -2.4410 H     1 <1>   0.0800 
 41 H       -6.5870     1.6480    -1.2600 H     1 <1>   0.0800 
 42 H       -8.8940     0.3830    -1.0730 H     1 <1>   0.0800 
 43 H       -7.9960     0.7370     0.3680 H     1 <1>   0.0800 
 44 H       -7.6570    -4.0070    -0.2610 H     1 <1>   0.0800 
 45 H       -8.5860    -4.2220    -1.6990 H     1 <1>   0.0800 
 46 H      -10.6710    -3.6960    -0.5120 H     1 <1>   0.0800 
 47 H       -9.7840    -3.3460     0.9370 H     1 <1>   0.0800 
 48 H       -9.3060    -5.4630     2.5890 H     1 <1>   0.1500 
 49 H      -11.1550    -5.5450    -1.9600 H     1 <1>   0.0800 
 50 H      -11.0920    -7.2950    -2.0190 H     1 <1>   0.0800 
 51 H       -9.6540    -6.3610    -2.3810 H     1 <1>   0.0800 
 52 H       -9.6390    -8.0480     2.2870 H     1 <1>   0.1500 
@<TRIPOS>BOND
  1   1   2  1   
  2   1   3  1   
  3   2   4  1   
  4   2  24  1   
  5   2  25  1   
  6   3   5  1   
  7   3  26  1   
  8   3  27  1   
  9   4   6  1   
 10   4  28  1   
 11   4  29  1   
 12   5   6  1   
 13   5  30  1   
 14   5  31  1   
 15   6   7  1   
 16   6  32  1   
 17   7   8  1   
 18   7   9  1   
 19   7  33  1   
 20   8  10  1   
 21   8  34  1   
 22   8  35  1   
 23   9  11  1   
 24   9  36  1   
 25   9  37  1   
 26  10  12  1   
 27  10  38  1   
 28  10  39  1   
 29  11  13  1   
 30  11  40  1   
 31  11  41  1   
 32  12  13  1   
 33  12  14  am  
 34  13  42  1   
 35  13  43  1   
 36  14  15  2   
 37  14  16  1   
 38  16  17  1   
 39  16  44  1   
 40  16  45  1   
 41  17  18  1   
 42  17  46  1   
 43  17  47  1   
 44  18  19  1   
 45  18  20  2   
 46  19  21  1   
 47  19  22  1   
 48  20  23  1   
 49  20  48  1   
 50  21  23  2   
 51  22  49  1   
 52  22  50  1   
 53  22  51  1   
 54  23  52  1   
@<TRIPOS>SUBSTRUCTURE
  1 ****  10 GROUP 4 **** **** 0

# MOE 2024.06 (io_trps.svl 2023.06)
