@<TRIPOS>MOLECULE
NONAME
43 45 1 0 0 
SMALL
USER_CHARGES


@<TRIPOS>ATOM
  1 O        0.6220     1.3520     0.8250 O.2   1 <1>  -0.5700 
  2 C        0.4370     2.4920     0.4850 C.2   1 <1>   0.5690 
  3 N       -0.3520     3.3130     1.2090 N.am  1 <1>  -0.7300 
  4 C        1.0660     3.0260    -0.8000 C.3   1 <1>   0.1810 
  5 C       -0.7090     4.6940     0.7990 C.3   1 <1>   0.3640 
  6 O        1.1830     4.4310    -0.7880 O.3   1 <1>  -0.5600 
  7 C       -2.2320     4.7730     0.7010 C.ar  1 <1>  -0.1440 
  8 C       -0.0320     5.1340    -0.5320 C.3   1 <1>   0.2610 
  9 C       -2.9670     3.7880     0.0510 C.ar  1 <1>  -0.1500 
 10 C       -2.9060     5.8480     1.2630 C.ar  1 <1>  -0.1500 
 11 C        0.2410     6.6430    -0.5000 C.2   1 <1>   0.5690 
 12 C       -4.3460     3.8750    -0.0300 C.ar  1 <1>  -0.1500 
 13 C       -4.2850     5.9370     1.1820 C.ar  1 <1>  -0.1500 
 14 O       -0.6380     7.4140    -0.1980 O.2   1 <1>  -0.5700 
 15 N        1.4920     7.0930    -0.7880 N.am  1 <1>  -0.7300 
 16 C       -5.0060     4.9500     0.5360 C.ar  1 <1>  -0.1500 
 17 C        1.9320     8.5070    -0.7310 C.3   1 <1>   0.1400 
 18 C        2.2840     8.8780     0.7080 C.3   1 <1>   0.1200 
 19 O        2.7710    10.2050     0.7350 O.3   1 <1>  -0.3420 
 20 C        3.1370    10.7040     1.9500 C.2   1 <1>   0.3510 
 21 N        3.1200    10.0790     3.0590 N.2   1 <1>  -0.4100 
 22 C        3.5850    11.9760     2.1720 C.2   1 <1>   0.1080 
 23 O        3.5450    10.9200     3.9770 O.3   1 <1>   0.2420 
 24 N        3.8250    12.0760     3.4170 N.2   1 <1>  -0.4100 
 25 C        3.7670    13.0790     1.1510 C.3   1 <1>  -0.0590 
 26 H       -0.8260     2.9360     2.0310 H     1 <1>   0.3700 
 27 H        0.4680     2.7380    -1.6450 H     1 <1>   0.0800 
 28 H        2.0530     2.6140    -0.9120 H     1 <1>   0.0800 
 29 H       -0.3790     5.3580     1.5810 H     1 <1>   0.0800 
 30 H       -0.6980     4.9360    -1.3530 H     1 <1>   0.0800 
 31 H       -2.4740     2.9410    -0.3940 H     1 <1>   0.1500 
 32 H       -2.3620     6.6330     1.7630 H     1 <1>   0.1500 
 33 H       -4.9050     3.1060    -0.5330 H     1 <1>   0.1500 
 34 H       -4.7940     6.7780     1.6200 H     1 <1>   0.1500 
 35 H        2.2020     6.3820    -1.0010 H     1 <1>   0.3700 
 36 H       -6.0780     5.0200     0.4730 H     1 <1>   0.1500 
 37 H        2.7890     8.6390    -1.3680 H     1 <1>   0.0800 
 38 H        1.1330     9.1410    -1.0780 H     1 <1>   0.0800 
 39 H        3.0530     8.2280     1.0880 H     1 <1>   0.0800 
 40 H        1.4080     8.8260     1.3320 H     1 <1>   0.0800 
 41 H        4.1280    12.6700     0.2260 H     1 <1>   0.0800 
 42 H        4.4770    13.8010     1.5140 H     1 <1>   0.0800 
 43 H        2.8270    13.5700     0.9770 H     1 <1>   0.0800 
@<TRIPOS>BOND
  1   1   2  2   
  2   2   3  am  
  3   2   4  1   
  4   3   5  1   
  5   3  26  1   
  6   4   6  1   
  7   4  27  1   
  8   4  28  1   
  9   5   7  1   
 10   5   8  1   
 11   5  29  1   
 12   6   8  1   
 13   7   9  ar  
 14   7  10  ar  
 15   8  11  1   
 16   8  30  1   
 17   9  12  ar  
 18   9  31  1   
 19  10  13  ar  
 20  10  32  1   
 21  11  14  2   
 22  11  15  am  
 23  12  16  ar  
 24  12  33  1   
 25  13  16  ar  
 26  13  34  1   
 27  15  17  1   
 28  15  35  1   
 29  16  36  1   
 30  17  18  1   
 31  17  37  1   
 32  17  38  1   
 33  18  19  1   
 34  18  39  1   
 35  18  40  1   
 36  19  20  1   
 37  20  21  2   
 38  20  22  1   
 39  21  23  1   
 40  22  24  2   
 41  22  25  1   
 42  23  24  1   
 43  25  41  1   
 44  25  42  1   
 45  25  43  1   
@<TRIPOS>SUBSTRUCTURE
  1 ****  11 GROUP 4 **** **** 0

# MOE 2024.06 (io_trps.svl 2023.06)
