@<TRIPOS>MOLECULE
NONAME
50 52 1 0 0 
SMALL
USER_CHARGES


@<TRIPOS>ATOM
  1 O       -1.9990     2.1630     3.3180 O.2   1 <1>  -0.5700 
  2 C       -2.4190     2.1480     2.1870 C.2   1 <1>   0.5690 
  3 N       -2.7140     0.9530     1.5720 N.am  1 <1>  -0.6600 
  4 C       -2.6850     3.5070     1.5670 C.3   1 <1>   0.1570 
  5 C       -2.9230    -0.2340     2.4700 C.3   1 <1>   0.3210 
  6 C       -2.3580     0.6060     0.1510 C.3   1 <1>   0.1400 
  7 N       -1.9270     3.7250     0.3340 N.pl3 1 <1>   0.3140 
  8 C       -3.7900    -1.3270     1.8410 C.2   1 <1>   0.0460 
  9 C       -3.5530     0.4380    -0.8180 C.3   1 <1>   0.3430 
 10 N       -2.5370     3.7810    -0.8790 N.2   1 <1>  -0.7070 
 11 C       -0.5790     3.9070     0.2340 C.ar  1 <1>  -0.1520 
 12 N       -5.0880    -1.1040     1.5340 N.2   1 <1>  -0.5650 
 13 C       -3.4410    -2.6000     1.5360 C.2   1 <1>  -0.3320 
 14 N       -4.4640     1.6260    -0.9060 N.4   1 <1>  -0.9590 
 15 C       -1.5820     4.0360    -1.7160 C.2   1 <1>   0.1390 
 16 C       -0.3220     4.1230    -1.1030 C.ar  1 <1>   0.0000 
 17 C        0.4550     3.9030     1.1780 C.ar  1 <1>  -0.1500 
 18 C       -5.5030    -2.2430     1.0830 C.2   1 <1>   0.0360 
 19 N       -4.5490    -3.1940     1.0540 N.pl3 1 <1>   0.0330 
 20 C       -2.1250    -3.3480     1.6840 C.3   1 <1>  -0.0600 
 21 C       -5.4700     1.6130     0.2000 C.3   1 <1>   0.2630 
 22 C       -5.1510     1.6810    -2.2250 C.3   1 <1>   0.2630 
 23 C        0.9920     4.3530    -1.5320 C.ar  1 <1>  -0.1500 
 24 C        1.7410     4.1260     0.7480 C.ar  1 <1>  -0.1500 
 25 C        2.0100     4.3530    -0.6090 C.ar  1 <1>  -0.1500 
 26 H       -2.4100     4.2740     2.2670 H     1 <1>   0.0800 
 27 H       -3.7310     3.6060     1.3580 H     1 <1>   0.0800 
 28 H       -3.4020     0.0840     3.3800 H     1 <1>   0.0800 
 29 H       -1.9630    -0.6380     2.7380 H     1 <1>   0.0800 
 30 H       -1.8180    -0.3250     0.1600 H     1 <1>   0.0800 
 31 H       -1.6720     1.3250    -0.2530 H     1 <1>   0.0800 
 32 H       -4.1190    -0.4330    -0.5370 H     1 <1>   0.0800 
 33 H       -3.1420     0.2440    -1.7950 H     1 <1>   0.0800 
 34 H       -3.8660     2.4800    -0.8350 H     1 <1>   0.4500 
 35 H       -1.7220     4.1710    -2.7760 H     1 <1>   0.1500 
 36 H        0.2450     3.7270     2.2200 H     1 <1>   0.1500 
 37 H       -6.5120    -2.4410     0.7610 H     1 <1>   0.1500 
 38 H       -4.6570    -4.1690     0.7550 H     1 <1>   0.2700 
 39 H       -1.3540    -2.7070     2.0710 H     1 <1>   0.0800 
 40 H       -1.8010    -3.7290     0.7310 H     1 <1>   0.0800 
 41 H       -2.2450    -4.1750     2.3620 H     1 <1>   0.0800 
 42 H       -6.1080     0.7490     0.1130 H     1 <1>   0.0800 
 43 H       -6.0800     2.5010     0.1650 H     1 <1>   0.0800 
 44 H       -4.9820     1.5650     1.1590 H     1 <1>   0.0800 
 45 H       -5.7700     0.8100    -2.3620 H     1 <1>   0.0800 
 46 H       -4.4250     1.7220    -3.0210 H     1 <1>   0.0800 
 47 H       -5.7710     2.5610    -2.2840 H     1 <1>   0.0800 
 48 H        1.1860     4.5280    -2.5760 H     1 <1>   0.1500 
 49 H        2.5580     4.1300     1.4500 H     1 <1>   0.1500 
 50 H        3.0270     4.5280    -0.9170 H     1 <1>   0.1500 
@<TRIPOS>BOND
  1   1   2  2   
  2   2   3  am  
  3   2   4  1   
  4   3   5  1   
  5   3   6  1   
  6   4   7  1   
  7   4  26  1   
  8   4  27  1   
  9   5   8  1   
 10   5  28  1   
 11   5  29  1   
 12   6   9  1   
 13   6  30  1   
 14   6  31  1   
 15   7  10  1   
 16   7  11  1   
 17   8  12  1   
 18   8  13  2   
 19   9  14  1   
 20   9  32  1   
 21   9  33  1   
 22  10  15  2   
 23  11  16  ar  
 24  11  17  ar  
 25  12  18  2   
 26  13  19  1   
 27  13  20  1   
 28  14  21  1   
 29  14  22  1   
 30  14  34  1   
 31  15  16  1   
 32  15  35  1   
 33  16  23  ar  
 34  17  24  ar  
 35  17  36  1   
 36  18  19  1   
 37  18  37  1   
 38  19  38  1   
 39  20  39  1   
 40  20  40  1   
 41  20  41  1   
 42  21  42  1   
 43  21  43  1   
 44  21  44  1   
 45  22  45  1   
 46  22  46  1   
 47  22  47  1   
 48  23  25  ar  
 49  23  48  1   
 50  24  25  ar  
 51  24  49  1   
 52  25  50  1   
@<TRIPOS>SUBSTRUCTURE
  1 ****   6 GROUP 4 **** **** 0

# MOE 2024.06 (io_trps.svl 2023.06)
