@<TRIPOS>MOLECULE
NONAME
42 43 1 0 0 
SMALL
USER_CHARGES


@<TRIPOS>ATOM
  1 S        1.1820    -1.0500     1.5880 S.o2  1 <1>   1.5000 
  2 O        1.0860    -0.5430     2.9360 O.2   1 <1>  -0.6500 
  3 O        2.3190    -1.8600     1.2120 O.2   1 <1>  -0.6500 
  4 N       -0.1880    -2.0030     1.4170 N.am  1 <1>  -0.9140 
  5 C        0.9110     0.2900     0.4050 C.2   1 <1>  -0.0220 
  6 C       -0.0200    -3.1790     0.5710 C.3   1 <1>   0.2760 
  7 S        0.6960    -0.1310    -1.2940 S.3   1 <1>  -0.0800 
  8 C        0.8270     1.6300     0.5440 C.2   1 <1>  -0.1500 
  9 C       -1.3870    -3.7260     0.1870 C.3   1 <1>  -0.0800 
 10 C        0.5110    -4.3440     1.4020 C.3   1 <1>   0.1200 
 11 C        0.5000     1.5500    -1.7510 C.2   1 <1>  -0.1100 
 12 C        0.5950     2.3480    -0.6730 C.2   1 <1>  -0.1810 
 13 C       -1.7610    -4.6050     1.3890 C.3   1 <1>   0.1200 
 14 C       -2.4400    -2.6580    -0.1740 C.3   1 <1>  -0.0550 
 15 O       -0.5910    -4.7790     2.1350 O.3   1 <1>  -0.5600 
 16 C        0.4820     3.8600    -0.6730 C.3   1 <1>  -0.0590 
 17 S       -3.9680    -3.3630    -0.7840 S.o2  1 <1>   1.3330 
 18 O       -3.6560    -4.0940    -1.9910 O.2   1 <1>  -0.6500 
 19 O       -4.6480    -4.0350     0.3010 O.2   1 <1>  -0.6500 
 20 N       -4.8830    -1.9980    -1.2080 N.am  1 <1>  -0.8490 
 21 C       -5.8680    -2.2960    -2.2520 C.3   1 <1>   0.1160 
 22 C       -5.5460    -1.3630    -0.0640 C.3   1 <1>   0.1160 
 23 H       -0.3540    -2.3650     2.3590 H     1 <1>   0.4200 
 24 H        0.5870    -2.9660    -0.2940 H     1 <1>   0.0800 
 25 H        0.9210     2.1500     1.4820 H     1 <1>   0.1500 
 26 H       -1.2570    -4.3750    -0.6630 H     1 <1>   0.0800 
 27 H        1.3090    -4.0700     2.0710 H     1 <1>   0.0800 
 28 H        0.8300    -5.1530     0.7680 H     1 <1>   0.0800 
 29 H        0.3330     1.7640    -2.7920 H     1 <1>   0.1500 
 30 H       -2.1260    -5.5710     1.0810 H     1 <1>   0.0800 
 31 H       -2.4880    -4.1310     2.0270 H     1 <1>   0.0800 
 32 H       -2.0330    -2.0170    -0.9310 H     1 <1>   0.0800 
 33 H       -2.6500    -2.0530     0.6860 H     1 <1>   0.0800 
 34 H        1.3910     4.2960    -0.2980 H     1 <1>   0.0800 
 35 H       -0.3370     4.1690    -0.0480 H     1 <1>   0.0800 
 36 H        0.3110     4.2240    -1.6700 H     1 <1>   0.0800 
 37 H       -6.4190    -1.4080    -2.5120 H     1 <1>   0.0800 
 38 H       -6.5560    -3.0540    -1.9130 H     1 <1>   0.0800 
 39 H       -5.3700    -2.6530    -3.1380 H     1 <1>   0.0800 
 40 H       -6.0410    -0.4600    -0.3790 H     1 <1>   0.0800 
 41 H       -4.8230    -1.1070     0.6910 H     1 <1>   0.0800 
 42 H       -6.2750    -2.0300     0.3680 H     1 <1>   0.0800 
@<TRIPOS>BOND
  1   1   2  2   
  2   1   3  2   
  3   1   4  am  
  4   1   5  1   
  5   4   6  1   
  6   4  23  1   
  7   5   7  1   
  8   5   8  2   
  9   6   9  1   
 10   6  10  1   
 11   6  24  1   
 12   7  11  1   
 13   8  12  1   
 14   8  25  1   
 15   9  13  1   
 16   9  14  1   
 17   9  26  1   
 18  10  15  1   
 19  10  27  1   
 20  10  28  1   
 21  11  12  2   
 22  11  29  1   
 23  12  16  1   
 24  13  15  1   
 25  13  30  1   
 26  13  31  1   
 27  14  17  1   
 28  14  32  1   
 29  14  33  1   
 30  16  34  1   
 31  16  35  1   
 32  16  36  1   
 33  17  18  2   
 34  17  19  2   
 35  17  20  am  
 36  20  21  1   
 37  20  22  1   
 38  21  37  1   
 39  21  38  1   
 40  21  39  1   
 41  22  40  1   
 42  22  41  1   
 43  22  42  1   
@<TRIPOS>SUBSTRUCTURE
  1 ****   4 GROUP 4 **** **** 0

# MOE 2024.06 (io_trps.svl 2023.06)
