@<TRIPOS>MOLECULE
NONAME
52 55 1 0 0 
SMALL
USER_CHARGES


@<TRIPOS>ATOM
  1 O       -1.5030    -0.9310    -1.3530 O.2   1 <1>  -0.5700 
  2 C       -1.9900    -0.2640    -0.4720 C.2   1 <1>   0.6300 
  3 N       -2.8070    -0.8240     0.4830 N.am  1 <1>  -0.6600 
  4 C       -1.6840     1.2310    -0.4530 C.3   1 <1>  -0.1000 
  5 C       -3.5040    -0.0670     1.5530 C.3   1 <1>   0.1400 
  6 C       -3.0920    -2.2810     0.4820 C.3   1 <1>   0.1400 
  7 C       -2.7220     2.2460    -0.8480 C.3   1 <1>  -0.2000 
  8 C       -1.5380     2.0090    -1.7300 C.3   1 <1>  -0.2000 
  9 C       -5.0120    -0.2210     1.3430 C.3   1 <1>  -0.1600 
 10 C       -4.5870    -2.4760     0.2400 C.3   1 <1>  -0.1600 
 11 C       -5.4050    -1.7030     1.2870 C.3   1 <1>   0.4230 
 12 N       -6.8730    -1.8270     1.0500 N.4   1 <1>  -0.9590 
 13 C       -7.4130    -1.2720    -0.2320 C.3   1 <1>   0.3430 
 14 C       -7.4120    -3.2190     1.1760 C.3   1 <1>   0.3430 
 15 C       -8.7280    -2.0230    -0.4500 C.3   1 <1>   0.2000 
 16 C       -8.3830    -3.4380     0.0040 C.3   1 <1>  -0.0800 
 17 O       -9.6690    -1.5040     0.4320 O.3   1 <1>  -0.6800 
 18 C       -7.7570    -4.2620    -1.1440 C.3   1 <1>   0.0200 
 19 C       -7.0050    -5.4730    -0.6280 C.2   1 <1>  -0.0400 
 20 O       -7.5130    -6.1980     0.3310 O.3   1 <1>  -0.0190 
 21 C       -5.8140    -5.9970    -0.9560 C.2   1 <1>  -0.1500 
 22 N       -6.7170    -7.1630     0.6800 N.2   1 <1>  -0.4100 
 23 C       -5.6890    -7.0770    -0.0870 C.2   1 <1>   0.1080 
 24 C       -4.5120    -8.0270    -0.0410 C.3   1 <1>  -0.0590 
 25 H       -0.9970     1.4800     0.3340 H     1 <1>   0.1000 
 26 H       -3.2140    -0.4640     2.5120 H     1 <1>   0.0800 
 27 H       -3.2360     0.9750     1.5370 H     1 <1>   0.0800 
 28 H       -2.5280    -2.7840    -0.2860 H     1 <1>   0.0800 
 29 H       -2.8010    -2.7000     1.4300 H     1 <1>   0.0800 
 30 H       -3.6820     1.9130    -1.2010 H     1 <1>   0.1000 
 31 H       -2.7780     3.1740    -0.3060 H     1 <1>   0.1000 
 32 H       -0.7670     2.7580    -1.7870 H     1 <1>   0.1000 
 33 H       -1.6710     1.4870    -2.6630 H     1 <1>   0.1000 
 34 H       -5.2680     0.2800     0.4280 H     1 <1>   0.0800 
 35 H       -5.5230     0.2630     2.1550 H     1 <1>   0.0800 
 36 H       -4.7940    -3.5280     0.2970 H     1 <1>   0.0800 
 37 H       -4.8030    -2.1330    -0.7560 H     1 <1>   0.0800 
 38 H       -5.1810    -2.1320     2.2510 H     1 <1>   0.0800 
 39 H       -7.3610    -1.2890     1.7810 H     1 <1>   0.4500 
 40 H       -7.5780    -0.2090    -0.1750 H     1 <1>   0.0800 
 41 H       -6.7410    -1.4870    -1.0440 H     1 <1>   0.0800 
 42 H       -6.6240    -3.9530     1.1740 H     1 <1>   0.0800 
 43 H       -7.9510    -3.3100     2.1060 H     1 <1>   0.0800 
 44 H       -9.1030    -1.9470    -1.4570 H     1 <1>   0.0800 
 45 H       -9.2560    -3.9650     0.3520 H     1 <1>   0.0800 
 46 H      -10.5680    -1.8510     0.2430 H     1 <1>   0.4000 
 47 H       -7.0740    -3.6670    -1.7250 H     1 <1>   0.0800 
 48 H       -8.5390    -4.6000    -1.8030 H     1 <1>   0.0800 
 49 H       -5.0970    -5.6940    -1.6980 H     1 <1>   0.1500 
 50 H       -3.5940    -7.4760     0.0420 H     1 <1>   0.0800 
 51 H       -4.4890    -8.6200    -0.9360 H     1 <1>   0.0800 
 52 H       -4.6020    -8.6830     0.8060 H     1 <1>   0.0800 
@<TRIPOS>BOND
  1   1   2  2   
  2   2   3  am  
  3   2   4  1   
  4   3   5  1   
  5   3   6  1   
  6   4   7  1   
  7   4   8  1   
  8   4  25  1   
  9   5   9  1   
 10   5  26  1   
 11   5  27  1   
 12   6  10  1   
 13   6  28  1   
 14   6  29  1   
 15   7   8  1   
 16   7  30  1   
 17   7  31  1   
 18   8  32  1   
 19   8  33  1   
 20   9  11  1   
 21   9  34  1   
 22   9  35  1   
 23  10  11  1   
 24  10  36  1   
 25  10  37  1   
 26  11  12  1   
 27  11  38  1   
 28  12  13  1   
 29  12  14  1   
 30  12  39  1   
 31  13  15  1   
 32  13  40  1   
 33  13  41  1   
 34  14  16  1   
 35  14  42  1   
 36  14  43  1   
 37  15  16  1   
 38  15  17  1   
 39  15  44  1   
 40  16  18  1   
 41  16  45  1   
 42  17  46  1   
 43  18  19  1   
 44  18  47  1   
 45  18  48  1   
 46  19  20  1   
 47  19  21  2   
 48  20  22  1   
 49  21  23  1   
 50  21  49  1   
 51  22  23  2   
 52  23  24  1   
 53  24  50  1   
 54  24  51  1   
 55  24  52  1   
@<TRIPOS>SUBSTRUCTURE
  1 ****  10 GROUP 4 **** **** 0

# MOE 2024.06 (io_trps.svl 2023.06)
