@<TRIPOS>MOLECULE
NONAME
54 57 1 0 0 
SMALL
USER_CHARGES


@<TRIPOS>ATOM
  1 S        0.4810    -0.9120     2.0010 S.o2  1 <1>   1.2040 
  2 O       -0.9230    -1.2570     2.0260 O.2   1 <1>  -0.6500 
  3 O        1.2260    -0.8200     3.2360 O.2   1 <1>  -0.6500 
  4 C        1.3510    -2.0070     0.8550 C.ar  1 <1>  -0.0090 
  5 C        0.6210     0.6650     1.1830 C.3   1 <1>  -0.1350 
  6 C        2.7070    -2.2730     1.0070 C.ar  1 <1>  -0.1500 
  7 C        0.6920    -2.5910    -0.2190 C.ar  1 <1>  -0.1500 
  8 C        3.3810    -3.0980     0.1230 C.ar  1 <1>  -0.1500 
  9 C        1.3590    -3.4160    -1.1070 C.ar  1 <1>  -0.1500 
 10 C        2.7070    -3.6790    -0.9380 C.ar  1 <1>  -0.1430 
 11 C        3.4220    -4.6130    -1.9050 C.3   1 <1>   0.2840 
 12 N        2.8660    -5.9890    -1.7700 N.am  1 <1>  -0.6600 
 13 C        2.1540    -6.5560    -2.7970 C.2   1 <1>   0.5690 
 14 C        3.0560    -6.6100    -0.4230 C.3   1 <1>   0.1400 
 15 O        1.9710    -5.9510    -3.8270 O.2   1 <1>  -0.5700 
 16 C        1.5230    -7.9390    -2.7430 C.3   1 <1>  -0.0990 
 17 C        3.7860    -7.9790    -0.4480 C.3   1 <1>   0.2800 
 18 C        1.8400    -8.8480    -1.5560 C.3   1 <1>   0.1200 
 19 O        3.2160    -8.8830    -1.3590 O.3   1 <1>  -0.5600 
 20 C        5.2440    -7.7880    -0.9030 C.3   1 <1>  -0.1600 
 21 C        3.7450    -8.6270     0.9490 C.3   1 <1>  -0.1600 
 22 C        6.0530    -9.0800    -0.8040 C.3   1 <1>   0.2090 
 23 C        4.5830    -9.9030     1.0160 C.3   1 <1>   0.2090 
 24 N        5.9660    -9.5770     0.5930 N.pl3 1 <1>  -0.8220 
 25 C        7.0130    -9.6190     1.4910 C.2   1 <1>   0.4620 
 26 S        8.6490    -9.2160     0.9640 S.3   1 <1>  -0.0800 
 27 N        6.9480    -9.9260     2.7380 N.2   1 <1>  -0.5650 
 28 C        9.2320    -9.5080     2.5780 C.2   1 <1>  -0.1100 
 29 C        8.1900    -9.8650     3.3410 C.2   1 <1>   0.0770 
 30 H        0.1370     1.4240     1.7670 H     1 <1>   0.0800 
 31 H        0.1550     0.6290     0.2180 H     1 <1>   0.0800 
 32 H        1.6520     0.9340     1.0610 H     1 <1>   0.0800 
 33 H        3.2430    -1.8340     1.8320 H     1 <1>   0.1500 
 34 H       -0.3600    -2.4050    -0.3610 H     1 <1>   0.1500 
 35 H        4.4310    -3.2860     0.2720 H     1 <1>   0.1500 
 36 H        0.8260    -3.8630    -1.9310 H     1 <1>   0.1500 
 37 H        4.4770    -4.6380    -1.6950 H     1 <1>   0.0800 
 38 H        3.3020    -4.2420    -2.9090 H     1 <1>   0.0800 
 39 H        2.0990    -6.7010     0.0560 H     1 <1>   0.0800 
 40 H        3.6320    -5.9470     0.1970 H     1 <1>   0.0800 
 41 H        1.8210    -8.4560    -3.6360 H     1 <1>   0.0800 
 42 H        0.4580    -7.8140    -2.8010 H     1 <1>   0.0800 
 43 H        1.5260    -9.8520    -1.7850 H     1 <1>   0.0800 
 44 H        1.3350    -8.5420    -0.6580 H     1 <1>   0.0800 
 45 H        5.7230    -7.0460    -0.2910 H     1 <1>   0.0800 
 46 H        5.2600    -7.4350    -1.9180 H     1 <1>   0.0800 
 47 H        2.7320    -8.8490     1.2290 H     1 <1>   0.0800 
 48 H        4.1370    -7.9390     1.6770 H     1 <1>   0.0800 
 49 H        7.0690    -8.8990    -1.1000 H     1 <1>   0.0800 
 50 H        5.6430    -9.8220    -1.4690 H     1 <1>   0.0800 
 51 H        4.1770   -10.6510     0.3560 H     1 <1>   0.0800 
 52 H        4.5720   -10.3000     2.0170 H     1 <1>   0.0800 
 53 H       10.2810    -9.3810     2.7710 H     1 <1>   0.1500 
 54 H        8.2450   -10.1090     4.3890 H     1 <1>   0.1500 
@<TRIPOS>BOND
  1   1   2  2   
  2   1   3  2   
  3   1   4  1   
  4   1   5  1   
  5   4   6  ar  
  6   4   7  ar  
  7   5  30  1   
  8   5  31  1   
  9   5  32  1   
 10   6   8  ar  
 11   6  33  1   
 12   7   9  ar  
 13   7  34  1   
 14   8  10  ar  
 15   8  35  1   
 16   9  10  ar  
 17   9  36  1   
 18  10  11  1   
 19  11  12  1   
 20  11  37  1   
 21  11  38  1   
 22  12  13  am  
 23  12  14  1   
 24  13  15  2   
 25  13  16  1   
 26  14  17  1   
 27  14  39  1   
 28  14  40  1   
 29  16  18  1   
 30  16  41  1   
 31  16  42  1   
 32  17  19  1   
 33  17  20  1   
 34  17  21  1   
 35  18  19  1   
 36  18  43  1   
 37  18  44  1   
 38  20  22  1   
 39  20  45  1   
 40  20  46  1   
 41  21  23  1   
 42  21  47  1   
 43  21  48  1   
 44  22  24  1   
 45  22  49  1   
 46  22  50  1   
 47  23  24  1   
 48  23  51  1   
 49  23  52  1   
 50  24  25  1   
 51  25  26  1   
 52  25  27  2   
 53  26  28  1   
 54  27  29  1   
 55  28  29  2   
 56  28  53  1   
 57  29  54  1   
@<TRIPOS>SUBSTRUCTURE
  1 ****  14 GROUP 4 **** **** 0

# MOE 2024.06 (io_trps.svl 2023.06)
