@<TRIPOS>MOLECULE
NONAME
55 57 1 0 0 
SMALL
USER_CHARGES


@<TRIPOS>ATOM
  1 O        0.7090     2.0070    -1.7970 O.co2 1 <1>  -0.9000 
  2 C       -0.3600     2.2280    -1.2250 C.2   1 <1>   0.9060 
  3 O       -1.2540     1.3960    -1.0760 O.co2 1 <1>  -0.9000 
  4 C       -0.5960     3.5980    -0.6790 C.3   1 <1>  -0.1860 
  5 C       -1.8900     4.1650    -1.2650 C.3   1 <1>   0.2000 
  6 C        0.5820     4.4820    -1.0330 C.3   1 <1>   0.3430 
  7 O       -2.8940     3.7980    -0.4030 O.3   1 <1>  -0.6800 
  8 C       -1.8840     5.6930    -1.3740 C.3   1 <1>  -0.1600 
  9 N        0.4120     5.8460    -0.4230 N.4   1 <1>  -0.9590 
 10 C       -1.0190     6.2860    -0.2690 C.3   1 <1>   0.3430 
 11 C        1.1210     5.9100     0.8790 C.3   1 <1>   0.4860 
 12 C        1.1970     7.3620     1.3130 C.ar  1 <1>  -0.1430 
 13 C        2.0300     8.2390     0.6380 C.ar  1 <1>  -0.1500 
 14 C        0.4400     7.8310     2.3740 C.ar  1 <1>  -0.1500 
 15 C        2.1070     9.5740     0.9950 C.ar  1 <1>   0.0830 
 16 C        0.5040     9.1640     2.7430 C.ar  1 <1>  -0.1500 
 17 O        2.9620    10.3110     0.2370 O.3   1 <1>  -0.3630 
 18 C        1.3270    10.0560     2.0580 C.ar  1 <1>   0.0830 
 19 C        3.6670    11.4090     0.7790 C.3   1 <1>   0.2630 
 20 O        1.3760    11.3800     2.3860 O.3   1 <1>  -0.3630 
 21 C        4.9040    11.6550    -0.0690 C.ar  1 <1>  -0.1430 
 22 C        0.5710    11.9380     3.4030 C.3   1 <1>   0.0400 
 23 C        4.7770    12.1620    -1.3540 C.ar  1 <1>  -0.1500 
 24 C        6.1680    11.3800     0.4300 C.ar  1 <1>  -0.1500 
 25 C        5.8950    12.3960    -2.1370 C.ar  1 <1>  -0.1430 
 26 C        7.2900    11.6140    -0.3470 C.ar  1 <1>  -0.1500 
 27 C        7.1530    12.1220    -1.6270 C.ar  1 <1>  -0.1500 
 28 C        5.7370    12.9510    -3.5410 C.3   1 <1>  -0.0970 
 29 H       -0.6530     3.5050     0.3890 H     1 <1>   0.0800 
 30 H       -2.1100     3.7270    -2.2270 H     1 <1>   0.0800 
 31 H        0.6330     4.5580    -2.1070 H     1 <1>   0.0800 
 32 H        1.4980     4.0180    -0.7000 H     1 <1>   0.0800 
 33 H       -2.8920     2.8070    -0.3720 H     1 <1>   0.4000 
 34 H       -1.4880     5.9880    -2.3290 H     1 <1>   0.0800 
 35 H       -2.8900     6.0690    -1.3090 H     1 <1>   0.0800 
 36 H        0.8780     6.5210    -1.0400 H     1 <1>   0.4500 
 37 H       -1.4070     5.9380     0.6760 H     1 <1>   0.0800 
 38 H       -1.0790     7.3620    -0.2820 H     1 <1>   0.0800 
 39 H        0.5970     5.3230     1.6160 H     1 <1>   0.0800 
 40 H        2.1190     5.5170     0.7750 H     1 <1>   0.0800 
 41 H        2.6450     7.9060    -0.1800 H     1 <1>   0.1500 
 42 H       -0.2080     7.1680     2.9240 H     1 <1>   0.1500 
 43 H       -0.0990     9.4890     3.5700 H     1 <1>   0.1500 
 44 H        3.0230    12.2690     0.7580 H     1 <1>   0.0800 
 45 H        3.9380    11.1780     1.7940 H     1 <1>   0.0800 
 46 H        0.7770    12.9920     3.4490 H     1 <1>   0.0800 
 47 H        0.8230    11.4780     4.3420 H     1 <1>   0.0800 
 48 H       -0.4640    11.7800     3.1570 H     1 <1>   0.0800 
 49 H        3.7970    12.3710    -1.7440 H     1 <1>   0.1500 
 50 H        6.2860    10.9830     1.4230 H     1 <1>   0.1500 
 51 H        8.2690    11.4010     0.0450 H     1 <1>   0.1500 
 52 H        8.0300    12.3010    -2.2220 H     1 <1>   0.1500 
 53 H        6.5890    12.7000    -4.1460 H     1 <1>   0.0800 
 54 H        5.6420    14.0210    -3.5000 H     1 <1>   0.0800 
 55 H        4.8580    12.5410    -4.0060 H     1 <1>   0.0800 
@<TRIPOS>BOND
  1   1   2  ar  
  2   2   3  ar  
  3   2   4  1   
  4   4   5  1   
  5   4   6  1   
  6   4  29  1   
  7   5   7  1   
  8   5   8  1   
  9   5  30  1   
 10   6   9  1   
 11   6  31  1   
 12   6  32  1   
 13   7  33  1   
 14   8  10  1   
 15   8  34  1   
 16   8  35  1   
 17   9  10  1   
 18   9  11  1   
 19   9  36  1   
 20  10  37  1   
 21  10  38  1   
 22  11  12  1   
 23  11  39  1   
 24  11  40  1   
 25  12  13  ar  
 26  12  14  ar  
 27  13  15  ar  
 28  13  41  1   
 29  14  16  ar  
 30  14  42  1   
 31  15  17  1   
 32  15  18  ar  
 33  16  18  ar  
 34  16  43  1   
 35  17  19  1   
 36  18  20  1   
 37  19  21  1   
 38  19  44  1   
 39  19  45  1   
 40  20  22  1   
 41  21  23  ar  
 42  21  24  ar  
 43  22  46  1   
 44  22  47  1   
 45  22  48  1   
 46  23  25  ar  
 47  23  49  1   
 48  24  26  ar  
 49  24  50  1   
 50  25  27  ar  
 51  25  28  1   
 52  26  27  ar  
 53  26  51  1   
 54  27  52  1   
 55  28  53  1   
 56  28  54  1   
 57  28  55  1   
@<TRIPOS>SUBSTRUCTURE
  1 ****  13 GROUP 4 **** **** 0

# MOE 2024.06 (io_trps.svl 2023.06)
