@<TRIPOS>MOLECULE
NONAME
52 54 1 0 0 
SMALL
USER_CHARGES


@<TRIPOS>ATOM
  1 O        0.1200    -0.1660     0.4220 O.2   1 <1>  -0.5700 
  2 C        1.2470    -0.5600     0.1710 C.2   1 <1>   0.7160 
  3 N        2.2520     0.3310    -0.1180 N.am  1 <1>  -0.4940 
  4 C        1.5850    -1.9710     0.1810 C.2   1 <1>   0.2030 
  5 C        2.3460     1.7410    -0.1180 C.2   1 <1>  -0.0880 
  6 N        2.7920    -2.4630    -0.0470 N.2   1 <1>  -0.7070 
  7 C        0.6810    -3.0100     0.4380 C.2   1 <1>  -0.1500 
  8 N        1.3800     2.6580    -0.3990 N.pl3 1 <1>   0.3140 
  9 C        3.4850     2.4420     0.1470 C.2   1 <1>  -0.0540 
 10 N        2.6560    -3.7940     0.0610 N.pl3 1 <1>   0.3000 
 11 C        1.3900    -4.1530     0.3510 C.2   1 <1>  -0.3320 
 12 N        1.8570     3.9190    -0.3150 N.2   1 <1>  -0.7070 
 13 C       -0.0050     2.4410    -0.8370 C.3   1 <1>   0.0160 
 14 C        4.7800     1.9150     0.5090 C.ar  1 <1>   0.0540 
 15 C        3.1000     3.7800     0.0070 C.2   1 <1>   0.1080 
 16 C        0.9270    -5.5890     0.5450 C.3   1 <1>   0.0200 
 17 C        5.9260     2.1140    -0.2730 C.ar  1 <1>   0.0830 
 18 C        4.9000     1.1660     1.6760 C.ar  1 <1>  -0.1500 
 19 C        4.0100     4.9710     0.2070 C.3   1 <1>  -0.0590 
 20 C        0.6230    -6.3060    -0.7840 C.3   1 <1>  -0.0800 
 21 O        5.7910     2.8370    -1.4180 O.3   1 <1>  -0.3630 
 22 C        7.1460     1.5740     0.1260 C.ar  1 <1>  -0.1500 
 23 C        6.1120     0.6290     2.0670 C.ar  1 <1>  -0.1500 
 24 C        0.0210    -7.6900    -0.5080 C.3   1 <1>  -0.2400 
 25 C        1.8640    -6.4600    -1.6760 C.3   1 <1>  -0.2400 
 26 C        6.8500     2.9950    -2.3350 C.3   1 <1>   0.0400 
 27 C        7.2380     0.8340     1.2910 C.ar  1 <1>  -0.1500 
 28 H        3.1450    -0.1630    -0.2230 H     1 <1>   0.3700 
 29 H       -0.3640    -2.8740     0.6560 H     1 <1>   0.1500 
 30 H        3.4420    -4.4420    -0.0730 H     1 <1>   0.2700 
 31 H       -0.0410     1.5950    -1.4960 H     1 <1>   0.0800 
 32 H       -0.3520     3.3160    -1.3540 H     1 <1>   0.0800 
 33 H       -0.6190     2.2640     0.0250 H     1 <1>   0.0800 
 34 H        0.0290    -5.5720     1.1390 H     1 <1>   0.0800 
 35 H        1.6670    -6.1380     1.1020 H     1 <1>   0.0800 
 36 H        4.0260     1.0080     2.2820 H     1 <1>   0.1500 
 37 H        4.7870     4.7350     0.9100 H     1 <1>   0.0800 
 38 H        3.4410     5.8030     0.5790 H     1 <1>   0.0800 
 39 H        4.4540     5.2410    -0.7330 H     1 <1>   0.0800 
 40 H       -0.1090    -5.7240    -1.3190 H     1 <1>   0.0800 
 41 H        8.0370     1.7160    -0.4550 H     1 <1>   0.1500 
 42 H        6.1790     0.0530     2.9740 H     1 <1>   0.1500 
 43 H        0.7210    -8.3120     0.0230 H     1 <1>   0.0800 
 44 H       -0.2370    -8.1770    -1.4320 H     1 <1>   0.0800 
 45 H       -0.8750    -7.5990     0.0820 H     1 <1>   0.0800 
 46 H        2.6530    -6.9680    -1.1500 H     1 <1>   0.0800 
 47 H        2.2180    -5.5000    -2.0040 H     1 <1>   0.0800 
 48 H        1.6190    -7.0300    -2.5550 H     1 <1>   0.0800 
 49 H        6.4830     3.5600    -3.1730 H     1 <1>   0.0800 
 50 H        7.1750     2.0230    -2.6640 H     1 <1>   0.0800 
 51 H        7.6500     3.5300    -1.8560 H     1 <1>   0.0800 
 52 H        8.1830     0.4170     1.5940 H     1 <1>   0.1500 
@<TRIPOS>BOND
  1   1   2  2   
  2   2   3  am  
  3   2   4  1   
  4   3   5  1   
  5   3  28  1   
  6   4   6  2   
  7   4   7  1   
  8   5   8  1   
  9   5   9  2   
 10   6  10  1   
 11   7  11  2   
 12   7  29  1   
 13   8  12  1   
 14   8  13  1   
 15   9  14  1   
 16   9  15  1   
 17  10  11  1   
 18  10  30  1   
 19  11  16  1   
 20  12  15  2   
 21  13  31  1   
 22  13  32  1   
 23  13  33  1   
 24  14  17  ar  
 25  14  18  ar  
 26  15  19  1   
 27  16  20  1   
 28  16  34  1   
 29  16  35  1   
 30  17  21  1   
 31  17  22  ar  
 32  18  23  ar  
 33  18  36  1   
 34  19  37  1   
 35  19  38  1   
 36  19  39  1   
 37  20  24  1   
 38  20  25  1   
 39  20  40  1   
 40  21  26  1   
 41  22  27  ar  
 42  22  41  1   
 43  23  27  ar  
 44  23  42  1   
 45  24  43  1   
 46  24  44  1   
 47  24  45  1   
 48  25  46  1   
 49  25  47  1   
 50  25  48  1   
 51  26  49  1   
 52  26  50  1   
 53  26  51  1   
 54  27  52  1   
@<TRIPOS>SUBSTRUCTURE
  1 ****   3 GROUP 4 **** **** 0

# MOE 2024.06 (io_trps.svl 2023.06)
