@<TRIPOS>MOLECULE
NONAME
47 49 1 0 0 
SMALL
USER_CHARGES


@<TRIPOS>ATOM
  1 S       -1.8360    -1.5660     2.1880 S.3   1 <1>  -0.0800 
  2 C       -1.3140    -2.4190     0.7460 C.2   1 <1>  -0.1100 
  3 C       -3.5050    -1.5910     1.6490 C.2   1 <1>  -0.1100 
  4 C       -2.3610    -2.6910    -0.0560 C.2   1 <1>  -0.1810 
  5 C       -3.6110    -2.2150     0.4620 C.2   1 <1>  -0.1500 
  6 C       -2.3040    -3.4150    -1.3900 C.3   1 <1>   0.3210 
  7 N       -2.8430    -4.7930    -1.2260 N.am  1 <1>  -0.6600 
  8 C       -4.1440    -5.0710    -1.5930 C.2   1 <1>   0.5690 
  9 C       -1.8520    -5.7670    -0.6790 C.3   1 <1>   0.0600 
 10 O       -4.8320    -4.2180    -2.1080 O.2   1 <1>  -0.5700 
 11 C       -4.8100    -6.4350    -1.3640 C.3   1 <1>   0.2610 
 12 O       -4.0870    -7.4890    -1.9770 O.3   1 <1>  -0.5600 
 13 C       -5.0240    -6.6860     0.1500 C.3   1 <1>   0.3640 
 14 C       -4.7240    -8.7390    -1.8780 C.3   1 <1>   0.1810 
 15 N       -5.2030    -8.1320     0.5080 N.am  1 <1>  -0.6600 
 16 C       -6.1620    -5.8180     0.7080 C.ar  1 <1>  -0.1430 
 17 C       -5.0680    -9.1160    -0.4340 C.2   1 <1>   0.5690 
 18 C       -5.4310    -8.4310     1.9520 C.3   1 <1>   0.0600 
 19 C       -7.5250    -6.0610     0.5100 C.ar  1 <1>  -0.1430 
 20 C       -5.7810    -4.7130     1.4610 C.ar  1 <1>  -0.1500 
 21 O       -5.2240   -10.2860    -0.1740 O.2   1 <1>  -0.5700 
 22 C       -8.4580    -5.1950     1.0640 C.ar  1 <1>  -0.1500 
 23 C       -8.0680    -7.2480    -0.2800 C.3   1 <1>  -0.0970 
 24 C       -6.7180    -3.8590     2.0070 C.ar  1 <1>  -0.1500 
 25 C       -8.0620    -4.1000     1.8070 C.ar  1 <1>  -0.1500 
 26 H       -0.2630    -2.6270     0.6540 H     1 <1>   0.1500 
 27 H       -4.2390    -1.1290     2.2850 H     1 <1>   0.1500 
 28 H       -4.5270    -2.3660    -0.0870 H     1 <1>   0.1500 
 29 H       -1.2860    -3.4680    -1.7360 H     1 <1>   0.0800 
 30 H       -2.8670    -2.8650    -2.1240 H     1 <1>   0.0800 
 31 H       -1.0020    -5.8230    -1.3360 H     1 <1>   0.0800 
 32 H       -2.2650    -6.7540    -0.5850 H     1 <1>   0.0800 
 33 H       -1.5230    -5.4410     0.2920 H     1 <1>   0.0800 
 34 H       -5.7650    -6.3900    -1.8510 H     1 <1>   0.0800 
 35 H       -4.1230    -6.3760     0.6450 H     1 <1>   0.0800 
 36 H       -5.6210    -8.7150    -2.4690 H     1 <1>   0.0800 
 37 H       -4.0600    -9.4770    -2.2880 H     1 <1>   0.0800 
 38 H       -4.6590    -7.9770     2.5470 H     1 <1>   0.0800 
 39 H       -5.4200    -9.4940     2.1270 H     1 <1>   0.0800 
 40 H       -6.3860    -8.0440     2.2620 H     1 <1>   0.0800 
 41 H       -4.7390    -4.5000     1.6320 H     1 <1>   0.1500 
 42 H       -9.5100    -5.3680     0.9220 H     1 <1>   0.1500 
 43 H       -9.1190    -7.1320    -0.4730 H     1 <1>   0.0800 
 44 H       -7.9350    -8.1560     0.2800 H     1 <1>   0.0800 
 45 H       -7.5780    -7.3470    -1.2270 H     1 <1>   0.0800 
 46 H       -6.4030    -3.0080     2.5850 H     1 <1>   0.1500 
 47 H       -8.7990    -3.4380     2.2280 H     1 <1>   0.1500 
@<TRIPOS>BOND
  1   1   2  1   
  2   1   3  1   
  3   2   4  2   
  4   2  26  1   
  5   3   5  2   
  6   3  27  1   
  7   4   5  1   
  8   4   6  1   
  9   5  28  1   
 10   6   7  1   
 11   6  29  1   
 12   6  30  1   
 13   7   8  am  
 14   7   9  1   
 15   8  10  2   
 16   8  11  1   
 17   9  31  1   
 18   9  32  1   
 19   9  33  1   
 20  11  12  1   
 21  11  13  1   
 22  11  34  1   
 23  12  14  1   
 24  13  15  1   
 25  13  16  1   
 26  13  35  1   
 27  14  17  1   
 28  14  36  1   
 29  14  37  1   
 30  15  17  am  
 31  15  18  1   
 32  16  19  ar  
 33  16  20  ar  
 34  17  21  2   
 35  18  38  1   
 36  18  39  1   
 37  18  40  1   
 38  19  22  ar  
 39  19  23  1   
 40  20  24  ar  
 41  20  41  1   
 42  22  25  ar  
 43  22  42  1   
 44  23  43  1   
 45  23  44  1   
 46  23  45  1   
 47  24  25  ar  
 48  24  46  1   
 49  25  47  1   
@<TRIPOS>SUBSTRUCTURE
  1 ****  13 GROUP 4 **** **** 0

# MOE 2024.06 (io_trps.svl 2023.06)
