@<TRIPOS>MOLECULE
NONAME
48 51 1 0 0 
SMALL
USER_CHARGES


@<TRIPOS>ATOM
  1 CL       0.7030     1.7940    -2.2590 Cl    1 <1>  -0.1770 
  2 C        1.7330     1.5560    -0.8660 C.ar  1 <1>   0.1770 
  3 C        2.2290     0.2970    -0.5630 C.ar  1 <1>  -0.1440 
  4 C        2.0200     2.6590    -0.0800 C.ar  1 <1>  -0.1500 
  5 C        3.0260     0.1930     0.5680 C.ar  1 <1>   0.1900 
  6 C        1.9300    -0.9230    -1.4230 C.3   1 <1>   0.2540 
  7 C        2.8200     2.5200     1.0430 C.ar  1 <1>  -0.1500 
  8 F        3.5140    -0.9790     0.8860 F     1 <1>  -0.1900 
  9 C        3.3340     1.2780     1.3810 C.ar  1 <1>  -0.1440 
 10 N        0.8750    -1.7500    -0.8060 N.3   1 <1>  -0.8100 
 11 C        4.2160     1.1170     2.6110 C.3   1 <1>  -0.0970 
 12 C       -0.4490    -1.0820    -0.7770 C.3   1 <1>   0.1100 
 13 C        0.7750    -3.0750    -1.4560 C.3   1 <1>   0.1100 
 14 C       -1.5060    -1.9150    -0.0040 C.3   1 <1>   0.4230 
 15 C       -0.3560    -3.9470    -0.8590 C.3   1 <1>   0.3430 
 16 N       -0.9870    -3.2920     0.3370 N.4   1 <1>  -0.9590 
 17 C       -2.8420    -1.9980    -0.7750 C.3   1 <1>   0.1200 
 18 C       -2.0410    -4.0970     1.0280 C.3   1 <1>   0.5180 
 19 O       -3.7690    -2.7800    -0.0730 O.3   1 <1>  -0.5600 
 20 C       -1.4890    -5.5010     1.3460 C.3   1 <1>  -0.1950 
 21 C       -3.3560    -4.0920     0.2080 C.3   1 <1>   0.1200 
 22 C       -1.5450    -6.6780     0.4150 C.3   1 <1>  -0.2000 
 23 C       -2.3710    -6.6690     1.6700 C.3   1 <1>  -0.2000 
 24 H        1.6190     3.6210    -0.3460 H     1 <1>   0.1500 
 25 H        2.8340    -1.5040    -1.5080 H     1 <1>   0.0800 
 26 H        1.6420    -0.6340    -2.4190 H     1 <1>   0.0800 
 27 H        3.0400     3.3840     1.6480 H     1 <1>   0.1500 
 28 H        4.3330     2.0520     3.1290 H     1 <1>   0.0800 
 29 H        5.1890     0.7640     2.3210 H     1 <1>   0.0800 
 30 H        3.7780     0.4050     3.2870 H     1 <1>   0.0800 
 31 H       -0.3670    -0.1260    -0.2900 H     1 <1>   0.0800 
 32 H       -0.7810    -0.8980    -1.7850 H     1 <1>   0.0800 
 33 H        0.6070    -2.9570    -2.5140 H     1 <1>   0.0800 
 34 H        1.7110    -3.5960    -1.3350 H     1 <1>   0.0800 
 35 H       -1.7100    -1.3900     0.9140 H     1 <1>   0.0800 
 36 H        0.0580    -4.9020    -0.5840 H     1 <1>   0.0800 
 37 H       -1.1020    -4.1230    -1.6160 H     1 <1>   0.0800 
 38 H       -0.2020    -3.1180     0.9790 H     1 <1>   0.4500 
 39 H       -2.7050    -2.4240    -1.7540 H     1 <1>   0.0800 
 40 H       -3.2670    -1.0160    -0.8870 H     1 <1>   0.0800 
 41 H       -2.2660    -3.6240     1.9700 H     1 <1>   0.0800 
 42 H       -0.6180    -5.4210     1.9760 H     1 <1>   0.1000 
 43 H       -4.1440    -4.5590     0.7720 H     1 <1>   0.0800 
 44 H       -3.2420    -4.6210    -0.7210 H     1 <1>   0.0800 
 45 H       -2.0780    -6.6390    -0.5200 H     1 <1>   0.1000 
 46 H       -0.7090    -7.3560     0.3730 H     1 <1>   0.1000 
 47 H       -2.0830    -7.3300     2.4720 H     1 <1>   0.1000 
 48 H       -3.4410    -6.6140     1.5660 H     1 <1>   0.1000 
@<TRIPOS>BOND
  1   1   2  1   
  2   2   3  ar  
  3   2   4  ar  
  4   3   5  ar  
  5   3   6  1   
  6   4   7  ar  
  7   4  24  1   
  8   5   8  1   
  9   5   9  ar  
 10   6  10  1   
 11   6  25  1   
 12   6  26  1   
 13   7   9  ar  
 14   7  27  1   
 15   9  11  1   
 16  10  12  1   
 17  10  13  1   
 18  11  28  1   
 19  11  29  1   
 20  11  30  1   
 21  12  14  1   
 22  12  31  1   
 23  12  32  1   
 24  13  15  1   
 25  13  33  1   
 26  13  34  1   
 27  14  16  1   
 28  14  17  1   
 29  14  35  1   
 30  15  16  1   
 31  15  36  1   
 32  15  37  1   
 33  16  18  1   
 34  16  38  1   
 35  17  19  1   
 36  17  39  1   
 37  17  40  1   
 38  18  20  1   
 39  18  21  1   
 40  18  41  1   
 41  19  21  1   
 42  20  22  1   
 43  20  23  1   
 44  20  42  1   
 45  21  43  1   
 46  21  44  1   
 47  22  23  1   
 48  22  45  1   
 49  22  46  1   
 50  23  47  1   
 51  23  48  1   
@<TRIPOS>SUBSTRUCTURE
  1 ****  10 GROUP 4 **** **** 0

# MOE 2024.06 (io_trps.svl 2023.06)
