@<TRIPOS>MOLECULE
NONAME
41 43 1 0 0 
SMALL
USER_CHARGES


@<TRIPOS>ATOM
  1 S       -0.2440    -0.1340     0.8240 S.3   1 <1>  -0.0800 
  2 C        1.0460    -1.2770     0.4740 C.2   1 <1>  -0.1400 
  3 C        0.8230     1.2280     0.5500 C.2   1 <1>  -0.1100 
  4 C        2.1880    -0.6230     0.1740 C.2   1 <1>  -0.1810 
  5 C        0.6840    -2.7500     0.5640 C.3   1 <1>   0.0200 
  6 C        2.0560     0.8030     0.2190 C.2   1 <1>  -0.1500 
  7 C        3.5300    -1.2320    -0.1880 C.3   1 <1>  -0.0590 
  8 C       -0.2570    -3.1450    -0.5740 C.3   1 <1>   0.1400 
  9 N       -0.4680    -4.6110    -0.5730 N.am  1 <1>  -0.7300 
 10 C       -1.5470    -5.2810    -0.0690 C.2   1 <1>   0.7160 
 11 O       -2.4440    -4.6430     0.4530 O.2   1 <1>  -0.5700 
 12 C       -1.5820    -6.7340    -0.1610 C.2   1 <1>   0.2030 
 13 N       -0.6350    -7.4900    -0.6910 N.2   1 <1>  -0.7070 
 14 C       -2.6210    -7.5360     0.3010 C.2   1 <1>  -0.1500 
 15 N       -1.0700    -8.7480    -0.5660 N.pl3 1 <1>   0.3140 
 16 C       -2.2790    -8.8240     0.0390 C.2   1 <1>  -0.2370 
 17 C       -0.2430    -9.8640    -1.0460 C.3   1 <1>   0.0960 
 18 C       -3.0290   -10.0150     0.3120 C.2   1 <1>   0.7150 
 19 C       -0.0190   -10.8540     0.0940 C.3   1 <1>   0.2000 
 20 O       -4.1990    -9.9340     0.6140 O.2   1 <1>  -0.5700 
 21 N       -2.5410   -11.2810     0.2600 N.am  1 <1>  -0.7300 
 22 O        1.1420   -11.5730    -0.1670 O.3   1 <1>  -0.6800 
 23 C       -1.1680   -11.8570     0.2730 C.3   1 <1>   0.1400 
 24 H        0.4090     2.2130     0.6670 H     1 <1>   0.1500 
 25 H        0.2040    -2.9390     1.5080 H     1 <1>   0.0800 
 26 H        1.5760    -3.3440     0.5120 H     1 <1>   0.0800 
 27 H        2.8920     1.4440     0.0020 H     1 <1>   0.1500 
 28 H        3.4780    -2.3040    -0.2100 H     1 <1>   0.0800 
 29 H        4.2690    -0.9390     0.5360 H     1 <1>   0.0800 
 30 H        3.8370    -0.8850    -1.1580 H     1 <1>   0.0800 
 31 H        0.1670    -2.8490    -1.5190 H     1 <1>   0.0800 
 32 H       -1.2010    -2.6390    -0.4560 H     1 <1>   0.0800 
 33 H        0.2560    -5.2020    -0.9900 H     1 <1>   0.3700 
 34 H       -3.5200    -7.1770     0.7720 H     1 <1>   0.1500 
 35 H        0.6980    -9.4580    -1.3680 H     1 <1>   0.0800 
 36 H       -0.7380   -10.3300    -1.8770 H     1 <1>   0.0800 
 37 H        0.1540   -10.3210     1.0150 H     1 <1>   0.0800 
 38 H       -3.2770   -11.9640     0.4600 H     1 <1>   0.3700 
 39 H        1.0910   -12.0540    -1.0160 H     1 <1>   0.4000 
 40 H       -1.0250   -12.3720     1.2080 H     1 <1>   0.0800 
 41 H       -1.1180   -12.5860    -0.5180 H     1 <1>   0.0800 
@<TRIPOS>BOND
  1   1   2  1   
  2   1   3  1   
  3   2   4  2   
  4   2   5  1   
  5   3   6  2   
  6   3  24  1   
  7   4   6  1   
  8   4   7  1   
  9   5   8  1   
 10   5  25  1   
 11   5  26  1   
 12   6  27  1   
 13   7  28  1   
 14   7  29  1   
 15   7  30  1   
 16   8   9  1   
 17   8  31  1   
 18   8  32  1   
 19   9  10  am  
 20   9  33  1   
 21  10  11  2   
 22  10  12  1   
 23  12  13  2   
 24  12  14  1   
 25  13  15  1   
 26  14  16  2   
 27  14  34  1   
 28  15  16  1   
 29  15  17  1   
 30  16  18  1   
 31  17  19  1   
 32  17  35  1   
 33  17  36  1   
 34  18  20  2   
 35  18  21  am  
 36  19  22  1   
 37  19  23  1   
 38  19  37  1   
 39  21  23  1   
 40  21  38  1   
 41  22  39  1   
 42  23  40  1   
 43  23  41  1   
@<TRIPOS>SUBSTRUCTURE
  1 ****  10 GROUP 4 **** **** 0

# MOE 2024.06 (io_trps.svl 2023.06)
