@<TRIPOS>MOLECULE
NONAME
41 43 1 0 0 
SMALL
USER_CHARGES


@<TRIPOS>ATOM
  1 O       -0.5670     0.2640     1.2660 O.2   1 <1>  -0.5700 
  2 C       -1.4550     0.8990     0.7190 C.2   1 <1>   0.5440 
  3 N       -2.5000     0.1790     0.1700 N.am  1 <1>  -0.6600 
  4 C       -1.3750     2.3600     0.6370 C.ar  1 <1>   0.3960 
  5 C       -3.7310     0.7410    -0.4440 C.3   1 <1>   0.1400 
  6 C       -2.6330    -1.2890     0.3340 C.3   1 <1>   0.1400 
  7 N       -2.3240     3.0860     1.2550 N.ar  1 <1>  -0.6200 
  8 C       -0.3310     2.9700    -0.0780 C.ar  1 <1>  -0.1440 
  9 C       -4.7950    -0.3250    -0.1840 C.3   1 <1>   0.2000 
 10 C       -4.0090    -1.6400    -0.2430 C.3   1 <1>  -0.0800 
 11 C       -2.2280     4.3980     1.1760 C.ar  1 <1>   0.1600 
 12 C       -0.2560     4.3460    -0.1490 C.ar  1 <1>  -0.1500 
 13 C        0.7390     2.1450    -0.7880 C.3   1 <1>  -0.0960 
 14 O       -5.2860    -0.1330     1.0980 O.3   1 <1>  -0.6800 
 15 C       -4.6810    -2.8420     0.4450 C.3   1 <1>  -0.0170 
 16 C       -1.2300     5.0700     0.4970 C.ar  1 <1>  -0.1500 
 17 C       -3.8510    -4.1030     0.2630 C.ar  1 <1>  -0.1440 
 18 C       -2.9580    -4.5360     1.2230 C.ar  1 <1>  -0.1500 
 19 C       -3.9420    -4.8750    -0.8770 C.ar  1 <1>  -0.1500 
 20 C       -2.2180    -5.6850     1.0000 C.ar  1 <1>   0.1600 
 21 C       -3.1570    -6.0090    -1.0000 C.ar  1 <1>   0.1600 
 22 N       -2.2940    -6.4310    -0.0900 N.ar  1 <1>  -0.6200 
 23 H       -4.0160     1.6870    -0.0210 H     1 <1>   0.0800 
 24 H       -3.5720     0.8520    -1.5020 H     1 <1>   0.0800 
 25 H       -1.8430    -1.8040    -0.1860 H     1 <1>   0.0800 
 26 H       -2.5810    -1.5280     1.3830 H     1 <1>   0.0800 
 27 H       -5.6170    -0.2840    -0.8770 H     1 <1>   0.0800 
 28 H       -3.8650    -1.8840    -1.2810 H     1 <1>   0.0800 
 29 H       -2.9860     4.9750     1.6790 H     1 <1>   0.1500 
 30 H        0.5340     4.8450    -0.6860 H     1 <1>   0.1500 
 31 H        1.3690     2.7660    -1.3990 H     1 <1>   0.0800 
 32 H        0.2840     1.4020    -1.4190 H     1 <1>   0.0800 
 33 H        1.3580     1.6460    -0.0620 H     1 <1>   0.0800 
 34 H       -4.5330     0.0750     1.6890 H     1 <1>   0.4000 
 35 H       -5.6600    -2.9940     0.0250 H     1 <1>   0.0800 
 36 H       -4.8110    -2.6480     1.4960 H     1 <1>   0.0800 
 37 H       -1.2190     6.1450     0.4770 H     1 <1>   0.1500 
 38 H       -2.8290    -3.9920     2.1410 H     1 <1>   0.1500 
 39 H       -4.6160    -4.6070    -1.6690 H     1 <1>   0.1500 
 40 H       -1.5250    -6.0070     1.7590 H     1 <1>   0.1500 
 41 H       -3.2410    -6.6000    -1.8960 H     1 <1>   0.1500 
@<TRIPOS>BOND
  1   1   2  2   
  2   2   3  am  
  3   2   4  1   
  4   3   5  1   
  5   3   6  1   
  6   4   7  ar  
  7   4   8  ar  
  8   5   9  1   
  9   5  23  1   
 10   5  24  1   
 11   6  10  1   
 12   6  25  1   
 13   6  26  1   
 14   7  11  ar  
 15   8  12  ar  
 16   8  13  1   
 17   9  10  1   
 18   9  14  1   
 19   9  27  1   
 20  10  15  1   
 21  10  28  1   
 22  11  16  ar  
 23  11  29  1   
 24  12  16  ar  
 25  12  30  1   
 26  13  31  1   
 27  13  32  1   
 28  13  33  1   
 29  14  34  1   
 30  15  17  1   
 31  15  35  1   
 32  15  36  1   
 33  16  37  1   
 34  17  18  ar  
 35  17  19  ar  
 36  18  20  ar  
 37  18  38  1   
 38  19  21  ar  
 39  19  39  1   
 40  20  22  ar  
 41  20  40  1   
 42  21  22  ar  
 43  21  41  1   
@<TRIPOS>SUBSTRUCTURE
  1 ****   3 GROUP 4 **** **** 0

# MOE 2024.06 (io_trps.svl 2023.06)
