@<TRIPOS>MOLECULE
NONAME
46 47 1 0 0 
SMALL
USER_CHARGES


@<TRIPOS>ATOM
  1 CL      -0.0890     0.2710    -1.7260 Cl    1 <1>  -0.1770 
  2 C       -1.3080     1.1310    -0.7960 C.ar  1 <1>   0.1770 
  3 C       -1.1250     2.5170    -0.5650 C.ar  1 <1>   0.4100 
  4 C       -2.4080     0.5030    -0.3000 C.ar  1 <1>   0.2170 
  5 N       -1.9860     3.2270     0.1470 N.ar  1 <1>  -0.6200 
  6 N       -0.0460     3.1610    -1.0700 N.pl3 1 <1>  -0.8690 
  7 N       -3.2760     1.2740     0.4080 N.ar  1 <1>  -0.1790 
  8 C       -2.7380    -0.9750    -0.4700 C.3   1 <1>  -0.0970 
  9 C       -3.0490     2.5880     0.6100 C.ar  1 <1>   0.7710 
 10 C        0.2470     4.6220    -1.0100 C.3   1 <1>   0.2090 
 11 N       -3.9210     3.3100     1.3070 N.pl3 1 <1>  -0.9000 
 12 C        0.8150     5.0800     0.3660 C.3   1 <1>   0.4230 
 13 N        0.8770     6.5800     0.5070 N.4   1 <1>  -0.9590 
 14 C        2.1950     4.4730     0.7570 C.3   1 <1>  -0.0800 
 15 C       -0.4510     7.2330     0.6060 C.3   1 <1>   0.3430 
 16 C        1.6280     7.3250    -0.5380 C.3   1 <1>   0.3430 
 17 C        3.2130     4.3350    -0.3930 C.3   1 <1>  -0.2400 
 18 C        2.0340     3.1080     1.4470 C.3   1 <1>  -0.2400 
 19 C       -0.1600     8.7100     0.3840 C.3   1 <1>  -0.1600 
 20 C        1.1600     8.7670    -0.3900 C.3   1 <1>  -0.1600 
 21 H        0.6320     2.6130    -1.6200 H     1 <1>   0.4000 
 22 H       -4.1250     0.8830     0.8080 H     1 <1>   0.4570 
 23 H       -1.9840    -1.4830    -1.0470 H     1 <1>   0.0800 
 24 H       -3.6770    -1.0950    -0.9820 H     1 <1>   0.0800 
 25 H       -2.7990    -1.4600     0.4880 H     1 <1>   0.0800 
 26 H       -0.6690     5.1490    -1.2090 H     1 <1>   0.0800 
 27 H        0.9400     4.8640    -1.7970 H     1 <1>   0.0800 
 28 H       -4.7970     3.0050     1.7400 H     1 <1>   0.4000 
 29 H       -3.7430     4.3100     1.4340 H     1 <1>   0.4000 
 30 H        0.1120     4.7330     1.1050 H     1 <1>   0.0800 
 31 H        1.3560     6.7760     1.3950 H     1 <1>   0.4500 
 32 H        2.6350     5.1160     1.5000 H     1 <1>   0.0800 
 33 H       -0.9140     7.0590     1.5640 H     1 <1>   0.0800 
 34 H       -1.1010     6.8770    -0.1770 H     1 <1>   0.0800 
 35 H        1.3640     6.9640    -1.5180 H     1 <1>   0.0800 
 36 H        2.6940     7.2420    -0.3990 H     1 <1>   0.0800 
 37 H        2.8850     3.6150    -1.1220 H     1 <1>   0.0800 
 38 H        4.1560     3.9910    -0.0020 H     1 <1>   0.0800 
 39 H        3.3920     5.2700    -0.8870 H     1 <1>   0.0800 
 40 H        1.6910     2.3560     0.7610 H     1 <1>   0.0800 
 41 H        1.3390     3.1730     2.2650 H     1 <1>   0.0800 
 42 H        2.9810     2.7820     1.8440 H     1 <1>   0.0800 
 43 H       -0.0580     9.2060     1.3350 H     1 <1>   0.0800 
 44 H       -0.9640     9.1780    -0.1580 H     1 <1>   0.0800 
 45 H        1.0330     9.2170    -1.3600 H     1 <1>   0.0800 
 46 H        1.8920     9.3370     0.1550 H     1 <1>   0.0800 
@<TRIPOS>BOND
  1   1   2  1   
  2   2   3  ar  
  3   2   4  ar  
  4   3   5  ar  
  5   3   6  1   
  6   4   7  ar  
  7   4   8  1   
  8   5   9  ar  
  9   6  10  1   
 10   6  21  1   
 11   7   9  ar  
 12   7  22  1   
 13   8  23  1   
 14   8  24  1   
 15   8  25  1   
 16   9  11  1   
 17  10  12  1   
 18  10  26  1   
 19  10  27  1   
 20  11  28  1   
 21  11  29  1   
 22  12  13  1   
 23  12  14  1   
 24  12  30  1   
 25  13  15  1   
 26  13  16  1   
 27  13  31  1   
 28  14  17  1   
 29  14  18  1   
 30  14  32  1   
 31  15  19  1   
 32  15  33  1   
 33  15  34  1   
 34  16  20  1   
 35  16  35  1   
 36  16  36  1   
 37  17  37  1   
 38  17  38  1   
 39  17  39  1   
 40  18  40  1   
 41  18  41  1   
 42  18  42  1   
 43  19  20  1   
 44  19  43  1   
 45  19  44  1   
 46  20  45  1   
 47  20  46  1   
@<TRIPOS>SUBSTRUCTURE
  1 ****   6 GROUP 4 **** **** 0

# MOE 2024.06 (io_trps.svl 2023.06)
