@<TRIPOS>MOLECULE
NONAME
47 48 1 0 0 
SMALL
USER_CHARGES


@<TRIPOS>ATOM
  1 F       -1.4190    -0.4590    -1.2750 F     1 <1>  -0.1900 
  2 C       -1.9720     0.6800    -0.9640 C.ar  1 <1>   0.1900 
  3 C       -3.0340     0.6880    -0.0820 C.ar  1 <1>  -0.1500 
  4 C       -1.4670     1.8340    -1.5290 C.ar  1 <1>  -0.1500 
  5 C       -3.6260     1.9000     0.2550 C.ar  1 <1>  -0.1440 
  6 C       -2.0460     3.0500    -1.1960 C.ar  1 <1>  -0.1440 
  7 C       -3.1250     3.0700    -0.3170 C.ar  1 <1>  -0.1500 
  8 C       -4.8150     1.9540     1.2320 C.3   1 <1>   1.1640 
  9 C       -1.5040     4.3410    -1.7840 C.3   1 <1>   0.4870 
 10 F       -4.8500     0.9290     2.0710 F     1 <1>  -0.3400 
 11 F       -4.7800     3.0510     1.9810 F     1 <1>  -0.3400 
 12 F       -5.9770     1.9710     0.5960 F     1 <1>  -0.3400 
 13 N       -0.7330     5.0590    -0.7170 N.4   1 <1>  -0.9590 
 14 C       -0.5070     6.5100    -1.1000 C.3   1 <1>   0.3430 
 15 C        0.5260     4.2900    -0.4130 C.3   1 <1>   0.2630 
 16 C        0.1580     7.4200    -0.0050 C.3   1 <1>   0.4230 
 17 N       -0.3690     8.8370     0.0380 N.4   1 <1>  -0.9590 
 18 C        1.6750     7.4780    -0.2310 C.3   1 <1>  -0.2400 
 19 C        0.2390     9.6340     1.1820 C.3   1 <1>   0.3430 
 20 C       -1.8790     8.9510     0.1310 C.3   1 <1>   0.3430 
 21 C       -0.3280    11.0640     1.2690 C.3   1 <1>   0.1200 
 22 C       -2.3460    10.4150     0.2540 C.3   1 <1>   0.1200 
 23 O       -1.7200    11.0200     1.3410 O.3   1 <1>  -0.5600 
 24 H       -3.3820    -0.2480     0.3250 H     1 <1>   0.1500 
 25 H       -0.6420     1.7530    -2.2160 H     1 <1>   0.1500 
 26 H       -3.5990     4.0070    -0.0710 H     1 <1>   0.1500 
 27 H       -2.3330     4.9430    -2.1220 H     1 <1>   0.0800 
 28 H       -0.8720     4.1260    -2.6310 H     1 <1>   0.0800 
 29 H       -1.3320     4.9890     0.1210 H     1 <1>   0.4500 
 30 H       -1.4610     6.9360    -1.3560 H     1 <1>   0.0800 
 31 H        0.1050     6.5460    -1.9870 H     1 <1>   0.0800 
 32 H        1.1820     4.2800    -1.2700 H     1 <1>   0.0800 
 33 H        0.2900     3.2690    -0.1560 H     1 <1>   0.0800 
 34 H        1.0500     4.7260     0.4210 H     1 <1>   0.0800 
 35 H       -0.0340     6.9660     0.9540 H     1 <1>   0.0800 
 36 H       -0.0790     9.3330    -0.8180 H     1 <1>   0.4500 
 37 H        1.9150     8.0620    -1.1030 H     1 <1>   0.0800 
 38 H        2.0840     6.4960    -0.3780 H     1 <1>   0.0800 
 39 H        2.1850     7.8890     0.6210 H     1 <1>   0.0800 
 40 H        1.3070     9.7030     1.0640 H     1 <1>   0.0800 
 41 H        0.0430     9.1400     2.1200 H     1 <1>   0.0800 
 42 H       -2.2340     8.4190     0.9990 H     1 <1>   0.0800 
 43 H       -2.3440     8.5210    -0.7390 H     1 <1>   0.0800 
 44 H       -0.0400    11.6570     0.4180 H     1 <1>   0.0800 
 45 H        0.0290    11.5520     2.1600 H     1 <1>   0.0800 
 46 H       -3.4080    10.4550     0.4290 H     1 <1>   0.0800 
 47 H       -2.1260    10.9800    -0.6360 H     1 <1>   0.0800 
@<TRIPOS>BOND
  1   1   2  1   
  2   2   3  ar  
  3   2   4  ar  
  4   3   5  ar  
  5   3  24  1   
  6   4   6  ar  
  7   4  25  1   
  8   5   7  ar  
  9   5   8  1   
 10   6   7  ar  
 11   6   9  1   
 12   7  26  1   
 13   8  10  1   
 14   8  11  1   
 15   8  12  1   
 16   9  13  1   
 17   9  27  1   
 18   9  28  1   
 19  13  14  1   
 20  13  15  1   
 21  13  29  1   
 22  14  16  1   
 23  14  30  1   
 24  14  31  1   
 25  15  32  1   
 26  15  33  1   
 27  15  34  1   
 28  16  17  1   
 29  16  18  1   
 30  16  35  1   
 31  17  19  1   
 32  17  20  1   
 33  17  36  1   
 34  18  37  1   
 35  18  38  1   
 36  18  39  1   
 37  19  21  1   
 38  19  40  1   
 39  19  41  1   
 40  20  22  1   
 41  20  42  1   
 42  20  43  1   
 43  21  23  1   
 44  21  44  1   
 45  21  45  1   
 46  22  23  1   
 47  22  46  1   
 48  22  47  1   
@<TRIPOS>SUBSTRUCTURE
  1 ****  13 GROUP 4 **** **** 0

# MOE 2024.06 (io_trps.svl 2023.06)
