@<TRIPOS>MOLECULE
NONAME
56 59 1 0 0 
SMALL
USER_CHARGES


@<TRIPOS>ATOM
  1 O       -1.5290    -0.8990    -1.2180 O.3   1 <1>  -0.3630 
  2 C       -1.1450    -2.1530    -0.8550 C.ar  1 <1>   0.0830 
  3 C       -2.8620    -0.4600    -1.0830 C.3   1 <1>   0.0400 
  4 C        0.1930    -2.5370    -1.0900 C.ar  1 <1>   0.0830 
  5 C       -2.0020    -3.0640    -0.2800 C.ar  1 <1>  -0.1500 
  6 O        1.0920    -1.6930    -1.6530 O.3   1 <1>  -0.3630 
  7 C        0.6170    -3.7980    -0.7650 C.ar  1 <1>  -0.1500 
  8 C       -1.5910    -4.3590     0.0700 C.ar  1 <1>   0.3100 
  9 C        1.4930    -0.5820    -0.8830 C.3   1 <1>   0.0400 
 10 C       -0.2490    -4.7390    -0.1730 C.ar  1 <1>   0.0000 
 11 N       -2.5140    -5.1830     0.6240 N.ar  1 <1>  -0.6200 
 12 C        0.1420    -6.0430     0.2020 C.ar  1 <1>  -0.1430 
 13 C       -2.1180    -6.3770     0.9650 C.ar  1 <1>   0.4100 
 14 C       -0.8030    -6.8370     0.7710 C.ar  1 <1>  -0.1500 
 15 C        1.5630    -6.5440    -0.0090 C.3   1 <1>  -0.0970 
 16 N       -3.0490    -7.2310     1.5270 N.pl3 1 <1>  -0.8380 
 17 C       -4.0540    -6.6980     2.4760 C.3   1 <1>   0.2090 
 18 C       -3.4290    -8.4510     0.7860 C.3   1 <1>   0.2090 
 19 C       -5.3490    -6.4030     1.7200 C.3   1 <1>  -0.1600 
 20 C       -4.6880    -8.1440    -0.0190 C.3   1 <1>  -0.1600 
 21 C       -5.7970    -7.6200     0.9070 C.3   1 <1>   0.4230 
 22 N       -7.0470    -7.2750     0.1620 N.4   1 <1>  -0.9590 
 23 C       -7.7430    -8.4290    -0.4560 C.3   1 <1>   0.3430 
 24 C       -6.8980    -6.2630    -0.9180 C.3   1 <1>   0.3430 
 25 C       -8.7260    -7.7940    -1.4310 C.3   1 <1>  -0.1600 
 26 C       -8.1790    -6.3950    -1.7310 C.3   1 <1>  -0.1600 
 27 H       -2.9200     0.5470    -1.4560 H     1 <1>   0.0800 
 28 H       -3.1330    -0.4800    -0.0430 H     1 <1>   0.0800 
 29 H       -3.5010    -1.1010    -1.6630 H     1 <1>   0.0800 
 30 H       -3.0250    -2.8230    -0.0740 H     1 <1>   0.1500 
 31 H        1.6360    -4.0630    -0.9680 H     1 <1>   0.1500 
 32 H        2.3180    -0.1080    -1.3830 H     1 <1>   0.0800 
 33 H        1.7960    -0.9230     0.0910 H     1 <1>   0.0800 
 34 H        0.6730     0.1080    -0.8000 H     1 <1>   0.0800 
 35 H       -0.5770    -7.8340     1.0970 H     1 <1>   0.1500 
 36 H        2.2570    -5.9250     0.5310 H     1 <1>   0.0800 
 37 H        1.8110    -6.5200    -1.0550 H     1 <1>   0.0800 
 38 H        1.6690    -7.5550     0.3410 H     1 <1>   0.0800 
 39 H       -3.6800    -5.7970     2.9360 H     1 <1>   0.0800 
 40 H       -4.2240    -7.4230     3.2550 H     1 <1>   0.0800 
 41 H       -3.6010    -9.2540     1.4830 H     1 <1>   0.0800 
 42 H       -2.6330    -8.7450     0.1210 H     1 <1>   0.0800 
 43 H       -5.1640    -5.5620     1.0770 H     1 <1>   0.0800 
 44 H       -6.1050    -6.1300     2.4330 H     1 <1>   0.0800 
 45 H       -4.9960    -9.0440    -0.5150 H     1 <1>   0.0800 
 46 H       -4.4210    -7.4110    -0.7570 H     1 <1>   0.0800 
 47 H       -6.0270    -8.4050     1.6100 H     1 <1>   0.0800 
 48 H       -7.7010    -6.8700     0.8420 H     1 <1>   0.4500 
 49 H       -8.2450    -9.0370     0.2800 H     1 <1>   0.0800 
 50 H       -7.0400    -9.0340    -1.0050 H     1 <1>   0.0800 
 51 H       -6.0550    -6.5060    -1.5440 H     1 <1>   0.0800 
 52 H       -6.7730    -5.2680    -0.5230 H     1 <1>   0.0800 
 53 H       -9.7000    -7.7280    -0.9760 H     1 <1>   0.0800 
 54 H       -8.8070    -8.3910    -2.3230 H     1 <1>   0.0800 
 55 H       -7.9720    -6.2620    -2.7790 H     1 <1>   0.0800 
 56 H       -8.8840    -5.6410    -1.4250 H     1 <1>   0.0800 
@<TRIPOS>BOND
  1   1   2  1   
  2   1   3  1   
  3   2   4  ar  
  4   2   5  ar  
  5   3  27  1   
  6   3  28  1   
  7   3  29  1   
  8   4   6  1   
  9   4   7  ar  
 10   5   8  ar  
 11   5  30  1   
 12   6   9  1   
 13   7  10  ar  
 14   7  31  1   
 15   8  10  ar  
 16   8  11  ar  
 17   9  32  1   
 18   9  33  1   
 19   9  34  1   
 20  10  12  ar  
 21  11  13  ar  
 22  12  14  ar  
 23  12  15  1   
 24  13  14  ar  
 25  13  16  1   
 26  14  35  1   
 27  15  36  1   
 28  15  37  1   
 29  15  38  1   
 30  16  17  1   
 31  16  18  1   
 32  17  19  1   
 33  17  39  1   
 34  17  40  1   
 35  18  20  1   
 36  18  41  1   
 37  18  42  1   
 38  19  21  1   
 39  19  43  1   
 40  19  44  1   
 41  20  21  1   
 42  20  45  1   
 43  20  46  1   
 44  21  22  1   
 45  21  47  1   
 46  22  23  1   
 47  22  24  1   
 48  22  48  1   
 49  23  25  1   
 50  23  49  1   
 51  23  50  1   
 52  24  26  1   
 53  24  51  1   
 54  24  52  1   
 55  25  26  1   
 56  25  53  1   
 57  25  54  1   
 58  26  55  1   
 59  26  56  1   
@<TRIPOS>SUBSTRUCTURE
  1 ****  11 GROUP 4 **** **** 0

# MOE 2024.06 (io_trps.svl 2023.06)
