@<TRIPOS>MOLECULE
NONAME
47 49 1 0 0 
SMALL
USER_CHARGES


@<TRIPOS>ATOM
  1 O       -0.1750     0.5290     0.0880 O.2   1 <1>  -0.5700 
  2 C       -1.0740     1.3470     0.1050 C.2   1 <1>   0.7160 
  3 N       -2.3810     0.9090     0.1860 N.am  1 <1>  -0.6600 
  4 C       -0.7400     2.7490     0.0600 C.2   1 <1>  -0.0860 
  5 C       -2.7160    -0.5550     0.1810 C.3   1 <1>   0.1400 
  6 C       -3.5120     1.7900     0.6020 C.3   1 <1>   0.1400 
  7 C        0.1030     3.4380     0.8750 C.2   1 <1>  -0.0100 
  8 C       -1.1960     3.7190    -0.8570 C.2   1 <1>  -0.1500 
  9 C       -3.5480    -0.9710    -1.0420 C.3   1 <1>   0.1400 
 10 C       -4.3970     2.2290    -0.5740 C.3   1 <1>  -0.1600 
 11 O        0.1640     4.7050     0.5420 O.3   1 <1>  -0.2800 
 12 C       -0.6130     4.8830    -0.5050 C.2   1 <1>  -0.0100 
 13 N       -4.7890    -0.1470    -1.1880 N.am  1 <1>  -0.6600 
 14 C       -4.5360     1.2180    -1.7180 C.3   1 <1>   0.1400 
 15 C       -6.0780    -0.5790    -0.9360 C.2   1 <1>   0.5690 
 16 O       -7.0080     0.1780    -1.1150 O.2   1 <1>  -0.5700 
 17 C       -6.3520    -2.0020    -0.3760 C.3   1 <1>   0.4040 
 18 O       -5.9960    -2.9940    -1.3210 O.3   1 <1>  -0.5600 
 19 C       -7.7940    -2.2360     0.0990 C.ar  1 <1>  -0.1430 
 20 C       -6.0240    -4.3100    -0.8570 C.3   1 <1>   0.0400 
 21 C       -8.0730    -2.3770     1.4530 C.ar  1 <1>  -0.1500 
 22 C       -8.8350    -2.3240    -0.8140 C.ar  1 <1>  -0.1500 
 23 C       -9.3690    -2.6050     1.8830 C.ar  1 <1>  -0.1500 
 24 C      -10.1310    -2.5510    -0.3860 C.ar  1 <1>  -0.1500 
 25 C      -10.3990    -2.6930     0.9630 C.ar  1 <1>  -0.1500 
 26 H       -1.8170    -1.1470     0.1900 H     1 <1>   0.0800 
 27 H       -3.2570    -0.7980     1.0770 H     1 <1>   0.0800 
 28 H       -4.1240     1.2520     1.3050 H     1 <1>   0.0800 
 29 H       -3.1390     2.6610     1.1160 H     1 <1>   0.0800 
 30 H        0.6870     3.0840     1.7070 H     1 <1>   0.1500 
 31 H       -1.8660     3.5280    -1.6750 H     1 <1>   0.1500 
 32 H       -3.7890    -2.0140    -0.9580 H     1 <1>   0.0800 
 33 H       -2.9450    -0.8650    -1.9270 H     1 <1>   0.0800 
 34 H       -4.0230     3.1500    -0.9770 H     1 <1>   0.0800 
 35 H       -5.3790     2.4460    -0.1940 H     1 <1>   0.0800 
 36 H       -0.6860     5.8660    -0.9360 H     1 <1>   0.1500 
 37 H       -3.6350     1.2150    -2.3080 H     1 <1>   0.0800 
 38 H       -5.3440     1.5150    -2.3650 H     1 <1>   0.0800 
 39 H       -5.6980    -2.1270     0.4650 H     1 <1>   0.0800 
 40 H       -5.6400    -4.9460    -1.6350 H     1 <1>   0.0800 
 41 H       -7.0390    -4.5950    -0.6370 H     1 <1>   0.0800 
 42 H       -5.4080    -4.3980     0.0210 H     1 <1>   0.0800 
 43 H       -7.2860    -2.3100     2.1820 H     1 <1>   0.1500 
 44 H       -8.6310    -2.2090    -1.8660 H     1 <1>   0.1500 
 45 H       -9.5770    -2.7110     2.9330 H     1 <1>   0.1500 
 46 H      -10.9290    -2.6140    -1.1050 H     1 <1>   0.1500 
 47 H      -11.4070    -2.8680     1.2960 H     1 <1>   0.1500 
@<TRIPOS>BOND
  1   1   2  2   
  2   2   3  am  
  3   2   4  1   
  4   3   5  1   
  5   3   6  1   
  6   4   7  2   
  7   4   8  1   
  8   5   9  1   
  9   5  26  1   
 10   5  27  1   
 11   6  10  1   
 12   6  28  1   
 13   6  29  1   
 14   7  11  1   
 15   7  30  1   
 16   8  12  2   
 17   8  31  1   
 18   9  13  1   
 19   9  32  1   
 20   9  33  1   
 21  10  14  1   
 22  10  34  1   
 23  10  35  1   
 24  11  12  1   
 25  12  36  1   
 26  13  14  1   
 27  13  15  am  
 28  14  37  1   
 29  14  38  1   
 30  15  16  2   
 31  15  17  1   
 32  17  18  1   
 33  17  19  1   
 34  17  39  1   
 35  18  20  1   
 36  19  21  ar  
 37  19  22  ar  
 38  20  40  1   
 39  20  41  1   
 40  20  42  1   
 41  21  23  ar  
 42  21  43  1   
 43  22  24  ar  
 44  22  44  1   
 45  23  25  ar  
 46  23  45  1   
 47  24  25  ar  
 48  24  46  1   
 49  25  47  1   
@<TRIPOS>SUBSTRUCTURE
  1 ****  13 GROUP 4 **** **** 0

# MOE 2024.06 (io_trps.svl 2023.06)
