@<TRIPOS>MOLECULE
NONAME
60 63 1 0 0 
SMALL
USER_CHARGES


@<TRIPOS>ATOM
  1 O        2.4120     1.7530     0.7100 O.3   1 <1>  -0.0190 
  2 N        3.0250     0.6890     0.2920 N.2   1 <1>  -0.4100 
  3 C        1.1220     1.6860     0.5140 C.2   1 <1>  -0.0400 
  4 C        2.1120    -0.0930    -0.1620 C.2   1 <1>   0.1080 
  5 C        0.8550     0.4970    -0.0460 C.2   1 <1>  -0.1500 
  6 C        0.2380     2.8540     0.9090 C.3   1 <1>   0.0200 
  7 C        2.3770    -1.4650    -0.7420 C.3   1 <1>  -0.0590 
  8 C        0.5320     4.0790     0.0170 C.3   1 <1>  -0.0800 
  9 C       -0.2950     5.3380     0.2940 C.3   1 <1>   0.2000 
 10 C        1.9910     4.5540     0.0980 C.3   1 <1>   0.3430 
 11 O       -0.3970     5.5360     1.6680 O.3   1 <1>  -0.6800 
 12 C        0.6150     6.4410    -0.2440 C.3   1 <1>   0.3430 
 13 N        1.9590     6.0420     0.2750 N.4   1 <1>  -0.9590 
 14 C        3.1450     6.7870    -0.2320 C.3   1 <1>   0.4230 
 15 C        4.4190     6.2510     0.4340 C.3   1 <1>  -0.1600 
 16 C        2.9880     8.2830     0.0650 C.3   1 <1>  -0.1600 
 17 C        5.6490     7.0670     0.0350 C.3   1 <1>   0.3430 
 18 C        4.2390     9.0710    -0.3240 C.3   1 <1>   0.3430 
 19 N        5.4360     8.5050     0.3640 N.4   1 <1>  -0.9590 
 20 C        6.6820     9.2790     0.0350 C.3   1 <1>   0.3430 
 21 C        6.6790    10.6800     0.6500 C.3   1 <1>  -0.0170 
 22 C        8.0170    11.3270     0.3550 C.ar  1 <1>  -0.1430 
 23 C        9.0760    11.1740     1.2380 C.ar  1 <1>  -0.1500 
 24 C        8.1990    12.0640    -0.8060 C.ar  1 <1>  -0.1500 
 25 C       10.3050    11.7460     0.9590 C.ar  1 <1>  -0.1500 
 26 C        9.4280    12.6360    -1.0840 C.ar  1 <1>  -0.1500 
 27 C       10.4820    12.4760    -0.2030 C.ar  1 <1>  -0.1500 
 28 H       -0.0800     0.0650    -0.3520 H     1 <1>   0.1500 
 29 H       -0.7920     2.5650     0.8000 H     1 <1>   0.0800 
 30 H        0.4150     3.0780     1.9470 H     1 <1>   0.0800 
 31 H        2.0950    -1.4850    -1.7780 H     1 <1>   0.0800 
 32 H        1.8100    -2.2040    -0.2060 H     1 <1>   0.0800 
 33 H        3.4220    -1.7040    -0.6600 H     1 <1>   0.0800 
 34 H        0.3550     3.7850    -1.0030 H     1 <1>   0.0800 
 35 H       -1.2780     5.3390    -0.1490 H     1 <1>   0.0800 
 36 H        2.5090     4.2800    -0.8070 H     1 <1>   0.0800 
 37 H        2.4920     4.0960     0.9370 H     1 <1>   0.0800 
 38 H       -1.1700     5.0600     2.0430 H     1 <1>   0.4000 
 39 H        0.3040     7.4060     0.1200 H     1 <1>   0.0800 
 40 H        0.6070     6.4330    -1.3220 H     1 <1>   0.0800 
 41 H        1.8600     6.1790     1.2950 H     1 <1>   0.4500 
 42 H        3.2220     6.6470    -1.2990 H     1 <1>   0.0800 
 43 H        4.3220     6.2680     1.5050 H     1 <1>   0.0800 
 44 H        4.5960     5.2350     0.1300 H     1 <1>   0.0800 
 45 H        2.1640     8.6850    -0.4970 H     1 <1>   0.0800 
 46 H        2.7890     8.4410     1.1110 H     1 <1>   0.0800 
 47 H        5.8320     6.9570    -1.0220 H     1 <1>   0.0800 
 48 H        6.5130     6.6930     0.5630 H     1 <1>   0.0800 
 49 H        4.1070    10.1050    -0.0490 H     1 <1>   0.0800 
 50 H        4.3800     9.0270    -1.3930 H     1 <1>   0.0800 
 51 H        5.3040     8.5850     1.3840 H     1 <1>   0.4500 
 52 H        7.5430     8.7530     0.4170 H     1 <1>   0.0800 
 53 H        6.8000     9.3610    -1.0340 H     1 <1>   0.0800 
 54 H        5.8980    11.2870     0.2290 H     1 <1>   0.0800 
 55 H        6.5400    10.6250     1.7150 H     1 <1>   0.0800 
 56 H        8.9610    10.6150     2.1500 H     1 <1>   0.1500 
 57 H        7.3930    12.2070    -1.5040 H     1 <1>   0.1500 
 58 H       11.1250    11.6270     1.6460 H     1 <1>   0.1500 
 59 H        9.5660    13.2090    -1.9850 H     1 <1>   0.1500 
 60 H       11.4380    12.9220    -0.4190 H     1 <1>   0.1500 
@<TRIPOS>BOND
  1   1   2  1   
  2   1   3  1   
  3   2   4  2   
  4   3   5  2   
  5   3   6  1   
  6   4   5  1   
  7   4   7  1   
  8   5  28  1   
  9   6   8  1   
 10   6  29  1   
 11   6  30  1   
 12   7  31  1   
 13   7  32  1   
 14   7  33  1   
 15   8   9  1   
 16   8  10  1   
 17   8  34  1   
 18   9  11  1   
 19   9  12  1   
 20   9  35  1   
 21  10  13  1   
 22  10  36  1   
 23  10  37  1   
 24  11  38  1   
 25  12  13  1   
 26  12  39  1   
 27  12  40  1   
 28  13  14  1   
 29  13  41  1   
 30  14  15  1   
 31  14  16  1   
 32  14  42  1   
 33  15  17  1   
 34  15  43  1   
 35  15  44  1   
 36  16  18  1   
 37  16  45  1   
 38  16  46  1   
 39  17  19  1   
 40  17  47  1   
 41  17  48  1   
 42  18  19  1   
 43  18  49  1   
 44  18  50  1   
 45  19  20  1   
 46  19  51  1   
 47  20  21  1   
 48  20  52  1   
 49  20  53  1   
 50  21  22  1   
 51  21  54  1   
 52  21  55  1   
 53  22  23  ar  
 54  22  24  ar  
 55  23  25  ar  
 56  23  56  1   
 57  24  26  ar  
 58  24  57  1   
 59  25  27  ar  
 60  25  58  1   
 61  26  27  ar  
 62  26  59  1   
 63  27  60  1   
@<TRIPOS>SUBSTRUCTURE
  1 ****  15 GROUP 4 **** **** 0

# MOE 2024.06 (io_trps.svl 2023.06)
