@<TRIPOS>MOLECULE
NONAME
42 44 1 0 0 
SMALL
USER_CHARGES


@<TRIPOS>ATOM
  1 O        2.7400    -1.6730     2.1590 O.2   1 <1>  -0.5700 
  2 C        2.3980    -1.5540     1.0100 C.2   1 <1>   0.5690 
  3 N        2.0910    -0.3520     0.4700 N.am  1 <1>  -0.7300 
  4 C        2.3150    -2.7880     0.1350 C.3   1 <1>  -0.0990 
  5 C        2.1910     0.9320     1.1850 C.3   1 <1>   0.3210 
  6 C        0.8770    -3.3280     0.0520 C.3   1 <1>  -0.1600 
  7 C        3.1280     1.8310     0.4090 C.2   1 <1>  -0.1810 
  8 C        0.7940    -4.6090    -0.7910 C.3   1 <1>   0.0200 
  9 C        2.8750     2.9150    -0.3440 C.2   1 <1>  -0.0400 
 10 C        4.5130     1.6970     0.3230 C.2   1 <1>   0.1080 
 11 C       -0.6280    -5.1320    -0.8630 C.2   1 <1>   0.2980 
 12 O        4.0130     3.3490    -0.8140 O.3   1 <1>  -0.0190 
 13 C        1.6000     3.6480    -0.7050 C.3   1 <1>  -0.0600 
 14 N        5.0140     2.6190    -0.4180 N.2   1 <1>  -0.4100 
 15 C        5.3400     0.6230     1.0000 C.3   1 <1>  -0.0590 
 16 O       -1.5200    -4.4380    -1.5200 O.3   1 <1>  -0.0190 
 17 N       -1.0500    -6.2030    -0.3330 N.2   1 <1>  -0.5650 
 18 N       -2.6110    -5.1270    -1.3950 N.2   1 <1>  -0.4100 
 19 C       -2.3380    -6.1710    -0.6930 C.2   1 <1>   0.5150 
 20 C       -3.2620    -7.2140    -0.3040 C.2   1 <1>   0.1410 
 21 O       -4.5420    -7.1740    -0.6650 O.3   1 <1>  -0.2800 
 22 C       -3.0580    -8.3410     0.4330 C.2   1 <1>  -0.1500 
 23 C       -5.1510    -8.2360    -0.1810 C.2   1 <1>  -0.0100 
 24 C       -4.2850    -9.0040     0.5120 C.2   1 <1>  -0.1500 
 25 H        1.8960    -0.2670    -0.5270 H     1 <1>   0.3700 
 26 H        2.9600    -3.5400     0.5540 H     1 <1>   0.0800 
 27 H        2.6810    -2.5480    -0.8470 H     1 <1>   0.0800 
 28 H        2.5660     0.7850     2.1840 H     1 <1>   0.0800 
 29 H        1.2150     1.3780     1.2530 H     1 <1>   0.0800 
 30 H        0.2350    -2.5750    -0.3720 H     1 <1>   0.0800 
 31 H        0.5230    -3.5400     1.0480 H     1 <1>   0.0800 
 32 H        1.4190    -5.3700    -0.3560 H     1 <1>   0.0800 
 33 H        1.1420    -4.4200    -1.7910 H     1 <1>   0.0800 
 34 H        0.7470     3.1750    -0.2570 H     1 <1>   0.0800 
 35 H        1.4770     3.6540    -1.7730 H     1 <1>   0.0800 
 36 H        1.6580     4.6640    -0.3570 H     1 <1>   0.0800 
 37 H        5.0780     0.5520     2.0390 H     1 <1>   0.0800 
 38 H        6.3850     0.8600     0.9210 H     1 <1>   0.0800 
 39 H        5.1610    -0.3250     0.5270 H     1 <1>   0.0800 
 40 H       -2.1350    -8.6700     0.8760 H     1 <1>   0.1500 
 41 H       -6.2010    -8.3680    -0.3780 H     1 <1>   0.1500 
 42 H       -4.4680    -9.9310     1.0260 H     1 <1>   0.1500 
@<TRIPOS>BOND
  1   1   2  2   
  2   2   3  am  
  3   2   4  1   
  4   3   5  1   
  5   3  25  1   
  6   4   6  1   
  7   4  26  1   
  8   4  27  1   
  9   5   7  1   
 10   5  28  1   
 11   5  29  1   
 12   6   8  1   
 13   6  30  1   
 14   6  31  1   
 15   7   9  2   
 16   7  10  1   
 17   8  11  1   
 18   8  32  1   
 19   8  33  1   
 20   9  12  1   
 21   9  13  1   
 22  10  14  2   
 23  10  15  1   
 24  11  16  1   
 25  11  17  2   
 26  12  14  1   
 27  13  34  1   
 28  13  35  1   
 29  13  36  1   
 30  15  37  1   
 31  15  38  1   
 32  15  39  1   
 33  16  18  1   
 34  17  19  1   
 35  18  19  2   
 36  19  20  1   
 37  20  21  1   
 38  20  22  2   
 39  21  23  1   
 40  22  24  1   
 41  22  40  1   
 42  23  24  2   
 43  23  41  1   
 44  24  42  1   
@<TRIPOS>SUBSTRUCTURE
  1 ****   6 GROUP 4 **** **** 0

# MOE 2024.06 (io_trps.svl 2023.06)
