@<TRIPOS>MOLECULE
NONAME
57 61 1 0 0 
SMALL
USER_CHARGES


@<TRIPOS>ATOM
  1 F        0.2100    -0.2270    -0.0390 F     1 <1>  -0.1900 
  2 C        0.5290    -1.4820    -0.2770 C.ar  1 <1>   0.1900 
  3 C       -0.3590    -2.5250     0.0130 C.ar  1 <1>   0.4100 
  4 C        1.7610    -1.7660    -0.8180 C.ar  1 <1>   0.1660 
  5 N        0.0150    -3.7700    -0.2410 N.ar  1 <1>  -0.6200 
  6 N       -1.6300    -2.3840     0.5660 N.pl3 1 <1>  -0.8380 
  7 N        2.1180    -3.0160    -1.0660 N.ar  1 <1>  -0.6200 
  8 C        2.7800    -0.6860    -1.1610 C.3   1 <1>  -0.0170 
  9 C        1.2190    -3.9360    -0.7590 C.ar  1 <1>   0.4700 
 10 C       -2.6410    -3.4830     0.4980 C.3   1 <1>   0.2090 
 11 C       -2.3170    -1.0970     0.8410 C.3   1 <1>   0.2090 
 12 C        3.8180    -0.5210    -0.0440 C.3   1 <1>  -0.2400 
 13 C       -3.9850    -2.8340     0.8340 C.3   1 <1>   0.2800 
 14 C       -3.6780    -1.4720     1.4460 C.3   1 <1>  -0.0800 
 15 O       -4.7240    -2.4630    -0.2770 O.3   1 <1>  -0.5600 
 16 C       -5.0290    -3.6030     1.6460 C.3   1 <1>  -0.1600 
 17 C       -4.9450    -0.6730     1.0640 C.3   1 <1>  -0.0800 
 18 C       -5.7430    -1.7580     0.3250 C.3   1 <1>   0.2000 
 19 C       -6.2940    -2.8080     1.3010 C.3   1 <1>  -0.1600 
 20 C       -4.7030     0.5550     0.1750 C.3   1 <1>   0.1400 
 21 N       -5.9770     1.2650    -0.0770 N.am  1 <1>  -0.7300 
 22 C       -6.5360     2.1970     0.7500 C.2   1 <1>   0.7160 
 23 O       -5.9810     2.4380     1.8040 O.2   1 <1>  -0.5700 
 24 C       -7.7620     2.8580     0.3600 C.2   1 <1>  -0.0860 
 25 C       -8.3920     3.9450     0.8950 C.2   1 <1>  -0.0400 
 26 C       -8.5990     2.4800    -0.7150 C.2   1 <1>  -0.1500 
 27 O       -9.4910     4.2240     0.2380 O.3   1 <1>  -0.2800 
 28 C       -8.0410     4.8410     2.0660 C.3   1 <1>  -0.0600 
 29 C       -9.6260     3.3500    -0.7310 C.2   1 <1>  -0.0400 
 30 C      -10.8310     3.4580    -1.6390 C.3   1 <1>  -0.0600 
 31 H        3.2790    -0.9560    -2.0750 H     1 <1>   0.0800 
 32 H        2.2860     0.2540    -1.3310 H     1 <1>   0.0800 
 33 H        1.5050    -4.9550    -0.9570 H     1 <1>   0.1500 
 34 H       -2.6670    -3.9320    -0.4790 H     1 <1>   0.0800 
 35 H       -2.3910    -4.2260     1.2340 H     1 <1>   0.0800 
 36 H       -1.7470    -0.4980     1.5300 H     1 <1>   0.0800 
 37 H       -2.4210    -0.5760    -0.0930 H     1 <1>   0.0800 
 38 H        4.3400    -1.4490     0.1130 H     1 <1>   0.0800 
 39 H        3.3350    -0.2360     0.8740 H     1 <1>   0.0800 
 40 H        4.5330     0.2370    -0.3110 H     1 <1>   0.0800 
 41 H       -3.5700    -1.5560     2.5130 H     1 <1>   0.0800 
 42 H       -5.1000    -4.6170     1.2920 H     1 <1>   0.0800 
 43 H       -4.8050    -3.5990     2.6980 H     1 <1>   0.0800 
 44 H       -5.4640    -0.3570     1.9530 H     1 <1>   0.0800 
 45 H       -6.4560    -1.4010    -0.3970 H     1 <1>   0.0800 
 46 H       -6.7500    -2.3540     2.1630 H     1 <1>   0.0800 
 47 H       -7.0150    -3.4310     0.8010 H     1 <1>   0.0800 
 48 H       -4.2770     0.2580    -0.7690 H     1 <1>   0.0800 
 49 H       -4.0170     1.2270     0.6650 H     1 <1>   0.0800 
 50 H       -6.4070     1.1120    -0.9880 H     1 <1>   0.3700 
 51 H       -8.4340     1.6510    -1.3780 H     1 <1>   0.1500 
 52 H       -7.1080     4.5560     2.5130 H     1 <1>   0.0800 
 53 H       -8.8140     4.7800     2.8100 H     1 <1>   0.0800 
 54 H       -7.9640     5.8590     1.7290 H     1 <1>   0.0800 
 55 H      -10.8110     2.6810    -2.3810 H     1 <1>   0.0800 
 56 H      -10.8300     4.4140    -2.1300 H     1 <1>   0.0800 
 57 H      -11.7310     3.3660    -1.0580 H     1 <1>   0.0800 
@<TRIPOS>BOND
  1   1   2  1   
  2   2   3  ar  
  3   2   4  ar  
  4   3   5  ar  
  5   3   6  1   
  6   4   7  ar  
  7   4   8  1   
  8   5   9  ar  
  9   6  10  1   
 10   6  11  1   
 11   7   9  ar  
 12   8  12  1   
 13   8  31  1   
 14   8  32  1   
 15   9  33  1   
 16  10  13  1   
 17  10  34  1   
 18  10  35  1   
 19  11  14  1   
 20  11  36  1   
 21  11  37  1   
 22  12  38  1   
 23  12  39  1   
 24  12  40  1   
 25  13  14  1   
 26  13  15  1   
 27  13  16  1   
 28  14  17  1   
 29  14  41  1   
 30  15  18  1   
 31  16  19  1   
 32  16  42  1   
 33  16  43  1   
 34  17  18  1   
 35  17  20  1   
 36  17  44  1   
 37  18  19  1   
 38  18  45  1   
 39  19  46  1   
 40  19  47  1   
 41  20  21  1   
 42  20  48  1   
 43  20  49  1   
 44  21  22  am  
 45  21  50  1   
 46  22  23  2   
 47  22  24  1   
 48  24  25  2   
 49  24  26  1   
 50  25  27  1   
 51  25  28  1   
 52  26  29  2   
 53  26  51  1   
 54  27  29  1   
 55  28  52  1   
 56  28  53  1   
 57  28  54  1   
 58  29  30  1   
 59  30  55  1   
 60  30  56  1   
 61  30  57  1   
@<TRIPOS>SUBSTRUCTURE
  1 ****  20 GROUP 4 **** **** 0

# MOE 2024.06 (io_trps.svl 2023.06)
