@<TRIPOS>MOLECULE
NONAME
53 55 1 0 0 
SMALL
USER_CHARGES


@<TRIPOS>ATOM
  1 O        0.3480     0.1950    -0.0230 O.3   1 <1>  -0.5600 
  2 C        0.2230     1.5740     0.1680 C.3   1 <1>   0.2950 
  3 C        1.6020    -0.3400     0.2790 C.3   1 <1>   0.2000 
  4 C       -1.2160     1.9590    -0.1810 C.3   1 <1>  -0.1950 
  5 C        1.2320     2.3220    -0.7310 C.3   1 <1>   0.3430 
  6 C        2.6750     0.3040    -0.6320 C.3   1 <1>   0.3430 
  7 C        1.4970    -1.8560     0.0840 C.3   1 <1>  -0.1600 
  8 C       -1.8610     3.1690     0.4220 C.3   1 <1>  -0.2000 
  9 C       -2.3220     1.7920     0.8130 C.3   1 <1>  -0.2000 
 10 N        2.6420     1.8060    -0.5750 N.4   1 <1>  -0.9590 
 11 C        2.7820    -2.6010     0.4830 C.3   1 <1>  -0.1600 
 12 C        3.5610     2.4310    -1.5530 C.3   1 <1>   0.5240 
 13 C        2.6010    -4.1160     0.3350 C.3   1 <1>  -0.1600 
 14 C        3.6780     3.8910    -1.1660 C.2   1 <1>  -0.1810 
 15 C        3.8760    -4.8650     0.7290 C.3   1 <1>  -0.2400 
 16 C        4.3930     4.4460    -0.1480 C.2   1 <1>  -0.3320 
 17 C        3.0330     4.9380    -1.8280 C.2   1 <1>  -0.1500 
 18 N        4.2060     5.7990    -0.1560 N.pl3 1 <1>   0.0480 
 19 C        5.2980     3.7520     0.8620 C.3   1 <1>  -0.0600 
 20 C        3.3690     6.0980    -1.1960 C.2   1 <1>  -0.1320 
 21 C        4.8270     6.7920     0.7550 C.3   1 <1>   0.0160 
 22 C        2.9580     7.4310    -1.5200 C.1   1 <1>   0.5370 
 23 N        2.6340     8.4980    -1.7540 N.1   1 <1>  -0.5570 
 24 H        0.4110     1.7920     1.2050 H     1 <1>   0.0800 
 25 H        1.8150    -0.1330     1.3150 H     1 <1>   0.0800 
 26 H       -1.4580     1.7370    -1.2060 H     1 <1>   0.1000 
 27 H        1.1960     3.3740    -0.4970 H     1 <1>   0.0800 
 28 H        0.9140     2.2030    -1.7530 H     1 <1>   0.0800 
 29 H        2.4930    -0.0260    -1.6410 H     1 <1>   0.0800 
 30 H        3.6480    -0.0540    -0.3380 H     1 <1>   0.0800 
 31 H        0.6860    -2.2190     0.6920 H     1 <1>   0.0800 
 32 H        1.2610    -2.0710    -0.9450 H     1 <1>   0.0800 
 33 H       -1.3500     3.7520     1.1690 H     1 <1>   0.1000 
 34 H       -2.5210     3.7690    -0.1820 H     1 <1>   0.1000 
 35 H       -3.2790     1.4450     0.4630 H     1 <1>   0.1000 
 36 H       -2.0900     1.4230     1.7970 H     1 <1>   0.1000 
 37 H        2.9760     2.1240     0.3440 H     1 <1>   0.4500 
 38 H        3.6050    -2.2920    -0.1380 H     1 <1>   0.0800 
 39 H        3.0260    -2.3770     1.5080 H     1 <1>   0.0800 
 40 H        4.5340     1.9720    -1.5000 H     1 <1>   0.0800 
 41 H        3.1800     2.3340    -2.5570 H     1 <1>   0.0800 
 42 H        1.7900    -4.4490     0.9620 H     1 <1>   0.0800 
 43 H        2.3510    -4.3580    -0.6840 H     1 <1>   0.0800 
 44 H        4.1330    -4.6620     1.7540 H     1 <1>   0.0800 
 45 H        4.6990    -4.5730     0.1000 H     1 <1>   0.0800 
 46 H        3.7260    -5.9250     0.6220 H     1 <1>   0.0800 
 47 H        2.3920     4.8480    -2.6900 H     1 <1>   0.1500 
 48 H        5.3700     2.6980     0.6660 H     1 <1>   0.0800 
 49 H        4.9210     3.8910     1.8600 H     1 <1>   0.0800 
 50 H        6.2910     4.1660     0.8110 H     1 <1>   0.0800 
 51 H        5.1550     6.3140     1.6590 H     1 <1>   0.0800 
 52 H        4.1100     7.5530     1.0070 H     1 <1>   0.0800 
 53 H        5.6690     7.2440     0.2650 H     1 <1>   0.0800 
@<TRIPOS>BOND
  1   1   2  1   
  2   1   3  1   
  3   2   4  1   
  4   2   5  1   
  5   2  24  1   
  6   3   6  1   
  7   3   7  1   
  8   3  25  1   
  9   4   8  1   
 10   4   9  1   
 11   4  26  1   
 12   5  10  1   
 13   5  27  1   
 14   5  28  1   
 15   6  10  1   
 16   6  29  1   
 17   6  30  1   
 18   7  11  1   
 19   7  31  1   
 20   7  32  1   
 21   8   9  1   
 22   8  33  1   
 23   8  34  1   
 24   9  35  1   
 25   9  36  1   
 26  10  12  1   
 27  10  37  1   
 28  11  13  1   
 29  11  38  1   
 30  11  39  1   
 31  12  14  1   
 32  12  40  1   
 33  12  41  1   
 34  13  15  1   
 35  13  42  1   
 36  13  43  1   
 37  14  16  2   
 38  14  17  1   
 39  15  44  1   
 40  15  45  1   
 41  15  46  1   
 42  16  18  1   
 43  16  19  1   
 44  17  20  2   
 45  17  47  1   
 46  18  20  1   
 47  18  21  1   
 48  19  48  1   
 49  19  49  1   
 50  19  50  1   
 51  20  22  1   
 52  21  51  1   
 53  21  52  1   
 54  21  53  1   
 55  22  23  3   
@<TRIPOS>SUBSTRUCTURE
  1 ****  10 GROUP 4 **** **** 0

# MOE 2024.06 (io_trps.svl 2023.06)
