@<TRIPOS>MOLECULE
NONAME
55 58 1 0 0 
SMALL
USER_CHARGES


@<TRIPOS>ATOM
  1 O       -1.1370     1.2670     1.8930 O.2   1 <1>  -0.5700 
  2 C       -1.9440     1.4050     1.0020 C.2   1 <1>   0.5690 
  3 N       -3.1500     0.7420     1.0250 N.am  1 <1>  -0.6600 
  4 C       -1.6050     2.3280    -0.1680 C.3   1 <1>   0.0440 
  5 C       -3.4850    -0.2170     2.1170 C.3   1 <1>   0.1400 
  6 C       -4.2230     0.8440    -0.0040 C.3   1 <1>   0.1400 
  7 C       -0.2250     2.9820    -0.1220 C.ar  1 <1>  -0.1440 
  8 C       -3.7010    -1.6100     1.5200 C.3   1 <1>  -0.1600 
  9 C       -4.4350    -0.5290    -0.6450 C.3   1 <1>  -0.1600 
 10 C       -0.0930     4.3370     0.1400 C.ar  1 <1>  -0.1500 
 11 C        0.9140     2.2270    -0.3530 C.ar  1 <1>  -0.1500 
 12 C       -4.7640    -1.6090     0.4060 C.3   1 <1>   0.4240 
 13 C        1.1580     4.9280     0.1660 C.ar  1 <1>  -0.1500 
 14 C        2.1660     2.8160    -0.3270 C.ar  1 <1>  -0.1500 
 15 O       -5.9380    -1.1850     1.0640 O.3   1 <1>  -0.5600 
 16 C       -4.9350    -3.0230    -0.2220 C.ar  1 <1>  -0.1430 
 17 C        2.2960     4.1710    -0.0660 C.ar  1 <1>  -0.1430 
 18 C       -7.1620    -1.4970     0.4840 C.3   1 <1>   0.1200 
 19 C       -3.8870    -3.6780    -0.8840 C.ar  1 <1>   0.0820 
 20 C       -6.1640    -3.6760    -0.1360 C.ar  1 <1>  -0.1430 
 21 C        3.6660     4.8220    -0.0310 C.3   1 <1>   0.2630 
 22 C       -7.3400    -3.0060     0.5440 C.3   1 <1>  -0.0170 
 23 O       -2.6860    -3.0530    -0.9990 O.3   1 <1>  -0.3630 
 24 C       -4.0810    -4.9500    -1.4200 C.ar  1 <1>  -0.1500 
 25 C       -6.3440    -4.9420    -0.6690 C.ar  1 <1>  -0.1500 
 26 O        3.8070     5.5550    -1.1910 O.3   1 <1>  -0.6800 
 27 C       -1.5190    -3.7200    -1.4290 C.3   1 <1>   0.0400 
 28 C       -5.3040    -5.5800    -1.3100 C.ar  1 <1>  -0.1500 
 29 H       -2.3530     3.0960    -0.2100 H     1 <1>   0.0800 
 30 H       -1.6700     1.7540    -1.0730 H     1 <1>   0.0800 
 31 H       -4.3800     0.1150     2.6150 H     1 <1>   0.0800 
 32 H       -2.6970    -0.2590     2.8490 H     1 <1>   0.0800 
 33 H       -3.9770     1.5610    -0.7640 H     1 <1>   0.0800 
 34 H       -5.1330     1.1690     0.4730 H     1 <1>   0.0800 
 35 H       -4.0030    -2.2940     2.2910 H     1 <1>   0.0800 
 36 H       -2.7550    -1.9500     1.1490 H     1 <1>   0.0800 
 37 H       -3.5370    -0.7840    -1.1710 H     1 <1>   0.0800 
 38 H       -5.2190    -0.4800    -1.3760 H     1 <1>   0.0800 
 39 H       -0.9630     4.9420     0.3280 H     1 <1>   0.1500 
 40 H        0.8270     1.1720    -0.5450 H     1 <1>   0.1500 
 41 H        1.2470     5.9810     0.3680 H     1 <1>   0.1500 
 42 H        3.0370     2.2110    -0.5060 H     1 <1>   0.1500 
 43 H       -7.1800    -1.1420    -0.5310 H     1 <1>   0.0800 
 44 H       -7.9320    -1.0030     1.0490 H     1 <1>   0.0800 
 45 H        4.4490     4.0840     0.0010 H     1 <1>   0.0800 
 46 H        3.7660     5.4890     0.8080 H     1 <1>   0.0800 
 47 H       -8.2590    -3.2720     0.0530 H     1 <1>   0.0800 
 48 H       -7.3980    -3.3220     1.5700 H     1 <1>   0.0800 
 49 H       -3.2950    -5.4690    -1.9320 H     1 <1>   0.1500 
 50 H       -7.2970    -5.4360    -0.5870 H     1 <1>   0.1500 
 51 H        3.2440     5.1440    -1.8760 H     1 <1>   0.4000 
 52 H       -0.6910    -3.0430    -1.3250 H     1 <1>   0.0800 
 53 H       -1.6360    -3.9980    -2.4610 H     1 <1>   0.0800 
 54 H       -1.3630    -4.5860    -0.8100 H     1 <1>   0.0800 
 55 H       -5.4470    -6.5630    -1.7240 H     1 <1>   0.1500 
@<TRIPOS>BOND
  1   1   2  2   
  2   2   3  am  
  3   2   4  1   
  4   3   5  1   
  5   3   6  1   
  6   4   7  1   
  7   4  29  1   
  8   4  30  1   
  9   5   8  1   
 10   5  31  1   
 11   5  32  1   
 12   6   9  1   
 13   6  33  1   
 14   6  34  1   
 15   7  10  ar  
 16   7  11  ar  
 17   8  12  1   
 18   8  35  1   
 19   8  36  1   
 20   9  12  1   
 21   9  37  1   
 22   9  38  1   
 23  10  13  ar  
 24  10  39  1   
 25  11  14  ar  
 26  11  40  1   
 27  12  15  1   
 28  12  16  1   
 29  13  17  ar  
 30  13  41  1   
 31  14  17  ar  
 32  14  42  1   
 33  15  18  1   
 34  16  19  ar  
 35  16  20  ar  
 36  17  21  1   
 37  18  22  1   
 38  18  43  1   
 39  18  44  1   
 40  19  23  1   
 41  19  24  ar  
 42  20  22  1   
 43  20  25  ar  
 44  21  26  1   
 45  21  45  1   
 46  21  46  1   
 47  22  47  1   
 48  22  48  1   
 49  23  27  1   
 50  24  28  ar  
 51  24  49  1   
 52  25  28  ar  
 53  25  50  1   
 54  26  51  1   
 55  27  52  1   
 56  27  53  1   
 57  27  54  1   
 58  28  55  1   
@<TRIPOS>SUBSTRUCTURE
  1 ****   3 GROUP 4 **** **** 0

# MOE 2024.06 (io_trps.svl 2023.06)
