@<TRIPOS>MOLECULE
Untitled Document
51 54 1 0 0 
SMALL
USER_CHARGES


@<TRIPOS>ATOM
  1 CL       0.0020    -0.4260    -1.2490 Cl    1 <1>  -0.1770 
  2 C        0.2320    -1.7870    -0.1680 C.ar  1 <1>   0.1770 
  3 C        1.4700    -2.4400    -0.0840 C.ar  1 <1>   0.0860 
  4 C       -0.8860    -2.1950     0.5580 C.ar  1 <1>   0.0540 
  5 C        2.6750    -1.9940    -0.7690 C.2   1 <1>   0.5440 
  6 C        1.5380    -3.5910     0.7140 C.ar  1 <1>  -0.1440 
  7 C       -2.1550    -1.5050     0.4990 C.2   1 <1>  -0.0540 
  8 C       -0.7690    -3.3160     1.3660 C.ar  1 <1>  -0.1500 
  9 O        2.8390    -0.8320    -1.0800 O.2   1 <1>  -0.5700 
 10 N        3.6860    -2.8930    -1.0260 N.am  1 <1>  -0.6600 
 11 C        0.4250    -4.0000     1.4310 C.ar  1 <1>   0.1770 
 12 C        2.8540    -4.3680     0.7700 C.3   1 <1>  -0.0160 
 13 C       -3.3240    -1.8660    -0.0640 C.2   1 <1>  -0.0400 
 14 C       -2.4870    -0.2750     1.0460 C.2   1 <1>   0.1080 
 15 C        3.5840    -4.3050    -0.5740 C.3   1 <1>   0.1400 
 16 C        4.8960    -2.5340    -1.8280 C.3   1 <1>   0.2780 
 17 CL       0.4890    -5.4090     2.4640 Cl    1 <1>  -0.1770 
 18 O       -4.2650    -0.9670     0.1210 O.3   1 <1>  -0.0190 
 19 C       -3.6730    -3.1150    -0.8480 C.3   1 <1>  -0.0600 
 20 N       -3.7130     0.0040     0.8130 N.2   1 <1>  -0.4100 
 21 C       -1.5480     0.6290     1.8170 C.3   1 <1>  -0.0590 
 22 C        6.1630    -2.6210    -0.9820 C.2   1 <1>  -0.1240 
 23 C        6.9660    -3.7910    -1.1570 C.2   1 <1>   0.6160 
 24 C        6.5500    -1.6560    -0.0910 C.2   1 <1>  -0.1380 
 25 O        6.6900    -4.7060    -1.9210 O.2   1 <1>  -0.5700 
 26 N        8.1080    -3.9140    -0.4210 N.am  1 <1>  -0.5390 
 27 C        7.7440    -1.8490     0.6560 C.2   1 <1>  -0.1500 
 28 C        5.7730    -0.3720     0.1680 C.3   1 <1>  -0.1020 
 29 C        8.5030    -2.9630     0.4840 C.2   1 <1>  -0.0290 
 30 C        9.7870    -3.2290     1.2430 C.3   1 <1>  -0.1020 
 31 H       -1.6120    -3.6550     1.9420 H     1 <1>   0.1500 
 32 H        2.6890    -5.4030     1.0090 H     1 <1>   0.0800 
 33 H        3.4860    -3.9500     1.5340 H     1 <1>   0.0800 
 34 H        4.5600    -4.7430    -0.4620 H     1 <1>   0.0800 
 35 H        3.0450    -4.8700    -1.3150 H     1 <1>   0.0800 
 36 H        4.8000    -1.5390    -2.2250 H     1 <1>   0.0800 
 37 H        4.9570    -3.1920    -2.6770 H     1 <1>   0.0800 
 38 H       -2.8170    -3.7580    -0.9400 H     1 <1>   0.0800 
 39 H       -4.0080    -2.8400    -1.8320 H     1 <1>   0.0800 
 40 H       -4.4610    -3.6490    -0.3490 H     1 <1>   0.0800 
 41 H       -1.0170     0.0630     2.5600 H     1 <1>   0.0800 
 42 H       -2.1080     1.4050     2.3060 H     1 <1>   0.0800 
 43 H       -0.8440     1.0820     1.1440 H     1 <1>   0.0800 
 44 H        8.6440    -4.7630    -0.5950 H     1 <1>   0.3700 
 45 H        8.0320    -1.0900     1.3620 H     1 <1>   0.1500 
 46 H        6.4220     0.3990     0.5420 H     1 <1>   0.0800 
 47 H        5.0000    -0.5540     0.8930 H     1 <1>   0.0800 
 48 H        5.3190    -0.0020    -0.7320 H     1 <1>   0.0800 
 49 H        9.6970    -4.1390     1.8090 H     1 <1>   0.0800 
 50 H        9.9990    -2.4230     1.9220 H     1 <1>   0.0800 
 51 H       10.6080    -3.3230     0.5550 H     1 <1>   0.0800 
@<TRIPOS>BOND
  1   1   2  1   
  2   2   3  ar  
  3   2   4  ar  
  4   3   5  1   
  5   3   6  ar  
  6   4   7  1   
  7   4   8  ar  
  8   5   9  2   
  9   5  10  am  
 10   6  11  ar  
 11   6  12  1   
 12   7  13  2   
 13   7  14  1   
 14   8  11  ar  
 15   8  31  1   
 16  10  15  1   
 17  10  16  1   
 18  11  17  1   
 19  12  15  1   
 20  12  32  1   
 21  12  33  1   
 22  13  18  1   
 23  13  19  1   
 24  14  20  2   
 25  14  21  1   
 26  15  34  1   
 27  15  35  1   
 28  16  22  1   
 29  16  36  1   
 30  16  37  1   
 31  18  20  1   
 32  19  38  1   
 33  19  39  1   
 34  19  40  1   
 35  21  41  1   
 36  21  42  1   
 37  21  43  1   
 38  22  23  1   
 39  22  24  2   
 40  23  25  2   
 41  23  26  am  
 42  24  27  1   
 43  24  28  1   
 44  26  29  1   
 45  26  44  1   
 46  27  29  2   
 47  27  45  1   
 48  28  46  1   
 49  28  47  1   
 50  28  48  1   
 51  29  30  1   
 52  30  49  1   
 53  30  50  1   
 54  30  51  1   
@<TRIPOS>SUBSTRUCTURE
  1 ****   3 GROUP 4 **** **** 0

# MOE 2024.06 (io_trps.svl 2023.06)
