@<TRIPOS>MOLECULE
NONAME
47 49 1 0 0 
SMALL
USER_CHARGES


@<TRIPOS>ATOM
  1 S       -1.2170    -0.5040     0.1630 S.3   1 <1>  -0.3320 
  2 C       -0.5920     1.1650     0.4270 C.ar  1 <1>   0.1020 
  3 C       -1.7220    -0.6100    -1.6270 C.3   1 <1>   0.1310 
  4 C       -0.1310     1.4690     1.6940 C.ar  1 <1>  -0.1500 
  5 C       -0.5680     2.1130    -0.5850 C.ar  1 <1>  -0.1500 
  6 C       -2.2560    -1.9910    -1.9770 C.2   1 <1>   0.5690 
  7 C        0.3630     2.7330     1.9660 C.ar  1 <1>   0.0830 
  8 C       -0.0740     3.3790    -0.3140 C.ar  1 <1>  -0.1500 
  9 O       -2.8670    -2.1280    -3.0090 O.2   1 <1>  -0.5700 
 10 N       -2.0380    -3.0340    -1.1370 N.am  1 <1>  -0.7300 
 11 O        0.7980     2.9590     3.2310 O.3   1 <1>  -0.3630 
 12 C        0.3900     3.6900     0.9540 C.ar  1 <1>  -0.1500 
 13 C       -2.5170    -4.4190    -1.3380 C.3   1 <1>   0.2200 
 14 C        1.3150     4.2130     3.6170 C.3   1 <1>   0.0400 
 15 C       -3.6320    -4.7070    -0.3480 C.3   1 <1>  -0.0800 
 16 C       -1.4390    -5.4070    -0.8980 C.3   1 <1>   0.1200 
 17 C       -2.8430    -5.0900     0.9060 C.3   1 <1>   0.1200 
 18 C       -4.5420    -5.8500    -0.8370 C.3   1 <1>  -0.0170 
 19 O       -1.6300    -5.6300     0.4690 O.3   1 <1>  -0.5600 
 20 C       -5.6650    -6.1310     0.1490 C.ar  1 <1>  -0.1440 
 21 C       -6.7600    -5.2970     0.2590 C.ar  1 <1>  -0.1500 
 22 C       -5.6520    -7.2300     0.9830 C.ar  1 <1>  -0.1500 
 23 C       -7.7560    -5.5910     1.1740 C.ar  1 <1>   0.1600 
 24 C       -6.7000    -7.4340     1.8650 C.ar  1 <1>   0.1600 
 25 N       -7.7520    -6.6400     1.9820 N.ar  1 <1>  -0.6200 
 26 H       -2.4830     0.1290    -1.7890 H     1 <1>   0.0800 
 27 H       -0.8540    -0.3910    -2.2200 H     1 <1>   0.0800 
 28 H       -0.1540     0.7280     2.4710 H     1 <1>   0.1500 
 29 H       -0.9230     1.8940    -1.5720 H     1 <1>   0.1500 
 30 H       -0.0500     4.1230    -1.0910 H     1 <1>   0.1500 
 31 H       -1.5460    -2.8640    -0.2540 H     1 <1>   0.3700 
 32 H        0.7670     4.6790     1.1340 H     1 <1>   0.1500 
 33 H       -2.8100    -4.5670    -2.3640 H     1 <1>   0.0800 
 34 H        1.5910     4.1550     4.6540 H     1 <1>   0.0800 
 35 H        0.5550     4.9620     3.4820 H     1 <1>   0.0800 
 36 H        2.1830     4.4310     3.0200 H     1 <1>   0.0800 
 37 H       -4.2360    -3.8330    -0.1740 H     1 <1>   0.0800 
 38 H       -0.4440    -5.0350    -1.0680 H     1 <1>   0.0800 
 39 H       -1.5630    -6.3500    -1.3990 H     1 <1>   0.0800 
 40 H       -3.3470    -5.8090     1.5270 H     1 <1>   0.0800 
 41 H       -2.6150    -4.2150     1.4900 H     1 <1>   0.0800 
 42 H       -3.9660    -6.7470    -0.9900 H     1 <1>   0.0800 
 43 H       -4.9760    -5.5800    -1.7850 H     1 <1>   0.0800 
 44 H       -6.8470    -4.4210    -0.3590 H     1 <1>   0.1500 
 45 H       -4.8360    -7.9290     0.9580 H     1 <1>   0.1500 
 46 H       -8.6020    -4.9290     1.2460 H     1 <1>   0.1500 
 47 H       -6.6720    -8.2970     2.5080 H     1 <1>   0.1500 
@<TRIPOS>BOND
  1   1   2  1   
  2   1   3  1   
  3   2   4  ar  
  4   2   5  ar  
  5   3   6  1   
  6   3  26  1   
  7   3  27  1   
  8   4   7  ar  
  9   4  28  1   
 10   5   8  ar  
 11   5  29  1   
 12   6   9  2   
 13   6  10  am  
 14   7  11  1   
 15   7  12  ar  
 16   8  12  ar  
 17   8  30  1   
 18  10  13  1   
 19  10  31  1   
 20  11  14  1   
 21  12  32  1   
 22  13  15  1   
 23  13  16  1   
 24  13  33  1   
 25  14  34  1   
 26  14  35  1   
 27  14  36  1   
 28  15  17  1   
 29  15  18  1   
 30  15  37  1   
 31  16  19  1   
 32  16  38  1   
 33  16  39  1   
 34  17  19  1   
 35  17  40  1   
 36  17  41  1   
 37  18  20  1   
 38  18  42  1   
 39  18  43  1   
 40  20  21  ar  
 41  20  22  ar  
 42  21  23  ar  
 43  21  44  1   
 44  22  24  ar  
 45  22  45  1   
 46  23  25  ar  
 47  23  46  1   
 48  24  25  ar  
 49  24  47  1   
@<TRIPOS>SUBSTRUCTURE
  1 ****  10 GROUP 4 **** **** 0

# MOE 2024.06 (io_trps.svl 2023.06)
