@<TRIPOS>MOLECULE
NONAME
45 46 1 0 0 
SMALL
USER_CHARGES


@<TRIPOS>ATOM
  1 S        0.0770    -0.2530     2.1400 S.o2  1 <1>   1.4470 
  2 O        0.4920    -1.6170     2.3840 O.2   1 <1>  -0.6500 
  3 O        0.0140     0.6790     3.2460 O.2   1 <1>  -0.6500 
  4 N       -1.4470    -0.2770     1.4030 N.am  1 <1>  -0.8490 
  5 C        1.1230     0.4770     0.8480 C.ar  1 <1>  -0.0090 
  6 C       -1.5390    -1.2890     0.3320 C.3   1 <1>   0.1960 
  7 C       -2.5280    -0.4860     2.3750 C.3   1 <1>   0.1960 
  8 C        0.7540     1.6610     0.2250 C.ar  1 <1>  -0.1500 
  9 C        2.3150    -0.1230     0.4510 C.ar  1 <1>  -0.1500 
 10 C       -2.8710    -1.1490    -0.4260 C.3   1 <1>   0.2000 
 11 C       -3.8880    -0.3150     1.6800 C.3   1 <1>  -0.1600 
 12 C        1.5600     2.2020    -0.7570 C.ar  1 <1>   0.1900 
 13 C        3.1180     0.4300    -0.5370 C.ar  1 <1>  -0.1500 
 14 O       -2.9080    -2.0770    -1.4530 O.3   1 <1>  -0.6800 
 15 C       -4.0810    -1.3390     0.5250 C.3   1 <1>  -0.1060 
 16 F        1.1760     3.3170    -1.3210 F     1 <1>  -0.1900 
 17 C        2.7470     1.6100    -1.1590 C.ar  1 <1>  -0.1440 
 18 C       -4.0790    -2.7800     1.0860 C.2   1 <1>   0.9060 
 19 C       -5.4450    -1.1110    -0.1890 C.3   1 <1>  -0.1600 
 20 C        3.6160     2.2290    -2.2450 C.3   1 <1>  -0.0960 
 21 O       -3.7340    -3.7170     0.3490 O.co2 1 <1>  -0.9000 
 22 O       -4.4210    -2.9810     2.2570 O.co2 1 <1>  -0.9000 
 23 C       -5.6390     0.2430    -0.8980 C.3   1 <1>  -0.1600 
 24 C       -7.0240     0.3220    -1.5460 C.3   1 <1>  -0.2400 
 25 H       -0.7360    -1.1480    -0.3710 H     1 <1>   0.0800 
 26 H       -1.4570    -2.2790     0.7520 H     1 <1>   0.0800 
 27 H       -2.4470    -1.4660     2.8190 H     1 <1>   0.0800 
 28 H       -2.4530     0.2420     3.1660 H     1 <1>   0.0800 
 29 H       -0.1590     2.1580     0.5030 H     1 <1>   0.1500 
 30 H        2.6200    -1.0430     0.9230 H     1 <1>   0.1500 
 31 H       -2.8930    -0.1760    -0.8800 H     1 <1>   0.0800 
 32 H       -4.6680    -0.4450     2.4100 H     1 <1>   0.0800 
 33 H       -3.9460     0.6930     1.3160 H     1 <1>   0.0800 
 34 H        4.0320    -0.0670    -0.8150 H     1 <1>   0.1500 
 35 H       -3.1910    -2.9370    -1.0130 H     1 <1>   0.4000 
 36 H       -5.5720    -1.8950    -0.9170 H     1 <1>   0.0800 
 37 H       -6.2270    -1.2390     0.5410 H     1 <1>   0.0800 
 38 H        4.4900     1.6310    -2.4280 H     1 <1>   0.0800 
 39 H        3.9290     3.2130    -1.9450 H     1 <1>   0.0800 
 40 H        3.0570     2.3090    -3.1600 H     1 <1>   0.0800 
 41 H       -5.5400     1.0520    -0.1970 H     1 <1>   0.0800 
 42 H       -4.8940     0.3640    -1.6650 H     1 <1>   0.0800 
 43 H       -7.7930     0.2210    -0.8000 H     1 <1>   0.0800 
 44 H       -7.1410    -0.4630    -2.2720 H     1 <1>   0.0800 
 45 H       -7.1470     1.2690    -2.0410 H     1 <1>   0.0800 
@<TRIPOS>BOND
  1   1   2  2   
  2   1   3  2   
  3   1   4  am  
  4   1   5  1   
  5   4   6  1   
  6   4   7  1   
  7   5   8  ar  
  8   5   9  ar  
  9   6  10  1   
 10   6  25  1   
 11   6  26  1   
 12   7  11  1   
 13   7  27  1   
 14   7  28  1   
 15   8  12  ar  
 16   8  29  1   
 17   9  13  ar  
 18   9  30  1   
 19  10  14  1   
 20  10  15  1   
 21  10  31  1   
 22  11  15  1   
 23  11  32  1   
 24  11  33  1   
 25  12  16  1   
 26  12  17  ar  
 27  13  17  ar  
 28  13  34  1   
 29  14  35  1   
 30  15  18  1   
 31  15  19  1   
 32  17  20  1   
 33  18  21  ar  
 34  18  22  ar  
 35  19  23  1   
 36  19  36  1   
 37  19  37  1   
 38  20  38  1   
 39  20  39  1   
 40  20  40  1   
 41  23  24  1   
 42  23  41  1   
 43  23  42  1   
 44  24  43  1   
 45  24  44  1   
 46  24  45  1   
@<TRIPOS>SUBSTRUCTURE
  1 ****   6 GROUP 4 **** **** 0

# MOE 2024.06 (io_trps.svl 2023.06)
