@<TRIPOS>MOLECULE
NONAME
50 53 1 0 0 
SMALL
USER_CHARGES


@<TRIPOS>ATOM
  1 O        0.3850    -0.9580     1.8360 O.2   1 <1>  -0.5700 
  2 C        1.2330    -1.5090     1.1610 C.2   1 <1>   0.5440 
  3 N        2.3810    -0.8210     0.8430 N.am  1 <1>  -0.6600 
  4 C        1.0140    -2.8660     0.7020 C.ar  1 <1>   0.0860 
  5 C        2.6180     0.5650     1.3040 C.3   1 <1>   0.1400 
  6 C        3.3060    -1.1770    -0.2560 C.3   1 <1>   0.1400 
  7 C       -0.1440    -3.2420     0.0530 C.ar  1 <1>  -0.1500 
  8 C        1.9430    -3.8800     0.8820 C.ar  1 <1>  -0.1500 
  9 C        3.8830     1.0110     0.5800 C.3   1 <1>  -0.1600 
 10 C        3.9330     0.1470    -0.6770 C.3   1 <1>  -0.1600 
 11 C       -0.3360    -4.5450    -0.3880 C.ar  1 <1>   0.4100 
 12 C        1.6810    -5.1470     0.4040 C.ar  1 <1>   0.1600 
 13 N        0.5770    -5.4960    -0.2290 N.ar  1 <1>  -0.6200 
 14 N       -1.5130    -4.8940    -1.0280 N.pl3 1 <1>  -0.8380 
 15 C       -1.5480    -5.9960    -2.0540 C.3   1 <1>   0.3900 
 16 C       -2.8400    -4.5240    -0.4540 C.3   1 <1>   0.1290 
 17 C       -2.5410    -7.1110    -1.7160 C.2   1 <1>   0.1080 
 18 N       -3.6460    -7.3200    -2.3790 N.2   1 <1>  -0.7070 
 19 C       -2.3930    -8.0200    -0.6710 C.2   1 <1>  -0.1810 
 20 N       -4.2250    -8.3710    -1.7630 N.pl3 1 <1>   0.3000 
 21 C       -3.4850    -8.8020    -0.7240 C.2   1 <1>  -0.3320 
 22 C       -1.2910    -8.1640     0.3600 C.3   1 <1>   0.0210 
 23 C       -3.7870    -9.9470     0.2230 C.3   1 <1>   0.0200 
 24 C       -1.4160    -9.5180     1.0860 C.3   1 <1>  -0.1600 
 25 C       -2.8770    -9.8450     1.4620 C.3   1 <1>  -0.1600 
 26 H        2.7350     0.5950     2.3740 H     1 <1>   0.0800 
 27 H        1.7800     1.1790     1.0180 H     1 <1>   0.0800 
 28 H        2.7840    -1.6430    -1.0750 H     1 <1>   0.0800 
 29 H        4.0640    -1.8410     0.1220 H     1 <1>   0.0800 
 30 H       -0.9060    -2.5080    -0.1210 H     1 <1>   0.1500 
 31 H        2.8630    -3.6740     1.3970 H     1 <1>   0.1500 
 32 H        4.7340     0.8000     1.2040 H     1 <1>   0.0800 
 33 H        3.8650     2.0630     0.3560 H     1 <1>   0.0800 
 34 H        3.3270     0.5910    -1.4480 H     1 <1>   0.0800 
 35 H        4.9340     0.0180    -1.0490 H     1 <1>   0.0800 
 36 H        2.4170    -5.9180     0.5510 H     1 <1>   0.1500 
 37 H       -0.5740    -6.4300    -2.1860 H     1 <1>   0.0800 
 38 H       -1.8360    -5.5690    -2.9970 H     1 <1>   0.0800 
 39 H       -2.7600    -3.6720     0.1950 H     1 <1>   0.0800 
 40 H       -3.2330    -5.3470     0.1170 H     1 <1>   0.0800 
 41 H       -3.5280    -4.2940    -1.2490 H     1 <1>   0.0800 
 42 H       -5.1200    -8.7640    -2.0740 H     1 <1>   0.2700 
 43 H       -1.3750    -7.3560     1.0650 H     1 <1>   0.0800 
 44 H       -0.3300    -8.0950    -0.1170 H     1 <1>   0.0800 
 45 H       -3.6040   -10.8780    -0.2850 H     1 <1>   0.0800 
 46 H       -4.8180    -9.9190     0.5300 H     1 <1>   0.0800 
 47 H       -0.8030    -9.5040     1.9700 H     1 <1>   0.0800 
 48 H       -1.0440   -10.2920     0.4370 H     1 <1>   0.0800 
 49 H       -2.9150   -10.7680     2.0120 H     1 <1>   0.0800 
 50 H       -3.2490    -9.0630     2.1010 H     1 <1>   0.0800 
@<TRIPOS>BOND
  1   1   2  2   
  2   2   3  am  
  3   2   4  1   
  4   3   5  1   
  5   3   6  1   
  6   4   7  ar  
  7   4   8  ar  
  8   5   9  1   
  9   5  26  1   
 10   5  27  1   
 11   6  10  1   
 12   6  28  1   
 13   6  29  1   
 14   7  11  ar  
 15   7  30  1   
 16   8  12  ar  
 17   8  31  1   
 18   9  10  1   
 19   9  32  1   
 20   9  33  1   
 21  10  34  1   
 22  10  35  1   
 23  11  13  ar  
 24  11  14  1   
 25  12  13  ar  
 26  12  36  1   
 27  14  15  1   
 28  14  16  1   
 29  15  17  1   
 30  15  37  1   
 31  15  38  1   
 32  16  39  1   
 33  16  40  1   
 34  16  41  1   
 35  17  18  2   
 36  17  19  1   
 37  18  20  1   
 38  19  21  2   
 39  19  22  1   
 40  20  21  1   
 41  20  42  1   
 42  21  23  1   
 43  22  24  1   
 44  22  43  1   
 45  22  44  1   
 46  23  25  1   
 47  23  45  1   
 48  23  46  1   
 49  24  25  1   
 50  24  47  1   
 51  24  48  1   
 52  25  49  1   
 53  25  50  1   
@<TRIPOS>SUBSTRUCTURE
  1 ****  11 GROUP 4 **** **** 0

# MOE 2024.06 (io_trps.svl 2023.06)
