@<TRIPOS>MOLECULE
NONAME
49 52 1 0 0 
SMALL
USER_CHARGES


@<TRIPOS>ATOM
  1 O       -0.2260    -1.6770    -2.1400 O.co2 1 <1>  -0.9000 
  2 C       -0.2690    -1.4050    -0.9290 C.2   1 <1>   1.0330 
  3 O       -0.9170    -0.4070    -0.5650 O.co2 1 <1>  -0.9000 
  4 C        0.3840    -2.2300     0.0320 C.2   1 <1>  -0.2330 
  5 C       -0.0790    -3.4450     0.5490 C.2   1 <1>   0.3720 
  6 C        1.5910    -2.0590     0.6300 C.2   1 <1>   0.0870 
  7 N        0.7840    -3.9490     1.3630 N.2   1 <1>  -0.4100 
  8 N       -1.2850    -4.1140     0.2830 N.pl3 1 <1>  -0.8210 
  9 O        1.7770    -3.1030     1.4020 O.3   1 <1>  -0.0190 
 10 C        2.6040    -1.0310     0.5560 C.ar  1 <1>   0.0530 
 11 C       -1.1190    -5.4100    -0.4300 C.3   1 <1>   0.2090 
 12 C       -2.4270    -3.3240    -0.2540 C.3   1 <1>   0.2090 
 13 C        3.9380    -1.3230     0.8500 C.ar  1 <1>  -0.1500 
 14 C        2.3070     0.2840     0.1970 C.ar  1 <1>  -0.1500 
 15 C       -2.3720    -6.2630    -0.2060 C.3   1 <1>  -0.0190 
 16 C       -3.7220    -4.1230    -0.0700 C.3   1 <1>  -0.1600 
 17 C        4.9240    -0.3550     0.7880 C.ar  1 <1>  -0.1500 
 18 C        3.2880     1.2570     0.1310 C.ar  1 <1>  -0.1500 
 19 C       -2.2280    -7.6300    -0.8700 C.2   1 <1>   0.5690 
 20 C       -3.6270    -5.5190    -0.7090 C.3   1 <1>  -0.1600 
 21 C        4.6010     0.9400     0.4270 C.ar  1 <1>  -0.1500 
 22 O       -1.6870    -7.6990    -1.9500 O.2   1 <1>  -0.5700 
 23 N       -2.7210    -8.7550    -0.2600 N.am  1 <1>  -0.6600 
 24 C       -3.4440    -8.8220     1.0280 C.3   1 <1>   0.1400 
 25 C       -2.5940   -10.0960    -0.8680 C.3   1 <1>   0.1400 
 26 C       -4.0050   -10.2380     1.0850 C.3   1 <1>  -0.1600 
 27 C       -3.0600   -11.0620     0.2150 C.3   1 <1>  -0.1600 
 28 H       -0.2540    -5.9290    -0.0520 H     1 <1>   0.0800 
 29 H       -0.9690    -5.2230    -1.4810 H     1 <1>   0.0800 
 30 H       -2.2670    -3.1200    -1.3000 H     1 <1>   0.0800 
 31 H       -2.5000    -2.3850     0.2710 H     1 <1>   0.0800 
 32 H        4.2020    -2.3270     1.1280 H     1 <1>   0.1500 
 33 H        1.2910     0.5560    -0.0310 H     1 <1>   0.1500 
 34 H       -2.4510    -6.4010     0.8550 H     1 <1>   0.0800 
 35 H       -4.5350    -3.5740    -0.5110 H     1 <1>   0.0800 
 36 H       -3.9170    -4.2130     0.9840 H     1 <1>   0.0800 
 37 H        5.9430    -0.6110     1.0200 H     1 <1>   0.1500 
 38 H        3.0210     2.2600    -0.1530 H     1 <1>   0.1500 
 39 H       -4.5100    -6.0880    -0.4790 H     1 <1>   0.0800 
 40 H       -3.5650    -5.4150    -1.7790 H     1 <1>   0.0800 
 41 H        5.3640     1.6960     0.3750 H     1 <1>   0.1500 
 42 H       -4.2290    -8.0860     1.0740 H     1 <1>   0.0800 
 43 H       -2.7450    -8.6630     1.8320 H     1 <1>   0.0800 
 44 H       -1.5760   -10.2870    -1.1650 H     1 <1>   0.0800 
 45 H       -3.2360   -10.1500    -1.7310 H     1 <1>   0.0800 
 46 H       -4.9920   -10.2410     0.6550 H     1 <1>   0.0800 
 47 H       -4.0610   -10.6070     2.0940 H     1 <1>   0.0800 
 48 H       -2.2080   -11.3740     0.7930 H     1 <1>   0.0800 
 49 H       -3.5370   -11.9300    -0.2040 H     1 <1>   0.0800 
@<TRIPOS>BOND
  1   1   2  ar  
  2   2   3  ar  
  3   2   4  1   
  4   4   5  1   
  5   4   6  2   
  6   5   7  2   
  7   5   8  1   
  8   6   9  1   
  9   6  10  1   
 10   7   9  1   
 11   8  11  1   
 12   8  12  1   
 13  10  13  ar  
 14  10  14  ar  
 15  11  15  1   
 16  11  28  1   
 17  11  29  1   
 18  12  16  1   
 19  12  30  1   
 20  12  31  1   
 21  13  17  ar  
 22  13  32  1   
 23  14  18  ar  
 24  14  33  1   
 25  15  19  1   
 26  15  20  1   
 27  15  34  1   
 28  16  20  1   
 29  16  35  1   
 30  16  36  1   
 31  17  21  ar  
 32  17  37  1   
 33  18  21  ar  
 34  18  38  1   
 35  19  22  2   
 36  19  23  am  
 37  20  39  1   
 38  20  40  1   
 39  21  41  1   
 40  23  24  1   
 41  23  25  1   
 42  24  26  1   
 43  24  42  1   
 44  24  43  1   
 45  25  27  1   
 46  25  44  1   
 47  25  45  1   
 48  26  27  1   
 49  26  46  1   
 50  26  47  1   
 51  27  48  1   
 52  27  49  1   
@<TRIPOS>SUBSTRUCTURE
  1 ****   5 GROUP 4 **** **** 0

# MOE 2024.06 (io_trps.svl 2023.06)
