@<TRIPOS>MOLECULE
NONAME
43 45 1 0 0 
SMALL
USER_CHARGES


@<TRIPOS>ATOM
  1 F        0.6910    -1.5900    -0.8160 F     1 <1>  -0.1900 
  2 C       -0.1370    -2.5820    -0.6060 C.ar  1 <1>   0.1900 
  3 C        0.1450    -3.6040     0.3080 C.ar  1 <1>   0.0820 
  4 C       -1.3070    -2.5730    -1.3410 C.ar  1 <1>  -0.1500 
  5 O        1.2580    -3.7240     1.0890 O.3   1 <1>  -0.3630 
  6 C       -0.7930    -4.6130     0.4520 C.ar  1 <1>  -0.1500 
  7 C       -2.2190    -3.5980    -1.1720 C.ar  1 <1>  -0.1500 
  8 C        2.2630    -2.7360     1.1470 C.3   1 <1>   0.0400 
  9 C       -1.9870    -4.6390    -0.2730 C.ar  1 <1>   0.0530 
 10 C       -2.9240    -5.7230    -0.1010 C.2   1 <1>   0.0870 
 11 O       -2.4530    -6.9370     0.0810 O.3   1 <1>  -0.0190 
 12 C       -4.2820    -5.8210    -0.0780 C.2   1 <1>  -0.2330 
 13 N       -3.3920    -7.8350     0.2070 N.2   1 <1>  -0.4100 
 14 C       -4.4960    -7.1860     0.1010 C.2   1 <1>   0.3720 
 15 C       -5.3280    -4.8430    -0.1590 C.2   1 <1>   1.0330 
 16 N       -5.7440    -7.7840     0.1630 N.pl3 1 <1>  -0.8520 
 17 O       -5.0740    -3.6350    -0.2830 O.co2 1 <1>  -0.9000 
 18 O       -6.5240    -5.1880    -0.0910 O.co2 1 <1>  -0.9000 
 19 C       -6.0660    -8.4440     1.4710 C.3   1 <1>   0.2700 
 20 C       -6.7540    -9.8180     1.3770 C.2   1 <1>   0.5690 
 21 O       -7.7990    -9.9710     1.9730 O.2   1 <1>  -0.5700 
 22 N       -6.1850   -10.8610     0.6880 N.am  1 <1>  -0.6600 
 23 C       -4.9470   -10.7770    -0.1160 C.3   1 <1>   0.1400 
 24 C       -6.8410   -12.1730     0.5270 C.3   1 <1>   0.1400 
 25 C       -4.7120   -12.1990    -0.6130 C.3   1 <1>  -0.1600 
 26 C       -6.0990   -12.8370    -0.6280 C.3   1 <1>  -0.1600 
 27 H       -1.5060    -1.7750    -2.0330 H     1 <1>   0.1500 
 28 H       -0.5930    -5.4040     1.1510 H     1 <1>   0.1500 
 29 H       -3.1330    -3.5920    -1.7420 H     1 <1>   0.1500 
 30 H        2.9920    -3.0450     1.8740 H     1 <1>   0.0800 
 31 H        1.8210    -1.8030     1.4480 H     1 <1>   0.0800 
 32 H        2.7270    -2.6510     0.1810 H     1 <1>   0.0800 
 33 H       -6.4310    -7.0130     0.0030 H     1 <1>   0.4000 
 34 H       -6.7130    -7.7860     2.0240 H     1 <1>   0.0800 
 35 H       -5.1670    -8.5690     2.0470 H     1 <1>   0.0800 
 36 H       -4.1210   -10.4230     0.4770 H     1 <1>   0.0800 
 37 H       -5.1070   -10.1100    -0.9470 H     1 <1>   0.0800 
 38 H       -7.8900   -12.0540     0.3140 H     1 <1>   0.0800 
 39 H       -6.7170   -12.7380     1.4360 H     1 <1>   0.0800 
 40 H       -4.0790   -12.7130     0.0880 H     1 <1>   0.0800 
 41 H       -4.2440   -12.2080    -1.5820 H     1 <1>   0.0800 
 42 H       -6.6020   -12.5940    -1.5470 H     1 <1>   0.0800 
 43 H       -6.0630   -13.9060    -0.5180 H     1 <1>   0.0800 
@<TRIPOS>BOND
  1   1   2  1   
  2   2   3  ar  
  3   2   4  ar  
  4   3   5  1   
  5   3   6  ar  
  6   4   7  ar  
  7   4  27  1   
  8   5   8  1   
  9   6   9  ar  
 10   6  28  1   
 11   7   9  ar  
 12   7  29  1   
 13   8  30  1   
 14   8  31  1   
 15   8  32  1   
 16   9  10  1   
 17  10  11  1   
 18  10  12  2   
 19  11  13  1   
 20  12  14  1   
 21  12  15  1   
 22  13  14  2   
 23  14  16  1   
 24  15  17  ar  
 25  15  18  ar  
 26  16  19  1   
 27  16  33  1   
 28  19  20  1   
 29  19  34  1   
 30  19  35  1   
 31  20  21  2   
 32  20  22  am  
 33  22  23  1   
 34  22  24  1   
 35  23  25  1   
 36  23  36  1   
 37  23  37  1   
 38  24  26  1   
 39  24  38  1   
 40  24  39  1   
 41  25  26  1   
 42  25  40  1   
 43  25  41  1   
 44  26  42  1   
 45  26  43  1   
@<TRIPOS>SUBSTRUCTURE
  1 ****  10 GROUP 4 **** **** 0

# MOE 2024.06 (io_trps.svl 2023.06)
