@<TRIPOS>MOLECULE
NONAME
44 45 1 0 0 
SMALL
USER_CHARGES


@<TRIPOS>ATOM
  1 S       -0.3150    -0.0360     0.1600 S.o2  1 <1>   1.3330 
  2 O       -1.0420     1.1930    -0.0610 O.2   1 <1>  -0.6500 
  3 O       -0.2070    -0.5690     1.4990 O.2   1 <1>  -0.6500 
  4 N       -0.9960    -1.2420    -0.8230 N.am  1 <1>  -0.8490 
  5 C        1.3210     0.1640    -0.5500 C.3   1 <1>  -0.0550 
  6 C       -2.4520    -1.1140    -0.9310 C.3   1 <1>   0.1160 
  7 C       -0.6450    -2.6030    -0.4020 C.3   1 <1>   0.1160 
  8 C        2.1490     1.2830     0.1130 C.3   1 <1>  -0.0800 
  9 C        3.4190     1.5600    -0.6720 C.3   1 <1>   0.2200 
 10 C        2.7070     0.8570     1.4760 C.3   1 <1>   0.1200 
 11 N        3.8890     2.9300    -0.3650 N.am  1 <1>  -0.7300 
 12 C        4.3860     0.5420    -0.0780 C.3   1 <1>   0.1200 
 13 O        3.9870     0.3460     1.2470 O.3   1 <1>  -0.5600 
 14 C        4.0680     3.9280    -1.2800 C.2   1 <1>   0.5440 
 15 O        3.8450     3.6840    -2.4490 O.2   1 <1>  -0.5700 
 16 C        4.5320     5.2410    -0.8630 C.ar  1 <1>   0.0860 
 17 C        5.2510     6.0570    -1.7350 C.ar  1 <1>  -0.1500 
 18 C        4.2820     5.7410     0.4170 C.ar  1 <1>  -0.1500 
 19 C        5.7120     7.3030    -1.3480 C.ar  1 <1>  -0.1500 
 20 C        4.7410     6.9860     0.8090 C.ar  1 <1>  -0.1500 
 21 C        5.4630     7.7740    -0.0710 C.ar  1 <1>  -0.1440 
 22 C        5.9660     9.1420     0.3550 C.3   1 <1>  -0.0970 
 23 H        1.8540    -0.7650    -0.4880 H     1 <1>   0.0800 
 24 H        1.1980     0.4020    -1.5890 H     1 <1>   0.0800 
 25 H       -2.8490    -1.8830    -1.5710 H     1 <1>   0.0800 
 26 H       -2.7080    -0.1590    -1.3580 H     1 <1>   0.0800 
 27 H       -2.9080    -1.1910     0.0420 H     1 <1>   0.0800 
 28 H       -1.0240    -3.3190    -1.1110 H     1 <1>   0.0800 
 29 H       -1.0620    -2.8170     0.5690 H     1 <1>   0.0800 
 30 H        0.4250    -2.7120    -0.3480 H     1 <1>   0.0800 
 31 H        1.5410     2.1680     0.1920 H     1 <1>   0.0800 
 32 H        3.2990     1.4290    -1.7350 H     1 <1>   0.0800 
 33 H        2.1180     0.1050     1.9710 H     1 <1>   0.0800 
 34 H        2.8100     1.7080     2.1260 H     1 <1>   0.0800 
 35 H        4.2170     3.0590     0.5930 H     1 <1>   0.3700 
 36 H        5.4080     0.8780    -0.1040 H     1 <1>   0.0800 
 37 H        4.3020    -0.4020    -0.5860 H     1 <1>   0.0800 
 38 H        5.4500     5.7050    -2.7330 H     1 <1>   0.1500 
 39 H        3.7140     5.1550     1.1160 H     1 <1>   0.1500 
 40 H        6.2640     7.9050    -2.0490 H     1 <1>   0.1500 
 41 H        4.5310     7.3430     1.8020 H     1 <1>   0.1500 
 42 H        6.8800     9.3830    -0.1590 H     1 <1>   0.0800 
 43 H        6.1580     9.1610     1.4130 H     1 <1>   0.0800 
 44 H        5.2290     9.8890     0.1210 H     1 <1>   0.0800 
@<TRIPOS>BOND
  1   1   2  2   
  2   1   3  2   
  3   1   4  am  
  4   1   5  1   
  5   4   6  1   
  6   4   7  1   
  7   5   8  1   
  8   5  23  1   
  9   5  24  1   
 10   6  25  1   
 11   6  26  1   
 12   6  27  1   
 13   7  28  1   
 14   7  29  1   
 15   7  30  1   
 16   8   9  1   
 17   8  10  1   
 18   8  31  1   
 19   9  11  1   
 20   9  12  1   
 21   9  32  1   
 22  10  13  1   
 23  10  33  1   
 24  10  34  1   
 25  11  14  am  
 26  11  35  1   
 27  12  13  1   
 28  12  36  1   
 29  12  37  1   
 30  14  15  2   
 31  14  16  1   
 32  16  17  ar  
 33  16  18  ar  
 34  17  19  ar  
 35  17  38  1   
 36  18  20  ar  
 37  18  39  1   
 38  19  21  ar  
 39  19  40  1   
 40  20  21  ar  
 41  20  41  1   
 42  21  22  1   
 43  22  42  1   
 44  22  43  1   
 45  22  44  1   
@<TRIPOS>SUBSTRUCTURE
  1 ****  11 GROUP 4 **** **** 0

# MOE 2024.06 (io_trps.svl 2023.06)
