@<TRIPOS>MOLECULE
NONAME
48 52 1 0 0 
SMALL
USER_CHARGES


@<TRIPOS>ATOM
  1 S       -0.1670     0.8260     2.1560 S.3   1 <1>  -0.0800 
  2 C       -1.1570     1.3600     0.8070 C.2   1 <1>  -0.1400 
  3 C       -1.4130    -0.3070     2.6630 C.2   1 <1>  -0.1100 
  4 C       -2.3300     0.7130     0.7950 C.2   1 <1>  -0.1810 
  5 C       -0.6970     2.4220    -0.1860 C.3   1 <1>   0.4600 
  6 C       -2.4820    -0.2450     1.8460 C.2   1 <1>  -0.1500 
  7 C       -3.3460     1.0320    -0.2780 C.3   1 <1>   0.0210 
  8 O       -1.6530     2.5120    -1.2270 O.3   1 <1>  -0.5600 
  9 C       -0.5570     3.7970     0.4810 C.3   1 <1>  -0.1600 
 10 C        0.6240     2.0170    -0.8460 C.3   1 <1>  -0.1600 
 11 C       -3.0170     2.4100    -0.8870 C.3   1 <1>   0.1200 
 12 C       -0.0630     4.8560    -0.5070 C.3   1 <1>   0.1400 
 13 C        1.1130     3.0840    -1.8270 C.3   1 <1>   0.1400 
 14 N        1.2100     4.3970    -1.1290 N.am  1 <1>  -0.6600 
 15 C        2.4310     4.9720    -0.8510 C.2   1 <1>   0.7150 
 16 O        3.4360     4.2890    -0.8880 O.2   1 <1>  -0.5700 
 17 C        2.5330     6.3700    -0.5270 C.2   1 <1>  -0.2370 
 18 N        1.8470     7.3400    -1.2170 N.pl3 1 <1>   0.0330 
 19 C        3.2810     6.9950     0.4280 C.2   1 <1>  -0.1500 
 20 C        2.1410     8.5650    -0.6850 C.ar  1 <1>  -0.1520 
 21 C        3.0440     8.3790     0.3540 C.ar  1 <1>   0.0000 
 22 C        1.6940     9.8440    -1.0250 C.ar  1 <1>  -0.1500 
 23 C        3.5120     9.4860     1.0700 C.ar  1 <1>  -0.1500 
 24 C        2.1610    10.9220    -0.3100 C.ar  1 <1>  -0.1500 
 25 C        3.0730    10.7490     0.7410 C.ar  1 <1>  -0.1430 
 26 C        3.5610    11.9700     1.4990 C.3   1 <1>  -0.0970 
 27 H       -1.2090    -0.9080     3.5310 H     1 <1>   0.1500 
 28 H       -3.3760    -0.8360     1.9380 H     1 <1>   0.1500 
 29 H       -4.3340     1.0560     0.1430 H     1 <1>   0.0800 
 30 H       -3.3180     0.2770    -1.0430 H     1 <1>   0.0800 
 31 H        0.1520     3.7250     1.2860 H     1 <1>   0.0800 
 32 H       -1.4930     4.0970     0.9100 H     1 <1>   0.0800 
 33 H        0.4940     1.0810    -1.3570 H     1 <1>   0.0800 
 34 H        1.3800     1.8760    -0.0950 H     1 <1>   0.0800 
 35 H       -3.2530     3.1920    -0.1890 H     1 <1>   0.0800 
 36 H       -3.5900     2.5640    -1.7840 H     1 <1>   0.0800 
 37 H        0.0780     5.7830     0.0210 H     1 <1>   0.0800 
 38 H       -0.7980     5.0110    -1.2780 H     1 <1>   0.0800 
 39 H        0.4210     3.1720    -2.6470 H     1 <1>   0.0800 
 40 H        2.0690     2.7970    -2.2300 H     1 <1>   0.0800 
 41 H        1.2400     7.1690    -2.0250 H     1 <1>   0.2700 
 42 H        3.9500     6.5300     1.1310 H     1 <1>   0.1500 
 43 H        0.9970     9.9760    -1.8330 H     1 <1>   0.1500 
 44 H        4.2110     9.3220     1.8690 H     1 <1>   0.1500 
 45 H        1.8290    11.9150    -0.5570 H     1 <1>   0.1500 
 46 H        4.2500    11.6900     2.2750 H     1 <1>   0.0800 
 47 H        2.7270    12.4780     1.9490 H     1 <1>   0.0800 
 48 H        4.0580    12.6430     0.8250 H     1 <1>   0.0800 
@<TRIPOS>BOND
  1   1   2  1   
  2   1   3  1   
  3   2   4  2   
  4   2   5  1   
  5   3   6  2   
  6   3  27  1   
  7   4   6  1   
  8   4   7  1   
  9   5   8  1   
 10   5   9  1   
 11   5  10  1   
 12   6  28  1   
 13   7  11  1   
 14   7  29  1   
 15   7  30  1   
 16   8  11  1   
 17   9  12  1   
 18   9  31  1   
 19   9  32  1   
 20  10  13  1   
 21  10  33  1   
 22  10  34  1   
 23  11  35  1   
 24  11  36  1   
 25  12  14  1   
 26  12  37  1   
 27  12  38  1   
 28  13  14  1   
 29  13  39  1   
 30  13  40  1   
 31  14  15  am  
 32  15  16  2   
 33  15  17  1   
 34  17  18  1   
 35  17  19  2   
 36  18  20  1   
 37  18  41  1   
 38  19  21  1   
 39  19  42  1   
 40  20  21  ar  
 41  20  22  ar  
 42  21  23  ar  
 43  22  24  ar  
 44  22  43  1   
 45  23  25  ar  
 46  23  44  1   
 47  24  25  ar  
 48  24  45  1   
 49  25  26  1   
 50  26  46  1   
 51  26  47  1   
 52  26  48  1   
@<TRIPOS>SUBSTRUCTURE
  1 ****  12 GROUP 4 **** **** 0

# MOE 2024.06 (io_trps.svl 2023.06)
