@<TRIPOS>MOLECULE
NONAME
36 37 1 0 0 
SMALL
USER_CHARGES


@<TRIPOS>ATOM
  1 O        0.7040     0.3920    -0.1400 O.co2 1 <1>  -0.9000 
  2 C        0.7210     1.5130     0.3780 C.2   1 <1>   0.8710 
  3 O       -0.2940     2.0460     0.8400 O.co2 1 <1>  -0.9000 
  4 C        2.0240     2.2570     0.4590 C.3   1 <1>  -0.0710 
  5 C        1.8580     3.7530     0.1630 C.3   1 <1>   0.2450 
  6 C        2.8370     2.1860    -0.8420 C.3   1 <1>   0.2450 
  7 N        3.1010     3.6680    -0.6860 N.3   1 <1>  -0.5900 
  8 C        4.2780     4.3040    -0.4570 C.ar  1 <1>   0.4100 
  9 N        5.3490     3.5460    -0.3140 N.ar  1 <1>  -0.6200 
 10 C        4.3480     5.7220    -0.3730 C.ar  1 <1>  -0.1440 
 11 C        6.5020     4.1210    -0.0320 C.ar  1 <1>   0.7710 
 12 C        5.5480     6.2830    -0.0510 C.ar  1 <1>   0.2170 
 13 C        3.0960     6.5600    -0.6670 C.3   1 <1>  -0.0970 
 14 N        6.6010     5.4490     0.1150 N.ar  1 <1>  -0.1790 
 15 N        7.6170     3.3530     0.1240 N.pl3 1 <1>  -0.8380 
 16 C        5.8230     7.7700     0.1390 C.3   1 <1>  -0.0970 
 17 C        9.0360     3.8230     0.2180 C.3   1 <1>   0.1290 
 18 C        7.5140     1.8540     0.1320 C.3   1 <1>   0.1290 
 19 H        2.6030     2.0530     1.3430 H     1 <1>   0.0000 
 20 H        1.9910     4.3790     1.0280 H     1 <1>   0.0000 
 21 H        1.0000     4.0030    -0.4370 H     1 <1>   0.0000 
 22 H        2.2500     1.9930    -1.7230 H     1 <1>   0.0000 
 23 H        3.7230     1.5820    -0.7650 H     1 <1>   0.0000 
 24 H        2.5130     6.1040    -1.4490 H     1 <1>   0.0800 
 25 H        3.3380     7.5500    -1.0050 H     1 <1>   0.0800 
 26 H        2.4820     6.6320     0.2130 H     1 <1>   0.0800 
 27 H        7.5190     5.7810     0.3720 H     1 <1>   0.4570 
 28 H        4.9200     8.3190     0.3320 H     1 <1>   0.0800 
 29 H        6.2870     8.1770    -0.7430 H     1 <1>   0.0800 
 30 H        6.4750     7.9310     0.9800 H     1 <1>   0.0800 
 31 H        9.1480     4.8370    -0.1220 H     1 <1>   0.0800 
 32 H        9.6650     3.2020    -0.4000 H     1 <1>   0.0800 
 33 H        9.3800     3.7470     1.2360 H     1 <1>   0.0800 
 34 H        6.5450     1.5280     0.4730 H     1 <1>   0.0800 
 35 H        8.2530     1.4310     0.7910 H     1 <1>   0.0800 
 36 H        7.6720     1.4720    -0.8630 H     1 <1>   0.0800 
@<TRIPOS>BOND
  1   1   2  ar  
  2   2   3  ar  
  3   2   4  1   
  4   4   5  1   
  5   4   6  1   
  6   4  19  1   
  7   5   7  1   
  8   5  20  1   
  9   5  21  1   
 10   6   7  1   
 11   6  22  1   
 12   6  23  1   
 13   7   8  1   
 14   8   9  ar  
 15   8  10  ar  
 16   9  11  ar  
 17  10  12  ar  
 18  10  13  1   
 19  11  14  ar  
 20  11  15  1   
 21  12  14  ar  
 22  12  16  1   
 23  13  24  1   
 24  13  25  1   
 25  13  26  1   
 26  14  27  1   
 27  15  17  1   
 28  15  18  1   
 29  16  28  1   
 30  16  29  1   
 31  16  30  1   
 32  17  31  1   
 33  17  32  1   
 34  17  33  1   
 35  18  34  1   
 36  18  35  1   
 37  18  36  1   
@<TRIPOS>SUBSTRUCTURE
  1 ****   8 GROUP 4 **** **** 0

# MOE 2024.06 (io_trps.svl 2023.06)
