@<TRIPOS>MOLECULE
NONAME
52 54 1 0 0 
SMALL
USER_CHARGES


@<TRIPOS>ATOM
  1 CL       0.9870    -1.0980     0.1720 Cl    1 <1>  -0.1770 
  2 C       -0.6740    -1.5860    -0.0500 C.ar  1 <1>   0.1770 
  3 C       -1.6480    -1.0780     0.7880 C.ar  1 <1>  -0.1500 
  4 C       -0.9910    -2.4750    -1.0600 C.ar  1 <1>  -0.1500 
  5 C       -2.9650    -1.4670     0.6100 C.ar  1 <1>  -0.1500 
  6 C       -2.3100    -2.8600    -1.2330 C.ar  1 <1>  -0.1500 
  7 C       -3.3010    -2.3570    -0.4020 C.ar  1 <1>  -0.1430 
  8 C       -4.7470    -2.7820    -0.5950 C.3   1 <1>  -0.0160 
  9 C       -5.0520    -4.0460     0.2170 C.3   1 <1>  -0.1600 
 10 C       -6.5150    -4.4980     0.0470 C.3   1 <1>  -0.0990 
 11 C       -6.8910    -5.7450     0.8480 C.2   1 <1>   0.5690 
 12 O       -5.9980    -6.3870     1.3490 O.2   1 <1>  -0.5700 
 13 N       -8.2080    -6.1190     0.9890 N.am  1 <1>  -0.6600 
 14 C       -9.3360    -5.4420     0.2780 C.3   1 <1>   0.2200 
 15 C       -8.5420    -7.2680     1.8900 C.3   1 <1>   0.0600 
 16 C      -10.3690    -6.3880    -0.3320 C.3   1 <1>  -0.1600 
 17 C      -10.1470    -4.5440     1.2050 C.3   1 <1>  -0.1600 
 18 C      -11.6090    -5.5090    -0.5400 C.3   1 <1>  -0.0800 
 19 C      -11.4890    -4.3570     0.4850 C.3   1 <1>  -0.0800 
 20 C      -12.9270    -6.3080    -0.4780 C.3   1 <1>   0.1400 
 21 C      -12.6840    -4.2630     1.4500 C.3   1 <1>  -0.0990 
 22 N      -14.0730    -5.3930    -0.2470 N.am  1 <1>  -0.6600 
 23 C      -13.9870    -4.4000     0.6900 C.2   1 <1>   0.5690 
 24 C      -15.3090    -5.6520    -1.0320 C.3   1 <1>   0.0600 
 25 O      -14.8920    -3.6390     0.9370 O.2   1 <1>  -0.5700 
 26 H       -1.3760    -0.3890     1.5680 H     1 <1>   0.1500 
 27 H       -0.2150    -2.8580    -1.6970 H     1 <1>   0.1500 
 28 H       -3.7270    -1.0760     1.2620 H     1 <1>   0.1500 
 29 H       -2.5610    -3.5550    -2.0150 H     1 <1>   0.1500 
 30 H       -5.3990    -1.9830    -0.2870 H     1 <1>   0.0800 
 31 H       -4.9290    -2.9670    -1.6400 H     1 <1>   0.0800 
 32 H       -4.8560    -3.8560     1.2590 H     1 <1>   0.0800 
 33 H       -4.3930    -4.8370    -0.0980 H     1 <1>   0.0800 
 34 H       -6.6970    -4.7050    -0.9910 H     1 <1>   0.0800 
 35 H       -7.1560    -3.6940     0.3550 H     1 <1>   0.0800 
 36 H       -8.9590    -4.8360    -0.5260 H     1 <1>   0.0800 
 37 H       -9.4620    -7.0860     2.4140 H     1 <1>   0.0800 
 38 H       -7.7660    -7.4130     2.6220 H     1 <1>   0.0800 
 39 H       -8.6330    -8.1680     1.3080 H     1 <1>   0.0800 
 40 H      -10.0190    -6.8080    -1.2580 H     1 <1>   0.0800 
 41 H      -10.6140    -7.1810     0.3510 H     1 <1>   0.0800 
 42 H      -10.2990    -5.0340     2.1500 H     1 <1>   0.0800 
 43 H       -9.6540    -3.6030     1.3710 H     1 <1>   0.0800 
 44 H      -11.5440    -5.0730    -1.5240 H     1 <1>   0.0800 
 45 H      -11.4510    -3.4350    -0.0730 H     1 <1>   0.0800 
 46 H      -12.8960    -7.0150     0.3340 H     1 <1>   0.0800 
 47 H      -13.0640    -6.8530    -1.3960 H     1 <1>   0.0800 
 48 H      -12.6680    -3.3230     1.9700 H     1 <1>   0.0800 
 49 H      -12.6480    -5.0520     2.1780 H     1 <1>   0.0800 
 50 H      -15.6660    -6.6470    -0.8330 H     1 <1>   0.0800 
 51 H      -15.1020    -5.5490    -2.0820 H     1 <1>   0.0800 
 52 H      -16.0800    -4.9500    -0.7640 H     1 <1>   0.0800 
@<TRIPOS>BOND
  1   1   2  1   
  2   2   3  ar  
  3   2   4  ar  
  4   3   5  ar  
  5   3  26  1   
  6   4   6  ar  
  7   4  27  1   
  8   5   7  ar  
  9   5  28  1   
 10   6   7  ar  
 11   6  29  1   
 12   7   8  1   
 13   8   9  1   
 14   8  30  1   
 15   8  31  1   
 16   9  10  1   
 17   9  32  1   
 18   9  33  1   
 19  10  11  1   
 20  10  34  1   
 21  10  35  1   
 22  11  12  2   
 23  11  13  am  
 24  13  14  1   
 25  13  15  1   
 26  14  16  1   
 27  14  17  1   
 28  14  36  1   
 29  15  37  1   
 30  15  38  1   
 31  15  39  1   
 32  16  18  1   
 33  16  40  1   
 34  16  41  1   
 35  17  19  1   
 36  17  42  1   
 37  17  43  1   
 38  18  19  1   
 39  18  20  1   
 40  18  44  1   
 41  19  21  1   
 42  19  45  1   
 43  20  22  1   
 44  20  46  1   
 45  20  47  1   
 46  21  23  1   
 47  21  48  1   
 48  21  49  1   
 49  22  23  am  
 50  22  24  1   
 51  23  25  2   
 52  24  50  1   
 53  24  51  1   
 54  24  52  1   
@<TRIPOS>SUBSTRUCTURE
  1 ****  10 GROUP 4 **** **** 0

# MOE 2024.06 (io_trps.svl 2023.06)
