@<TRIPOS>MOLECULE
NONAME
48 49 1 0 0 
SMALL
USER_CHARGES


@<TRIPOS>ATOM
  1 S        1.0790     0.3940     0.5350 S.o2  1 <1>   1.3330 
  2 O        1.9520     0.4020     1.6870 O.2   1 <1>  -0.6500 
  3 O        1.6090     0.0510    -0.7650 O.2   1 <1>  -0.6500 
  4 N       -0.2230    -0.6470     0.8570 N.am  1 <1>  -0.8490 
  5 C        0.2890     1.9990     0.4370 C.3   1 <1>  -0.0550 
  6 C        0.1850    -1.8240     1.6310 C.3   1 <1>   0.1160 
  7 C       -0.9440    -1.0700    -0.3490 C.3   1 <1>   0.1160 
  8 C        1.2860     3.1570     0.2630 C.3   1 <1>  -0.0800 
  9 C        0.5960     4.5170     0.2570 C.3   1 <1>   0.2000 
 10 C        2.0620     3.1340    -1.0570 C.3   1 <1>   0.1400 
 11 O        0.3530     4.9340     1.5550 O.3   1 <1>  -0.6800 
 12 C        1.5560     5.4530    -0.4740 C.3   1 <1>   0.1400 
 13 N        2.3540     4.5570    -1.3500 N.am  1 <1>  -0.6600 
 14 C        3.3400     4.9420    -2.2200 C.2   1 <1>   0.5690 
 15 O        3.9770     4.1270    -2.8450 O.2   1 <1>  -0.5700 
 16 C        3.6610     6.4150    -2.4430 C.3   1 <1>   0.0440 
 17 C        4.1650     7.1150    -1.1850 C.ar  1 <1>  -0.1440 
 18 C        3.5680     8.2850    -0.7420 C.ar  1 <1>  -0.1500 
 19 C        5.2230     6.5800    -0.4660 C.ar  1 <1>  -0.1500 
 20 C        4.0090     8.9140     0.4110 C.ar  1 <1>   0.0820 
 21 C        5.6730     7.2030     0.6850 C.ar  1 <1>  -0.1500 
 22 O        3.3580    10.0480     0.7720 O.3   1 <1>  -0.3620 
 23 C        5.0690     8.3670     1.1280 C.ar  1 <1>  -0.1500 
 24 C        3.7510    10.7890     1.9060 C.3   1 <1>   0.0400 
 25 H       -0.4110     2.0040    -0.3750 H     1 <1>   0.0800 
 26 H       -0.2620     2.1620     1.3440 H     1 <1>   0.0800 
 27 H       -0.6650    -2.4530     1.8300 H     1 <1>   0.0800 
 28 H        0.6030    -1.5170     2.5750 H     1 <1>   0.0800 
 29 H        0.9270    -2.3880     1.0910 H     1 <1>   0.0800 
 30 H       -1.8080    -1.6510    -0.0780 H     1 <1>   0.0800 
 31 H       -0.3050    -1.6640    -0.9810 H     1 <1>   0.0800 
 32 H       -1.2750    -0.2090    -0.9050 H     1 <1>   0.0800 
 33 H        2.0100     3.1280     1.0590 H     1 <1>   0.0800 
 34 H       -0.3440     4.4790    -0.2690 H     1 <1>   0.0800 
 35 H        1.4640     2.7290    -1.8560 H     1 <1>   0.0800 
 36 H        2.9730     2.5640    -0.9730 H     1 <1>   0.0800 
 37 H        1.1900     4.9910     2.0570 H     1 <1>   0.4000 
 38 H        2.2110     5.9410     0.2270 H     1 <1>   0.0800 
 39 H        1.0190     6.1800    -1.0570 H     1 <1>   0.0800 
 40 H        4.4160     6.4910    -3.2040 H     1 <1>   0.0800 
 41 H        2.7780     6.8990    -2.8160 H     1 <1>   0.0800 
 42 H        2.7520     8.7280    -1.2830 H     1 <1>   0.1500 
 43 H        5.7000     5.6730    -0.8000 H     1 <1>   0.1500 
 44 H        6.4950     6.7800     1.2350 H     1 <1>   0.1500 
 45 H        5.4360     8.8290     2.0240 H     1 <1>   0.1500 
 46 H        3.1080    11.6470     1.9840 H     1 <1>   0.0800 
 47 H        4.7710    11.1060     1.7790 H     1 <1>   0.0800 
 48 H        3.6440    10.1720     2.7800 H     1 <1>   0.0800 
@<TRIPOS>BOND
  1   1   2  2   
  2   1   3  2   
  3   1   4  am  
  4   1   5  1   
  5   4   6  1   
  6   4   7  1   
  7   5   8  1   
  8   5  25  1   
  9   5  26  1   
 10   6  27  1   
 11   6  28  1   
 12   6  29  1   
 13   7  30  1   
 14   7  31  1   
 15   7  32  1   
 16   8   9  1   
 17   8  10  1   
 18   8  33  1   
 19   9  11  1   
 20   9  12  1   
 21   9  34  1   
 22  10  13  1   
 23  10  35  1   
 24  10  36  1   
 25  11  37  1   
 26  12  13  1   
 27  12  38  1   
 28  12  39  1   
 29  13  14  am  
 30  14  15  2   
 31  14  16  1   
 32  16  17  1   
 33  16  40  1   
 34  16  41  1   
 35  17  18  ar  
 36  17  19  ar  
 37  18  20  ar  
 38  18  42  1   
 39  19  21  ar  
 40  19  43  1   
 41  20  22  1   
 42  20  23  ar  
 43  21  23  ar  
 44  21  44  1   
 45  22  24  1   
 46  23  45  1   
 47  24  46  1   
 48  24  47  1   
 49  24  48  1   
@<TRIPOS>SUBSTRUCTURE
  1 ****  13 GROUP 4 **** **** 0

# MOE 2024.06 (io_trps.svl 2023.06)
