@<TRIPOS>MOLECULE
NONAME
46 47 1 0 0 
SMALL
USER_CHARGES


@<TRIPOS>ATOM
  1 S       -0.6610    -0.2300     1.2240 S.3   1 <1>  -0.3320 
  2 C       -0.5320    -1.8900     0.5830 C.ar  1 <1>   0.7220 
  3 C       -1.3150     0.7850    -0.1770 C.3   1 <1>  -0.0100 
  4 N       -0.9250    -2.0690    -0.6700 N.ar  1 <1>  -0.6200 
  5 N       -0.0560    -2.7810     1.4350 N.ar  1 <1>  -0.6200 
  6 C       -0.8250    -3.3010    -1.1070 C.ar  1 <1>   0.1600 
  7 C        0.0330    -4.0010     0.9670 C.ar  1 <1>   0.1600 
  8 C       -0.3600    -4.3270    -0.3120 C.ar  1 <1>  -0.1430 
  9 C       -0.2870    -5.7520    -0.8110 C.3   1 <1>   0.4870 
 10 N       -1.3910    -6.5470    -0.1950 N.4   1 <1>  -0.9590 
 11 C       -1.0610    -8.0300    -0.1990 C.3   1 <1>   0.4230 
 12 C       -2.6920    -6.1480    -0.8210 C.3   1 <1>   0.3430 
 13 C       -2.2420    -9.0370     0.0080 C.3   1 <1>   0.2000 
 14 C        0.0020    -8.2670     0.8940 C.3   1 <1>  -0.1600 
 15 C       -3.7740    -5.9840     0.2520 C.3   1 <1>  -0.1600 
 16 O       -3.1510    -8.9700    -1.0370 O.3   1 <1>  -0.6800 
 17 C       -1.7620   -10.4930     0.0620 C.3   1 <1>  -0.1600 
 18 C        0.4780    -9.7260     0.9360 C.3   1 <1>  -0.1600 
 19 C       -3.4270    -4.9510     1.3370 C.3   1 <1>  -0.2400 
 20 C       -0.6940   -10.6890     1.1420 C.3   1 <1>  -0.1600 
 21 H       -1.4030     1.7990     0.1670 H     1 <1>   0.0800 
 22 H       -2.2750     0.3870    -0.4540 H     1 <1>   0.0800 
 23 H       -0.6170     0.7130    -0.9910 H     1 <1>   0.0800 
 24 H       -1.1290    -3.4840    -2.1250 H     1 <1>   0.1500 
 25 H        0.4280    -4.7490     1.6350 H     1 <1>   0.1500 
 26 H        0.6730    -6.1600    -0.5430 H     1 <1>   0.0800 
 27 H       -0.3680    -5.7780    -1.8860 H     1 <1>   0.0800 
 28 H       -1.4770    -6.2600     0.7860 H     1 <1>   0.4500 
 29 H       -0.6200    -8.2820    -1.1490 H     1 <1>   0.0800 
 30 H       -2.5840    -5.1960    -1.3140 H     1 <1>   0.0800 
 31 H       -2.9960    -6.8560    -1.5720 H     1 <1>   0.0800 
 32 H       -2.7600    -8.8090     0.9240 H     1 <1>   0.0800 
 33 H        0.8700    -7.6560     0.7360 H     1 <1>   0.0800 
 34 H       -0.4130    -8.0200     1.8560 H     1 <1>   0.0800 
 35 H       -4.6730    -5.6610    -0.2440 H     1 <1>   0.0800 
 36 H       -4.0010    -6.9310     0.7070 H     1 <1>   0.0800 
 37 H       -3.7990    -9.7040    -0.9740 H     1 <1>   0.4000 
 38 H       -2.5920   -11.1450     0.2760 H     1 <1>   0.0800 
 39 H       -1.3470   -10.7730    -0.8920 H     1 <1>   0.0800 
 40 H        0.9850    -9.9730     0.0170 H     1 <1>   0.0800 
 41 H        1.1850    -9.8540     1.7390 H     1 <1>   0.0800 
 42 H       -3.1830    -3.9990     0.8970 H     1 <1>   0.0800 
 43 H       -2.6090    -5.2730     1.9550 H     1 <1>   0.0800 
 44 H       -4.2800    -4.8050     1.9790 H     1 <1>   0.0800 
 45 H       -1.1270   -10.5310     2.1160 H     1 <1>   0.0800 
 46 H       -0.3340   -11.7050     1.1100 H     1 <1>   0.0800 
@<TRIPOS>BOND
  1   1   2  1   
  2   1   3  1   
  3   2   4  ar  
  4   2   5  ar  
  5   3  21  1   
  6   3  22  1   
  7   3  23  1   
  8   4   6  ar  
  9   5   7  ar  
 10   6   8  ar  
 11   6  24  1   
 12   7   8  ar  
 13   7  25  1   
 14   8   9  1   
 15   9  10  1   
 16   9  26  1   
 17   9  27  1   
 18  10  11  1   
 19  10  12  1   
 20  10  28  1   
 21  11  13  1   
 22  11  14  1   
 23  11  29  1   
 24  12  15  1   
 25  12  30  1   
 26  12  31  1   
 27  13  16  1   
 28  13  17  1   
 29  13  32  1   
 30  14  18  1   
 31  14  33  1   
 32  14  34  1   
 33  15  19  1   
 34  15  35  1   
 35  15  36  1   
 36  16  37  1   
 37  17  20  1   
 38  17  38  1   
 39  17  39  1   
 40  18  20  1   
 41  18  40  1   
 42  18  41  1   
 43  19  42  1   
 44  19  43  1   
 45  19  44  1   
 46  20  45  1   
 47  20  46  1   
@<TRIPOS>SUBSTRUCTURE
  1 ****  10 GROUP 4 **** **** 0

# MOE 2024.06 (io_trps.svl 2023.06)
