@<TRIPOS>MOLECULE
NONAME
54 56 1 0 0 
SMALL
USER_CHARGES


@<TRIPOS>ATOM
  1 CL      -1.1030     0.1350     0.0200 Cl    1 <1>  -0.1770 
  2 C       -0.7120     1.8450     0.0280 C.ar  1 <1>   0.1770 
  3 C        0.2790     2.3220     0.8800 C.ar  1 <1>   0.0820 
  4 C       -1.4180     2.6780    -0.8220 C.ar  1 <1>  -0.1440 
  5 O        0.8980     1.3960     1.6690 O.3   1 <1>  -0.3630 
  6 C        0.5620     3.6980     0.8910 C.ar  1 <1>   0.0830 
  7 C       -1.1140     4.0270    -0.8000 C.ar  1 <1>   0.1770 
  8 C       -2.4840     2.1370    -1.7500 C.3   1 <1>   0.4870 
  9 C        2.2820     1.4780     1.9390 C.3   1 <1>   0.0400 
 10 O        1.5030     4.1870     1.7480 O.3   1 <1>  -0.3630 
 11 C       -0.1430     4.5420     0.0350 C.ar  1 <1>  -0.1500 
 12 CL      -1.9880     5.1190    -1.8480 Cl    1 <1>  -0.1770 
 13 N       -3.8270     2.4490    -1.2000 N.4   1 <1>  -0.9590 
 14 C        1.7370     5.5700     1.9100 C.3   1 <1>   0.0400 
 15 C       -4.1310     1.8030     0.1020 C.3   1 <1>   0.3430 
 16 C       -4.9250     2.2580    -2.1850 C.3   1 <1>   0.3430 
 17 C       -5.3260     2.5100     0.7490 C.3   1 <1>  -0.1600 
 18 C       -6.2910     2.5680    -1.5540 C.3   1 <1>  -0.1600 
 19 C       -6.1870     3.3390    -0.2280 C.3   1 <1>   0.2800 
 20 O       -5.4500     4.5110    -0.4910 O.3   1 <1>  -0.5600 
 21 C       -7.5900     3.6510     0.3510 C.3   1 <1>  -0.1600 
 22 C       -6.1490     5.7100    -0.6310 C.3   1 <1>   0.1200 
 23 C       -7.5990     4.8550     1.3000 C.3   1 <1>   0.2800 
 24 C       -6.8560     6.0560     0.6850 C.3   1 <1>  -0.1600 
 25 O       -6.9450     4.4810     2.4480 O.3   1 <1>  -0.6800 
 26 C       -9.0200     5.2170     1.7300 C.3   1 <1>  -0.2400 
 27 H       -2.3740     1.0720    -1.8750 H     1 <1>   0.0800 
 28 H       -2.3720     2.6010    -2.7170 H     1 <1>   0.0800 
 29 H        2.6300     0.4950     2.2010 H     1 <1>   0.0800 
 30 H        2.4370     2.1480     2.7650 H     1 <1>   0.0800 
 31 H        2.7960     1.8290     1.0610 H     1 <1>   0.0800 
 32 H        0.0400     5.6000     0.0010 H     1 <1>   0.1500 
 33 H       -3.8630     3.4670    -0.9860 H     1 <1>   0.4500 
 34 H        2.4790     5.6940     2.6780 H     1 <1>   0.0800 
 35 H        0.8210     6.0490     2.2110 H     1 <1>   0.0800 
 36 H        2.1020     5.9770     0.9840 H     1 <1>   0.0800 
 37 H       -3.2840     1.8640     0.7670 H     1 <1>   0.0800 
 38 H       -4.3620     0.7620    -0.0560 H     1 <1>   0.0800 
 39 H       -4.9220     1.2470    -2.5590 H     1 <1>   0.0800 
 40 H       -4.7680     2.9260    -3.0170 H     1 <1>   0.0800 
 41 H       -4.9640     3.1500     1.5340 H     1 <1>   0.0800 
 42 H       -5.9310     1.7590     1.2240 H     1 <1>   0.0800 
 43 H       -6.8050     1.6400    -1.3780 H     1 <1>   0.0800 
 44 H       -6.8860     3.1200    -2.2590 H     1 <1>   0.0800 
 45 H       -7.9960     2.7890     0.8500 H     1 <1>   0.0800 
 46 H       -8.2580     3.8670    -0.4620 H     1 <1>   0.0800 
 47 H       -6.8550     5.6040    -1.4370 H     1 <1>   0.0800 
 48 H       -5.4420     6.4800    -0.8900 H     1 <1>   0.0800 
 49 H       -7.5500     6.8490     0.4720 H     1 <1>   0.0800 
 50 H       -6.1320     6.4510     1.3760 H     1 <1>   0.0800 
 51 H       -6.9980     5.2020     3.1020 H     1 <1>   0.4000 
 52 H       -9.6060     5.4950     0.8730 H     1 <1>   0.0800 
 53 H       -9.0120     6.0470     2.4130 H     1 <1>   0.0800 
 54 H       -9.4950     4.3750     2.2010 H     1 <1>   0.0800 
@<TRIPOS>BOND
  1   1   2  1   
  2   2   3  ar  
  3   2   4  ar  
  4   3   5  1   
  5   3   6  ar  
  6   4   7  ar  
  7   4   8  1   
  8   5   9  1   
  9   6  10  1   
 10   6  11  ar  
 11   7  11  ar  
 12   7  12  1   
 13   8  13  1   
 14   8  27  1   
 15   8  28  1   
 16   9  29  1   
 17   9  30  1   
 18   9  31  1   
 19  10  14  1   
 20  11  32  1   
 21  13  15  1   
 22  13  16  1   
 23  13  33  1   
 24  14  34  1   
 25  14  35  1   
 26  14  36  1   
 27  15  17  1   
 28  15  37  1   
 29  15  38  1   
 30  16  18  1   
 31  16  39  1   
 32  16  40  1   
 33  17  19  1   
 34  17  41  1   
 35  17  42  1   
 36  18  19  1   
 37  18  43  1   
 38  18  44  1   
 39  19  20  1   
 40  19  21  1   
 41  20  22  1   
 42  21  23  1   
 43  21  45  1   
 44  21  46  1   
 45  22  24  1   
 46  22  47  1   
 47  22  48  1   
 48  23  24  1   
 49  23  25  1   
 50  23  26  1   
 51  24  49  1   
 52  24  50  1   
 53  25  51  1   
 54  26  52  1   
 55  26  53  1   
 56  26  54  1   
@<TRIPOS>SUBSTRUCTURE
  1 ****  13 GROUP 4 **** **** 0

# MOE 2024.06 (io_trps.svl 2023.06)
