@<TRIPOS>MOLECULE
NONAME
49 50 1 0 0 
SMALL
USER_CHARGES


@<TRIPOS>ATOM
  1 O       -2.0770     1.2880    -1.6190 O.2   1 <1>  -0.5700 
  2 C       -2.2110     1.1570    -0.4270 C.2   1 <1>   0.5690 
  3 N       -2.4410    -0.0590     0.1360 N.am  1 <1>  -0.7300 
  4 C       -2.1190     2.3730     0.4980 C.3   1 <1>  -0.0190 
  5 C       -2.5590    -1.3260    -0.6120 C.3   1 <1>   0.1400 
  6 C       -2.3340     3.7140    -0.2370 C.3   1 <1>  -0.1600 
  7 C       -0.7760     2.3840     1.2670 C.3   1 <1>  -0.1600 
  8 C       -3.7410    -2.1220    -0.0630 C.3   1 <1>  -0.1600 
  9 C       -2.3900     4.9130     0.7340 C.3   1 <1>   0.2000 
 10 C       -0.3930     3.7660     1.8340 C.3   1 <1>  -0.1600 
 11 C       -3.9310    -3.4360    -0.8270 C.3   1 <1>   0.0210 
 12 O       -1.8320     6.0350     0.0950 O.3   1 <1>  -0.5600 
 13 C       -1.6230     4.6490     2.0570 C.3   1 <1>   0.2000 
 14 C       -5.0960    -4.2160    -0.2440 C.2   1 <1>  -0.1810 
 15 C       -2.6500     6.6480    -0.8530 C.3   1 <1>   0.0400 
 16 O       -1.1980     5.8500     2.5840 O.3   1 <1>  -0.6800 
 17 C       -5.0380    -5.1710     0.7700 C.2   1 <1>   0.1080 
 18 C       -6.4040    -4.1480    -0.5770 C.2   1 <1>  -0.3320 
 19 N       -6.2030    -5.6630     1.0500 N.2   1 <1>  -0.7070 
 20 C       -3.7900    -5.6240     1.4930 C.3   1 <1>  -0.0590 
 21 N       -7.0470    -5.0310     0.2160 N.pl3 1 <1>   0.3000 
 22 C       -7.1160    -3.2910    -1.6100 C.3   1 <1>  -0.0600 
 23 H       -2.5170    -0.1380     1.1510 H     1 <1>   0.3700 
 24 H       -2.9170     2.2750     1.2130 H     1 <1>   0.0800 
 25 H       -2.7070    -1.1200    -1.6600 H     1 <1>   0.0800 
 26 H       -1.6460    -1.8880    -0.5020 H     1 <1>   0.0800 
 27 H       -3.2480     3.6700    -0.8010 H     1 <1>   0.0800 
 28 H       -1.5200     3.8500    -0.9290 H     1 <1>   0.0800 
 29 H       -0.8340     1.6720     2.0720 H     1 <1>   0.0800 
 30 H        0.0140     2.0600     0.6100 H     1 <1>   0.0800 
 31 H       -3.5800    -2.3410     0.9770 H     1 <1>   0.0800 
 32 H       -4.6400    -1.5360    -0.1560 H     1 <1>   0.0800 
 33 H       -3.4130     5.1360     0.9880 H     1 <1>   0.0800 
 34 H        0.2560     4.2610     1.1310 H     1 <1>   0.0800 
 35 H        0.1440     3.6430     2.7590 H     1 <1>   0.0800 
 36 H       -3.0370    -4.0320    -0.7720 H     1 <1>   0.0800 
 37 H       -4.1240    -3.2310    -1.8650 H     1 <1>   0.0800 
 38 H       -2.2710     4.1830     2.7800 H     1 <1>   0.0800 
 39 H       -2.1260     7.5040    -1.2420 H     1 <1>   0.0800 
 40 H       -3.5630     6.9680    -0.3820 H     1 <1>   0.0800 
 41 H       -2.8550     5.9600    -1.6540 H     1 <1>   0.0800 
 42 H       -1.0380     6.4370     1.8090 H     1 <1>   0.4000 
 43 H       -3.2000    -4.7750     1.7810 H     1 <1>   0.0800 
 44 H       -3.2130    -6.2620     0.8500 H     1 <1>   0.0800 
 45 H       -4.0620    -6.1740     2.3760 H     1 <1>   0.0800 
 46 H       -8.0550    -5.2240     0.2140 H     1 <1>   0.2700 
 47 H       -6.4220    -2.6340    -2.1030 H     1 <1>   0.0800 
 48 H       -7.8710    -2.6900    -1.1350 H     1 <1>   0.0800 
 49 H       -7.5800    -3.9150    -2.3530 H     1 <1>   0.0800 
@<TRIPOS>BOND
  1   1   2  2   
  2   2   3  am  
  3   2   4  1   
  4   3   5  1   
  5   3  23  1   
  6   4   6  1   
  7   4   7  1   
  8   4  24  1   
  9   5   8  1   
 10   5  25  1   
 11   5  26  1   
 12   6   9  1   
 13   6  27  1   
 14   6  28  1   
 15   7  10  1   
 16   7  29  1   
 17   7  30  1   
 18   8  11  1   
 19   8  31  1   
 20   8  32  1   
 21   9  12  1   
 22   9  13  1   
 23   9  33  1   
 24  10  13  1   
 25  10  34  1   
 26  10  35  1   
 27  11  14  1   
 28  11  36  1   
 29  11  37  1   
 30  12  15  1   
 31  13  16  1   
 32  13  38  1   
 33  14  17  1   
 34  14  18  2   
 35  15  39  1   
 36  15  40  1   
 37  15  41  1   
 38  16  42  1   
 39  17  19  2   
 40  17  20  1   
 41  18  21  1   
 42  18  22  1   
 43  19  21  1   
 44  20  43  1   
 45  20  44  1   
 46  20  45  1   
 47  21  46  1   
 48  22  47  1   
 49  22  48  1   
 50  22  49  1   
@<TRIPOS>SUBSTRUCTURE
  1 ****   3 GROUP 4 **** **** 0

# MOE 2024.06 (io_trps.svl 2023.06)
