@<TRIPOS>MOLECULE
NONAME
60 62 1 0 0 
SMALL
USER_CHARGES


@<TRIPOS>ATOM
  1 O       -1.2200     0.5970    -1.2860 O.2   1 <1>  -0.5700 
  2 C       -1.2130     1.2700    -0.2710 C.2   1 <1>   0.5440 
  3 N       -1.9910     0.8530     0.7920 N.am  1 <1>  -0.6600 
  4 C       -0.4160     2.4820    -0.2280 C.ar  1 <1>   0.0860 
  5 C       -2.5220    -0.5390     0.8150 C.3   1 <1>   0.1400 
  6 C       -2.4400     1.7680     1.8810 C.3   1 <1>   0.1400 
  7 C        0.3940     2.7910     0.8650 C.ar  1 <1>  -0.1500 
  8 C       -0.4280     3.3840    -1.2940 C.ar  1 <1>  -0.1500 
  9 C       -3.8120    -0.6520    -0.0160 C.3   1 <1>   0.1400 
 10 C       -3.9440     1.6660     2.1750 C.3   1 <1>  -0.1600 
 11 C        1.1280     3.9580     0.8950 C.ar  1 <1>   0.0830 
 12 C        0.3120     4.5540    -1.2720 C.ar  1 <1>  -0.1500 
 13 N       -4.9900     0.0140     0.6370 N.am  1 <1>  -0.6600 
 14 C       -4.8150     1.4710     0.9280 C.3   1 <1>   0.1400 
 15 O        1.8870     4.2350     1.9680 O.3   1 <1>  -0.5320 
 16 C        1.1000     4.8580    -0.1670 C.ar  1 <1>   0.0830 
 17 C       -6.1770    -0.6100     0.9350 C.2   1 <1>   0.5690 
 18 O        1.8540     5.9850    -0.0590 O.3   1 <1>  -0.3630 
 19 O       -7.0620    -0.0540     1.5470 O.2   1 <1>  -0.5700 
 20 C       -6.4770    -2.0540     0.4900 C.3   1 <1>   0.4040 
 21 C        1.9130     6.9300    -1.1050 C.3   1 <1>   0.0400 
 22 N       -7.9570    -2.3350     0.3680 N.4   1 <1>  -0.9590 
 23 C       -8.2520    -3.7900     0.4420 C.3   1 <1>   0.3430 
 24 C       -8.5360    -1.6230    -0.8080 C.3   1 <1>   0.3430 
 25 C       -9.7480    -4.0720     0.5970 C.3   1 <1>  -0.1600 
 26 C       -9.9900    -1.2530    -0.5210 C.3   1 <1>  -0.1600 
 27 C      -10.5510    -3.8010    -0.6830 C.3   1 <1>  -0.1600 
 28 C      -11.0220    -2.3480    -0.8410 C.3   1 <1>  -0.1600 
 29 H       -2.6940    -0.8600     1.8270 H     1 <1>   0.0800 
 30 H       -1.7800    -1.1930     0.3890 H     1 <1>   0.0800 
 31 H       -2.2290     2.7850     1.5980 H     1 <1>   0.0800 
 32 H       -1.8820     1.5560     2.7770 H     1 <1>   0.0800 
 33 H        0.4540     2.1140     1.6970 H     1 <1>   0.1500 
 34 H       -1.0310     3.1520    -2.1550 H     1 <1>   0.1500 
 35 H       -4.0060    -1.6960    -0.1690 H     1 <1>   0.0800 
 36 H       -3.6450    -0.2120    -0.9850 H     1 <1>   0.0800 
 37 H       -4.2380     2.5830     2.6530 H     1 <1>   0.0800 
 38 H       -4.1350     0.8790     2.8830 H     1 <1>   0.0800 
 39 H        0.2620     5.2100    -2.1200 H     1 <1>   0.1500 
 40 H       -4.3760     1.9680     0.0780 H     1 <1>   0.0800 
 41 H       -5.7750     1.9260     1.1020 H     1 <1>   0.0800 
 42 H        2.3530     5.0840     1.8250 H     1 <1>   0.4500 
 43 H       -6.0470    -2.7110     1.2250 H     1 <1>   0.0800 
 44 H       -5.9950    -2.2390    -0.4540 H     1 <1>   0.0800 
 45 H        2.5740     7.7230    -0.8040 H     1 <1>   0.0800 
 46 H        0.9270     7.3240    -1.2780 H     1 <1>   0.0800 
 47 H        2.2970     6.4510    -1.9890 H     1 <1>   0.0800 
 48 H       -8.3710    -1.8680     1.1940 H     1 <1>   0.4500 
 49 H       -7.7410    -4.2100     1.2930 H     1 <1>   0.0800 
 50 H       -7.8850    -4.2850    -0.4430 H     1 <1>   0.0800 
 51 H       -8.4640    -2.2230    -1.7000 H     1 <1>   0.0800 
 52 H       -7.9910    -0.7070    -0.9700 H     1 <1>   0.0800 
 53 H      -10.1580    -3.5350     1.4350 H     1 <1>   0.0800 
 54 H       -9.8460    -5.1200     0.8220 H     1 <1>   0.0800 
 55 H      -10.2370    -0.3930    -1.1200 H     1 <1>   0.0800 
 56 H      -10.0870    -0.9430     0.5050 H     1 <1>   0.0800 
 57 H      -11.4300    -4.4250    -0.6740 H     1 <1>   0.0800 
 58 H       -9.9760    -4.0960    -1.5450 H     1 <1>   0.0800 
 59 H      -11.3590    -2.2220    -1.8570 H     1 <1>   0.0800 
 60 H      -11.8830    -2.1910    -0.2130 H     1 <1>   0.0800 
@<TRIPOS>BOND
  1   1   2  2   
  2   2   3  am  
  3   2   4  1   
  4   3   5  1   
  5   3   6  1   
  6   4   7  ar  
  7   4   8  ar  
  8   5   9  1   
  9   5  29  1   
 10   5  30  1   
 11   6  10  1   
 12   6  31  1   
 13   6  32  1   
 14   7  11  ar  
 15   7  33  1   
 16   8  12  ar  
 17   8  34  1   
 18   9  13  1   
 19   9  35  1   
 20   9  36  1   
 21  10  14  1   
 22  10  37  1   
 23  10  38  1   
 24  11  15  1   
 25  11  16  ar  
 26  12  16  ar  
 27  12  39  1   
 28  13  14  1   
 29  13  17  am  
 30  14  40  1   
 31  14  41  1   
 32  15  42  1   
 33  16  18  1   
 34  17  19  2   
 35  17  20  1   
 36  18  21  1   
 37  20  22  1   
 38  20  43  1   
 39  20  44  1   
 40  21  45  1   
 41  21  46  1   
 42  21  47  1   
 43  22  23  1   
 44  22  24  1   
 45  22  48  1   
 46  23  25  1   
 47  23  49  1   
 48  23  50  1   
 49  24  26  1   
 50  24  51  1   
 51  24  52  1   
 52  25  27  1   
 53  25  53  1   
 54  25  54  1   
 55  26  28  1   
 56  26  55  1   
 57  26  56  1   
 58  27  28  1   
 59  27  57  1   
 60  27  58  1   
 61  28  59  1   
 62  28  60  1   
@<TRIPOS>SUBSTRUCTURE
  1 ****  14 GROUP 4 **** **** 0

# MOE 2024.06 (io_trps.svl 2023.06)
