@<TRIPOS>MOLECULE
NONAME
48 50 1 0 0 
SMALL
USER_CHARGES


@<TRIPOS>ATOM
  1 S        1.3880     1.9160    -0.3050 S.o2  1 <1>   1.3330 
  2 O        1.0950     2.5660    -1.5630 O.2   1 <1>  -0.6500 
  3 O        2.3470     2.5280     0.5890 O.2   1 <1>  -0.6500 
  4 N        1.9330     0.3490    -0.6580 N.am  1 <1>  -0.8490 
  5 C       -0.1420     1.5970     0.5870 C.3   1 <1>  -0.0550 
  6 C        3.3930     0.2720    -0.7740 C.3   1 <1>   0.1160 
  7 C        1.3100    -0.2330    -1.8520 C.3   1 <1>   0.1160 
  8 C       -0.9140     2.8130     1.1510 C.3   1 <1>  -0.0800 
  9 C       -1.2270     3.8840     0.1060 C.3   1 <1>   0.2000 
 10 C       -0.1490     3.5570     2.2580 C.3   1 <1>   0.1100 
 11 O       -2.4260     4.4700     0.4630 O.3   1 <1>  -0.6800 
 12 C       -0.1340     4.9250     0.3190 C.3   1 <1>   0.1100 
 13 N        0.1190     4.9200     1.7690 N.3   1 <1>  -0.8100 
 14 C        1.4680     5.3860     2.1490 C.3   1 <1>   0.2480 
 15 C        1.8660     6.6640     1.4170 C.2   1 <1>  -0.0380 
 16 N        2.6330     6.5390     0.2810 N.pl3 1 <1>  -0.6000 
 17 C        1.4930     7.8960     1.8400 C.2   1 <1>  -0.1360 
 18 C        3.0360     7.6350    -0.4700 C.ar  1 <1>   0.1000 
 19 C        1.8710     9.0700     1.1410 C.2   1 <1>   0.4690 
 20 C        2.6640     8.9280    -0.0530 C.ar  1 <1>   0.0860 
 21 C        3.8010     7.4560    -1.6240 C.ar  1 <1>  -0.1500 
 22 O        1.5280    10.1690     1.5570 O.2   1 <1>  -0.5700 
 23 C        3.0810    10.0210    -0.8210 C.ar  1 <1>  -0.1500 
 24 C        4.2060     8.5410    -2.3720 C.ar  1 <1>  -0.1500 
 25 C        3.8350     9.8090    -1.9510 C.ar  1 <1>   0.1900 
 26 F        4.2200    10.8370    -2.6610 F     1 <1>  -0.1900 
 27 H       -0.8070     1.0690    -0.0690 H     1 <1>   0.0800 
 28 H        0.0760     0.9350     1.4030 H     1 <1>   0.0800 
 29 H        3.6990    -0.7400    -0.9810 H     1 <1>   0.0800 
 30 H        3.8550     0.5770     0.1500 H     1 <1>   0.0800 
 31 H        3.7410     0.9160    -1.5650 H     1 <1>   0.0800 
 32 H        1.6220    -1.2570    -1.9710 H     1 <1>   0.0800 
 33 H        1.5900     0.3220    -2.7330 H     1 <1>   0.0800 
 34 H        0.2380    -0.2150    -1.7600 H     1 <1>   0.0800 
 35 H       -1.8320     2.4290     1.5620 H     1 <1>   0.0800 
 36 H       -1.3030     3.5250    -0.9060 H     1 <1>   0.0800 
 37 H        0.7630     3.0420     2.5100 H     1 <1>   0.0800 
 38 H       -0.7530     3.6230     3.1470 H     1 <1>   0.0800 
 39 H       -2.2460     5.0140     1.2590 H     1 <1>   0.4000 
 40 H       -0.4390     5.8990    -0.0230 H     1 <1>   0.0800 
 41 H        0.7530     4.6390    -0.2130 H     1 <1>   0.0800 
 42 H        1.4790     5.5690     3.2090 H     1 <1>   0.0800 
 43 H        2.2010     4.6250     1.9420 H     1 <1>   0.0800 
 44 H        2.8950     5.5970    -0.0410 H     1 <1>   0.4000 
 45 H        0.8890     8.0340     2.7170 H     1 <1>   0.1500 
 46 H        4.0730     6.4610    -1.9280 H     1 <1>   0.1500 
 47 H        2.8110    11.0190    -0.5260 H     1 <1>   0.1500 
 48 H        4.7960     8.4240    -3.2640 H     1 <1>   0.1500 
@<TRIPOS>BOND
  1   1   2  2   
  2   1   3  2   
  3   1   4  am  
  4   1   5  1   
  5   4   6  1   
  6   4   7  1   
  7   5   8  1   
  8   5  27  1   
  9   5  28  1   
 10   6  29  1   
 11   6  30  1   
 12   6  31  1   
 13   7  32  1   
 14   7  33  1   
 15   7  34  1   
 16   8   9  1   
 17   8  10  1   
 18   8  35  1   
 19   9  11  1   
 20   9  12  1   
 21   9  36  1   
 22  10  13  1   
 23  10  37  1   
 24  10  38  1   
 25  11  39  1   
 26  12  13  1   
 27  12  40  1   
 28  12  41  1   
 29  13  14  1   
 30  14  15  1   
 31  14  42  1   
 32  14  43  1   
 33  15  16  1   
 34  15  17  2   
 35  16  18  1   
 36  16  44  1   
 37  17  19  1   
 38  17  45  1   
 39  18  20  ar  
 40  18  21  ar  
 41  19  20  1   
 42  19  22  2   
 43  20  23  ar  
 44  21  24  ar  
 45  21  46  1   
 46  23  25  ar  
 47  23  47  1   
 48  24  25  ar  
 49  24  48  1   
 50  25  26  1   
@<TRIPOS>SUBSTRUCTURE
  1 ****  16 GROUP 4 **** **** 0

# MOE 2024.06 (io_trps.svl 2023.06)
