@<TRIPOS>MOLECULE
NONAME
52 54 1 0 0 
SMALL
USER_CHARGES


@<TRIPOS>ATOM
  1 O       -0.0420    -0.8280    -0.8750 O.2   1 <1>  -0.5700 
  2 C        0.1540    -1.4450     0.1480 C.2   1 <1>   0.5690 
  3 N        1.4170    -1.7870     0.5900 N.am  1 <1>  -0.4770 
  4 C       -1.1010    -1.8470     0.9460 C.3   1 <1>   0.4040 
  5 C        2.5780    -1.4870    -0.1480 C.ar  1 <1>   0.1170 
  6 C        1.6450    -2.5200     1.8680 C.3   1 <1>   0.0600 
  7 N       -2.3520    -1.1290     0.4900 N.4   1 <1>  -0.9590 
  8 C        2.9140    -0.1710    -0.4470 C.ar  1 <1>  -0.1500 
  9 C        3.4210    -2.5040    -0.5850 C.ar  1 <1>  -0.1500 
 10 C       -3.6160    -1.8400     0.8540 C.3   1 <1>   0.3430 
 11 C       -2.3550     0.3030     0.9010 C.3   1 <1>   0.3430 
 12 C        4.0640     0.1230    -1.1570 C.ar  1 <1>  -0.1500 
 13 C        4.5720    -2.2140    -1.2940 C.ar  1 <1>  -0.1500 
 14 C       -4.8460    -1.1780     0.2000 C.3   1 <1>   0.0000 
 15 C       -3.5400     1.0190     0.2540 C.3   1 <1>  -0.1600 
 16 C        4.8960    -0.8990    -1.5800 C.ar  1 <1>  -0.1500 
 17 C       -6.1060    -1.9460     0.6500 C.3   1 <1>   0.2000 
 18 C       -4.8750     0.3240     0.5680 C.3   1 <1>  -0.1600 
 19 C       -4.8350    -1.4120    -1.3220 C.3   1 <1>  -0.1600 
 20 O       -7.2280    -1.1610     0.3860 O.3   1 <1>  -0.5600 
 21 C       -6.1500    -3.1870    -0.2520 C.3   1 <1>  -0.1600 
 22 C       -5.3780    -2.8290    -1.5300 C.3   1 <1>  -0.1600 
 23 C       -8.3730    -1.4780     1.1170 C.3   1 <1>   0.0400 
 24 H       -0.9320    -1.6520     1.9900 H     1 <1>   0.0800 
 25 H       -1.2330    -2.9070     0.8170 H     1 <1>   0.0800 
 26 H        2.6940    -2.5090     2.1150 H     1 <1>   0.0800 
 27 H        1.3300    -3.5440     1.7680 H     1 <1>   0.0800 
 28 H        1.1120    -2.0480     2.6750 H     1 <1>   0.0800 
 29 H       -2.2810    -1.1050    -0.5430 H     1 <1>   0.4500 
 30 H        2.2710     0.6270    -0.1260 H     1 <1>   0.1500 
 31 H        3.1750    -3.5280    -0.3750 H     1 <1>   0.1500 
 32 H       -3.5620    -2.8680     0.5340 H     1 <1>   0.0800 
 33 H       -3.7400    -1.8260     1.9240 H     1 <1>   0.0800 
 34 H       -2.4310     0.3790     1.9740 H     1 <1>   0.0800 
 35 H       -1.4390     0.7800     0.5870 H     1 <1>   0.0800 
 36 H        4.3130     1.1450    -1.3830 H     1 <1>   0.1500 
 37 H        5.2170    -3.0090    -1.6280 H     1 <1>   0.1500 
 38 H       -3.5760     2.0320     0.6140 H     1 <1>   0.0800 
 39 H       -3.3890     1.0660    -0.8110 H     1 <1>   0.0800 
 40 H        5.7910    -0.6720    -2.1340 H     1 <1>   0.1500 
 41 H       -6.0870    -2.1870     1.7000 H     1 <1>   0.0800 
 42 H       -5.6670     0.8230     0.0330 H     1 <1>   0.0800 
 43 H       -5.0910     0.4270     1.6180 H     1 <1>   0.0800 
 44 H       -5.5240    -0.7230    -1.7850 H     1 <1>   0.0800 
 45 H       -3.8730    -1.2790    -1.7830 H     1 <1>   0.0800 
 46 H       -5.6610    -4.0080     0.2410 H     1 <1>   0.0800 
 47 H       -7.1590    -3.4840    -0.4780 H     1 <1>   0.0800 
 48 H       -4.5740    -3.5280    -1.6870 H     1 <1>   0.0800 
 49 H       -6.0280    -2.8560    -2.3890 H     1 <1>   0.0800 
 50 H       -9.1630    -0.8200     0.8000 H     1 <1>   0.0800 
 51 H       -8.1790    -1.3300     2.1650 H     1 <1>   0.0800 
 52 H       -8.6570    -2.4980     0.9250 H     1 <1>   0.0800 
@<TRIPOS>BOND
  1   1   2  2   
  2   2   3  am  
  3   2   4  1   
  4   3   5  1   
  5   3   6  1   
  6   4   7  1   
  7   4  24  1   
  8   4  25  1   
  9   5   8  ar  
 10   5   9  ar  
 11   6  26  1   
 12   6  27  1   
 13   6  28  1   
 14   7  10  1   
 15   7  11  1   
 16   7  29  1   
 17   8  12  ar  
 18   8  30  1   
 19   9  13  ar  
 20   9  31  1   
 21  10  14  1   
 22  10  32  1   
 23  10  33  1   
 24  11  15  1   
 25  11  34  1   
 26  11  35  1   
 27  12  16  ar  
 28  12  36  1   
 29  13  16  ar  
 30  13  37  1   
 31  14  17  1   
 32  14  18  1   
 33  14  19  1   
 34  15  18  1   
 35  15  38  1   
 36  15  39  1   
 37  16  40  1   
 38  17  20  1   
 39  17  21  1   
 40  17  41  1   
 41  18  42  1   
 42  18  43  1   
 43  19  22  1   
 44  19  44  1   
 45  19  45  1   
 46  20  23  1   
 47  21  22  1   
 48  21  46  1   
 49  21  47  1   
 50  22  48  1   
 51  22  49  1   
 52  23  50  1   
 53  23  51  1   
 54  23  52  1   
@<TRIPOS>SUBSTRUCTURE
  1 ****   7 GROUP 4 **** **** 0

# MOE 2024.06 (io_trps.svl 2023.06)
