@<TRIPOS>MOLECULE
NONAME
51 54 1 0 0 
SMALL
USER_CHARGES


@<TRIPOS>ATOM
  1 O        1.8760     0.3470     1.6470 O.co2 1 <1>  -0.9000 
  2 C        1.7260     0.8980     0.5430 C.2   1 <1>   0.9060 
  3 O        0.9870     1.8710     0.4070 O.co2 1 <1>  -0.9000 
  4 C        2.4410     0.3090    -0.6880 C.3   1 <1>  -0.1060 
  5 C        3.7450    -0.3810    -0.2210 C.3   1 <1>   0.4230 
  6 C        2.8280     1.4410    -1.6850 C.3   1 <1>  -0.1600 
  7 C        1.5010    -0.7080    -1.4000 C.3   1 <1>  -0.1600 
  8 N        3.4150    -1.5380     0.6880 N.4   1 <1>  -0.9590 
  9 C        4.7290     0.6550     0.3770 C.3   1 <1>   0.2090 
 10 C        3.8360     2.4320    -1.0880 C.3   1 <1>   0.2090 
 11 C        2.0000    -2.1600    -1.3020 C.3   1 <1>  -0.1600 
 12 C        2.4510    -2.5260     0.1170 C.3   1 <1>   0.3430 
 13 C        4.5590    -2.1750     1.3900 C.3   1 <1>   0.2630 
 14 N        5.0480     1.6750    -0.6570 N.pl3 1 <1>  -0.8380 
 15 C        6.2500     2.3450    -0.5620 C.ar  1 <1>   0.4100 
 16 N        6.2330     3.6130    -0.2670 N.ar  1 <1>  -0.6200 
 17 C        7.4410     1.6300    -0.7830 C.ar  1 <1>  -0.1500 
 18 C        7.4190     4.2730    -0.1530 C.ar  1 <1>   0.3100 
 19 C        8.6440     2.2500    -0.6740 C.ar  1 <1>  -0.1500 
 20 C        7.4430     5.6580     0.1710 C.ar  1 <1>   0.0830 
 21 C        8.6580     3.6160    -0.3440 C.ar  1 <1>   0.0000 
 22 O        6.2470     6.2890     0.3470 O.3   1 <1>  -0.3630 
 23 C        8.6430     6.3300     0.2970 C.ar  1 <1>  -0.1500 
 24 C        9.8600     4.3330    -0.2060 C.ar  1 <1>  -0.1500 
 25 C        6.1450     7.6340     0.7560 C.3   1 <1>   0.0400 
 26 C        9.8540     5.6630     0.1090 C.ar  1 <1>  -0.1500 
 27 H        4.2310    -0.7790    -1.0940 H     1 <1>   0.0800 
 28 H        1.9460     1.9880    -1.9720 H     1 <1>   0.0800 
 29 H        3.2560     1.0250    -2.5800 H     1 <1>   0.0800 
 30 H        0.5200    -0.6460    -0.9550 H     1 <1>   0.0800 
 31 H        1.3780    -0.4540    -2.4390 H     1 <1>   0.0800 
 32 H        2.8380    -1.0200     1.4060 H     1 <1>   0.4500 
 33 H        5.6390     0.1730     0.6820 H     1 <1>   0.0800 
 34 H        4.2950     1.1450     1.2330 H     1 <1>   0.0800 
 35 H        3.4080     2.9490    -0.2440 H     1 <1>   0.0800 
 36 H        4.1080     3.1680    -1.8260 H     1 <1>   0.0800 
 37 H        2.8190    -2.3120    -1.9830 H     1 <1>   0.0800 
 38 H        1.2110    -2.8260    -1.6030 H     1 <1>   0.0800 
 39 H        2.8930    -3.5080     0.1030 H     1 <1>   0.0800 
 40 H        1.5820    -2.5620     0.7550 H     1 <1>   0.0800 
 41 H        5.2220    -2.6370     0.6780 H     1 <1>   0.0800 
 42 H        4.1990    -2.9260     2.0740 H     1 <1>   0.0800 
 43 H        5.1050    -1.4380     1.9550 H     1 <1>   0.0800 
 44 H        7.3640     0.5950    -1.0470 H     1 <1>   0.1500 
 45 H        9.5710     1.7300    -0.8380 H     1 <1>   0.1500 
 46 H        8.6850     7.3740     0.5400 H     1 <1>   0.1500 
 47 H       10.7910     3.8160    -0.3540 H     1 <1>   0.1500 
 48 H        5.1000     7.8700     0.8560 H     1 <1>   0.0800 
 49 H        6.5910     8.2610     0.0050 H     1 <1>   0.0800 
 50 H        6.6380     7.7490     1.7040 H     1 <1>   0.0800 
 51 H       10.7760     6.2080     0.2140 H     1 <1>   0.1500 
@<TRIPOS>BOND
  1   1   2  ar  
  2   2   3  ar  
  3   2   4  1   
  4   4   5  1   
  5   4   6  1   
  6   4   7  1   
  7   5   8  1   
  8   5   9  1   
  9   5  27  1   
 10   6  10  1   
 11   6  28  1   
 12   6  29  1   
 13   7  11  1   
 14   7  30  1   
 15   7  31  1   
 16   8  12  1   
 17   8  13  1   
 18   8  32  1   
 19   9  14  1   
 20   9  33  1   
 21   9  34  1   
 22  10  14  1   
 23  10  35  1   
 24  10  36  1   
 25  11  12  1   
 26  11  37  1   
 27  11  38  1   
 28  12  39  1   
 29  12  40  1   
 30  13  41  1   
 31  13  42  1   
 32  13  43  1   
 33  14  15  1   
 34  15  16  ar  
 35  15  17  ar  
 36  16  18  ar  
 37  17  19  ar  
 38  17  44  1   
 39  18  20  ar  
 40  18  21  ar  
 41  19  21  ar  
 42  19  45  1   
 43  20  22  1   
 44  20  23  ar  
 45  21  24  ar  
 46  22  25  1   
 47  23  26  ar  
 48  23  46  1   
 49  24  26  ar  
 50  24  47  1   
 51  25  48  1   
 52  25  49  1   
 53  25  50  1   
 54  26  51  1   
@<TRIPOS>SUBSTRUCTURE
  1 ****  14 GROUP 4 **** **** 0

# MOE 2024.06 (io_trps.svl 2023.06)
