@<TRIPOS>MOLECULE
NONAME
50 53 1 0 0 
SMALL
USER_CHARGES


@<TRIPOS>ATOM
  1 S       -0.5020    -0.5350    -0.6250 S.3   1 <1>  -0.4600 
  2 C       -1.5240     0.0970     0.7280 C.3   1 <1>   0.0700 
  3 C       -0.1650     0.8730    -1.7480 C.3   1 <1>   0.0700 
  4 C       -2.8310     0.6400     0.1230 C.3   1 <1>   0.4230 
  5 C       -0.2420     2.2440    -1.0570 C.3   1 <1>   0.0700 
  6 N       -4.0480    -0.0660     0.6660 N.4   1 <1>  -0.9590 
  7 C       -2.8470     2.1700     0.2880 C.3   1 <1>   0.0700 
  8 S       -1.9520     2.8870    -1.1180 S.3   1 <1>  -0.4600 
  9 C       -5.3410     0.4900     0.1030 C.3   1 <1>   0.3430 
 10 C       -3.9760    -1.5460     0.3480 C.3   1 <1>   0.3430 
 11 C       -6.5850    -0.2940     0.5750 C.3   1 <1>   0.1900 
 12 C       -5.2280    -2.3120     0.8150 C.3   1 <1>   0.1100 
 13 N       -6.4500    -1.7270     0.2310 N.3   1 <1>  -0.8100 
 14 C       -7.8640     0.2890    -0.0570 C.3   1 <1>   0.1200 
 15 C       -7.6790    -2.4740     0.6130 C.3   1 <1>   0.3330 
 16 O       -8.9760    -0.4260     0.3900 O.3   1 <1>  -0.5600 
 17 C       -7.6020    -3.9150     0.1150 C.ar  1 <1>  -0.1440 
 18 C       -8.9410    -1.7870     0.0460 C.3   1 <1>   0.1200 
 19 C       -7.2960    -4.1950    -1.2100 C.ar  1 <1>  -0.1500 
 20 C       -7.8360    -4.9660     0.9900 C.ar  1 <1>  -0.1500 
 21 C       -7.2200    -5.5040    -1.6530 C.ar  1 <1>  -0.1500 
 22 C       -7.7590    -6.2760     0.5490 C.ar  1 <1>  -0.1500 
 23 C       -7.4510    -6.5450    -0.7720 C.ar  1 <1>  -0.1500 
 24 H       -1.6800    -0.7230     1.4040 H     1 <1>   0.0800 
 25 H       -0.9450     0.8490     1.2320 H     1 <1>   0.0800 
 26 H        0.8300     0.7090    -2.1230 H     1 <1>   0.0800 
 27 H       -0.8560     0.8120    -2.5700 H     1 <1>   0.0800 
 28 H       -2.8030     0.4470    -0.9370 H     1 <1>   0.0800 
 29 H        0.3460     2.9540    -1.6120 H     1 <1>   0.0800 
 30 H        0.1060     2.2310    -0.0410 H     1 <1>   0.0800 
 31 H       -4.0780     0.0320     1.6880 H     1 <1>   0.4500 
 32 H       -2.3610     2.5040     1.1880 H     1 <1>   0.0800 
 33 H       -3.8310     2.5920     0.2320 H     1 <1>   0.0800 
 34 H       -5.4610     1.5190     0.3960 H     1 <1>   0.0800 
 35 H       -5.3100     0.4530    -0.9740 H     1 <1>   0.0800 
 36 H       -3.8790    -1.6830    -0.7170 H     1 <1>   0.0800 
 37 H       -3.1100    -1.9900     0.8110 H     1 <1>   0.0800 
 38 H       -6.6740    -0.1860     1.6430 H     1 <1>   0.0800 
 39 H       -5.2870    -2.3040     1.8900 H     1 <1>   0.0800 
 40 H       -5.1300    -3.3370     0.4990 H     1 <1>   0.0800 
 41 H       -7.8300     0.2340    -1.1320 H     1 <1>   0.0800 
 42 H       -8.0040     1.3140     0.2370 H     1 <1>   0.0800 
 43 H       -7.7670    -2.4800     1.6860 H     1 <1>   0.0800 
 44 H       -9.8240    -2.2530     0.4470 H     1 <1>   0.0800 
 45 H       -8.9680    -1.8720    -1.0260 H     1 <1>   0.0800 
 46 H       -7.1120    -3.3910    -1.9010 H     1 <1>   0.1500 
 47 H       -8.0800    -4.7770     2.0210 H     1 <1>   0.1500 
 48 H       -6.9830    -5.7120    -2.6810 H     1 <1>   0.1500 
 49 H       -7.9420    -7.0870     1.2330 H     1 <1>   0.1500 
 50 H       -7.3930    -7.5640    -1.1160 H     1 <1>   0.1500 
@<TRIPOS>BOND
  1   1   2  1   
  2   1   3  1   
  3   2   4  1   
  4   2  24  1   
  5   2  25  1   
  6   3   5  1   
  7   3  26  1   
  8   3  27  1   
  9   4   6  1   
 10   4   7  1   
 11   4  28  1   
 12   5   8  1   
 13   5  29  1   
 14   5  30  1   
 15   6   9  1   
 16   6  10  1   
 17   6  31  1   
 18   7   8  1   
 19   7  32  1   
 20   7  33  1   
 21   9  11  1   
 22   9  34  1   
 23   9  35  1   
 24  10  12  1   
 25  10  36  1   
 26  10  37  1   
 27  11  13  1   
 28  11  14  1   
 29  11  38  1   
 30  12  13  1   
 31  12  39  1   
 32  12  40  1   
 33  13  15  1   
 34  14  16  1   
 35  14  41  1   
 36  14  42  1   
 37  15  17  1   
 38  15  18  1   
 39  15  43  1   
 40  16  18  1   
 41  17  19  ar  
 42  17  20  ar  
 43  18  44  1   
 44  18  45  1   
 45  19  21  ar  
 46  19  46  1   
 47  20  22  ar  
 48  20  47  1   
 49  21  23  ar  
 50  21  48  1   
 51  22  23  ar  
 52  22  49  1   
 53  23  50  1   
@<TRIPOS>SUBSTRUCTURE
  1 ****  12 GROUP 4 **** **** 0

# MOE 2024.06 (io_trps.svl 2023.06)
