@<TRIPOS>MOLECULE
NONAME
45 47 1 0 0 
SMALL
USER_CHARGES


@<TRIPOS>ATOM
  1 CL      -3.1070     0.6760    -1.0250 Cl    1 <1>  -0.1770 
  2 C       -2.8530    -0.7580    -0.0640 C.ar  1 <1>   0.1770 
  3 C       -3.0880    -2.0000    -0.6250 C.ar  1 <1>  -0.1500 
  4 C       -2.4210    -0.6290     1.2420 C.ar  1 <1>  -0.1500 
  5 C       -2.8880    -3.1430     0.1350 C.ar  1 <1>  -0.1440 
  6 C       -2.2200    -1.7690     2.0020 C.ar  1 <1>  -0.1500 
  7 C       -2.4540    -3.0190     1.4480 C.ar  1 <1>  -0.1500 
  8 C       -3.1460    -4.5150    -0.4660 C.3   1 <1>  -0.0160 
  9 C       -4.6210    -4.8990    -0.3070 C.3   1 <1>  -0.0990 
 10 C       -4.8840    -6.2770    -0.8710 C.2   1 <1>   0.5690 
 11 O       -5.0140    -6.4090    -2.0620 O.2   1 <1>  -0.5700 
 12 N       -4.9610    -7.3270    -0.0200 N.am  1 <1>  -0.7300 
 13 C       -5.1910    -8.7300    -0.4300 C.3   1 <1>   0.2200 
 14 C       -6.6060    -9.1340    -0.0530 C.3   1 <1>  -0.0800 
 15 C       -4.3610    -9.6590     0.4470 C.3   1 <1>   0.1200 
 16 C       -6.4490    -9.5580     1.4130 C.3   1 <1>   0.1200 
 17 C       -7.1210   -10.2810    -0.9430 C.3   1 <1>  -0.0170 
 18 O       -5.0900    -9.8160     1.6270 O.3   1 <1>  -0.5600 
 19 C       -8.5470   -10.6700    -0.5830 C.ar  1 <1>  -0.1430 
 20 C       -9.6230    -9.8810    -0.9360 C.ar  1 <1>  -0.1500 
 21 C       -8.8410   -11.8270     0.1110 C.ar  1 <1>  -0.1500 
 22 C      -10.9040   -10.2730    -0.5840 C.ar  1 <1>   0.1600 
 23 C      -10.1590   -12.1270     0.4140 C.ar  1 <1>   0.1600 
 24 N      -11.1970   -11.3760     0.0850 N.ar  1 <1>  -0.6200 
 25 H       -3.4240    -2.0630    -1.6440 H     1 <1>   0.1500 
 26 H       -2.2450     0.3480     1.6540 H     1 <1>   0.1500 
 27 H       -1.8840    -1.6860     3.0210 H     1 <1>   0.1500 
 28 H       -2.2940    -3.8970     2.0490 H     1 <1>   0.1500 
 29 H       -2.8880    -4.5080    -1.5120 H     1 <1>   0.0800 
 30 H       -2.5240    -5.2480     0.0170 H     1 <1>   0.0800 
 31 H       -5.2360    -4.1920    -0.8320 H     1 <1>   0.0800 
 32 H       -4.8950    -4.8730     0.7320 H     1 <1>   0.0800 
 33 H       -4.8650    -7.1970     0.9890 H     1 <1>   0.3700 
 34 H       -4.9750    -8.8560    -1.4790 H     1 <1>   0.0800 
 35 H       -7.2830    -8.3020    -0.1420 H     1 <1>   0.0800 
 36 H       -3.3880    -9.2600     0.6720 H     1 <1>   0.0800 
 37 H       -4.2620   -10.6280    -0.0090 H     1 <1>   0.0800 
 38 H       -7.0130   -10.4410     1.6590 H     1 <1>   0.0800 
 39 H       -6.7350    -8.7590     2.0740 H     1 <1>   0.0800 
 40 H       -6.4790   -11.1410    -0.8530 H     1 <1>   0.0800 
 41 H       -7.1010    -9.9690    -1.9730 H     1 <1>   0.0800 
 42 H       -9.4780    -8.9670    -1.4820 H     1 <1>   0.1500 
 43 H       -8.0600   -12.4980     0.4200 H     1 <1>   0.1500 
 44 H      -11.7310    -9.6450    -0.8670 H     1 <1>   0.1500 
 45 H      -10.3690   -13.0330     0.9570 H     1 <1>   0.1500 
@<TRIPOS>BOND
  1   1   2  1   
  2   2   3  ar  
  3   2   4  ar  
  4   3   5  ar  
  5   3  25  1   
  6   4   6  ar  
  7   4  26  1   
  8   5   7  ar  
  9   5   8  1   
 10   6   7  ar  
 11   6  27  1   
 12   7  28  1   
 13   8   9  1   
 14   8  29  1   
 15   8  30  1   
 16   9  10  1   
 17   9  31  1   
 18   9  32  1   
 19  10  11  2   
 20  10  12  am  
 21  12  13  1   
 22  12  33  1   
 23  13  14  1   
 24  13  15  1   
 25  13  34  1   
 26  14  16  1   
 27  14  17  1   
 28  14  35  1   
 29  15  18  1   
 30  15  36  1   
 31  15  37  1   
 32  16  18  1   
 33  16  38  1   
 34  16  39  1   
 35  17  19  1   
 36  17  40  1   
 37  17  41  1   
 38  19  20  ar  
 39  19  21  ar  
 40  20  22  ar  
 41  20  42  1   
 42  21  23  ar  
 43  21  43  1   
 44  22  24  ar  
 45  22  44  1   
 46  23  24  ar  
 47  23  45  1   
@<TRIPOS>SUBSTRUCTURE
  1 ****  12 GROUP 4 **** **** 0

# MOE 2024.06 (io_trps.svl 2023.06)
