@<TRIPOS>MOLECULE
NONAME
45 47 1 0 0 
SMALL
USER_CHARGES


@<TRIPOS>ATOM
  1 O       -2.6920     1.0480    -1.9670 O.2   1 <1>  -0.5700 
  2 C       -2.2900     0.8860    -0.8420 C.2   1 <1>   0.5690 
  3 N       -2.0220    -0.3430    -0.3450 N.am  1 <1>  -0.7300 
  4 C       -2.0820     2.0920     0.0350 C.3   1 <1>  -0.0990 
  5 C       -2.1620    -1.6130    -1.0970 C.3   1 <1>   0.2200 
  6 C       -0.9400     2.9450    -0.5200 C.3   1 <1>   0.0960 
  7 C       -3.3980    -2.3840    -0.6550 C.3   1 <1>  -0.0800 
  8 C       -1.0640    -2.5690    -0.6520 C.3   1 <1>   0.1200 
  9 N       -0.7220     4.1190     0.3430 N.pl3 1 <1>   0.3140 
 10 C       -2.9070    -3.1480     0.5800 C.3   1 <1>   0.1200 
 11 C       -4.6680    -1.5440    -0.4190 C.3   1 <1>  -0.0170 
 12 O       -1.5100    -3.0890     0.5640 O.3   1 <1>  -0.5600 
 13 N       -0.0360     4.0070     1.4950 N.2   1 <1>  -0.7070 
 14 C       -1.1660     5.3840     0.1550 C.2   1 <1>  -0.3320 
 15 C       -5.8480    -2.4340    -0.0620 C.ar  1 <1>  -0.1440 
 16 C       -0.0500     5.1990     2.0080 C.2   1 <1>   0.1390 
 17 C       -0.7430     6.1040     1.2150 C.2   1 <1>  -0.1500 
 18 C       -1.9830     5.8560    -1.0370 C.3   1 <1>  -0.0600 
 19 C       -6.2580    -2.6200     1.2430 C.ar  1 <1>  -0.1500 
 20 C       -6.5710    -3.1030    -1.0290 C.ar  1 <1>  -0.1500 
 21 C       -7.3360    -3.4480     1.5100 C.ar  1 <1>   0.1600 
 22 C       -7.6340    -3.9080    -0.6550 C.ar  1 <1>   0.1600 
 23 N       -8.0330    -4.0980     0.5920 N.ar  1 <1>  -0.6200 
 24 H       -1.6920    -0.4670     0.6160 H     1 <1>   0.3700 
 25 H       -2.9910     2.6650     0.0490 H     1 <1>   0.0800 
 26 H       -1.8500     1.7820     1.0380 H     1 <1>   0.0800 
 27 H       -2.1410    -1.4310    -2.1580 H     1 <1>   0.0800 
 28 H       -1.1650     3.2730    -1.5170 H     1 <1>   0.0800 
 29 H       -0.0300     2.3740    -0.5440 H     1 <1>   0.0800 
 30 H       -3.6170    -3.1130    -1.4150 H     1 <1>   0.0800 
 31 H       -0.1140    -2.0830    -0.5150 H     1 <1>   0.0800 
 32 H       -0.9640    -3.3870    -1.3450 H     1 <1>   0.0800 
 33 H       -3.2150    -4.1800     0.5590 H     1 <1>   0.0800 
 34 H       -3.2410    -2.6880     1.4940 H     1 <1>   0.0800 
 35 H       -4.8980    -0.9870    -1.3110 H     1 <1>   0.0800 
 36 H       -4.5090    -0.8340     0.3730 H     1 <1>   0.0800 
 37 H        0.4240     5.4470     2.9430 H     1 <1>   0.1500 
 38 H       -0.8930     7.1470     1.4310 H     1 <1>   0.1500 
 39 H       -2.2270     6.8980    -0.9280 H     1 <1>   0.0800 
 40 H       -2.8980     5.2960    -1.1070 H     1 <1>   0.0800 
 41 H       -1.4230     5.7310    -1.9460 H     1 <1>   0.0800 
 42 H       -5.7520    -2.1310     2.0550 H     1 <1>   0.1500 
 43 H       -6.3180    -3.0060    -2.0690 H     1 <1>   0.1500 
 44 H       -7.6420    -3.5820     2.5330 H     1 <1>   0.1500 
 45 H       -8.1860    -4.4220    -1.4230 H     1 <1>   0.1500 
@<TRIPOS>BOND
  1   1   2  2   
  2   2   3  am  
  3   2   4  1   
  4   3   5  1   
  5   3  24  1   
  6   4   6  1   
  7   4  25  1   
  8   4  26  1   
  9   5   7  1   
 10   5   8  1   
 11   5  27  1   
 12   6   9  1   
 13   6  28  1   
 14   6  29  1   
 15   7  10  1   
 16   7  11  1   
 17   7  30  1   
 18   8  12  1   
 19   8  31  1   
 20   8  32  1   
 21   9  13  1   
 22   9  14  1   
 23  10  12  1   
 24  10  33  1   
 25  10  34  1   
 26  11  15  1   
 27  11  35  1   
 28  11  36  1   
 29  13  16  2   
 30  14  17  2   
 31  14  18  1   
 32  15  19  ar  
 33  15  20  ar  
 34  16  17  1   
 35  16  37  1   
 36  17  38  1   
 37  18  39  1   
 38  18  40  1   
 39  18  41  1   
 40  19  21  ar  
 41  19  42  1   
 42  20  22  ar  
 43  20  43  1   
 44  21  23  ar  
 45  21  44  1   
 46  22  23  ar  
 47  22  45  1   
@<TRIPOS>SUBSTRUCTURE
  1 ****   3 GROUP 4 **** **** 0

# MOE 2024.06 (io_trps.svl 2023.06)
