@<TRIPOS>MOLECULE
NONAME
47 50 1 0 0 
SMALL
USER_CHARGES


@<TRIPOS>ATOM
  1 F       -2.6240     0.3160    -2.8180 F     1 <1>  -0.1900 
  2 C       -3.1700    -0.6010    -2.0450 C.ar  1 <1>   0.1900 
  3 C       -3.4770    -0.3580    -0.7050 C.ar  1 <1>   0.4100 
  4 C       -3.4510    -1.8250    -2.5850 C.ar  1 <1>   0.1600 
  5 N       -4.0460    -1.3140     0.0070 N.ar  1 <1>  -0.6200 
  6 N       -3.2330     0.8470    -0.0460 N.pl3 1 <1>  -0.8380 
  7 N       -4.0080    -2.7850    -1.8720 N.ar  1 <1>  -0.6200 
  8 C       -4.2770    -2.4570    -0.6130 C.ar  1 <1>   0.7200 
  9 C       -2.0950     1.7380    -0.3750 C.3   1 <1>   0.2090 
 10 C       -3.6950     1.0890     1.3430 C.3   1 <1>   0.2090 
 11 N       -4.8650    -3.3890     0.1680 N.pl3 1 <1>  -0.8690 
 12 C       -1.7370     2.4270     0.9370 C.3   1 <1>  -0.1600 
 13 C       -3.0230     2.3910     1.7550 C.3   1 <1>  -0.1600 
 14 C       -4.6750    -4.8500     0.0070 C.3   1 <1>   0.2890 
 15 C       -6.0120    -5.5720     0.0530 C.3   1 <1>  -0.0800 
 16 C       -4.0080    -5.4130     1.2570 C.3   1 <1>   0.1200 
 17 C       -6.2700    -5.7010     1.5560 C.3   1 <1>   0.1200 
 18 C       -7.1580    -4.9060    -0.7320 C.3   1 <1>  -0.0170 
 19 O       -5.0290    -5.5990     2.1930 O.3   1 <1>  -0.5600 
 20 C       -8.4310    -5.7330    -0.6420 C.ar  1 <1>  -0.1430 
 21 C       -9.4470    -5.4140     0.2360 C.ar  1 <1>  -0.1500 
 22 C       -8.6350    -6.8470    -1.4310 C.ar  1 <1>  -0.1500 
 23 C      -10.5830    -6.2050     0.2850 C.ar  1 <1>   0.1600 
 24 C       -9.8090    -7.5710    -1.3030 C.ar  1 <1>   0.1600 
 25 N      -10.7880    -7.2780    -0.4620 N.ar  1 <1>  -0.6200 
 26 H       -3.2180    -2.0210    -3.6160 H     1 <1>   0.1500 
 27 H       -1.2590     1.1800    -0.7620 H     1 <1>   0.0800 
 28 H       -2.4180     2.4630    -1.1020 H     1 <1>   0.0800 
 29 H       -4.7690     1.1620     1.3800 H     1 <1>   0.0800 
 30 H       -3.3650     0.2820     1.9760 H     1 <1>   0.0800 
 31 H       -4.9310    -3.0880     1.1410 H     1 <1>   0.4000 
 32 H       -0.9730     1.8530     1.4320 H     1 <1>   0.0800 
 33 H       -1.3780     3.4280     0.7770 H     1 <1>   0.0800 
 34 H       -3.6590     3.2120     1.4770 H     1 <1>   0.0800 
 35 H       -2.8410     2.4270     2.8140 H     1 <1>   0.0800 
 36 H       -4.1150    -5.0800    -0.8830 H     1 <1>   0.0800 
 37 H       -5.8670    -6.5640    -0.3360 H     1 <1>   0.0800 
 38 H       -3.2600    -4.7530     1.6600 H     1 <1>   0.0800 
 39 H       -3.5750    -6.3760     1.0510 H     1 <1>   0.0800 
 40 H       -6.7230    -6.6440     1.8090 H     1 <1>   0.0800 
 41 H       -6.8840    -4.8930     1.9160 H     1 <1>   0.0800 
 42 H       -6.8700    -4.7990    -1.7630 H     1 <1>   0.0800 
 43 H       -7.3500    -3.9170    -0.3510 H     1 <1>   0.0800 
 44 H       -9.3670    -4.5590     0.8810 H     1 <1>   0.1500 
 45 H       -7.8920    -7.1580    -2.1430 H     1 <1>   0.1500 
 46 H      -11.3650    -5.9400     0.9760 H     1 <1>   0.1500 
 47 H       -9.9500    -8.4370    -1.9270 H     1 <1>   0.1500 
@<TRIPOS>BOND
  1   1   2  1   
  2   2   3  ar  
  3   2   4  ar  
  4   3   5  ar  
  5   3   6  1   
  6   4   7  ar  
  7   4  26  1   
  8   5   8  ar  
  9   6   9  1   
 10   6  10  1   
 11   7   8  ar  
 12   8  11  1   
 13   9  12  1   
 14   9  27  1   
 15   9  28  1   
 16  10  13  1   
 17  10  29  1   
 18  10  30  1   
 19  11  14  1   
 20  11  31  1   
 21  12  13  1   
 22  12  32  1   
 23  12  33  1   
 24  13  34  1   
 25  13  35  1   
 26  14  15  1   
 27  14  16  1   
 28  14  36  1   
 29  15  17  1   
 30  15  18  1   
 31  15  37  1   
 32  16  19  1   
 33  16  38  1   
 34  16  39  1   
 35  17  19  1   
 36  17  40  1   
 37  17  41  1   
 38  18  20  1   
 39  18  42  1   
 40  18  43  1   
 41  20  21  ar  
 42  20  22  ar  
 43  21  23  ar  
 44  21  44  1   
 45  22  24  ar  
 46  22  45  1   
 47  23  25  ar  
 48  23  46  1   
 49  24  25  ar  
 50  24  47  1   
@<TRIPOS>SUBSTRUCTURE
  1 ****  11 GROUP 4 **** **** 0

# MOE 2024.06 (io_trps.svl 2023.06)
