@<TRIPOS>MOLECULE
NONAME
47 49 1 0 0 
SMALL
USER_CHARGES


@<TRIPOS>ATOM
  1 F       -0.8780    -2.3170    -1.3920 F     1 <1>  -0.3400 
  2 C       -1.8690    -1.4340    -1.3800 C.3   1 <1>   1.1640 
  3 F       -2.3520    -1.3990    -2.6150 F     1 <1>  -0.3400 
  4 F       -1.3090    -0.2500    -1.1640 F     1 <1>  -0.3400 
  5 C       -2.9590    -1.7850    -0.3530 C.ar  1 <1>  -0.1440 
  6 C       -3.3770    -3.1030    -0.1990 C.ar  1 <1>  -0.1500 
  7 C       -3.5550    -0.8060     0.4350 C.ar  1 <1>  -0.1500 
  8 C       -4.3660    -3.4720     0.7140 C.ar  1 <1>   0.0860 
  9 C       -4.5320    -1.1440     1.3530 C.ar  1 <1>  -0.1500 
 10 C       -4.7780    -4.8600     0.8500 C.2   1 <1>   0.5440 
 11 C       -4.9280    -2.4600     1.4910 C.ar  1 <1>  -0.1500 
 12 O       -3.9690    -5.7560     0.6830 O.2   1 <1>  -0.5700 
 13 N       -6.0750    -5.2160     1.1430 N.am  1 <1>  -0.6600 
 14 C       -6.3780    -6.5940     1.6270 C.3   1 <1>   0.1400 
 15 C       -7.2420    -4.5600     0.4880 C.3   1 <1>   0.1400 
 16 C       -6.7470    -7.4720     0.4090 C.3   1 <1>   0.4230 
 17 C       -7.6860    -5.4230    -0.7040 C.3   1 <1>  -0.1600 
 18 N       -6.9530    -8.9260     0.7300 N.4   1 <1>  -0.9590 
 19 C       -7.9960    -6.8920    -0.2920 C.3   1 <1>  -0.1060 
 20 C       -7.1840    -9.7340    -0.4930 C.3   1 <1>   0.3430 
 21 C       -5.9220    -9.5230     1.6180 C.3   1 <1>   0.2630 
 22 C       -9.1820    -6.9440     0.6930 C.2   1 <1>   0.9060 
 23 C       -8.3040    -7.7130    -1.5660 C.3   1 <1>  -0.1600 
 24 C       -8.4050    -9.2150    -1.2570 C.3   1 <1>  -0.1600 
 25 O       -9.2340    -7.8690     1.5200 O.co2 1 <1>  -0.9000 
 26 O      -10.0440    -6.0690     0.6520 O.co2 1 <1>  -0.9000 
 27 H       -2.9280    -3.8800    -0.7970 H     1 <1>   0.1500 
 28 H       -3.2630     0.2290     0.3430 H     1 <1>   0.1500 
 29 H       -4.9850    -0.3800     1.9630 H     1 <1>   0.1500 
 30 H       -5.6830    -2.7130     2.2160 H     1 <1>   0.1500 
 31 H       -5.5100    -6.9830     2.1270 H     1 <1>   0.0800 
 32 H       -7.1860    -6.5520     2.3360 H     1 <1>   0.0800 
 33 H       -8.0480    -4.4640     1.1980 H     1 <1>   0.0800 
 34 H       -6.9860    -3.5750     0.1400 H     1 <1>   0.0800 
 35 H       -5.9190    -7.4020    -0.2750 H     1 <1>   0.0800 
 36 H       -8.5650    -4.9790    -1.1400 H     1 <1>   0.0800 
 37 H       -6.9110    -5.3980    -1.4500 H     1 <1>   0.0800 
 38 H       -7.8780    -8.8840     1.2380 H     1 <1>   0.4500 
 39 H       -6.3150    -9.6830    -1.1280 H     1 <1>   0.0800 
 40 H       -7.3510   -10.7640    -0.2230 H     1 <1>   0.0800 
 41 H       -4.9490    -9.4540     1.1590 H     1 <1>   0.0800 
 42 H       -6.1500   -10.5590     1.8060 H     1 <1>   0.0800 
 43 H       -5.9000    -9.0060     2.5630 H     1 <1>   0.0800 
 44 H       -9.2330    -7.3720    -1.9930 H     1 <1>   0.0800 
 45 H       -7.5290    -7.5580    -2.2970 H     1 <1>   0.0800 
 46 H       -8.5050    -9.7630    -2.1770 H     1 <1>   0.0800 
 47 H       -9.2900    -9.4080    -0.6750 H     1 <1>   0.0800 
@<TRIPOS>BOND
  1   1   2  1   
  2   2   3  1   
  3   2   4  1   
  4   2   5  1   
  5   5   6  ar  
  6   5   7  ar  
  7   6   8  ar  
  8   6  27  1   
  9   7   9  ar  
 10   7  28  1   
 11   8  10  1   
 12   8  11  ar  
 13   9  11  ar  
 14   9  29  1   
 15  10  12  2   
 16  10  13  am  
 17  11  30  1   
 18  13  14  1   
 19  13  15  1   
 20  14  16  1   
 21  14  31  1   
 22  14  32  1   
 23  15  17  1   
 24  15  33  1   
 25  15  34  1   
 26  16  18  1   
 27  16  19  1   
 28  16  35  1   
 29  17  19  1   
 30  17  36  1   
 31  17  37  1   
 32  18  20  1   
 33  18  21  1   
 34  18  38  1   
 35  19  22  1   
 36  19  23  1   
 37  20  24  1   
 38  20  39  1   
 39  20  40  1   
 40  21  41  1   
 41  21  42  1   
 42  21  43  1   
 43  22  25  ar  
 44  22  26  ar  
 45  23  24  1   
 46  23  44  1   
 47  23  45  1   
 48  24  46  1   
 49  24  47  1   
@<TRIPOS>SUBSTRUCTURE
  1 ****  10 GROUP 4 **** **** 0

# MOE 2024.06 (io_trps.svl 2023.06)
