@<TRIPOS>MOLECULE
NONAME
47 49 1 0 0 
SMALL
USER_CHARGES


@<TRIPOS>ATOM
  1 F        2.2480    -0.0760     1.3580 F     1 <1>  -0.1900 
  2 C        2.2030    -1.0790     0.5190 C.ar  1 <1>   0.1900 
  3 C        2.6060    -0.8800    -0.7930 C.ar  1 <1>  -0.1440 
  4 C        1.7520    -2.2960     0.9880 C.ar  1 <1>  -0.1500 
  5 C        2.5450    -1.9640    -1.6540 C.ar  1 <1>  -0.1500 
  6 C        3.0990     0.4760    -1.2760 C.3   1 <1>  -0.0960 
  7 C        1.6910    -3.3810     0.1200 C.ar  1 <1>   0.1170 
  8 C        2.0930    -3.1930    -1.2000 C.ar  1 <1>  -0.1500 
  9 N        1.2410    -4.6530     0.5040 N.am  1 <1>  -0.5470 
 10 C        0.8260    -5.1820     1.6930 C.2   1 <1>   0.5690 
 11 O        0.7720    -4.5750     2.7350 O.2   1 <1>  -0.5700 
 12 C        0.4060    -6.6530     1.6720 C.3   1 <1>   0.1710 
 13 N        0.0030    -7.1480     0.3200 N.3   1 <1>  -0.8100 
 14 C       -1.3030    -6.6090    -0.1310 C.3   1 <1>   0.1100 
 15 C       -0.0730    -8.6200     0.2640 C.3   1 <1>   0.1100 
 16 C       -2.2680    -7.7900    -0.2140 C.3   1 <1>   0.2000 
 17 C       -1.3380    -8.9570    -0.5260 C.3   1 <1>  -0.0800 
 18 O       -2.8510    -7.9680     1.0320 O.3   1 <1>  -0.6800 
 19 C       -1.9060   -10.3600    -0.2360 C.3   1 <1>  -0.0170 
 20 C       -0.8750   -11.4360    -0.5400 C.ar  1 <1>  -0.1430 
 21 C       -0.1910   -12.0970     0.4610 C.ar  1 <1>  -0.1500 
 22 C       -0.5650   -11.8030    -1.8340 C.ar  1 <1>  -0.1500 
 23 C        0.7470   -13.0590     0.1280 C.ar  1 <1>   0.1600 
 24 C        0.3910   -12.7790    -2.0590 C.ar  1 <1>   0.1600 
 25 N        1.0580   -13.4130    -1.1080 N.ar  1 <1>  -0.6200 
 26 H        1.4540    -2.3820     2.0150 H     1 <1>   0.1500 
 27 H        2.8480    -1.8570    -2.6810 H     1 <1>   0.1500 
 28 H        3.3670     0.4420    -2.3160 H     1 <1>   0.0800 
 29 H        3.9630     0.7740    -0.7080 H     1 <1>   0.0800 
 30 H        2.3280     1.2130    -1.1440 H     1 <1>   0.0800 
 31 H        2.0550    -4.0200    -1.8850 H     1 <1>   0.1500 
 32 H        1.1690    -5.3490    -0.2430 H     1 <1>   0.3700 
 33 H       -0.3990    -6.7900     2.3720 H     1 <1>   0.0800 
 34 H        1.2480    -7.2240     2.0200 H     1 <1>   0.0800 
 35 H       -1.6820    -5.8300     0.5110 H     1 <1>   0.0800 
 36 H       -1.1740    -6.2010    -1.1190 H     1 <1>   0.0800 
 37 H        0.8040    -9.0270    -0.2120 H     1 <1>   0.0800 
 38 H       -0.1510    -9.0290     1.2580 H     1 <1>   0.0800 
 39 H       -3.0480    -7.6520    -0.9430 H     1 <1>   0.0800 
 40 H       -1.0840    -8.9050    -1.5700 H     1 <1>   0.0800 
 41 H       -2.1510    -7.9510     1.7100 H     1 <1>   0.4000 
 42 H       -2.7810   -10.5230    -0.8400 H     1 <1>   0.0800 
 43 H       -2.2080   -10.4390     0.7930 H     1 <1>   0.0800 
 44 H       -0.3780   -11.8750     1.4950 H     1 <1>   0.1500 
 45 H       -1.0580   -11.3400    -2.6690 H     1 <1>   0.1500 
 46 H        1.2710   -13.5660     0.9210 H     1 <1>   0.1500 
 47 H        0.6210   -13.0530    -3.0740 H     1 <1>   0.1500 
@<TRIPOS>BOND
  1   1   2  1   
  2   2   3  ar  
  3   2   4  ar  
  4   3   5  ar  
  5   3   6  1   
  6   4   7  ar  
  7   4  26  1   
  8   5   8  ar  
  9   5  27  1   
 10   6  28  1   
 11   6  29  1   
 12   6  30  1   
 13   7   8  ar  
 14   7   9  1   
 15   8  31  1   
 16   9  10  am  
 17   9  32  1   
 18  10  11  2   
 19  10  12  1   
 20  12  13  1   
 21  12  33  1   
 22  12  34  1   
 23  13  14  1   
 24  13  15  1   
 25  14  16  1   
 26  14  35  1   
 27  14  36  1   
 28  15  17  1   
 29  15  37  1   
 30  15  38  1   
 31  16  17  1   
 32  16  18  1   
 33  16  39  1   
 34  17  19  1   
 35  17  40  1   
 36  18  41  1   
 37  19  20  1   
 38  19  42  1   
 39  19  43  1   
 40  20  21  ar  
 41  20  22  ar  
 42  21  23  ar  
 43  21  44  1   
 44  22  24  ar  
 45  22  45  1   
 46  23  25  ar  
 47  23  46  1   
 48  24  25  ar  
 49  24  47  1   
@<TRIPOS>SUBSTRUCTURE
  1 ****  13 GROUP 4 **** **** 0

# MOE 2024.06 (io_trps.svl 2023.06)
