@<TRIPOS>MOLECULE
NONAME
48 50 1 0 0 
SMALL
USER_CHARGES


@<TRIPOS>ATOM
  1 O       -2.1890     2.0630     2.4710 O.2   1 <1>  -0.5700 
  2 C       -2.3250     2.0060     1.2630 C.2   1 <1>   0.5440 
  3 N       -3.3110     1.2090     0.7260 N.am  1 <1>  -0.6600 
  4 C       -1.4530     2.7770     0.4210 C.ar  1 <1>   0.0860 
  5 C       -3.3940     0.9120    -0.7470 C.3   1 <1>   0.1400 
  6 C       -4.3080     0.5040     1.5990 C.3   1 <1>   0.1400 
  7 C       -0.1130     2.4760     0.2200 C.ar  1 <1>   0.1660 
  8 C       -1.9200     3.8920    -0.2510 C.ar  1 <1>   0.1600 
  9 C       -4.1470    -0.3990    -0.9930 C.3   1 <1>   0.2000 
 10 C       -5.6560     0.4340     0.8770 C.3   1 <1>  -0.1600 
 11 N        0.6580     3.1930    -0.5620 N.ar  1 <1>  -0.6200 
 12 C        0.5290     1.2830     0.9050 C.3   1 <1>  -0.0960 
 13 N       -1.1730     4.6270    -1.0390 N.ar  1 <1>  -0.6200 
 14 O       -4.1350    -0.7160    -2.3410 O.3   1 <1>  -0.6800 
 15 C       -5.6000    -0.3830    -0.4550 C.3   1 <1>  -0.1060 
 16 C        0.0820     4.2270    -1.1530 C.ar  1 <1>   0.7200 
 17 C       -5.9130    -1.8720    -0.2740 C.2   1 <1>   0.9060 
 18 C       -6.5980     0.2490    -1.4720 C.3   1 <1>  -0.0170 
 19 N        0.8590     4.9550    -1.9480 N.pl3 1 <1>  -0.9000 
 20 O       -6.0440    -2.3570     0.8550 O.co2 1 <1>  -0.9000 
 21 O       -5.9410    -2.5800    -1.2920 O.co2 1 <1>  -0.9000 
 22 C       -7.9920     0.5280    -0.9120 C.ar  1 <1>  -0.1440 
 23 C       -8.4230     1.8310    -0.7120 C.ar  1 <1>  -0.1500 
 24 C       -8.8470    -0.5200    -0.6060 C.ar  1 <1>  -0.1500 
 25 C       -9.6880     2.0840    -0.2080 C.ar  1 <1>  -0.1500 
 26 C      -10.1110    -0.2700    -0.1020 C.ar  1 <1>  -0.1500 
 27 C      -10.5340     1.0320     0.0980 C.ar  1 <1>  -0.1500 
 28 H       -3.9100     1.7150    -1.2410 H     1 <1>   0.0800 
 29 H       -2.4030     0.8220    -1.1570 H     1 <1>   0.0800 
 30 H       -3.9600    -0.4920     1.8200 H     1 <1>   0.0800 
 31 H       -4.4270     1.0330     2.5290 H     1 <1>   0.0800 
 32 H       -2.9510     4.1750    -0.1220 H     1 <1>   0.1500 
 33 H       -3.5950    -1.1830    -0.4980 H     1 <1>   0.0800 
 34 H       -6.3950     0.0110     1.5350 H     1 <1>   0.0800 
 35 H       -5.9590     1.4470     0.6850 H     1 <1>   0.0800 
 36 H       -0.0860     0.4090     0.7930 H     1 <1>   0.0800 
 37 H        0.6520     1.4910     1.9530 H     1 <1>   0.0800 
 38 H        1.4940     1.0770     0.4780 H     1 <1>   0.0800 
 39 H       -4.6930    -1.5360    -2.4200 H     1 <1>   0.4000 
 40 H       -6.1840     1.1710    -1.8380 H     1 <1>   0.0800 
 41 H       -6.7100    -0.3940    -2.3280 H     1 <1>   0.0800 
 42 H        1.8620     4.8000    -1.9100 H     1 <1>   0.4000 
 43 H        0.5190     5.8600    -2.2580 H     1 <1>   0.4000 
 44 H       -7.7730     2.6540    -0.9450 H     1 <1>   0.1500 
 45 H       -8.5270    -1.5390    -0.7560 H     1 <1>   0.1500 
 46 H      -10.0120     3.0970    -0.0550 H     1 <1>   0.1500 
 47 H      -10.7590    -1.0950     0.1360 H     1 <1>   0.1500 
 48 H      -11.5160     1.2250     0.4900 H     1 <1>   0.1500 
@<TRIPOS>BOND
  1   1   2  2   
  2   2   3  am  
  3   2   4  1   
  4   3   5  1   
  5   3   6  1   
  6   4   7  ar  
  7   4   8  ar  
  8   5   9  1   
  9   5  28  1   
 10   5  29  1   
 11   6  10  1   
 12   6  30  1   
 13   6  31  1   
 14   7  11  ar  
 15   7  12  1   
 16   8  13  ar  
 17   8  32  1   
 18   9  14  1   
 19   9  15  1   
 20   9  33  1   
 21  10  15  1   
 22  10  34  1   
 23  10  35  1   
 24  11  16  ar  
 25  12  36  1   
 26  12  37  1   
 27  12  38  1   
 28  13  16  ar  
 29  14  39  1   
 30  15  17  1   
 31  15  18  1   
 32  16  19  1   
 33  17  20  ar  
 34  17  21  ar  
 35  18  22  1   
 36  18  40  1   
 37  18  41  1   
 38  19  42  1   
 39  19  43  1   
 40  22  23  ar  
 41  22  24  ar  
 42  23  25  ar  
 43  23  44  1   
 44  24  26  ar  
 45  24  45  1   
 46  25  27  ar  
 47  25  46  1   
 48  26  27  ar  
 49  26  47  1   
 50  27  48  1   
@<TRIPOS>SUBSTRUCTURE
  1 ****   5 GROUP 4 **** **** 0

# MOE 2024.06 (io_trps.svl 2023.06)
