@<TRIPOS>MOLECULE
NONAME
57 61 1 0 0 
SMALL
USER_CHARGES


@<TRIPOS>ATOM
  1 S       -1.5130     1.9060    -0.8060 S.o2  1 <1>   1.0900 
  2 O       -0.1010     2.0120    -0.5280 O.2   1 <1>  -0.6500 
  3 O       -2.0490     2.4860    -2.0160 O.2   1 <1>  -0.6500 
  4 C       -1.9540     0.1660    -0.7400 C.3   1 <1>   0.0890 
  5 C       -2.3850     2.6300     0.5720 C.3   1 <1>  -0.1350 
  6 C       -3.4540    -0.0730    -0.6450 C.ar  1 <1>  -0.1440 
  7 C       -4.0380    -0.4970     0.5380 C.ar  1 <1>   0.1600 
  8 C       -4.2670     0.1440    -1.7410 C.ar  1 <1>  -0.1500 
  9 N       -5.3300    -0.6970     0.7170 N.ar  1 <1>  -0.6200 
 10 C       -5.6120    -0.0750    -1.5710 C.ar  1 <1>  -0.1500 
 11 C       -6.1100    -0.4850    -0.3370 C.ar  1 <1>   0.4100 
 12 N       -7.4710    -0.6710    -0.1670 N.pl3 1 <1>  -0.8380 
 13 C       -8.4330     0.4210    -0.5180 C.3   1 <1>   0.2090 
 14 C       -7.9910    -1.6700     0.8080 C.3   1 <1>   0.2090 
 15 C       -8.9530     1.1520     0.7370 C.3   1 <1>   0.1430 
 16 C       -8.5030    -0.9670     2.0720 C.3   1 <1>  -0.1600 
 17 C       -9.9810     2.1770     0.2950 C.ar  1 <1>   0.1670 
 18 C       -9.5300     0.1300     1.7410 C.3   1 <1>  -0.1600 
 19 C       -7.8570     2.0430     1.3840 C.3   1 <1>  -0.1600 
 20 N      -11.1970     1.9090    -0.1160 N.ar  1 <1>  -0.6200 
 21 C       -9.4850     3.4420     0.3540 C.ar  1 <1>  -0.1430 
 22 C       -8.0580     3.4680     0.8420 C.3   1 <1>  -0.0170 
 23 C      -11.9440     2.9640    -0.4680 C.ar  1 <1>   0.6200 
 24 C      -10.3080     4.4690    -0.0280 C.ar  1 <1>   0.1600 
 25 N      -11.5340     4.2410    -0.4390 N.ar  1 <1>  -0.6200 
 26 C      -13.3050     2.7010    -0.9210 C.ar  1 <1>   0.0000 
 27 C      -13.9760     3.5760    -1.7820 C.ar  1 <1>  -0.1500 
 28 C      -14.0060     1.5600    -0.5170 C.ar  1 <1>  -0.1500 
 29 C      -15.2670     3.3290    -2.2130 C.ar  1 <1>  -0.1500 
 30 C      -15.2960     1.3050    -0.9450 C.ar  1 <1>  -0.1500 
 31 C      -15.9310     2.1910    -1.7960 C.ar  1 <1>  -0.1500 
 32 H       -1.4720    -0.2880     0.1040 H     1 <1>   0.0800 
 33 H       -1.5800    -0.3250    -1.6180 H     1 <1>   0.0800 
 34 H       -2.1620     3.6780     0.6330 H     1 <1>   0.0800 
 35 H       -2.0890     2.1680     1.4940 H     1 <1>   0.0800 
 36 H       -3.4460     2.5190     0.4510 H     1 <1>   0.0800 
 37 H       -3.4120    -0.6810     1.3950 H     1 <1>   0.1500 
 38 H       -3.8710     0.4730    -2.6890 H     1 <1>   0.1500 
 39 H       -6.2940     0.0610    -2.3880 H     1 <1>   0.1500 
 40 H       -9.2670    -0.0130    -1.0430 H     1 <1>   0.0800 
 41 H       -7.9680     1.1330    -1.1750 H     1 <1>   0.0800 
 42 H       -7.2190    -2.3750     1.0660 H     1 <1>   0.0800 
 43 H       -8.7950    -2.2170     0.3460 H     1 <1>   0.0800 
 44 H       -7.6600    -0.5450     2.5910 H     1 <1>   0.0800 
 45 H       -8.9510    -1.6970     2.7210 H     1 <1>   0.0800 
 46 H      -10.4000    -0.3310     1.3070 H     1 <1>   0.0800 
 47 H       -9.8440     0.6290     2.6410 H     1 <1>   0.0800 
 48 H       -6.8630     1.6820     1.1920 H     1 <1>   0.0800 
 49 H       -8.0000     2.0690     2.4490 H     1 <1>   0.0800 
 50 H       -7.3950     3.6570     0.0160 H     1 <1>   0.0800 
 51 H       -7.9110     4.2080     1.6100 H     1 <1>   0.0800 
 52 H       -9.9590     5.4870     0.0020 H     1 <1>   0.1500 
 53 H      -13.4770     4.4680    -2.1190 H     1 <1>   0.1500 
 54 H      -13.5310     0.8580     0.1460 H     1 <1>   0.1500 
 55 H      -15.7550     4.0240    -2.8750 H     1 <1>   0.1500 
 56 H      -15.8060     0.4170    -0.6160 H     1 <1>   0.1500 
 57 H      -16.9350     1.9970    -2.1300 H     1 <1>   0.1500 
@<TRIPOS>BOND
  1   1   2  2   
  2   1   3  2   
  3   1   4  1   
  4   1   5  1   
  5   4   6  1   
  6   4  32  1   
  7   4  33  1   
  8   5  34  1   
  9   5  35  1   
 10   5  36  1   
 11   6   7  ar  
 12   6   8  ar  
 13   7   9  ar  
 14   7  37  1   
 15   8  10  ar  
 16   8  38  1   
 17   9  11  ar  
 18  10  11  ar  
 19  10  39  1   
 20  11  12  1   
 21  12  13  1   
 22  12  14  1   
 23  13  15  1   
 24  13  40  1   
 25  13  41  1   
 26  14  16  1   
 27  14  42  1   
 28  14  43  1   
 29  15  17  1   
 30  15  18  1   
 31  15  19  1   
 32  16  18  1   
 33  16  44  1   
 34  16  45  1   
 35  17  20  ar  
 36  17  21  ar  
 37  18  46  1   
 38  18  47  1   
 39  19  22  1   
 40  19  48  1   
 41  19  49  1   
 42  20  23  ar  
 43  21  22  1   
 44  21  24  ar  
 45  22  50  1   
 46  22  51  1   
 47  23  25  ar  
 48  23  26  1   
 49  24  25  ar  
 50  24  52  1   
 51  26  27  ar  
 52  26  28  ar  
 53  27  29  ar  
 54  27  53  1   
 55  28  30  ar  
 56  28  54  1   
 57  29  31  ar  
 58  29  55  1   
 59  30  31  ar  
 60  30  56  1   
 61  31  57  1   
@<TRIPOS>SUBSTRUCTURE
  1 ****  13 GROUP 4 **** **** 0

# MOE 2024.06 (io_trps.svl 2023.06)
