@<TRIPOS>MOLECULE
NONAME
42 44 1 0 0 
SMALL
USER_CHARGES


@<TRIPOS>ATOM
  1 O        0.8880     0.3310    -0.0360 O.2   1 <1>  -0.5700 
  2 C        1.8810    -0.3360    -0.2740 C.2   1 <1>   0.7150 
  3 N        3.0830     0.3190    -0.4590 N.am  1 <1>  -0.6600 
  4 C        1.7920    -1.7790    -0.3650 C.2   1 <1>   0.0550 
  5 C        4.4020    -0.2900    -0.1150 C.3   1 <1>   0.1400 
  6 C        3.1540     1.8010    -0.6350 C.3   1 <1>   0.1400 
  7 O        1.0250    -2.4760     0.4700 O.3   1 <1>  -0.2800 
  8 C        2.3970    -2.6540    -1.2170 C.2   1 <1>  -0.1500 
  9 C        5.0290     0.4260     1.0960 C.3   1 <1>   0.1100 
 10 C        3.8060     2.4590     0.5910 C.3   1 <1>   0.1100 
 11 C        1.1250    -3.7520     0.1780 C.2   1 <1>  -0.0100 
 12 C        1.9650    -3.9330    -0.8630 C.2   1 <1>  -0.1500 
 13 N        5.1440     1.8810     0.8720 N.3   1 <1>  -0.8100 
 14 C        5.7780     2.5510     2.0470 C.3   1 <1>   0.1710 
 15 C        6.2880     3.9650     1.7580 C.2   1 <1>   0.5690 
 16 O        6.4290     4.7370     2.6780 O.2   1 <1>  -0.5700 
 17 N        6.5570     4.2680     0.4640 N.am  1 <1>  -0.4930 
 18 C        6.9990     5.4400    -0.1340 C.2   1 <1>   0.3520 
 19 N        7.0760     5.5050    -1.4250 N.2   1 <1>  -0.7070 
 20 C        7.3960     6.6230     0.4820 C.2   1 <1>  -0.1500 
 21 N        7.5330     6.7490    -1.6750 N.pl3 1 <1>   0.3140 
 22 C        7.7320     7.4420    -0.5360 C.2   1 <1>  -0.3020 
 23 C        7.7600     7.2170    -3.0460 C.3   1 <1>   0.0160 
 24 H        5.0640    -0.2030    -0.9590 H     1 <1>   0.0800 
 25 H        4.2950    -1.3330     0.1220 H     1 <1>   0.0800 
 26 H        2.1720     2.2150    -0.7840 H     1 <1>   0.0800 
 27 H        3.7390     2.0250    -1.5100 H     1 <1>   0.0800 
 28 H        3.0740    -2.4240    -2.0210 H     1 <1>   0.1500 
 29 H        6.0070     0.0130     1.2710 H     1 <1>   0.0800 
 30 H        4.4240     0.2350     1.9670 H     1 <1>   0.0800 
 31 H        3.1580     2.3240     1.4410 H     1 <1>   0.0800 
 32 H        3.8930     3.5160     0.4050 H     1 <1>   0.0800 
 33 H        0.5650    -4.4650     0.7570 H     1 <1>   0.1500 
 34 H        2.2550    -4.8530    -1.3400 H     1 <1>   0.1500 
 35 H        6.6270     1.9750     2.3680 H     1 <1>   0.0800 
 36 H        5.0810     2.5930     2.8660 H     1 <1>   0.0800 
 37 H        6.3390     3.5270    -0.2030 H     1 <1>   0.3700 
 38 H        7.4150     6.8040     1.5410 H     1 <1>   0.1500 
 39 H        8.0940     8.4530    -0.5120 H     1 <1>   0.1500 
 40 H        8.4680     6.5650    -3.5220 H     1 <1>   0.0800 
 41 H        8.1420     8.2200    -3.0280 H     1 <1>   0.0800 
 42 H        6.8300     7.1890    -3.5810 H     1 <1>   0.0800 
@<TRIPOS>BOND
  1   1   2  2   
  2   2   3  am  
  3   2   4  1   
  4   3   5  1   
  5   3   6  1   
  6   4   7  1   
  7   4   8  2   
  8   5   9  1   
  9   5  24  1   
 10   5  25  1   
 11   6  10  1   
 12   6  26  1   
 13   6  27  1   
 14   7  11  1   
 15   8  12  1   
 16   8  28  1   
 17   9  13  1   
 18   9  29  1   
 19   9  30  1   
 20  10  13  1   
 21  10  31  1   
 22  10  32  1   
 23  11  12  2   
 24  11  33  1   
 25  12  34  1   
 26  13  14  1   
 27  14  15  1   
 28  14  35  1   
 29  14  36  1   
 30  15  16  2   
 31  15  17  am  
 32  17  18  1   
 33  17  37  1   
 34  18  19  2   
 35  18  20  1   
 36  19  21  1   
 37  20  22  2   
 38  20  38  1   
 39  21  22  1   
 40  21  23  1   
 41  22  39  1   
 42  23  40  1   
 43  23  41  1   
 44  23  42  1   
@<TRIPOS>SUBSTRUCTURE
  1 ****  13 GROUP 4 **** **** 0

# MOE 2024.06 (io_trps.svl 2023.06)
