@<TRIPOS>MOLECULE
NONAME
45 47 1 0 0 
SMALL
USER_CHARGES


@<TRIPOS>ATOM
  1 O       -2.2180     2.5110    -2.7080 O.co2 1 <1>  -0.9000 
  2 C       -1.2960     2.2450    -1.9240 C.2   1 <1>   0.9060 
  3 O       -0.3170     1.5750    -2.2650 O.co2 1 <1>  -0.9000 
  4 C       -1.4860     2.4870    -0.4020 C.3   1 <1>   0.4600 
  5 N       -2.6260     1.6890     0.2010 N.4   1 <1>  -0.9590 
  6 C       -1.6250     3.9360     0.0760 C.ar  1 <1>  -0.1430 
  7 C       -2.4260     0.2500    -0.1350 C.3   1 <1>   0.5240 
  8 C       -3.9470     2.1420    -0.3570 C.3   1 <1>   0.3430 
  9 C       -2.1600     4.9440    -0.7190 C.ar  1 <1>  -0.1500 
 10 C       -1.2120     4.2470     1.3660 C.ar  1 <1>  -0.1500 
 11 C       -3.5640    -0.5240     0.4950 C.2   1 <1>  -0.1810 
 12 C       -5.1180     1.4930     0.3900 C.3   1 <1>   0.0210 
 13 C       -2.2980     6.2340    -0.2340 C.ar  1 <1>   0.0830 
 14 C       -1.3320     5.5370     1.8530 C.ar  1 <1>  -0.1500 
 15 C       -4.8070     0.0500     0.7230 C.2   1 <1>   0.1080 
 16 C       -3.6810    -1.7940     0.9410 C.2   1 <1>  -0.3320 
 17 O       -2.8620     7.1530    -1.0560 O.3   1 <1>  -0.3630 
 18 C       -1.8590     6.5390     1.0590 C.ar  1 <1>   0.0830 
 19 N       -5.6410    -0.7730     1.2680 N.2   1 <1>  -0.7070 
 20 N       -4.9470    -1.9210     1.4000 N.pl3 1 <1>   0.3000 
 21 C       -2.6660    -2.9250     0.9590 C.3   1 <1>  -0.0600 
 22 C       -4.0980     7.6990    -0.6490 C.3   1 <1>   0.0400 
 23 O       -1.9180     7.7860     1.5860 O.3   1 <1>  -0.3630 
 24 C       -1.0910     8.7580     0.9840 C.3   1 <1>   0.0400 
 25 H       -0.5720     2.1190     0.0270 H     1 <1>   0.0800 
 26 H       -2.6270     1.8040     1.2150 H     1 <1>   0.4500 
 27 H       -1.4810    -0.1020     0.2430 H     1 <1>   0.0800 
 28 H       -2.4430     0.1120    -1.2050 H     1 <1>   0.0800 
 29 H       -4.0000     1.8720    -1.4000 H     1 <1>   0.0800 
 30 H       -4.0340     3.2140    -0.2930 H     1 <1>   0.0800 
 31 H       -2.4850     4.7490    -1.7280 H     1 <1>   0.1500 
 32 H       -0.7870     3.4920     2.0040 H     1 <1>   0.1500 
 33 H       -6.0050     1.5420    -0.2140 H     1 <1>   0.0800 
 34 H       -5.3070     2.0280     1.3020 H     1 <1>   0.0800 
 35 H       -1.0080     5.7780     2.8510 H     1 <1>   0.1500 
 36 H       -5.3670    -2.7680     1.8040 H     1 <1>   0.2700 
 37 H       -1.7330    -2.6060     0.5300 H     1 <1>   0.0800 
 38 H       -3.0330    -3.7610     0.3890 H     1 <1>   0.0800 
 39 H       -2.4850    -3.2480     1.9700 H     1 <1>   0.0800 
 40 H       -4.4700     8.3150    -1.4480 H     1 <1>   0.0800 
 41 H       -3.9530     8.2950     0.2340 H     1 <1>   0.0800 
 42 H       -4.7850     6.8960    -0.4520 H     1 <1>   0.0800 
 43 H       -1.1670     9.6650     1.5560 H     1 <1>   0.0800 
 44 H       -1.4180     8.9320    -0.0250 H     1 <1>   0.0800 
 45 H       -0.0750     8.4020     0.9910 H     1 <1>   0.0800 
@<TRIPOS>BOND
  1   1   2  ar  
  2   2   3  ar  
  3   2   4  1   
  4   4   5  1   
  5   4   6  1   
  6   4  25  1   
  7   5   7  1   
  8   5   8  1   
  9   5  26  1   
 10   6   9  ar  
 11   6  10  ar  
 12   7  11  1   
 13   7  27  1   
 14   7  28  1   
 15   8  12  1   
 16   8  29  1   
 17   8  30  1   
 18   9  13  ar  
 19   9  31  1   
 20  10  14  ar  
 21  10  32  1   
 22  11  15  1   
 23  11  16  2   
 24  12  15  1   
 25  12  33  1   
 26  12  34  1   
 27  13  17  1   
 28  13  18  ar  
 29  14  18  ar  
 30  14  35  1   
 31  15  19  2   
 32  16  20  1   
 33  16  21  1   
 34  17  22  1   
 35  18  23  1   
 36  19  20  1   
 37  20  36  1   
 38  21  37  1   
 39  21  38  1   
 40  21  39  1   
 41  22  40  1   
 42  22  41  1   
 43  22  42  1   
 44  23  24  1   
 45  24  43  1   
 46  24  44  1   
 47  24  45  1   
@<TRIPOS>SUBSTRUCTURE
  1 ****   5 GROUP 4 **** **** 0

# MOE 2024.06 (io_trps.svl 2023.06)
