@<TRIPOS>MOLECULE
NONAME
55 58 1 0 0 
SMALL
USER_CHARGES


@<TRIPOS>ATOM
  1 S       -0.3080     0.9030    -1.7040 S.o2  1 <1>   1.4470 
  2 O       -1.1760     2.0340    -1.9420 O.2   1 <1>  -0.6500 
  3 O       -0.0440    -0.0320    -2.7760 O.2   1 <1>  -0.6500 
  4 N        1.1950     1.5330    -1.2380 N.am  1 <1>  -0.8490 
  5 C       -0.8590     0.0170    -0.2200 C.ar  1 <1>  -0.0090 
  6 C        2.2260     0.4860    -1.1000 C.3   1 <1>   0.1960 
  7 C        1.6580     2.5580    -2.1950 C.3   1 <1>   0.1960 
  8 C       -1.2450    -1.3190    -0.2760 C.ar  1 <1>  -0.1500 
  9 C       -0.9050     0.6540     1.0150 C.ar  1 <1>  -0.1500 
 10 C        3.5780     1.0600    -0.6310 C.3   1 <1>   0.2090 
 11 C        3.0000     3.1870    -1.7750 C.3   1 <1>   0.2090 
 12 C       -1.6560    -2.0000     0.8570 C.ar  1 <1>  -0.1500 
 13 C       -1.3150    -0.0180     2.1530 C.ar  1 <1>  -0.1500 
 14 N        4.0510     2.1440    -1.5430 N.pl3 1 <1>  -0.8380 
 15 C       -1.6920    -1.3480     2.0850 C.ar  1 <1>   0.0830 
 16 C        5.3810     2.5290    -1.4690 C.ar  1 <1>   0.4100 
 17 O       -2.0800    -1.9350     3.2420 O.3   1 <1>  -0.3630 
 18 N        5.6190     3.7590    -1.0480 N.ar  1 <1>  -0.6200 
 19 C        6.4090     1.6400    -1.8170 C.ar  1 <1>   0.1600 
 20 C       -2.5350    -3.2690     3.2750 C.3   1 <1>   0.0400 
 21 C        6.9240     4.0750    -0.9760 C.ar  1 <1>   0.3960 
 22 N        7.6960     1.9090    -1.7560 N.ar  1 <1>  -0.6200 
 23 C        7.3670     5.4010    -0.5280 C.2   1 <1>   0.5440 
 24 C        7.9100     3.1480    -1.3320 C.ar  1 <1>   0.1600 
 25 O        8.4510     5.8160    -0.9060 O.2   1 <1>  -0.5700 
 26 N        6.6490     6.2210     0.3270 N.am  1 <1>  -0.6600 
 27 C        5.3690     5.8880     0.9960 C.3   1 <1>   0.1400 
 28 C        7.1810     7.5070     0.8320 C.3   1 <1>   0.1400 
 29 C        5.0510     7.0910     1.8800 C.3   1 <1>  -0.1600 
 30 C        6.3940     7.7780     2.1070 C.3   1 <1>  -0.1600 
 31 H        2.3750    -0.0130    -2.0430 H     1 <1>   0.0800 
 32 H        1.9000    -0.2490    -0.3840 H     1 <1>   0.0800 
 33 H        0.9250     3.3440    -2.2650 H     1 <1>   0.0800 
 34 H        1.7670     2.1210    -3.1740 H     1 <1>   0.0800 
 35 H       -1.2230    -1.8330    -1.2230 H     1 <1>   0.1500 
 36 H       -0.6170     1.6900     1.0830 H     1 <1>   0.1500 
 37 H        4.3050     0.2680    -0.5930 H     1 <1>   0.0800 
 38 H        3.4660     1.4570     0.3630 H     1 <1>   0.0800 
 39 H        2.8560     3.7550    -0.8730 H     1 <1>   0.0800 
 40 H        3.3320     3.8630    -2.5440 H     1 <1>   0.0800 
 41 H       -1.9440    -3.0300     0.7650 H     1 <1>   0.1500 
 42 H       -1.3470     0.4860     3.1030 H     1 <1>   0.1500 
 43 H        6.1210     0.6660    -2.1660 H     1 <1>   0.1500 
 44 H       -2.8040    -3.5050     4.2890 H     1 <1>   0.0800 
 45 H       -1.7430    -3.9180     2.9470 H     1 <1>   0.0800 
 46 H       -3.3980    -3.3600     2.6380 H     1 <1>   0.0800 
 47 H        8.9400     3.4540    -1.2590 H     1 <1>   0.1500 
 48 H        5.4980     5.0010     1.5920 H     1 <1>   0.0800 
 49 H        4.5870     5.7310     0.2720 H     1 <1>   0.0800 
 50 H        6.9940     8.2720     0.0990 H     1 <1>   0.0800 
 51 H        8.2390     7.4430     1.0250 H     1 <1>   0.0800 
 52 H        4.5800     6.7970     2.8010 H     1 <1>   0.0800 
 53 H        4.3910     7.7510     1.3440 H     1 <1>   0.0800 
 54 H        6.2910     8.8320     2.2960 H     1 <1>   0.0800 
 55 H        6.9050     7.3200     2.9350 H     1 <1>   0.0800 
@<TRIPOS>BOND
  1   1   2  2   
  2   1   3  2   
  3   1   4  am  
  4   1   5  1   
  5   4   6  1   
  6   4   7  1   
  7   5   8  ar  
  8   5   9  ar  
  9   6  10  1   
 10   6  31  1   
 11   6  32  1   
 12   7  11  1   
 13   7  33  1   
 14   7  34  1   
 15   8  12  ar  
 16   8  35  1   
 17   9  13  ar  
 18   9  36  1   
 19  10  14  1   
 20  10  37  1   
 21  10  38  1   
 22  11  14  1   
 23  11  39  1   
 24  11  40  1   
 25  12  15  ar  
 26  12  41  1   
 27  13  15  ar  
 28  13  42  1   
 29  14  16  1   
 30  15  17  1   
 31  16  18  ar  
 32  16  19  ar  
 33  17  20  1   
 34  18  21  ar  
 35  19  22  ar  
 36  19  43  1   
 37  20  44  1   
 38  20  45  1   
 39  20  46  1   
 40  21  23  1   
 41  21  24  ar  
 42  22  24  ar  
 43  23  25  2   
 44  23  26  am  
 45  24  47  1   
 46  26  27  1   
 47  26  28  1   
 48  27  29  1   
 49  27  48  1   
 50  27  49  1   
 51  28  30  1   
 52  28  50  1   
 53  28  51  1   
 54  29  30  1   
 55  29  52  1   
 56  29  53  1   
 57  30  54  1   
 58  30  55  1   
@<TRIPOS>SUBSTRUCTURE
  1 ****  10 GROUP 4 **** **** 0

# MOE 2024.06 (io_trps.svl 2023.06)
