@<TRIPOS>MOLECULE
NONAME
51 54 1 0 0 
SMALL
USER_CHARGES


@<TRIPOS>ATOM
  1 O        1.4370     2.7630    -2.4840 O.co2 1 <1>  -0.9000 
  2 C        0.3660     2.3540    -2.0210 C.2   1 <1>   0.9060 
  3 O       -0.4890     1.8530    -2.7620 O.co2 1 <1>  -0.9000 
  4 C        0.0370     2.4940    -0.5310 C.3   1 <1>  -0.1060 
  5 C       -1.2440     3.3550    -0.4610 C.3   1 <1>   0.2000 
  6 C        1.1880     3.1880     0.2550 C.3   1 <1>   0.1400 
  7 C       -0.2320     1.0790     0.0530 C.3   1 <1>  -0.0170 
  8 O       -1.6140     3.5200     0.8670 O.3   1 <1>  -0.6800 
  9 C       -1.0200     4.7650    -1.0370 C.3   1 <1>  -0.1600 
 10 N        0.9940     4.6740     0.4160 N.am  1 <1>  -0.6600 
 11 C        1.0160     0.2110     0.1990 C.ar  1 <1>  -0.1440 
 12 C        0.3950     5.3150    -0.7890 C.3   1 <1>   0.1400 
 13 C        1.4250     5.3350     1.5400 C.2   1 <1>   0.5690 
 14 C        1.5990    -0.3760    -0.9130 C.ar  1 <1>  -0.1500 
 15 C        1.5790    -0.0050     1.4490 C.ar  1 <1>  -0.1500 
 16 O        1.8430     4.7370     2.5050 O.2   1 <1>  -0.5700 
 17 C        1.3710     6.8550     1.6430 C.3   1 <1>   0.0440 
 18 C        2.7270    -1.1660    -0.7810 C.ar  1 <1>  -0.1500 
 19 C        2.7080    -0.7950     1.5840 C.ar  1 <1>  -0.1500 
 20 C        2.2510     7.5870     0.6300 C.ar  1 <1>  -0.1440 
 21 C        3.2830    -1.3770     0.4680 C.ar  1 <1>  -0.1500 
 22 C        1.8060     8.7820     0.0730 C.ar  1 <1>  -0.1500 
 23 C        3.4910     7.0660     0.2550 C.ar  1 <1>  -0.1500 
 24 C        2.6150     9.4150    -0.8500 C.ar  1 <1>   0.0820 
 25 C        4.2910     7.7170    -0.6750 C.ar  1 <1>  -0.1500 
 26 O        2.3860    10.5560    -1.5080 O.3   1 <1>  -0.3620 
 27 C        3.8230     8.8970    -1.2150 C.ar  1 <1>   0.0820 
 28 C        3.5200    10.7790    -2.3450 C.3   1 <1>   0.4000 
 29 O        4.4100     9.6890    -2.1180 O.3   1 <1>  -0.3620 
 30 H       -2.0610     2.8700    -0.9700 H     1 <1>   0.0800 
 31 H        2.1360     3.0010    -0.2190 H     1 <1>   0.0800 
 32 H        1.2440     2.7520     1.2360 H     1 <1>   0.0800 
 33 H       -0.6940     1.1680     1.0190 H     1 <1>   0.0800 
 34 H       -0.9390     0.5640    -0.5760 H     1 <1>   0.0800 
 35 H       -0.8350     3.9120     1.3160 H     1 <1>   0.4000 
 36 H       -1.1650     4.7230    -2.1020 H     1 <1>   0.0800 
 37 H       -1.7590     5.4410    -0.6480 H     1 <1>   0.0800 
 38 H        0.3530     6.3830    -0.7020 H     1 <1>   0.0800 
 39 H        1.0230     5.0870    -1.6360 H     1 <1>   0.0800 
 40 H        1.1760    -0.2110    -1.8920 H     1 <1>   0.1500 
 41 H        1.1410     0.4460     2.3210 H     1 <1>   0.1500 
 42 H        0.3480     7.1590     1.5340 H     1 <1>   0.0800 
 43 H        1.6860     7.1400     2.6300 H     1 <1>   0.0800 
 44 H        3.1690    -1.6070    -1.6560 H     1 <1>   0.1500 
 45 H        3.1370    -0.9540     2.5570 H     1 <1>   0.1500 
 46 H        4.1610    -1.9890     0.5700 H     1 <1>   0.1500 
 47 H        0.8610     9.2190     0.3370 H     1 <1>   0.1500 
 48 H        3.8410     6.1400     0.6830 H     1 <1>   0.1500 
 49 H        5.2430     7.3190    -0.9750 H     1 <1>   0.1500 
 50 H        3.2120    10.7860    -3.3750 H     1 <1>   0.0800 
 51 H        3.9990    11.7000    -2.0650 H     1 <1>   0.0800 
@<TRIPOS>BOND
  1   1   2  ar  
  2   2   3  ar  
  3   2   4  1   
  4   4   5  1   
  5   4   6  1   
  6   4   7  1   
  7   5   8  1   
  8   5   9  1   
  9   5  30  1   
 10   6  10  1   
 11   6  31  1   
 12   6  32  1   
 13   7  11  1   
 14   7  33  1   
 15   7  34  1   
 16   8  35  1   
 17   9  12  1   
 18   9  36  1   
 19   9  37  1   
 20  10  12  1   
 21  10  13  am  
 22  11  14  ar  
 23  11  15  ar  
 24  12  38  1   
 25  12  39  1   
 26  13  16  2   
 27  13  17  1   
 28  14  18  ar  
 29  14  40  1   
 30  15  19  ar  
 31  15  41  1   
 32  17  20  1   
 33  17  42  1   
 34  17  43  1   
 35  18  21  ar  
 36  18  44  1   
 37  19  21  ar  
 38  19  45  1   
 39  20  22  ar  
 40  20  23  ar  
 41  21  46  1   
 42  22  24  ar  
 43  22  47  1   
 44  23  25  ar  
 45  23  48  1   
 46  24  26  1   
 47  24  27  ar  
 48  25  27  ar  
 49  25  49  1   
 50  26  28  1   
 51  27  29  1   
 52  28  29  1   
 53  28  50  1   
 54  28  51  1   
@<TRIPOS>SUBSTRUCTURE
  1 ****  10 GROUP 4 **** **** 0

# MOE 2024.06 (io_trps.svl 2023.06)
