@<TRIPOS>MOLECULE
NONAME
44 45 1 0 0 
SMALL
USER_CHARGES


@<TRIPOS>ATOM
  1 O       -2.9250    -2.6970    -3.0090 O.3   1 <1>  -0.6800 
  2 C       -3.5910    -2.8780    -1.8030 C.3   1 <1>   0.1200 
  3 C       -3.9100    -1.5010    -1.1680 C.3   1 <1>   0.4230 
  4 N       -4.4460    -1.6200     0.2310 N.4   1 <1>  -0.9590 
  5 C       -4.9310    -0.7530    -2.0440 C.3   1 <1>  -0.1600 
  6 C       -4.8390    -0.3160     0.8370 C.3   1 <1>   0.3430 
  7 C       -3.5600    -2.3730     1.1720 C.3   1 <1>   0.3430 
  8 C       -5.3410     0.6020    -1.4590 C.3   1 <1>  -0.1600 
  9 C       -5.8590     0.4120    -0.0330 C.3   1 <1>  -0.1600 
 10 C       -4.2830    -3.6090     1.7440 C.3   1 <1>   0.2090 
 11 N       -4.7750    -4.5060     0.6550 N.pl3 1 <1>  -0.8690 
 12 C       -6.1090    -4.5480     0.2770 C.ar  1 <1>   0.4100 
 13 N       -6.7420    -3.3810     0.2830 N.ar  1 <1>  -0.6200 
 14 C       -6.7330    -5.7580    -0.1060 C.ar  1 <1>   0.1670 
 15 C       -8.0100    -3.4880    -0.0820 C.ar  1 <1>   0.1670 
 16 N       -7.9920    -5.8520    -0.4740 N.ar  1 <1>  -0.6200 
 17 C       -5.9560    -7.0640    -0.1110 C.3   1 <1>  -0.0970 
 18 C       -8.6140    -4.6860    -0.4480 C.ar  1 <1>   0.1600 
 19 C       -8.8220    -2.2080    -0.0920 C.3   1 <1>  -0.0970 
 20 H       -2.7940    -3.5490    -3.4770 H     1 <1>   0.4000 
 21 H       -2.9480    -3.4650    -1.1740 H     1 <1>   0.0800 
 22 H       -4.5000    -3.4220    -1.9980 H     1 <1>   0.0800 
 23 H       -2.9960    -0.9320    -1.1370 H     1 <1>   0.0800 
 24 H       -5.3050    -2.2090     0.1460 H     1 <1>   0.4500 
 25 H       -5.8040    -1.3680    -2.1770 H     1 <1>   0.0800 
 26 H       -4.5060    -0.5900    -3.0200 H     1 <1>   0.0800 
 27 H       -3.9660     0.3050     0.9490 H     1 <1>   0.0800 
 28 H       -5.2650    -0.4820     1.8140 H     1 <1>   0.0800 
 29 H       -3.2580    -1.7350     1.9850 H     1 <1>   0.0800 
 30 H       -2.6660    -2.6950     0.6650 H     1 <1>   0.0800 
 31 H       -6.1070     1.0480    -2.0720 H     1 <1>   0.0800 
 32 H       -4.4930     1.2660    -1.4550 H     1 <1>   0.0800 
 33 H       -6.0710     1.3730     0.4020 H     1 <1>   0.0800 
 34 H       -6.7770    -0.1460    -0.0440 H     1 <1>   0.0800 
 35 H       -5.1090    -3.2920     2.3600 H     1 <1>   0.0800 
 36 H       -3.6020    -4.1570     2.3720 H     1 <1>   0.0800 
 37 H       -4.3560    -5.4420     0.7080 H     1 <1>   0.4000 
 38 H       -5.6710    -7.3260     0.8920 H     1 <1>   0.0800 
 39 H       -5.0800    -6.9740    -0.7260 H     1 <1>   0.0800 
 40 H       -6.5630    -7.8590    -0.5070 H     1 <1>   0.0800 
 41 H       -9.6510    -4.6880    -0.7340 H     1 <1>   0.1500 
 42 H       -8.6930    -1.6860     0.8380 H     1 <1>   0.0800 
 43 H       -9.8690    -2.4170    -0.2210 H     1 <1>   0.0800 
 44 H       -8.4980    -1.5800    -0.9010 H     1 <1>   0.0800 
@<TRIPOS>BOND
  1   1   2  1   
  2   1  20  1   
  3   2   3  1   
  4   2  21  1   
  5   2  22  1   
  6   3   4  1   
  7   3   5  1   
  8   3  23  1   
  9   4   6  1   
 10   4   7  1   
 11   4  24  1   
 12   5   8  1   
 13   5  25  1   
 14   5  26  1   
 15   6   9  1   
 16   6  27  1   
 17   6  28  1   
 18   7  10  1   
 19   7  29  1   
 20   7  30  1   
 21   8   9  1   
 22   8  31  1   
 23   8  32  1   
 24   9  33  1   
 25   9  34  1   
 26  10  11  1   
 27  10  35  1   
 28  10  36  1   
 29  11  12  1   
 30  11  37  1   
 31  12  13  ar  
 32  12  14  ar  
 33  13  15  ar  
 34  14  16  ar  
 35  14  17  1   
 36  15  18  ar  
 37  15  19  1   
 38  16  18  ar  
 39  17  38  1   
 40  17  39  1   
 41  17  40  1   
 42  18  41  1   
 43  19  42  1   
 44  19  43  1   
 45  19  44  1   
@<TRIPOS>SUBSTRUCTURE
  1 ****  13 GROUP 4 **** **** 0

# MOE 2024.06 (io_trps.svl 2023.06)
