@<TRIPOS>MOLECULE
NONAME
51 54 1 0 0 
SMALL
USER_CHARGES


@<TRIPOS>ATOM
  1 O        0.3410     0.3940    -0.1810 O.3   1 <1>  -0.5600 
  2 C        1.5130    -0.2960    -0.5210 C.3   1 <1>   0.3440 
  3 C        0.4590     1.7960    -0.2220 C.3   1 <1>   0.2000 
  4 C        1.2420    -1.7960    -0.4930 C.ar  1 <1>  -0.1440 
  5 C        2.6530     0.0600     0.4580 C.3   1 <1>   0.2090 
  6 C       -0.9500     2.4350    -0.0300 C.3   1 <1>   0.0000 
  7 C        1.5250     2.2530     0.8040 C.3   1 <1>   0.2090 
  8 C        0.4860    -2.3640     0.5240 C.ar  1 <1>  -0.1500 
  9 C        1.7650    -2.6160    -1.4830 C.ar  1 <1>  -0.1500 
 10 N        2.8350     1.5460     0.5860 N.pl3 1 <1>  -0.8380 
 11 C       -1.5820     2.0530     1.3230 C.3   1 <1>  -0.2400 
 12 C       -1.8880     1.9540    -1.1520 C.3   1 <1>  -0.2400 
 13 C       -0.8740     3.9700    -0.1150 C.3   1 <1>  -0.2400 
 14 C        0.2650    -3.7300     0.5570 C.ar  1 <1>  -0.1500 
 15 C        1.5440    -3.9830    -1.4520 C.ar  1 <1>  -0.1500 
 16 C        3.9980     2.1970     0.2930 C.2   1 <1>   0.2710 
 17 C        0.7960    -4.5410    -0.4310 C.ar  1 <1>  -0.1500 
 18 N        3.8930     3.3780    -0.3330 N.2   1 <1>  -0.6210 
 19 C        5.2230     1.6730     0.6280 C.2   1 <1>  -0.1410 
 20 C        4.9740     4.0260    -0.6250 C.2   1 <1>   0.9190 
 21 C        6.3350     2.4070     0.2960 C.cat 1 <1>   0.7910 
 22 N        6.2120     3.5740    -0.3300 N.pl3 1 <1>  -0.6690 
 23 N        4.8490     5.1960    -1.2460 N.pl3 1 <1>  -0.8500 
 24 N        7.6520     2.2090     0.4710 N.pl3 1 <1>  -0.3930 
 25 C        7.4910     4.0400    -0.5090 C.2   1 <1>   0.5030 
 26 N        8.3750     3.2420    -0.0390 N.2   1 <1>  -0.2600 
 27 H        1.7890    -0.0010    -1.5180 H     1 <1>   0.0800 
 28 H        0.8100     2.0630    -1.2040 H     1 <1>   0.0800 
 29 H        3.5560    -0.4020     0.1070 H     1 <1>   0.0800 
 30 H        2.4210    -0.3520     1.4240 H     1 <1>   0.0800 
 31 H        1.1780     2.0340     1.7980 H     1 <1>   0.0800 
 32 H        1.6600     3.3160     0.7370 H     1 <1>   0.0800 
 33 H        0.0630    -1.7380     1.2910 H     1 <1>   0.1500 
 34 H        2.3470    -2.1990    -2.2860 H     1 <1>   0.1500 
 35 H       -2.5770     2.4530     1.3990 H     1 <1>   0.0800 
 36 H       -1.0070     2.4340     2.1460 H     1 <1>   0.0800 
 37 H       -1.6440     0.9830     1.4180 H     1 <1>   0.0800 
 38 H       -2.8590     2.4060    -1.0610 H     1 <1>   0.0800 
 39 H       -2.0130     0.8850    -1.1080 H     1 <1>   0.0800 
 40 H       -1.4850     2.2050    -2.1170 H     1 <1>   0.0800 
 41 H       -1.8620     4.3960    -0.0870 H     1 <1>   0.0800 
 42 H       -0.4050     4.2740    -1.0340 H     1 <1>   0.0800 
 43 H       -0.3200     4.3820     0.7080 H     1 <1>   0.0800 
 44 H       -0.3220    -4.1590     1.3490 H     1 <1>   0.1500 
 45 H        1.9520    -4.6130    -2.2230 H     1 <1>   0.1500 
 46 H        0.6240    -5.6030    -0.4060 H     1 <1>   0.1500 
 47 H        5.3090     0.7380     1.1420 H     1 <1>   0.1500 
 48 H        3.9020     5.5160    -1.4590 H     1 <1>   0.4000 
 49 H        5.5990     5.8200    -1.5220 H     1 <1>   0.4000 
 50 H        8.0830     1.3980     0.9310 H     1 <1>   0.4500 
 51 H        7.7060     4.9790    -0.9950 H     1 <1>   0.1500 
@<TRIPOS>BOND
  1   1   2  1   
  2   1   3  1   
  3   2   4  1   
  4   2   5  1   
  5   2  27  1   
  6   3   6  1   
  7   3   7  1   
  8   3  28  1   
  9   4   8  ar  
 10   4   9  ar  
 11   5  10  1   
 12   5  29  1   
 13   5  30  1   
 14   6  11  1   
 15   6  12  1   
 16   6  13  1   
 17   7  10  1   
 18   7  31  1   
 19   7  32  1   
 20   8  14  ar  
 21   8  33  1   
 22   9  15  ar  
 23   9  34  1   
 24  10  16  1   
 25  11  35  1   
 26  11  36  1   
 27  11  37  1   
 28  12  38  1   
 29  12  39  1   
 30  12  40  1   
 31  13  41  1   
 32  13  42  1   
 33  13  43  1   
 34  14  17  ar  
 35  14  44  1   
 36  15  17  ar  
 37  15  45  1   
 38  16  18  1   
 39  16  19  2   
 40  17  46  1   
 41  18  20  2   
 42  19  21  1   
 43  19  47  1   
 44  20  22  1   
 45  20  23  1   
 46  21  22  ar  
 47  21  24  ar  
 48  22  25  1   
 49  23  48  1   
 50  23  49  1   
 51  24  26  1   
 52  24  50  1   
 53  25  26  2   
 54  25  51  1   
@<TRIPOS>SUBSTRUCTURE
  1 ****  10 GROUP 4 **** **** 0

# MOE 2024.06 (io_trps.svl 2023.06)
