@<TRIPOS>MOLECULE
NONAME
41 43 1 0 0 
SMALL
USER_CHARGES


@<TRIPOS>ATOM
  1 S       -0.1790    -0.9670    -0.9880 S.o2  1 <1>   1.5000 
  2 O       -0.7540    -2.2900    -0.8690 O.2   1 <1>  -0.6500 
  3 O        0.2860    -0.5250    -2.2870 O.2   1 <1>  -0.6500 
  4 N       -1.3490     0.1550    -0.4880 N.am  1 <1>  -0.8490 
  5 C        1.1040    -0.7720     0.2730 C.2   1 <1>  -0.0220 
  6 C       -2.6800    -0.1650    -1.0290 C.3   1 <1>   0.1960 
  7 C       -0.9600     1.5300    -0.8050 C.3   1 <1>   0.1960 
  8 S        2.6720    -0.1320    -0.2140 S.3   1 <1>  -0.0800 
  9 C        1.1140    -1.0090     1.6010 C.2   1 <1>  -0.1500 
 10 C       -3.7810     0.7430    -0.4290 C.3   1 <1>   0.0000 
 11 C       -1.9610     2.5170    -0.2010 C.3   1 <1>  -0.1600 
 12 C        3.2910    -0.2190     1.4260 C.2   1 <1>  -0.1400 
 13 C        2.3490    -0.7000     2.2550 C.2   1 <1>  -0.1500 
 14 C       -4.0480     0.4820     1.0720 C.3   1 <1>   0.2000 
 15 C       -3.3900     2.2220    -0.6820 C.3   1 <1>  -0.1600 
 16 C       -5.1600     0.4740    -1.0610 C.3   1 <1>  -0.1600 
 17 C        4.7180     0.2340     1.6540 C.3   1 <1>  -0.0600 
 18 O       -4.1180    -0.8770     1.3340 O.3   1 <1>  -0.6800 
 19 C       -5.4500     1.0360     1.3200 C.3   1 <1>  -0.1600 
 20 C       -6.2040     0.8870    -0.0100 C.3   1 <1>  -0.1600 
 21 H       -2.6630    -0.0530    -2.1000 H     1 <1>   0.0800 
 22 H       -2.9200    -1.1930    -0.8170 H     1 <1>   0.0800 
 23 H        0.0190     1.7340    -0.4030 H     1 <1>   0.0800 
 24 H       -0.9190     1.6640    -1.8740 H     1 <1>   0.0800 
 25 H        0.2770    -1.3980     2.1560 H     1 <1>   0.1500 
 26 H       -1.9040     2.4620     0.8710 H     1 <1>   0.0800 
 27 H       -1.6860     3.5160    -0.4880 H     1 <1>   0.0800 
 28 H        2.4650    -0.8550     3.3140 H     1 <1>   0.1500 
 29 H       -3.3010     0.9060     1.7200 H     1 <1>   0.0800 
 30 H       -3.4320     2.4190    -1.7390 H     1 <1>   0.0800 
 31 H       -4.0760     2.8970    -0.2040 H     1 <1>   0.0800 
 32 H       -5.3000     1.0010    -1.9890 H     1 <1>   0.0800 
 33 H       -5.2670    -0.5800    -1.2570 H     1 <1>   0.0800 
 34 H        4.9780     0.1330     2.6910 H     1 <1>   0.0800 
 35 H        4.8260     1.2640     1.3660 H     1 <1>   0.0800 
 36 H        5.3900    -0.3650     1.0660 H     1 <1>   0.0800 
 37 H       -4.8620    -1.2610     0.8360 H     1 <1>   0.4000 
 38 H       -5.9450     0.5370     2.1360 H     1 <1>   0.0800 
 39 H       -5.3720     2.0800     1.5670 H     1 <1>   0.0800 
 40 H       -6.9740     0.1380     0.0670 H     1 <1>   0.0800 
 41 H       -6.6600     1.8240    -0.2800 H     1 <1>   0.0800 
@<TRIPOS>BOND
  1   1   2  2   
  2   1   3  2   
  3   1   4  am  
  4   1   5  1   
  5   4   6  1   
  6   4   7  1   
  7   5   8  1   
  8   5   9  2   
  9   6  10  1   
 10   6  21  1   
 11   6  22  1   
 12   7  11  1   
 13   7  23  1   
 14   7  24  1   
 15   8  12  1   
 16   9  13  1   
 17   9  25  1   
 18  10  14  1   
 19  10  15  1   
 20  10  16  1   
 21  11  15  1   
 22  11  26  1   
 23  11  27  1   
 24  12  13  2   
 25  12  17  1   
 26  13  28  1   
 27  14  18  1   
 28  14  19  1   
 29  14  29  1   
 30  15  30  1   
 31  15  31  1   
 32  16  20  1   
 33  16  32  1   
 34  16  33  1   
 35  17  34  1   
 36  17  35  1   
 37  17  36  1   
 38  18  37  1   
 39  19  20  1   
 40  19  38  1   
 41  19  39  1   
 42  20  40  1   
 43  20  41  1   
@<TRIPOS>SUBSTRUCTURE
  1 ****   4 GROUP 4 **** **** 0

# MOE 2024.06 (io_trps.svl 2023.06)
