@<TRIPOS>MOLECULE
NONAME
49 51 1 0 0 
SMALL
USER_CHARGES


@<TRIPOS>ATOM
  1 S       -1.0830    -0.2450     1.0850 S.3   1 <1>  -0.4600 
  2 C       -1.5690     0.2120    -0.5940 C.3   1 <1>   0.0700 
  3 C       -2.1520    -1.6650     1.4620 C.3   1 <1>   0.0700 
  4 C       -3.0420     0.6460    -0.5660 C.3   1 <1>  -0.1600 
  5 C       -3.4470    -1.5790     0.6410 C.3   1 <1>  -0.1600 
  6 C       -3.8920    -0.1210     0.4690 C.3   1 <1>   0.4230 
  7 N       -5.3440    -0.0620     0.1500 N.4   1 <1>  -0.9590 
  8 C       -5.7710    -0.7460    -1.1220 C.3   1 <1>   0.3430 
  9 C       -5.9190     1.2990     0.3040 C.3   1 <1>   0.3430 
 10 C       -7.3080    -0.8780    -1.2260 C.3   1 <1>   0.1400 
 11 C       -7.1440     1.2260     1.2200 C.3   1 <1>  -0.1600 
 12 N       -7.9440    -0.9060     0.1240 N.am  1 <1>  -0.6600 
 13 C       -8.3390     0.4180     0.6830 C.3   1 <1>   0.1400 
 14 C       -7.6920    -1.9800     0.9420 C.2   1 <1>   0.7160 
 15 O       -6.8980    -1.7940     1.8470 O.2   1 <1>  -0.5700 
 16 C       -8.1880    -3.2990     0.6410 C.2   1 <1>  -0.0860 
 17 C       -9.3350    -3.6670    -0.0780 C.2   1 <1>   0.1080 
 18 C       -7.6450    -4.5010     0.9820 C.2   1 <1>  -0.3020 
 19 N       -9.4610    -4.9480    -0.1900 N.2   1 <1>  -0.7070 
 20 C      -10.3730    -2.7380    -0.6720 C.3   1 <1>  -0.0590 
 21 N       -8.4220    -5.4670     0.4750 N.pl3 1 <1>   0.3140 
 22 C       -8.2450    -6.9180     0.5990 C.3   1 <1>   0.0160 
 23 H       -1.4130    -0.6560    -1.2100 H     1 <1>   0.0800 
 24 H       -0.9200     1.0080    -0.9180 H     1 <1>   0.0800 
 25 H       -2.3500    -1.6210     2.5190 H     1 <1>   0.0800 
 26 H       -1.5970    -2.5600     1.2380 H     1 <1>   0.0800 
 27 H       -3.4290     0.5280    -1.5610 H     1 <1>   0.0800 
 28 H       -3.0720     1.6920    -0.3200 H     1 <1>   0.0800 
 29 H       -4.2000    -2.1430     1.1640 H     1 <1>   0.0800 
 30 H       -3.2860    -2.0370    -0.3180 H     1 <1>   0.0800 
 31 H       -3.7430     0.3560     1.4260 H     1 <1>   0.0800 
 32 H       -5.8130    -0.6150     0.9010 H     1 <1>   0.4500 
 33 H       -5.3540    -1.7390    -1.1430 H     1 <1>   0.0800 
 34 H       -5.3970    -0.2170    -1.9820 H     1 <1>   0.0800 
 35 H       -6.1900     1.7060    -0.6560 H     1 <1>   0.0800 
 36 H       -5.1900     1.9540     0.7550 H     1 <1>   0.0800 
 37 H       -7.5500    -1.7810    -1.7620 H     1 <1>   0.0800 
 38 H       -7.7020    -0.0540    -1.7950 H     1 <1>   0.0800 
 39 H       -7.4850     2.2290     1.4020 H     1 <1>   0.0800 
 40 H       -6.8490     0.8330     2.1770 H     1 <1>   0.0800 
 41 H       -8.8470     0.9830    -0.0820 H     1 <1>   0.0800 
 42 H       -9.0440     0.2620     1.4840 H     1 <1>   0.0800 
 43 H       -6.7600    -4.6970     1.5580 H     1 <1>   0.1500 
 44 H      -10.5840    -1.9320     0.0050 H     1 <1>   0.0800 
 45 H      -11.2840    -3.2820    -0.8460 H     1 <1>   0.0800 
 46 H      -10.0250    -2.3460    -1.6070 H     1 <1>   0.0800 
 47 H       -7.3350    -7.1290     1.1280 H     1 <1>   0.0800 
 48 H       -8.2060    -7.3480    -0.3840 H     1 <1>   0.0800 
 49 H       -9.0820    -7.3240     1.1350 H     1 <1>   0.0800 
@<TRIPOS>BOND
  1   1   2  1   
  2   1   3  1   
  3   2   4  1   
  4   2  23  1   
  5   2  24  1   
  6   3   5  1   
  7   3  25  1   
  8   3  26  1   
  9   4   6  1   
 10   4  27  1   
 11   4  28  1   
 12   5   6  1   
 13   5  29  1   
 14   5  30  1   
 15   6   7  1   
 16   6  31  1   
 17   7   8  1   
 18   7   9  1   
 19   7  32  1   
 20   8  10  1   
 21   8  33  1   
 22   8  34  1   
 23   9  11  1   
 24   9  35  1   
 25   9  36  1   
 26  10  12  1   
 27  10  37  1   
 28  10  38  1   
 29  11  13  1   
 30  11  39  1   
 31  11  40  1   
 32  12  13  1   
 33  12  14  am  
 34  13  41  1   
 35  13  42  1   
 36  14  15  2   
 37  14  16  1   
 38  16  17  1   
 39  16  18  2   
 40  17  19  2   
 41  17  20  1   
 42  18  21  1   
 43  18  43  1   
 44  19  21  1   
 45  20  44  1   
 46  20  45  1   
 47  20  46  1   
 48  21  22  1   
 49  22  47  1   
 50  22  48  1   
 51  22  49  1   
@<TRIPOS>SUBSTRUCTURE
  1 ****  14 GROUP 4 **** **** 0

# MOE 2024.06 (io_trps.svl 2023.06)
