@<TRIPOS>MOLECULE
NONAME
43 44 1 0 0 
SMALL
USER_CHARGES


@<TRIPOS>ATOM
  1 S       -0.5390    -1.4030     0.7610 S.3   1 <1>  -0.0800 
  2 C       -1.5860    -1.7900    -0.5660 C.2   1 <1>   0.4420 
  3 C       -0.7360     0.2610     0.3320 C.2   1 <1>   0.1980 
  4 N       -1.9790    -0.7390    -1.1920 N.2   1 <1>  -0.3380 
  5 N       -1.8540    -3.1240    -0.7750 N.am  1 <1>  -0.4940 
  6 N       -1.4910     0.4260    -0.6740 N.2   1 <1>  -0.3380 
  7 C       -0.0290     1.3140     1.1540 C.3   1 <1>   0.0200 
  8 C       -2.6860    -3.7230    -1.6800 C.2   1 <1>   0.5690 
  9 C       -0.3630     2.6950     0.5770 C.3   1 <1>   0.3430 
 10 O       -3.3430    -3.1120    -2.4850 O.2   1 <1>  -0.5700 
 11 C       -2.7860    -5.2560    -1.6590 C.3   1 <1>   0.2610 
 12 N        0.3440     3.8160     1.2830 N.4   1 <1>  -0.9590 
 13 O       -2.0430    -5.7930    -0.5660 O.3   1 <1>  -0.3630 
 14 C       -2.2240    -5.8980    -2.9320 C.3   1 <1>  -0.2400 
 15 C       -0.1560     4.0210     2.6810 C.3   1 <1>   0.2630 
 16 C        0.1850     5.0800     0.4950 C.3   1 <1>   0.2630 
 17 C       -2.7090    -6.4380     0.4250 C.ar  1 <1>   0.0820 
 18 C       -3.7450    -5.8580     1.1620 C.ar  1 <1>   0.1900 
 19 C       -2.3190    -7.7370     0.7250 C.ar  1 <1>  -0.1500 
 20 F       -4.1070    -4.6240     0.9230 F     1 <1>  -0.1900 
 21 C       -4.4060    -6.5390     2.1650 C.ar  1 <1>  -0.1500 
 22 C       -2.9650    -8.4430     1.7300 C.ar  1 <1>  -0.1500 
 23 C       -3.9950    -7.8320     2.4260 C.ar  1 <1>   0.1900 
 24 F       -4.6000    -8.5040     3.3680 F     1 <1>  -0.1900 
 25 H       -1.4030    -3.7780    -0.1370 H     1 <1>   0.3700 
 26 H        1.0300     1.1360     1.1060 H     1 <1>   0.0800 
 27 H       -0.3650     1.2340     2.1710 H     1 <1>   0.0800 
 28 H       -1.4300     2.8470     0.6220 H     1 <1>   0.0800 
 29 H       -0.0830     2.6960    -0.4660 H     1 <1>   0.0800 
 30 H       -3.8200    -5.5310    -1.5510 H     1 <1>   0.0800 
 31 H        1.3530     3.5980     1.3190 H     1 <1>   0.4500 
 32 H       -1.1880    -5.6400    -3.0560 H     1 <1>   0.0800 
 33 H       -2.7680    -5.5390    -3.7870 H     1 <1>   0.0800 
 34 H       -2.3280    -6.9670    -2.8860 H     1 <1>   0.0800 
 35 H       -1.2120     4.2380     2.6740 H     1 <1>   0.0800 
 36 H        0.3610     4.8460     3.1450 H     1 <1>   0.0800 
 37 H        0.0110     3.1380     3.2760 H     1 <1>   0.0800 
 38 H       -0.8570     5.3490     0.4240 H     1 <1>   0.0800 
 39 H        0.5750     4.9520    -0.5020 H     1 <1>   0.0800 
 40 H        0.7170     5.8880     0.9710 H     1 <1>   0.0800 
 41 H       -1.5140    -8.1900     0.1730 H     1 <1>   0.1500 
 42 H       -5.2040    -6.0830     2.7230 H     1 <1>   0.1500 
 43 H       -2.6780    -9.4510     1.9730 H     1 <1>   0.1500 
@<TRIPOS>BOND
  1   1   2  1   
  2   1   3  1   
  3   2   4  2   
  4   2   5  1   
  5   3   6  2   
  6   3   7  1   
  7   4   6  1   
  8   5   8  am  
  9   5  25  1   
 10   7   9  1   
 11   7  26  1   
 12   7  27  1   
 13   8  10  2   
 14   8  11  1   
 15   9  12  1   
 16   9  28  1   
 17   9  29  1   
 18  11  13  1   
 19  11  14  1   
 20  11  30  1   
 21  12  15  1   
 22  12  16  1   
 23  12  31  1   
 24  13  17  1   
 25  14  32  1   
 26  14  33  1   
 27  14  34  1   
 28  15  35  1   
 29  15  36  1   
 30  15  37  1   
 31  16  38  1   
 32  16  39  1   
 33  16  40  1   
 34  17  18  ar  
 35  17  19  ar  
 36  18  20  1   
 37  18  21  ar  
 38  19  22  ar  
 39  19  41  1   
 40  21  23  ar  
 41  21  42  1   
 42  22  23  ar  
 43  22  43  1   
 44  23  24  1   
@<TRIPOS>SUBSTRUCTURE
  1 ****   5 GROUP 4 **** **** 0

# MOE 2024.06 (io_trps.svl 2023.06)
