@<TRIPOS>MOLECULE
NONAME
48 50 1 0 0 
SMALL
USER_CHARGES


@<TRIPOS>ATOM
  1 S       -2.3140    -2.2750    -2.4410 S.3   1 <1>  -0.0800 
  2 C       -2.7870    -2.1890    -0.7550 C.2   1 <1>  -0.1100 
  3 C       -1.8970    -0.5720    -2.4520 C.2   1 <1>  -0.1100 
  4 C       -2.6350    -0.9390    -0.2740 C.2   1 <1>  -0.1810 
  5 C       -2.1200    -0.0190    -1.2450 C.2   1 <1>  -0.1500 
  6 C       -2.9600    -0.4700     1.1420 C.3   1 <1>   0.0820 
  7 C       -3.7860    -1.4660     1.9530 C.2   1 <1>   0.5690 
  8 O       -3.2170    -2.0290     2.8600 O.2   1 <1>  -0.5700 
  9 N       -5.1180    -1.7110     1.6810 N.am  1 <1>  -0.6600 
 10 C       -5.8440    -1.1070     0.5190 C.3   1 <1>   0.2200 
 11 C       -5.8530    -2.6960     2.5360 C.3   1 <1>   0.0600 
 12 C       -6.9420    -0.1360     0.9360 C.3   1 <1>  -0.1600 
 13 C       -6.5640    -2.1190    -0.3670 C.3   1 <1>  -0.1600 
 14 C       -7.8350    -0.0130    -0.3090 C.3   1 <1>  -0.0800 
 15 C       -7.5810    -1.2750    -1.1510 C.3   1 <1>  -0.0800 
 16 C       -9.3370     0.0140     0.0010 C.3   1 <1>  -0.1600 
 17 C       -8.9410    -1.9590    -1.3390 C.3   1 <1>  -0.1600 
 18 C       -9.7980    -1.4310    -0.1920 C.3   1 <1>   0.4230 
 19 N      -11.2660    -1.5940    -0.4350 N.4   1 <1>  -0.9590 
 20 C      -11.8140    -0.8300    -1.6050 C.3   1 <1>   0.2630 
 21 C      -12.0450    -1.2640     0.7990 C.3   1 <1>   0.2630 
 22 H       -3.1360    -3.0970    -0.2940 H     1 <1>   0.1500 
 23 H       -1.5210    -0.1610    -3.3720 H     1 <1>   0.1500 
 24 H       -1.9390     1.0120    -0.9970 H     1 <1>   0.1500 
 25 H       -3.4920     0.4610     1.1050 H     1 <1>   0.0800 
 26 H       -2.0360    -0.2890     1.6610 H     1 <1>   0.0800 
 27 H       -5.1630    -0.5670    -0.1140 H     1 <1>   0.0800 
 28 H       -6.8960    -2.4530     2.6010 H     1 <1>   0.0800 
 29 H       -5.4490    -2.7010     3.5350 H     1 <1>   0.0800 
 30 H       -5.7420    -3.6830     2.1210 H     1 <1>   0.0800 
 31 H       -7.4980    -0.5360     1.7630 H     1 <1>   0.0800 
 32 H       -6.5270     0.8170     1.2170 H     1 <1>   0.0800 
 33 H       -5.8730    -2.6130    -1.0270 H     1 <1>   0.0800 
 34 H       -7.0750    -2.8520     0.2290 H     1 <1>   0.0800 
 35 H       -7.5470     0.8640    -0.8670 H     1 <1>   0.0800 
 36 H       -7.1550    -1.0040    -2.1050 H     1 <1>   0.0800 
 37 H       -9.8060     0.6690    -0.7100 H     1 <1>   0.0800 
 38 H       -9.5340     0.3720     0.9960 H     1 <1>   0.0800 
 39 H       -8.8580    -3.0310    -1.3210 H     1 <1>   0.0800 
 40 H       -9.3340    -1.6510    -2.2900 H     1 <1>   0.0800 
 41 H       -9.5210    -1.9820     0.6930 H     1 <1>   0.0800 
 42 H      -11.4100    -2.5960    -0.6320 H     1 <1>   0.4500 
 43 H      -11.7140     0.2310    -1.4450 H     1 <1>   0.0800 
 44 H      -12.8600    -1.0560    -1.7390 H     1 <1>   0.0800 
 45 H      -11.2940    -1.0940    -2.5110 H     1 <1>   0.0800 
 46 H      -11.9330    -0.2210     1.0460 H     1 <1>   0.0800 
 47 H      -11.6980    -1.8550     1.6310 H     1 <1>   0.0800 
 48 H      -13.0930    -1.4710     0.6470 H     1 <1>   0.0800 
@<TRIPOS>BOND
  1   1   2  1   
  2   1   3  1   
  3   2   4  2   
  4   2  22  1   
  5   3   5  2   
  6   3  23  1   
  7   4   5  1   
  8   4   6  1   
  9   5  24  1   
 10   6   7  1   
 11   6  25  1   
 12   6  26  1   
 13   7   8  2   
 14   7   9  am  
 15   9  10  1   
 16   9  11  1   
 17  10  12  1   
 18  10  13  1   
 19  10  27  1   
 20  11  28  1   
 21  11  29  1   
 22  11  30  1   
 23  12  14  1   
 24  12  31  1   
 25  12  32  1   
 26  13  15  1   
 27  13  33  1   
 28  13  34  1   
 29  14  15  1   
 30  14  16  1   
 31  14  35  1   
 32  15  17  1   
 33  15  36  1   
 34  16  18  1   
 35  16  37  1   
 36  16  38  1   
 37  17  18  1   
 38  17  39  1   
 39  17  40  1   
 40  18  19  1   
 41  18  41  1   
 42  19  20  1   
 43  19  21  1   
 44  19  42  1   
 45  20  43  1   
 46  20  44  1   
 47  20  45  1   
 48  21  46  1   
 49  21  47  1   
 50  21  48  1   
@<TRIPOS>SUBSTRUCTURE
  1 ****  10 GROUP 4 **** **** 0

# MOE 2024.06 (io_trps.svl 2023.06)
