@<TRIPOS>MOLECULE
NONAME
49 52 1 0 0 
SMALL
USER_CHARGES


@<TRIPOS>ATOM
  1 O       -2.8400     0.7960    -2.5090 O.2   1 <1>  -0.5700 
  2 C       -2.3550     1.1610    -1.4570 C.2   1 <1>   0.5440 
  3 N       -2.2730     0.2290    -0.4480 N.am  1 <1>  -0.6600 
  4 C       -1.9690     2.5470    -1.2540 C.ar  1 <1>   0.0860 
  5 C       -2.9260     0.4930     0.8690 C.3   1 <1>   0.1400 
  6 C       -2.2400    -1.2210    -0.8020 C.3   1 <1>   0.1400 
  7 C       -0.8900     2.8950    -0.4440 C.ar  1 <1>  -0.1500 
  8 C       -2.6810     3.5790    -1.8630 C.ar  1 <1>  -0.1500 
  9 C       -4.3580    -0.0990     0.9140 C.3   1 <1>   0.4230 
 10 C       -3.6720    -1.7830    -0.8250 C.3   1 <1>   0.3430 
 11 C       -0.5150     4.2200    -0.2080 C.ar  1 <1>   0.0860 
 12 C       -2.3430     4.8990    -1.6470 C.ar  1 <1>  -0.1500 
 13 N       -4.3920    -1.5590     0.4880 N.4   1 <1>  -0.9590 
 14 C       -5.3330     0.7500     0.0610 C.3   1 <1>   0.1200 
 15 C        0.6060     4.5880     0.6360 C.2   1 <1>   0.4230 
 16 C       -1.2780     5.2110    -0.8260 C.ar  1 <1>  -0.1500 
 17 C       -5.8150    -2.0380     0.4650 C.3   1 <1>   0.5180 
 18 O       -6.6240     0.2160     0.1250 O.3   1 <1>  -0.5600 
 19 O        0.7550     5.6950     1.0790 O.2   1 <1>  -0.5700 
 20 C        1.6630     3.5620     0.9980 C.3   1 <1>  -0.1790 
 21 C       -5.8730    -3.4850    -0.0370 C.3   1 <1>  -0.1950 
 22 C       -6.7330    -1.0980    -0.3490 C.3   1 <1>   0.1200 
 23 C       -6.8230    -4.4590     0.5900 C.3   1 <1>  -0.2000 
 24 C       -5.3430    -4.6250     0.7790 C.3   1 <1>  -0.2000 
 25 H       -2.3310     0.0550     1.6520 H     1 <1>   0.0800 
 26 H       -2.9710     1.5530     1.0560 H     1 <1>   0.0800 
 27 H       -1.7920    -1.3490    -1.7740 H     1 <1>   0.0800 
 28 H       -1.6380    -1.7590    -0.0920 H     1 <1>   0.0800 
 29 H       -0.3290     2.1000     0.0120 H     1 <1>   0.1500 
 30 H       -3.5060     3.3410    -2.5130 H     1 <1>   0.1500 
 31 H       -4.7030    -0.0270     1.9320 H     1 <1>   0.0800 
 32 H       -3.6290    -2.8370    -1.0480 H     1 <1>   0.0800 
 33 H       -4.2080    -1.2980    -1.6260 H     1 <1>   0.0800 
 34 H       -2.9060     5.6870    -2.1210 H     1 <1>   0.1500 
 35 H       -3.9130    -2.1190     1.1990 H     1 <1>   0.4500 
 36 H       -5.0300     0.7900    -0.9710 H     1 <1>   0.0800 
 37 H       -5.3810     1.7560     0.4390 H     1 <1>   0.0800 
 38 H       -1.0230     6.2460    -0.6600 H     1 <1>   0.1500 
 39 H       -6.1870    -2.0350     1.4770 H     1 <1>   0.0800 
 40 H        1.9630     3.0110     0.1260 H     1 <1>   0.0800 
 41 H        1.2810     2.8890     1.7430 H     1 <1>   0.0800 
 42 H        2.5270     4.0600     1.3980 H     1 <1>   0.0800 
 43 H       -5.8010    -3.5560    -1.1100 H     1 <1>   0.1000 
 44 H       -7.7600    -1.4010    -0.2370 H     1 <1>   0.0800 
 45 H       -6.4850    -1.1120    -1.3960 H     1 <1>   0.0800 
 46 H       -7.4140    -4.1720     1.4440 H     1 <1>   0.1000 
 47 H       -7.3370    -5.1690    -0.0370 H     1 <1>   0.1000 
 48 H       -4.8640    -5.4540     0.2830 H     1 <1>   0.1000 
 49 H       -4.9540    -4.4670     1.7710 H     1 <1>   0.1000 
@<TRIPOS>BOND
  1   1   2  2   
  2   2   3  am  
  3   2   4  1   
  4   3   5  1   
  5   3   6  1   
  6   4   7  ar  
  7   4   8  ar  
  8   5   9  1   
  9   5  25  1   
 10   5  26  1   
 11   6  10  1   
 12   6  27  1   
 13   6  28  1   
 14   7  11  ar  
 15   7  29  1   
 16   8  12  ar  
 17   8  30  1   
 18   9  13  1   
 19   9  14  1   
 20   9  31  1   
 21  10  13  1   
 22  10  32  1   
 23  10  33  1   
 24  11  15  1   
 25  11  16  ar  
 26  12  16  ar  
 27  12  34  1   
 28  13  17  1   
 29  13  35  1   
 30  14  18  1   
 31  14  36  1   
 32  14  37  1   
 33  15  19  2   
 34  15  20  1   
 35  16  38  1   
 36  17  21  1   
 37  17  22  1   
 38  17  39  1   
 39  18  22  1   
 40  20  40  1   
 41  20  41  1   
 42  20  42  1   
 43  21  23  1   
 44  21  24  1   
 45  21  43  1   
 46  22  44  1   
 47  22  45  1   
 48  23  24  1   
 49  23  46  1   
 50  23  47  1   
 51  24  48  1   
 52  24  49  1   
@<TRIPOS>SUBSTRUCTURE
  1 ****   3 GROUP 4 **** **** 0

# MOE 2024.06 (io_trps.svl 2023.06)
