@<TRIPOS>MOLECULE
NONAME
48 51 1 0 0 
SMALL
USER_CHARGES


@<TRIPOS>ATOM
  1 O       -0.0610     0.0190     0.5390 O.3   1 <1>  -0.0190 
  2 N        0.5540     1.1240     0.2490 N.2   1 <1>  -0.4100 
  3 C        0.8050    -0.9180     0.2430 C.2   1 <1>   0.2980 
  4 C        1.7130     0.8080    -0.1790 C.2   1 <1>   0.3350 
  5 N        1.9240    -0.5040    -0.2050 N.2   1 <1>  -0.5650 
  6 C        0.4320    -2.3780     0.4870 C.3   1 <1>   0.2900 
  7 C        2.7690     1.8040    -0.6490 C.3   1 <1>   0.3010 
  8 N       -0.5790    -2.9220    -0.4590 N.3   1 <1>  -0.8100 
  9 O        3.7470     2.0120     0.3350 O.3   1 <1>  -0.5600 
 10 C       -1.9540    -2.4560    -0.2070 C.3   1 <1>   0.1100 
 11 C       -0.6630    -4.3820    -0.3900 C.3   1 <1>   0.1100 
 12 C        4.7590     2.8880    -0.0430 C.3   1 <1>   0.0400 
 13 C       -2.6200    -3.4900     0.7080 C.3   1 <1>   0.2000 
 14 C       -1.6800    -4.7010     0.7110 C.3   1 <1>  -0.0800 
 15 O       -2.7360    -2.9950     1.9980 O.3   1 <1>  -0.6800 
 16 C       -2.4340    -6.0230     0.4710 C.3   1 <1>  -0.0170 
 17 C       -1.5610    -7.2830     0.3870 C.ar  1 <1>  -0.1430 
 18 C       -2.0270    -8.4430    -0.2840 C.ar  1 <1>   0.0000 
 19 C       -0.3190    -7.3560     0.9530 C.ar  1 <1>  -0.1500 
 20 C       -1.1550    -9.5570    -0.3660 C.ar  1 <1>   0.3100 
 21 C       -3.3090    -8.5730    -0.8700 C.ar  1 <1>  -0.1500 
 22 C        0.4560    -8.5140     0.8270 C.ar  1 <1>   0.1600 
 23 N        0.0800    -9.5760     0.1920 N.ar  1 <1>  -0.6200 
 24 C       -1.5780   -10.7090    -1.0490 C.ar  1 <1>  -0.1500 
 25 C       -3.6930    -9.7120    -1.5240 C.ar  1 <1>  -0.1500 
 26 C       -2.8170   -10.7940    -1.6210 C.ar  1 <1>  -0.1500 
 27 H        0.0930    -2.4880     1.5010 H     1 <1>   0.0800 
 28 H        1.3390    -2.9480     0.3820 H     1 <1>   0.0800 
 29 H        2.2990     2.7470    -0.8660 H     1 <1>   0.0800 
 30 H        3.2460     1.4240    -1.5350 H     1 <1>   0.0800 
 31 H       -1.9980    -1.4620     0.2000 H     1 <1>   0.0800 
 32 H       -2.4750    -2.4530    -1.1500 H     1 <1>   0.0800 
 33 H       -1.0290    -4.7430    -1.3380 H     1 <1>   0.0800 
 34 H        0.2970    -4.8340    -0.2090 H     1 <1>   0.0800 
 35 H        5.4470     2.9760     0.7790 H     1 <1>   0.0800 
 36 H        4.3330     3.8510    -0.2640 H     1 <1>   0.0800 
 37 H        5.2720     2.4900    -0.9030 H     1 <1>   0.0800 
 38 H       -3.6090    -3.7270     0.3550 H     1 <1>   0.0800 
 39 H       -1.1640    -4.7480     1.6530 H     1 <1>   0.0800 
 40 H       -1.8870    -2.6170     2.2910 H     1 <1>   0.4000 
 41 H       -2.9700    -5.9090    -0.4530 H     1 <1>   0.0800 
 42 H       -3.1580    -6.1620     1.2560 H     1 <1>   0.0800 
 43 H        0.1130    -6.5480     1.5100 H     1 <1>   0.1500 
 44 H       -4.0120    -7.7650    -0.8020 H     1 <1>   0.1500 
 45 H        1.4300    -8.5210     1.2870 H     1 <1>   0.1500 
 46 H       -0.8870   -11.5300    -1.1050 H     1 <1>   0.1500 
 47 H       -4.6710    -9.7910    -1.9670 H     1 <1>   0.1500 
 48 H       -3.1280   -11.6850    -2.1400 H     1 <1>   0.1500 
@<TRIPOS>BOND
  1   1   2  1   
  2   1   3  1   
  3   2   4  2   
  4   3   5  2   
  5   3   6  1   
  6   4   5  1   
  7   4   7  1   
  8   6   8  1   
  9   6  27  1   
 10   6  28  1   
 11   7   9  1   
 12   7  29  1   
 13   7  30  1   
 14   8  10  1   
 15   8  11  1   
 16   9  12  1   
 17  10  13  1   
 18  10  31  1   
 19  10  32  1   
 20  11  14  1   
 21  11  33  1   
 22  11  34  1   
 23  12  35  1   
 24  12  36  1   
 25  12  37  1   
 26  13  14  1   
 27  13  15  1   
 28  13  38  1   
 29  14  16  1   
 30  14  39  1   
 31  15  40  1   
 32  16  17  1   
 33  16  41  1   
 34  16  42  1   
 35  17  18  ar  
 36  17  19  ar  
 37  18  20  ar  
 38  18  21  ar  
 39  19  22  ar  
 40  19  43  1   
 41  20  23  ar  
 42  20  24  ar  
 43  21  25  ar  
 44  21  44  1   
 45  22  23  ar  
 46  22  45  1   
 47  24  26  ar  
 48  24  46  1   
 49  25  26  ar  
 50  25  47  1   
 51  26  48  1   
@<TRIPOS>SUBSTRUCTURE
  1 ****  11 GROUP 4 **** **** 0

# MOE 2024.06 (io_trps.svl 2023.06)
