@<TRIPOS>MOLECULE
NONAME
52 54 1 0 0 
SMALL
USER_CHARGES


@<TRIPOS>ATOM
  1 O        3.3320    -0.7870     1.5820 O.2   1 <1>  -0.5700 
  2 C        2.6930    -0.6180     0.5600 C.2   1 <1>   0.5440 
  3 N        2.6940     0.6540     0.0420 N.am  1 <1>  -0.6600 
  4 C        2.0690    -1.7200    -0.1440 C.ar  1 <1>   0.0860 
  5 C        3.5680     0.9650    -1.1300 C.3   1 <1>   0.1400 
  6 C        2.3010     1.8330     0.8690 C.3   1 <1>   0.1400 
  7 C        2.7720    -2.8690    -0.4950 C.ar  1 <1>   0.1660 
  8 C        0.7330    -1.6960    -0.5310 C.ar  1 <1>   0.1660 
  9 C        5.0660     0.9480    -0.7490 C.3   1 <1>   0.3430 
 10 C        3.4180     2.3110     1.8110 C.3   1 <1>  -0.1600 
 11 N        2.2280    -3.8520    -1.1760 N.ar  1 <1>  -0.6200 
 12 C        4.2300    -3.0830    -0.1210 C.3   1 <1>  -0.0960 
 13 N        0.1780    -2.6690    -1.2180 N.ar  1 <1>  -0.6200 
 14 C       -0.2000    -0.5470    -0.1840 C.3   1 <1>  -0.0970 
 15 N        5.2860     1.1440     0.7220 N.4   1 <1>  -0.9590 
 16 C        4.7990     2.4720     1.1720 C.3   1 <1>   0.3430 
 17 C        0.9580    -3.6950    -1.5010 C.ar  1 <1>   0.4700 
 18 C        6.7180     0.9340     1.1080 C.3   1 <1>   0.5240 
 19 C        7.6900     1.7990     0.2940 C.2   1 <1>   0.1080 
 20 N        7.4280     2.9950    -0.1550 N.2   1 <1>  -0.7070 
 21 C        8.9710     1.3870    -0.0550 C.2   1 <1>  -0.1500 
 22 N        8.5520     3.3860    -0.7930 N.pl3 1 <1>   0.3140 
 23 C        9.4900     2.4220    -0.7470 C.2   1 <1>  -0.3020 
 24 C        8.6870     4.7130    -1.4320 C.3   1 <1>   0.0960 
 25 C        9.4060     5.7020    -0.5060 C.3   1 <1>  -0.2400 
 26 H        3.3140     1.9340    -1.5230 H     1 <1>   0.0800 
 27 H        3.3930     0.2490    -1.9160 H     1 <1>   0.0800 
 28 H        1.4390     1.5730     1.4610 H     1 <1>   0.0800 
 29 H        2.0080     2.6380     0.2150 H     1 <1>   0.0800 
 30 H        5.5880     1.7090    -1.3070 H     1 <1>   0.0800 
 31 H        5.4770    -0.0030    -1.0410 H     1 <1>   0.0800 
 32 H        3.4900     1.6410     2.6490 H     1 <1>   0.0800 
 33 H        3.1230     3.2650     2.2110 H     1 <1>   0.0800 
 34 H        4.8100    -2.2030    -0.3170 H     1 <1>   0.0800 
 35 H        4.6470    -3.8960    -0.6890 H     1 <1>   0.0800 
 36 H        4.2990    -3.3300     0.9230 H     1 <1>   0.0800 
 37 H       -0.0490    -0.2310     0.8320 H     1 <1>   0.0800 
 38 H       -1.2250    -0.8570    -0.2840 H     1 <1>   0.0800 
 39 H       -0.0280     0.2780    -0.8490 H     1 <1>   0.0800 
 40 H        4.6850     0.4440     1.2070 H     1 <1>   0.4500 
 41 H        5.4780     2.8810     1.9030 H     1 <1>   0.0800 
 42 H        4.7620     3.1590     0.3410 H     1 <1>   0.0800 
 43 H        0.5060    -4.4980    -2.0600 H     1 <1>   0.1500 
 44 H        6.9790    -0.1010     0.9630 H     1 <1>   0.0800 
 45 H        6.8460     1.1620     2.1520 H     1 <1>   0.0800 
 46 H        9.4430     0.4480     0.1820 H     1 <1>   0.1500 
 47 H       10.4610     2.5270    -1.1970 H     1 <1>   0.1500 
 48 H        7.7040     5.0780    -1.6660 H     1 <1>   0.0800 
 49 H        9.2360     4.5970    -2.3490 H     1 <1>   0.0800 
 50 H        8.8530     5.8220     0.4090 H     1 <1>   0.0800 
 51 H        9.4840     6.6610    -0.9870 H     1 <1>   0.0800 
 52 H       10.3980     5.3530    -0.2800 H     1 <1>   0.0800 
@<TRIPOS>BOND
  1   1   2  2   
  2   2   3  am  
  3   2   4  1   
  4   3   5  1   
  5   3   6  1   
  6   4   7  ar  
  7   4   8  ar  
  8   5   9  1   
  9   5  26  1   
 10   5  27  1   
 11   6  10  1   
 12   6  28  1   
 13   6  29  1   
 14   7  11  ar  
 15   7  12  1   
 16   8  13  ar  
 17   8  14  1   
 18   9  15  1   
 19   9  30  1   
 20   9  31  1   
 21  10  16  1   
 22  10  32  1   
 23  10  33  1   
 24  11  17  ar  
 25  12  34  1   
 26  12  35  1   
 27  12  36  1   
 28  13  17  ar  
 29  14  37  1   
 30  14  38  1   
 31  14  39  1   
 32  15  16  1   
 33  15  18  1   
 34  15  40  1   
 35  16  41  1   
 36  16  42  1   
 37  17  43  1   
 38  18  19  1   
 39  18  44  1   
 40  18  45  1   
 41  19  20  2   
 42  19  21  1   
 43  20  22  1   
 44  21  23  2   
 45  21  46  1   
 46  22  23  1   
 47  22  24  1   
 48  23  47  1   
 49  24  25  1   
 50  24  48  1   
 51  24  49  1   
 52  25  50  1   
 53  25  51  1   
 54  25  52  1   
@<TRIPOS>SUBSTRUCTURE
  1 ****   9 GROUP 4 **** **** 0

# MOE 2024.06 (io_trps.svl 2023.06)
