@<TRIPOS>MOLECULE
NONAME
54 56 1 0 0 
SMALL
USER_CHARGES


@<TRIPOS>ATOM
  1 O       -1.3990     0.9060     1.6360 O.2   1 <1>  -0.5700 
  2 C       -1.6110     1.0050     0.4430 C.2   1 <1>   0.7160 
  3 N       -2.0390    -0.0690    -0.2730 N.am  1 <1>  -0.7300 
  4 C       -1.4330     2.2460    -0.2300 C.2   1 <1>  -0.0860 
  5 C       -2.6200    -1.3750     0.1400 C.3   1 <1>   0.3610 
  6 C       -2.4560     3.1150    -0.6230 C.2   1 <1>   0.3720 
  7 C       -0.3070     2.8480    -0.6940 C.2   1 <1>   0.0870 
  8 C       -3.2640    -2.0370    -1.1340 C.2   1 <1>   0.5690 
  9 C       -3.7050    -1.0970     1.1960 C.3   1 <1>  -0.2400 
 10 C       -1.4520    -2.1870     0.7260 C.3   1 <1>  -0.2400 
 11 N       -1.9850     4.1160    -1.2770 N.2   1 <1>  -0.4100 
 12 N       -3.8240     2.9700    -0.3790 N.pl3 1 <1>  -0.8210 
 13 O       -0.6900     3.9410    -1.3050 O.3   1 <1>  -0.0190 
 14 C        1.0880     2.4900    -0.6440 C.ar  1 <1>   0.0530 
 15 O       -3.4340    -1.2990    -2.0870 O.2   1 <1>  -0.5700 
 16 N       -3.6360    -3.3700    -1.2400 N.am  1 <1>  -0.6600 
 17 C       -4.5640     2.0760    -1.3180 C.3   1 <1>   0.2090 
 18 C       -4.2460     2.7960     1.0430 C.3   1 <1>   0.2090 
 19 C        1.9500     2.8420    -1.6840 C.ar  1 <1>  -0.1500 
 20 C        1.6350     1.7870     0.4310 C.ar  1 <1>  -0.1500 
 21 C       -3.6570    -4.3900    -0.1540 C.3   1 <1>   0.0600 
 22 C       -4.1060    -3.9230    -2.5450 C.3   1 <1>   0.0600 
 23 C       -6.0790     2.1240    -1.0510 C.3   1 <1>   0.1200 
 24 C       -5.7790     2.8180     1.1650 C.3   1 <1>   0.1200 
 25 C        3.2900     2.5010    -1.6600 C.ar  1 <1>  -0.1500 
 26 C        2.9730     1.4410     0.4600 C.ar  1 <1>  -0.1500 
 27 O       -6.3610     1.8800     0.3010 O.3   1 <1>  -0.5600 
 28 C        3.8050     1.7970    -0.5860 C.ar  1 <1>  -0.1500 
 29 H       -2.2190     0.0800    -1.2720 H     1 <1>   0.3700 
 30 H       -4.4360    -0.4140     0.8010 H     1 <1>   0.0800 
 31 H       -3.2810    -0.6850     2.0920 H     1 <1>   0.0800 
 32 H       -4.2190    -1.9960     1.4690 H     1 <1>   0.0800 
 33 H       -0.7510    -2.4300    -0.0520 H     1 <1>   0.0800 
 34 H       -1.7870    -3.0960     1.1800 H     1 <1>   0.0800 
 35 H       -0.9440    -1.6250     1.4880 H     1 <1>   0.0800 
 36 H       -4.2280     1.0620    -1.2060 H     1 <1>   0.0800 
 37 H       -4.3690     2.3830    -2.3310 H     1 <1>   0.0800 
 38 H       -3.8270     3.5890     1.6370 H     1 <1>   0.0800 
 39 H       -3.8860     1.8610     1.4310 H     1 <1>   0.0800 
 40 H        1.5610     3.3880    -2.5250 H     1 <1>   0.1500 
 41 H        1.0110     1.5120     1.2620 H     1 <1>   0.1500 
 42 H       -3.7660    -3.9390     0.8120 H     1 <1>   0.0800 
 43 H       -2.7450    -4.9620    -0.1790 H     1 <1>   0.0800 
 44 H       -4.4880    -5.0590    -0.2970 H     1 <1>   0.0800 
 45 H       -3.8680    -3.2600    -3.3590 H     1 <1>   0.0800 
 46 H       -5.1730    -4.0610    -2.5160 H     1 <1>   0.0800 
 47 H       -3.6310    -4.8700    -2.7360 H     1 <1>   0.0800 
 48 H       -6.5800     1.3720    -1.6340 H     1 <1>   0.0800 
 49 H       -6.4730     3.0890    -1.3170 H     1 <1>   0.0800 
 50 H       -6.1600     3.7950     0.9220 H     1 <1>   0.0800 
 51 H       -6.0750     2.5690     2.1680 H     1 <1>   0.0800 
 52 H        3.9330     2.7820    -2.4750 H     1 <1>   0.1500 
 53 H        3.3690     0.8970     1.3000 H     1 <1>   0.1500 
 54 H        4.8470     1.5290    -0.5640 H     1 <1>   0.1500 
@<TRIPOS>BOND
  1   1   2  2   
  2   2   3  am  
  3   2   4  1   
  4   3   5  1   
  5   3  29  1   
  6   4   6  1   
  7   4   7  2   
  8   5   8  1   
  9   5   9  1   
 10   5  10  1   
 11   6  11  2   
 12   6  12  1   
 13   7  13  1   
 14   7  14  1   
 15   8  15  2   
 16   8  16  am  
 17   9  30  1   
 18   9  31  1   
 19   9  32  1   
 20  10  33  1   
 21  10  34  1   
 22  10  35  1   
 23  11  13  1   
 24  12  17  1   
 25  12  18  1   
 26  14  19  ar  
 27  14  20  ar  
 28  16  21  1   
 29  16  22  1   
 30  17  23  1   
 31  17  36  1   
 32  17  37  1   
 33  18  24  1   
 34  18  38  1   
 35  18  39  1   
 36  19  25  ar  
 37  19  40  1   
 38  20  26  ar  
 39  20  41  1   
 40  21  42  1   
 41  21  43  1   
 42  21  44  1   
 43  22  45  1   
 44  22  46  1   
 45  22  47  1   
 46  23  27  1   
 47  23  48  1   
 48  23  49  1   
 49  24  27  1   
 50  24  50  1   
 51  24  51  1   
 52  25  28  ar  
 53  25  52  1   
 54  26  28  ar  
 55  26  53  1   
 56  28  54  1   
@<TRIPOS>SUBSTRUCTURE
  1 ****   2 GROUP 4 **** **** 0

# MOE 2024.06 (io_trps.svl 2023.06)
