@<TRIPOS>MOLECULE
NONAME
44 46 1 0 0 
SMALL
USER_CHARGES


@<TRIPOS>ATOM
  1 O       -0.6620    -0.5290     0.6580 O.3   1 <1>  -0.5600 
  2 C        0.2540    -0.9510    -0.3060 C.3   1 <1>   0.1200 
  3 C       -1.6210    -1.4900     0.9960 C.3   1 <1>   0.1200 
  4 C        1.0410    -2.1770     0.1960 C.3   1 <1>   0.2090 
  5 C       -0.9440    -2.7470     1.5690 C.3   1 <1>   0.2090 
  6 N        0.1100    -3.2810     0.6250 N.pl3 1 <1>  -0.8380 
  7 C        0.1300    -4.5840     0.2370 C.ar  1 <1>   0.7710 
  8 N       -0.8760    -5.3800     0.5770 N.ar  1 <1>  -0.6200 
  9 N        1.1730    -5.0410    -0.4810 N.ar  1 <1>  -0.1790 
 10 C       -0.8350    -6.6320     0.1910 C.ar  1 <1>   0.4100 
 11 C        1.2520    -6.3250    -0.9060 C.ar  1 <1>   0.2180 
 12 N       -1.8850    -7.3730     0.5710 N.pl3 1 <1>  -0.8690 
 13 C        0.2290    -7.1480    -0.5710 C.ar  1 <1>  -0.1500 
 14 C        2.4600    -6.7680    -1.7220 C.3   1 <1>  -0.0170 
 15 C       -2.1510    -8.8260     0.3590 C.3   1 <1>   0.2890 
 16 C        3.7660    -6.6670    -0.9230 C.3   1 <1>  -0.2400 
 17 C       -2.9260    -9.0370    -0.9340 C.3   1 <1>   0.2000 
 18 C       -3.1470    -9.3420     1.4040 C.3   1 <1>   0.1200 
 19 O       -2.7910   -10.3590    -1.3470 O.3   1 <1>  -0.6800 
 20 C       -4.3630    -8.7970    -0.4800 C.3   1 <1>   0.1200 
 21 O       -4.4300    -9.2440     0.8440 O.3   1 <1>  -0.5600 
 22 H       -0.2810    -1.1780    -1.2120 H     1 <1>   0.0800 
 23 H        0.9230    -0.1300    -0.4970 H     1 <1>   0.0800 
 24 H       -2.2760    -1.0550     1.7300 H     1 <1>   0.0800 
 25 H       -2.1960    -1.7320     0.1200 H     1 <1>   0.0800 
 26 H        1.6440    -1.8730     1.0360 H     1 <1>   0.0800 
 27 H        1.7000    -2.4960    -0.5890 H     1 <1>   0.0800 
 28 H       -1.7080    -3.4750     1.7800 H     1 <1>   0.0800 
 29 H       -0.4820    -2.4910     2.5070 H     1 <1>   0.0800 
 30 H        1.9140    -4.3780    -0.6590 H     1 <1>   0.4570 
 31 H       -2.6290    -6.8850     1.0830 H     1 <1>   0.4000 
 32 H        0.2090    -8.1790    -0.8710 H     1 <1>   0.1500 
 33 H        2.3260    -7.7900    -2.0330 H     1 <1>   0.0800 
 34 H        2.5340    -6.1710    -2.6160 H     1 <1>   0.0800 
 35 H       -1.2300    -9.3810     0.3800 H     1 <1>   0.0800 
 36 H        3.7060    -7.2610    -0.0260 H     1 <1>   0.0800 
 37 H        3.9890    -5.6500    -0.6520 H     1 <1>   0.0800 
 38 H        4.5840    -7.0410    -1.5150 H     1 <1>   0.0800 
 39 H       -2.6100    -8.3930    -1.7350 H     1 <1>   0.0800 
 40 H       -3.1110    -8.7800     2.3200 H     1 <1>   0.0800 
 41 H       -2.9670   -10.3820     1.6100 H     1 <1>   0.0800 
 42 H       -3.3740   -10.9280    -0.8030 H     1 <1>   0.4000 
 43 H       -5.0860    -9.3210    -1.0820 H     1 <1>   0.0800 
 44 H       -4.5840    -7.7440    -0.4790 H     1 <1>   0.0800 
@<TRIPOS>BOND
  1   1   2  1   
  2   1   3  1   
  3   2   4  1   
  4   2  22  1   
  5   2  23  1   
  6   3   5  1   
  7   3  24  1   
  8   3  25  1   
  9   4   6  1   
 10   4  26  1   
 11   4  27  1   
 12   5   6  1   
 13   5  28  1   
 14   5  29  1   
 15   6   7  1   
 16   7   8  ar  
 17   7   9  ar  
 18   8  10  ar  
 19   9  11  ar  
 20   9  30  1   
 21  10  12  1   
 22  10  13  ar  
 23  11  13  ar  
 24  11  14  1   
 25  12  15  1   
 26  12  31  1   
 27  13  32  1   
 28  14  16  1   
 29  14  33  1   
 30  14  34  1   
 31  15  17  1   
 32  15  18  1   
 33  15  35  1   
 34  16  36  1   
 35  16  37  1   
 36  16  38  1   
 37  17  19  1   
 38  17  20  1   
 39  17  39  1   
 40  18  21  1   
 41  18  40  1   
 42  18  41  1   
 43  19  42  1   
 44  20  21  1   
 45  20  43  1   
 46  20  44  1   
@<TRIPOS>SUBSTRUCTURE
  1 ****   8 GROUP 4 **** **** 0

# MOE 2024.06 (io_trps.svl 2023.06)
