@<TRIPOS>MOLECULE
NONAME
47 49 1 0 0 
SMALL
USER_CHARGES


@<TRIPOS>ATOM
  1 O       -0.0440    -0.3400     0.1610 O.2   1 <1>  -0.5700 
  2 C        1.0410    -0.8470    -0.0600 C.2   1 <1>   0.5440 
  3 N        2.1740    -0.0720    -0.0890 N.am  1 <1>  -0.4930 
  4 C        1.1480    -2.2760    -0.2690 C.ar  1 <1>   0.0860 
  5 C        2.3170     1.3360     0.0220 C.2   1 <1>   0.0630 
  6 C        0.2700    -3.1610     0.3600 C.ar  1 <1>  -0.1500 
  7 C        2.1220    -2.8380    -1.1010 C.ar  1 <1>  -0.1500 
  8 C        3.5140     2.0530     0.0870 C.2   1 <1>   0.1080 
  9 C        1.3600     2.2840     0.0810 C.2   1 <1>  -0.3020 
 10 C        0.3680    -4.5280     0.1880 C.ar  1 <1>  -0.1500 
 11 C        2.2220    -4.2040    -1.2740 C.ar  1 <1>  -0.1500 
 12 N        3.3210     3.3320     0.1780 N.2   1 <1>  -0.7070 
 13 C        4.9020     1.4520     0.0600 C.3   1 <1>  -0.0590 
 14 N        1.9850     3.4750     0.1760 N.pl3 1 <1>   0.3140 
 15 C        1.3500    -5.0750    -0.6310 C.ar  1 <1>   0.1000 
 16 C        1.3410     4.7890     0.2680 C.3   1 <1>   0.0160 
 17 N        1.4700    -6.4450    -0.8140 N.pl3 1 <1>  -0.8380 
 18 C        2.7400    -7.1450    -0.4590 C.3   1 <1>   0.2090 
 19 C        0.2790    -7.3060    -1.0840 C.3   1 <1>   0.2090 
 20 C        2.5000    -8.2110     0.6320 C.3   1 <1>   0.3430 
 21 C        0.0980    -8.3710     0.0190 C.3   1 <1>   0.3430 
 22 N        1.3640    -9.1490     0.2940 N.4   1 <1>  -0.9590 
 23 C        1.1560   -10.1570     1.3770 C.3   1 <1>   0.2630 
 24 H        3.0520    -0.5790    -0.1530 H     1 <1>   0.3700 
 25 H       -0.5000    -2.7560     0.9960 H     1 <1>   0.1500 
 26 H        2.8020    -2.1970    -1.6330 H     1 <1>   0.1500 
 27 H        0.2930     2.1700     0.0620 H     1 <1>   0.1500 
 28 H       -0.3220    -5.1710     0.6970 H     1 <1>   0.1500 
 29 H        2.9740    -4.6090    -1.9270 H     1 <1>   0.1500 
 30 H        5.0110     0.7470     0.8630 H     1 <1>   0.0800 
 31 H        5.6350     2.2290     0.1800 H     1 <1>   0.0800 
 32 H        5.0680     0.9610    -0.8800 H     1 <1>   0.0800 
 33 H        0.5990     4.7650     1.0430 H     1 <1>   0.0800 
 34 H        0.8820     5.0210    -0.6740 H     1 <1>   0.0800 
 35 H        2.0840     5.5290     0.5010 H     1 <1>   0.0800 
 36 H        3.4610    -6.4290    -0.1000 H     1 <1>   0.0800 
 37 H        3.1480    -7.6080    -1.3410 H     1 <1>   0.0800 
 38 H        0.4050    -7.7890    -2.0370 H     1 <1>   0.0800 
 39 H       -0.6070    -6.6970    -1.1490 H     1 <1>   0.0800 
 40 H        2.2780    -7.6980     1.5530 H     1 <1>   0.0800 
 41 H        3.4080    -8.7720     0.7780 H     1 <1>   0.0800 
 42 H       -0.6910    -9.0450    -0.2720 H     1 <1>   0.0800 
 43 H       -0.2150    -7.8680     0.9190 H     1 <1>   0.0800 
 44 H        1.6190    -9.6390    -0.5760 H     1 <1>   0.4500 
 45 H        0.8890    -9.6670     2.3000 H     1 <1>   0.0800 
 46 H        2.0580   -10.7260     1.5380 H     1 <1>   0.0800 
 47 H        0.3660   -10.8390     1.1080 H     1 <1>   0.0800 
@<TRIPOS>BOND
  1   1   2  2   
  2   2   3  am  
  3   2   4  1   
  4   3   5  1   
  5   3  24  1   
  6   4   6  ar  
  7   4   7  ar  
  8   5   8  1   
  9   5   9  2   
 10   6  10  ar  
 11   6  25  1   
 12   7  11  ar  
 13   7  26  1   
 14   8  12  2   
 15   8  13  1   
 16   9  14  1   
 17   9  27  1   
 18  10  15  ar  
 19  10  28  1   
 20  11  15  ar  
 21  11  29  1   
 22  12  14  1   
 23  13  30  1   
 24  13  31  1   
 25  13  32  1   
 26  14  16  1   
 27  15  17  1   
 28  16  33  1   
 29  16  34  1   
 30  16  35  1   
 31  17  18  1   
 32  17  19  1   
 33  18  20  1   
 34  18  36  1   
 35  18  37  1   
 36  19  21  1   
 37  19  38  1   
 38  19  39  1   
 39  20  22  1   
 40  20  40  1   
 41  20  41  1   
 42  21  22  1   
 43  21  42  1   
 44  21  43  1   
 45  22  23  1   
 46  22  44  1   
 47  23  45  1   
 48  23  46  1   
 49  23  47  1   
@<TRIPOS>SUBSTRUCTURE
  1 ****   4 GROUP 4 **** **** 0

# MOE 2024.06 (io_trps.svl 2023.06)
