@<TRIPOS>MOLECULE
NONAME
46 48 1 0 0 
SMALL
USER_CHARGES


@<TRIPOS>ATOM
  1 O       -0.4710     0.0890     0.5800 O.2   1 <1>  -0.5700 
  2 C       -1.4270     0.6980     0.1370 C.2   1 <1>   0.5440 
  3 N       -2.6110     0.0220    -0.0510 N.am  1 <1>  -0.6600 
  4 C       -1.2970     2.1060    -0.1610 C.ar  1 <1>   0.0860 
  5 C       -3.9450     0.6530    -0.1860 C.3   1 <1>   0.1400 
  6 C       -2.7470    -1.4270     0.2170 C.3   1 <1>   0.1400 
  7 C       -1.7720     2.6440    -1.3540 C.ar  1 <1>   0.1600 
  8 C       -0.6880     2.9860     0.7240 C.ar  1 <1>  -0.1500 
  9 C       -4.9270    -0.3530     0.4290 C.3   1 <1>  -0.0800 
 10 C       -4.2500    -1.7210     0.2180 C.3   1 <1>  -0.0800 
 11 N       -1.7210     3.9170    -1.7080 N.ar  1 <1>  -0.6200 
 12 C       -0.6160     4.3160     0.3770 C.ar  1 <1>  -0.1500 
 13 C       -6.4030    -0.2620    -0.0680 C.3   1 <1>   0.2800 
 14 C       -4.7230    -2.3720    -1.0910 C.3   1 <1>  -0.1600 
 15 C       -1.1470     4.7390    -0.8410 C.ar  1 <1>   0.3930 
 16 O       -6.4480     0.2650    -1.3450 O.3   1 <1>  -0.6800 
 17 C       -7.0210    -1.6700    -0.1560 C.3   1 <1>  -0.1600 
 18 C       -7.2800     0.6450     0.8240 C.3   1 <1>  -0.1600 
 19 C       -6.2410    -2.6310    -1.0790 C.3   1 <1>  -0.1600 
 20 O       -1.1160     6.0250    -1.2350 O.3   1 <1>  -0.3630 
 21 C       -6.8270     2.1110     0.9320 C.3   1 <1>  -0.2400 
 22 C       -0.5330     7.0570    -0.4710 C.3   1 <1>   0.0400 
 23 H       -3.9840     1.6010     0.3210 H     1 <1>   0.0800 
 24 H       -4.1370     0.8000    -1.2340 H     1 <1>   0.0800 
 25 H       -2.2240    -1.9950    -0.5330 H     1 <1>   0.0800 
 26 H       -2.3230    -1.6460     1.1830 H     1 <1>   0.0800 
 27 H       -2.2230     1.9690    -2.0610 H     1 <1>   0.1500 
 28 H       -0.2850     2.6200     1.6540 H     1 <1>   0.1500 
 29 H       -4.9250    -0.1840     1.4910 H     1 <1>   0.0800 
 30 H       -4.4790    -2.3870     1.0310 H     1 <1>   0.0800 
 31 H       -0.1510     5.0070     1.0500 H     1 <1>   0.1500 
 32 H       -4.4890    -1.7110    -1.9100 H     1 <1>   0.0800 
 33 H       -4.2000    -3.2970    -1.2610 H     1 <1>   0.0800 
 34 H       -7.3700     0.2750    -1.6580 H     1 <1>   0.4000 
 35 H       -7.0270    -2.0890     0.8350 H     1 <1>   0.0800 
 36 H       -8.0470    -1.6150    -0.4750 H     1 <1>   0.0800 
 37 H       -8.2900     0.6260     0.4520 H     1 <1>   0.0800 
 38 H       -7.3090     0.2270     1.8150 H     1 <1>   0.0800 
 39 H       -6.4310    -3.6420    -0.7630 H     1 <1>   0.0800 
 40 H       -6.6080    -2.5350    -2.0870 H     1 <1>   0.0800 
 41 H       -6.7290     2.5560    -0.0430 H     1 <1>   0.0800 
 42 H       -5.8850     2.1850     1.4450 H     1 <1>   0.0800 
 43 H       -7.5530     2.6770     1.4890 H     1 <1>   0.0800 
 44 H       -0.6400     7.9760    -1.0190 H     1 <1>   0.0800 
 45 H        0.5100     6.8390    -0.3260 H     1 <1>   0.0800 
 46 H       -1.0490     7.1310     0.4690 H     1 <1>   0.0800 
@<TRIPOS>BOND
  1   1   2  2   
  2   2   3  am  
  3   2   4  1   
  4   3   5  1   
  5   3   6  1   
  6   4   7  ar  
  7   4   8  ar  
  8   5   9  1   
  9   5  23  1   
 10   5  24  1   
 11   6  10  1   
 12   6  25  1   
 13   6  26  1   
 14   7  11  ar  
 15   7  27  1   
 16   8  12  ar  
 17   8  28  1   
 18   9  10  1   
 19   9  13  1   
 20   9  29  1   
 21  10  14  1   
 22  10  30  1   
 23  11  15  ar  
 24  12  15  ar  
 25  12  31  1   
 26  13  16  1   
 27  13  17  1   
 28  13  18  1   
 29  14  19  1   
 30  14  32  1   
 31  14  33  1   
 32  15  20  1   
 33  16  34  1   
 34  17  19  1   
 35  17  35  1   
 36  17  36  1   
 37  18  21  1   
 38  18  37  1   
 39  18  38  1   
 40  19  39  1   
 41  19  40  1   
 42  20  22  1   
 43  21  41  1   
 44  21  42  1   
 45  21  43  1   
 46  22  44  1   
 47  22  45  1   
 48  22  46  1   
@<TRIPOS>SUBSTRUCTURE
  1 ****   5 GROUP 4 **** **** 0

# MOE 2024.06 (io_trps.svl 2023.06)
