@<TRIPOS>MOLECULE
NONAME
48 50 1 0 0 
SMALL
USER_CHARGES


@<TRIPOS>ATOM
  1 O        0.0580     0.1160    -1.3280 O.2   1 <1>  -0.5700 
  2 C       -0.8900     0.8120    -1.0580 C.2   1 <1>   0.5690 
  3 N       -2.1140     0.2790    -0.7620 N.am  1 <1>  -0.6600 
  4 C       -0.6850     2.3110    -1.0280 C.3   1 <1>  -0.0990 
  5 C       -3.3500     1.0310    -0.4190 C.3   1 <1>   0.1400 
  6 C       -2.3380    -1.1800    -0.6510 C.3   1 <1>   0.1400 
  7 C       -0.3270     2.7710     0.3870 C.3   1 <1>   0.0210 
  8 C       -4.4120    -0.0450    -0.1920 C.3   1 <1>   0.2000 
  9 C       -3.6380    -1.3190     0.1410 C.3   1 <1>  -0.0800 
 10 C       -0.4450     4.2770     0.4920 C.2   1 <1>   0.1080 
 11 O       -5.2630     0.2820     0.8520 O.3   1 <1>  -0.6800 
 12 C       -4.4220    -2.6000    -0.1790 C.3   1 <1>   0.0200 
 13 N       -1.5880     4.8520     0.6990 N.2   1 <1>  -0.7070 
 14 C        0.5990     5.1940     0.3750 C.2   1 <1>  -0.1810 
 15 C       -3.5810    -3.8320     0.0960 C.2   1 <1>  -0.0400 
 16 N       -1.3020     6.1660     0.7270 N.pl3 1 <1>   0.3000 
 17 C        0.0120     6.4020     0.5330 C.2   1 <1>  -0.3320 
 18 C        2.0580     4.8580     0.1220 C.3   1 <1>  -0.0590 
 19 O       -3.1680    -4.0820     1.3100 O.3   1 <1>  -0.0190 
 20 C       -3.1210    -4.8040    -0.7050 C.2   1 <1>  -0.1500 
 21 C        0.5990     7.8030     0.5170 C.3   1 <1>  -0.0600 
 22 N       -2.4520    -5.1670     1.3630 N.2   1 <1>  -0.4100 
 23 C       -2.4070    -5.6250     0.1640 C.2   1 <1>   0.1080 
 24 C       -1.6730    -6.8840    -0.2390 C.3   1 <1>  -0.0590 
 25 H        0.1100     2.5730    -1.7020 H     1 <1>   0.0800 
 26 H       -1.5720     2.8110    -1.3660 H     1 <1>   0.0800 
 27 H       -3.1860     1.6080     0.4750 H     1 <1>   0.0800 
 28 H       -3.6350     1.6770    -1.2310 H     1 <1>   0.0800 
 29 H       -2.4380    -1.5930    -1.6400 H     1 <1>   0.0800 
 30 H       -1.5150    -1.6610    -0.1460 H     1 <1>   0.0800 
 31 H        0.6670     2.4500     0.6390 H     1 <1>   0.0800 
 32 H       -1.0030     2.3340     1.1000 H     1 <1>   0.0800 
 33 H       -5.0030    -0.1660    -1.0840 H     1 <1>   0.0800 
 34 H       -3.3740    -1.3150     1.1840 H     1 <1>   0.0800 
 35 H       -4.7570     0.4000     1.6800 H     1 <1>   0.4000 
 36 H       -4.7220    -2.6000    -1.2120 H     1 <1>   0.0800 
 37 H       -5.3100    -2.6400     0.4260 H     1 <1>   0.0800 
 38 H       -2.0260     6.8780     0.8810 H     1 <1>   0.2700 
 39 H        2.1440     4.2500    -0.7600 H     1 <1>   0.0800 
 40 H        2.4560     4.3160     0.9600 H     1 <1>   0.0800 
 41 H        2.6400     5.7480    -0.0200 H     1 <1>   0.0800 
 42 H       -3.2480    -4.9490    -1.7620 H     1 <1>   0.1500 
 43 H        1.6620     7.7730     0.3690 H     1 <1>   0.0800 
 44 H        0.4020     8.2960     1.4520 H     1 <1>   0.0800 
 45 H        0.1620     8.3770    -0.2800 H     1 <1>   0.0800 
 46 H       -2.3570    -7.5770    -0.6910 H     1 <1>   0.0800 
 47 H       -1.2310    -7.3430     0.6270 H     1 <1>   0.0800 
 48 H       -0.8950    -6.6430    -0.9400 H     1 <1>   0.0800 
@<TRIPOS>BOND
  1   1   2  2   
  2   2   3  am  
  3   2   4  1   
  4   3   5  1   
  5   3   6  1   
  6   4   7  1   
  7   4  25  1   
  8   4  26  1   
  9   5   8  1   
 10   5  27  1   
 11   5  28  1   
 12   6   9  1   
 13   6  29  1   
 14   6  30  1   
 15   7  10  1   
 16   7  31  1   
 17   7  32  1   
 18   8   9  1   
 19   8  11  1   
 20   8  33  1   
 21   9  12  1   
 22   9  34  1   
 23  10  13  2   
 24  10  14  1   
 25  11  35  1   
 26  12  15  1   
 27  12  36  1   
 28  12  37  1   
 29  13  16  1   
 30  14  17  2   
 31  14  18  1   
 32  15  19  1   
 33  15  20  2   
 34  16  17  1   
 35  16  38  1   
 36  17  21  1   
 37  18  39  1   
 38  18  40  1   
 39  18  41  1   
 40  19  22  1   
 41  20  23  1   
 42  20  42  1   
 43  21  43  1   
 44  21  44  1   
 45  21  45  1   
 46  22  23  2   
 47  23  24  1   
 48  24  46  1   
 49  24  47  1   
 50  24  48  1   
@<TRIPOS>SUBSTRUCTURE
  1 ****   3 GROUP 4 **** **** 0

# MOE 2024.06 (io_trps.svl 2023.06)
