@<TRIPOS>MOLECULE
NONAME
47 48 1 0 0 
SMALL
USER_CHARGES


@<TRIPOS>ATOM
  1 O       -0.6110    -0.6060    -0.6280 O.2   1 <1>  -0.5700 
  2 C       -0.3870    -1.7570    -0.2860 C.2   1 <1>   0.7800 
  3 O        0.7680    -2.0760     0.3140 O.3   1 <1>  -0.4300 
  4 N       -1.2830    -2.7700    -0.5140 N.am  1 <1>  -0.2850 
  5 C        1.8170    -1.2070     0.6770 C.3   1 <1>   0.2800 
  6 N       -2.6600    -2.5130    -0.9710 N.am  1 <1>  -0.4300 
  7 C       -1.0020    -4.1690    -0.1220 C.3   1 <1>   0.2250 
  8 C        2.4320    -0.5670    -0.5730 C.3   1 <1>  -0.2400 
  9 C        2.8580    -2.1050     1.3470 C.3   1 <1>  -0.2400 
 10 C        1.3200    -0.1680     1.6870 C.3   1 <1>  -0.2400 
 11 C       -3.7290    -2.2920    -0.1710 C.2   1 <1>   0.7800 
 12 C       -0.8410    -4.7260     1.3180 C.3   1 <1>   0.0000 
 13 C        0.2090    -5.0610    -0.5070 C.3   1 <1>   0.0000 
 14 C       -1.8860    -5.4170    -0.4010 C.3   1 <1>   0.0000 
 15 O       -3.6930    -2.4420     1.0380 O.2   1 <1>  -0.5700 
 16 O       -4.8460    -1.9160    -0.7990 O.3   1 <1>  -0.4300 
 17 C       -0.6690    -5.9820     0.4010 C.3   1 <1>   0.0000 
 18 C       -6.0910    -1.6170    -0.2060 C.3   1 <1>   0.2800 
 19 C       -7.0050    -1.2320    -1.3700 C.3   1 <1>  -0.2400 
 20 C       -6.6600    -2.8590     0.4920 C.3   1 <1>  -0.2400 
 21 C       -5.9540    -0.4210     0.7440 C.3   1 <1>  -0.2400 
 22 H       -2.7820    -2.3220    -1.9650 H     1 <1>   0.3700 
 23 H        2.7030    -1.3230    -1.2870 H     1 <1>   0.0800 
 24 H        3.3170    -0.0190    -0.3050 H     1 <1>   0.0800 
 25 H        1.7500     0.1250    -1.0310 H     1 <1>   0.0800 
 26 H        3.1990    -2.8580     0.6600 H     1 <1>   0.0800 
 27 H        2.4340    -2.5850     2.2110 H     1 <1>   0.0800 
 28 H        3.7050    -1.5240     1.6630 H     1 <1>   0.0800 
 29 H        0.6390     0.5260     1.2300 H     1 <1>   0.0800 
 30 H        2.1500     0.3980     2.0700 H     1 <1>   0.0800 
 31 H        0.8290    -0.6520     2.5120 H     1 <1>   0.0800 
 32 H       -1.7290    -4.7240     1.9290 H     1 <1>   0.0000 
 33 H        0.0500    -4.4250     1.8460 H     1 <1>   0.0000 
 34 H        1.1610    -4.7860    -0.0820 H     1 <1>   0.0000 
 35 H        0.2680    -5.3610    -1.5410 H     1 <1>   0.0000 
 36 H       -1.9430    -5.7370    -1.4290 H     1 <1>   0.0000 
 37 H       -2.8310    -5.4550     0.1180 H     1 <1>   0.0000 
 38 H       -0.4840    -7.0000     0.6950 H     1 <1>   0.0000 
 39 H       -7.0940    -2.0500    -2.0620 H     1 <1>   0.0800 
 40 H       -6.6090    -0.3760    -1.8870 H     1 <1>   0.0800 
 41 H       -7.9870    -0.9840    -1.0090 H     1 <1>   0.0800 
 42 H       -6.6750    -3.6940    -0.1840 H     1 <1>   0.0800 
 43 H       -7.6650    -2.6660     0.8190 H     1 <1>   0.0800 
 44 H       -6.0820    -3.1160     1.3600 H     1 <1>   0.0800 
 45 H       -5.4850     0.4050     0.2420 H     1 <1>   0.0800 
 46 H       -5.3780    -0.6790     1.6140 H     1 <1>   0.0800 
 47 H       -6.9250    -0.1080     1.0820 H     1 <1>   0.0800 
@<TRIPOS>BOND
  1   1   2  2   
  2   2   3  1   
  3   2   4  am  
  4   3   5  1   
  5   4   6  1   
  6   4   7  1   
  7   5   8  1   
  8   5   9  1   
  9   5  10  1   
 10   6  11  am  
 11   6  22  1   
 12   7  12  1   
 13   7  13  1   
 14   7  14  1   
 15   8  23  1   
 16   8  24  1   
 17   8  25  1   
 18   9  26  1   
 19   9  27  1   
 20   9  28  1   
 21  10  29  1   
 22  10  30  1   
 23  10  31  1   
 24  11  15  2   
 25  11  16  1   
 26  12  17  1   
 27  12  32  1   
 28  12  33  1   
 29  13  17  1   
 30  13  34  1   
 31  13  35  1   
 32  14  17  1   
 33  14  36  1   
 34  14  37  1   
 35  16  18  1   
 36  17  38  1   
 37  18  19  1   
 38  18  20  1   
 39  18  21  1   
 40  19  39  1   
 41  19  40  1   
 42  19  41  1   
 43  20  42  1   
 44  20  43  1   
 45  20  44  1   
 46  21  45  1   
 47  21  46  1   
 48  21  47  1   
@<TRIPOS>SUBSTRUCTURE
  1 ****   4 GROUP 4 **** **** 0

# MOE 2024.06 (io_trps.svl 2023.06)
