@<TRIPOS>MOLECULE
NONAME
49 50 1 0 0 
SMALL
USER_CHARGES


@<TRIPOS>ATOM
  1 O        1.7920    -0.1080     2.2450 O.2   1 <1>  -0.5700 
  2 C        2.2750    -0.4150     1.1710 C.2   1 <1>   0.5440 
  3 N        1.5120    -1.1350     0.2680 N.am  1 <1>  -0.6600 
  4 C        3.6330    -0.0210     0.8780 C.ar  1 <1>   0.0860 
  5 C        0.0410    -1.2860     0.4410 C.3   1 <1>   0.1400 
  6 C        2.1040    -1.9500    -0.8320 C.3   1 <1>   0.0600 
  7 C        3.9690     0.5720    -0.3360 C.ar  1 <1>   0.1600 
  8 C        4.6660    -0.2010     1.7900 C.ar  1 <1>  -0.1500 
  9 C       -0.6830    -0.4620    -0.6210 C.3   1 <1>  -0.2400 
 10 N        5.1790     0.9440    -0.7140 N.ar  1 <1>  -0.6200 
 11 C        5.9300     0.1870     1.4190 C.ar  1 <1>  -0.1500 
 12 C        6.1600     0.7440     0.1610 C.ar  1 <1>   0.4100 
 13 N        7.4360     1.1160    -0.2150 N.pl3 1 <1>  -0.8380 
 14 C        7.6440     2.1770    -1.2610 C.3   1 <1>   0.2090 
 15 C        8.5620     0.1680    -0.0490 C.3   1 <1>   0.2090 
 16 C        7.1100     3.5540    -0.8280 C.3   1 <1>   0.2000 
 17 C        9.5740     0.7640     0.9240 C.3   1 <1>  -0.2400 
 18 O        7.4490     4.4820    -1.8230 O.3   1 <1>  -0.5600 
 19 C        7.6940     4.0380     0.5130 C.3   1 <1>  -0.1600 
 20 C        6.9000     5.7520    -1.6450 C.3   1 <1>   0.1200 
 21 C        7.2200     5.4590     0.8410 C.3   1 <1>  -0.1600 
 22 C        7.4640     6.3750    -0.3630 C.3   1 <1>  -0.1600 
 23 H       -0.2620    -0.9480     1.4180 H     1 <1>   0.0800 
 24 H       -0.2300    -2.3250     0.3570 H     1 <1>   0.0800 
 25 H        3.1610    -2.0890    -0.6810 H     1 <1>   0.0800 
 26 H        1.9460    -1.4580    -1.7760 H     1 <1>   0.0800 
 27 H        1.6400    -2.9200    -0.8610 H     1 <1>   0.0800 
 28 H        3.1730     0.7450    -1.0390 H     1 <1>   0.1500 
 29 H        4.4630    -0.6290     2.7560 H     1 <1>   0.1500 
 30 H       -0.4050     0.5730    -0.5350 H     1 <1>   0.0800 
 31 H       -1.7450    -0.5420    -0.4750 H     1 <1>   0.0800 
 32 H       -0.4480    -0.8180    -1.6070 H     1 <1>   0.0800 
 33 H        6.7540     0.0740     2.0950 H     1 <1>   0.1500 
 34 H        7.1490     1.8800    -2.1690 H     1 <1>   0.0800 
 35 H        8.6950     2.2760    -1.4670 H     1 <1>   0.0800 
 36 H        9.0260    -0.0150    -1.0040 H     1 <1>   0.0800 
 37 H        8.2010    -0.7740     0.3270 H     1 <1>   0.0800 
 38 H        6.0360     3.5060    -0.7720 H     1 <1>   0.0800 
 39 H        9.9800     1.6760     0.5280 H     1 <1>   0.0800 
 40 H       10.3790     0.0700     1.0790 H     1 <1>   0.0800 
 41 H        9.1050     0.9650     1.8690 H     1 <1>   0.0800 
 42 H        8.7670     4.0130     0.4550 H     1 <1>   0.0800 
 43 H        7.3910     3.3690     1.2980 H     1 <1>   0.0800 
 44 H        5.8280     5.6600    -1.5980 H     1 <1>   0.0800 
 45 H        7.1650     6.3460    -2.5020 H     1 <1>   0.0800 
 46 H        7.7380     5.8330     1.7060 H     1 <1>   0.0800 
 47 H        6.1660     5.4360     1.0630 H     1 <1>   0.0800 
 48 H        7.0040     7.3320    -0.1950 H     1 <1>   0.0800 
 49 H        8.5200     6.5340    -0.4930 H     1 <1>   0.0800 
@<TRIPOS>BOND
  1   1   2  2   
  2   2   3  am  
  3   2   4  1   
  4   3   5  1   
  5   3   6  1   
  6   4   7  ar  
  7   4   8  ar  
  8   5   9  1   
  9   5  23  1   
 10   5  24  1   
 11   6  25  1   
 12   6  26  1   
 13   6  27  1   
 14   7  10  ar  
 15   7  28  1   
 16   8  11  ar  
 17   8  29  1   
 18   9  30  1   
 19   9  31  1   
 20   9  32  1   
 21  10  12  ar  
 22  11  12  ar  
 23  11  33  1   
 24  12  13  1   
 25  13  14  1   
 26  13  15  1   
 27  14  16  1   
 28  14  34  1   
 29  14  35  1   
 30  15  17  1   
 31  15  36  1   
 32  15  37  1   
 33  16  18  1   
 34  16  19  1   
 35  16  38  1   
 36  17  39  1   
 37  17  40  1   
 38  17  41  1   
 39  18  20  1   
 40  19  21  1   
 41  19  42  1   
 42  19  43  1   
 43  20  22  1   
 44  20  44  1   
 45  20  45  1   
 46  21  22  1   
 47  21  46  1   
 48  21  47  1   
 49  22  48  1   
 50  22  49  1   
@<TRIPOS>SUBSTRUCTURE
  1 ****  10 GROUP 4 **** **** 0

# MOE 2024.06 (io_trps.svl 2023.06)
