@<TRIPOS>MOLECULE
NONAME
44 45 1 0 0 
SMALL
USER_CHARGES


@<TRIPOS>ATOM
  1 CL       1.1550     4.1560    -1.5960 Cl    1 <1>  -0.1770 
  2 C       -0.0890     3.4200    -0.6090 C.ar  1 <1>   0.1770 
  3 C       -0.8950     4.2250     0.1880 C.ar  1 <1>   0.0820 
  4 C       -0.2480     2.0490    -0.6390 C.ar  1 <1>  -0.1500 
  5 O       -0.7040     5.5670     0.1710 O.3   1 <1>  -0.3630 
  6 C       -1.8670     3.6400     0.9970 C.ar  1 <1>  -0.1440 
  7 C       -1.2260     1.4690     0.1500 C.ar  1 <1>  -0.1500 
  8 C       -1.6820     6.3510    -0.4920 C.3   1 <1>   0.1200 
  9 C       -2.0240     2.2610     0.9620 C.ar  1 <1>  -0.1500 
 10 C       -2.7520     4.4600     1.9260 C.3   1 <1>  -0.0960 
 11 C       -1.0060     7.2400    -1.5480 C.3   1 <1>   0.2090 
 12 N       -0.0630     8.2400    -0.9620 N.pl3 1 <1>  -0.8690 
 13 C        1.1630     8.1140    -0.4400 C.ar  1 <1>   0.7710 
 14 N        1.8290     9.2310    -0.2460 N.ar  1 <1>  -0.6200 
 15 N        1.6620     6.9080    -0.1420 N.ar  1 <1>  -0.1790 
 16 C        3.0600     9.1400     0.2260 C.ar  1 <1>   0.4100 
 17 C        2.9010     6.7700     0.3780 C.ar  1 <1>   0.2110 
 18 N        3.7380    10.3090     0.3560 N.pl3 1 <1>  -0.8380 
 19 C        3.6370     7.8910     0.5810 C.ar  1 <1>  -0.1430 
 20 C        3.0670    11.5440     0.8520 C.3   1 <1>   0.1290 
 21 C        5.0380    10.5620    -0.3260 C.3   1 <1>   0.1290 
 22 C        5.0240     7.7930     1.2140 C.3   1 <1>  -0.0970 
 23 H        0.3800     1.4430    -1.2680 H     1 <1>   0.1500 
 24 H       -1.3660     0.4010     0.1380 H     1 <1>   0.1500 
 25 H       -2.1900     6.9520     0.2410 H     1 <1>   0.0800 
 26 H       -2.3970     5.6990    -0.9660 H     1 <1>   0.0800 
 27 H       -2.7750     1.7880     1.5730 H     1 <1>   0.1500 
 28 H       -2.1920     5.2610     2.3730 H     1 <1>   0.0800 
 29 H       -3.1410     3.8460     2.7200 H     1 <1>   0.0800 
 30 H       -3.5810     4.8720     1.3790 H     1 <1>   0.0800 
 31 H       -1.7740     7.7720    -2.0850 H     1 <1>   0.0800 
 32 H       -0.4910     6.6220    -2.2640 H     1 <1>   0.0800 
 33 H       -0.3330     9.2190    -1.1150 H     1 <1>   0.4000 
 34 H        1.0160     6.1250    -0.2630 H     1 <1>   0.4570 
 35 H        3.2510     5.7800     0.6230 H     1 <1>   0.1500 
 36 H        2.1770    11.2900     1.4030 H     1 <1>   0.0800 
 37 H        2.7920    12.1700     0.0200 H     1 <1>   0.0800 
 38 H        3.7300    12.0870     1.5030 H     1 <1>   0.0800 
 39 H        5.3060     9.7270    -0.9480 H     1 <1>   0.0800 
 40 H        5.8090    10.7230     0.4070 H     1 <1>   0.0800 
 41 H        4.9600    11.4350    -0.9500 H     1 <1>   0.0800 
 42 H        5.1360     8.5460     1.9750 H     1 <1>   0.0800 
 43 H        5.7880     7.9370     0.4720 H     1 <1>   0.0800 
 44 H        5.1770     6.8320     1.6720 H     1 <1>   0.0800 
@<TRIPOS>BOND
  1   1   2  1   
  2   2   3  ar  
  3   2   4  ar  
  4   3   5  1   
  5   3   6  ar  
  6   4   7  ar  
  7   4  23  1   
  8   5   8  1   
  9   6   9  ar  
 10   6  10  1   
 11   7   9  ar  
 12   7  24  1   
 13   8  11  1   
 14   8  25  1   
 15   8  26  1   
 16   9  27  1   
 17  10  28  1   
 18  10  29  1   
 19  10  30  1   
 20  11  12  1   
 21  11  31  1   
 22  11  32  1   
 23  12  13  1   
 24  12  33  1   
 25  13  14  ar  
 26  13  15  ar  
 27  14  16  ar  
 28  15  17  ar  
 29  15  34  1   
 30  16  18  1   
 31  16  19  ar  
 32  17  19  ar  
 33  17  35  1   
 34  18  20  1   
 35  18  21  1   
 36  19  22  1   
 37  20  36  1   
 38  20  37  1   
 39  20  38  1   
 40  21  39  1   
 41  21  40  1   
 42  21  41  1   
 43  22  42  1   
 44  22  43  1   
 45  22  44  1   
@<TRIPOS>SUBSTRUCTURE
  1 ****  15 GROUP 4 **** **** 0

# MOE 2024.06 (io_trps.svl 2023.06)
