@<TRIPOS>MOLECULE
NONAME
43 44 1 0 0 
SMALL
USER_CHARGES


@<TRIPOS>ATOM
  1 S        0.2090    -0.0210    -1.1330 S.o2  1 <1>   1.3330 
  2 O       -0.6210    -1.0340    -1.7380 O.2   1 <1>  -0.6500 
  3 O        1.4600     0.3610    -1.7550 O.2   1 <1>  -0.6500 
  4 N        0.5690    -0.5110     0.4520 N.am  1 <1>  -0.8490 
  5 C       -0.7470     1.4830    -0.9020 C.3   1 <1>  -0.0550 
  6 C       -0.5880    -1.0910     1.1490 C.3   1 <1>   0.1160 
  7 C        1.6690    -1.4820     0.4770 C.3   1 <1>   0.1160 
  8 C       -0.0330     2.5510    -0.0490 C.3   1 <1>  -0.0800 
  9 C       -0.8430     3.8360     0.0860 C.3   1 <1>   0.2000 
 10 C        1.3050     3.0160    -0.6220 C.3   1 <1>   0.2090 
 11 O       -1.7700     3.6980     1.1060 O.3   1 <1>  -0.6800 
 12 C        0.1830     4.9370     0.3720 C.3   1 <1>   0.2090 
 13 N        1.4880     4.4080    -0.1360 N.pl3 1 <1>  -0.8380 
 14 C        2.6270     5.1410    -0.1090 C.ar  1 <1>   0.7710 
 15 N        2.5940     6.3570     0.4150 N.ar  1 <1>  -0.6200 
 16 N        3.7540     4.6110    -0.6190 N.ar  1 <1>  -0.1790 
 17 C        3.7100     7.0450     0.4290 C.ar  1 <1>   0.4100 
 18 C        4.9220     5.2990    -0.6180 C.ar  1 <1>   0.2110 
 19 N        3.6150     8.2630     0.9690 N.pl3 1 <1>  -0.9000 
 20 C        4.9280     6.5480    -0.0870 C.ar  1 <1>  -0.1440 
 21 C        6.1990     7.3920    -0.0450 C.3   1 <1>  -0.0970 
 22 H       -0.9780     1.8940    -1.8660 H     1 <1>   0.0800 
 23 H       -1.6800     1.2380    -0.4320 H     1 <1>   0.0800 
 24 H       -0.3220    -1.3420     2.1610 H     1 <1>   0.0800 
 25 H       -0.9260    -1.9830     0.6460 H     1 <1>   0.0800 
 26 H       -1.4000    -0.3850     1.1820 H     1 <1>   0.0800 
 27 H        1.8940    -1.7660     1.4910 H     1 <1>   0.0800 
 28 H        2.5560    -1.0500     0.0440 H     1 <1>   0.0800 
 29 H        1.4060    -2.3630    -0.0860 H     1 <1>   0.0800 
 30 H        0.1630     2.1520     0.9330 H     1 <1>   0.0800 
 31 H       -1.3740     4.0630    -0.8230 H     1 <1>   0.0800 
 32 H        1.2670     3.0170    -1.7000 H     1 <1>   0.0800 
 33 H        2.0990     2.3700    -0.2840 H     1 <1>   0.0800 
 34 H       -1.3320     3.5540     1.9690 H     1 <1>   0.4000 
 35 H        0.2600     5.1250     1.4300 H     1 <1>   0.0800 
 36 H       -0.0830     5.8460    -0.1400 H     1 <1>   0.0800 
 37 H        3.6670     3.6770    -1.0050 H     1 <1>   0.4570 
 38 H        5.8000     4.8340    -1.0360 H     1 <1>   0.1500 
 39 H        2.7160     8.5920     1.3330 H     1 <1>   0.4000 
 40 H        4.3840     8.9290     1.0590 H     1 <1>   0.4000 
 41 H        7.0340     6.8680    -0.4760 H     1 <1>   0.0800 
 42 H        6.4470     7.6390     0.9730 H     1 <1>   0.0800 
 43 H        6.0550     8.3060    -0.5960 H     1 <1>   0.0800 
@<TRIPOS>BOND
  1   1   2  2   
  2   1   3  2   
  3   1   4  am  
  4   1   5  1   
  5   4   6  1   
  6   4   7  1   
  7   5   8  1   
  8   5  22  1   
  9   5  23  1   
 10   6  24  1   
 11   6  25  1   
 12   6  26  1   
 13   7  27  1   
 14   7  28  1   
 15   7  29  1   
 16   8   9  1   
 17   8  10  1   
 18   8  30  1   
 19   9  11  1   
 20   9  12  1   
 21   9  31  1   
 22  10  13  1   
 23  10  32  1   
 24  10  33  1   
 25  11  34  1   
 26  12  13  1   
 27  12  35  1   
 28  12  36  1   
 29  13  14  1   
 30  14  15  ar  
 31  14  16  ar  
 32  15  17  ar  
 33  16  18  ar  
 34  16  37  1   
 35  17  19  1   
 36  17  20  ar  
 37  18  20  ar  
 38  18  38  1   
 39  19  39  1   
 40  19  40  1   
 41  20  21  1   
 42  21  41  1   
 43  21  42  1   
 44  21  43  1   
@<TRIPOS>SUBSTRUCTURE
  1 ****  10 GROUP 4 **** **** 0

# MOE 2024.06 (io_trps.svl 2023.06)
