@<TRIPOS>MOLECULE
NONAME
45 47 1 0 0 
SMALL
USER_CHARGES


@<TRIPOS>ATOM
  1 CL       0.1880     1.8470    -2.2140 Cl    1 <1>  -0.1770 
  2 C       -0.7890     2.0930    -0.7850 C.ar  1 <1>   0.1770 
  3 C       -1.1780     3.3730    -0.3920 C.ar  1 <1>  -0.1440 
  4 C       -1.1540     0.9710    -0.0650 C.ar  1 <1>  -0.1500 
  5 C       -1.9580     3.5130     0.7520 C.ar  1 <1>  -0.1500 
  6 C       -0.7870     4.6340    -1.1650 C.3   1 <1>   0.0450 
  7 C       -1.9230     1.1520     1.0660 C.ar  1 <1>   0.1900 
  8 C       -2.3340     2.4010     1.4890 C.ar  1 <1>  -0.1500 
  9 C        0.0490     5.5950    -0.3300 C.2   1 <1>   0.5690 
 10 F       -2.2760     0.1040     1.7600 F     1 <1>  -0.1900 
 11 O       -0.2460     6.7670    -0.3360 O.2   1 <1>  -0.5700 
 12 N        1.1460     5.1850     0.3780 N.am  1 <1>  -0.6600 
 13 C        1.5980     5.9730     1.5860 C.3   1 <1>   0.1400 
 14 C        2.1330     4.2070    -0.1710 C.3   1 <1>   0.1400 
 15 C        2.7430     6.9680     1.2660 C.3   1 <1>   0.4230 
 16 C        3.4730     4.8480    -0.6190 C.3   1 <1>  -0.0800 
 17 N        2.6900     7.2700    -0.2110 N.4   1 <1>  -0.9590 
 18 C        4.1010     6.4490     1.8100 C.3   1 <1>   0.1200 
 19 C        4.6050     4.6340     0.3980 C.3   1 <1>   0.1200 
 20 C        3.4440     6.3190    -1.0870 C.3   1 <1>   0.3430 
 21 C        3.1270     8.7020    -0.4920 C.3   1 <1>   0.2370 
 22 O        4.2340     5.0630     1.6620 O.3   1 <1>  -0.5600 
 23 C        4.5560     9.0300    -0.0570 C.2   1 <1>   0.9060 
 24 O        4.7200     9.4680     1.0840 O.co2 1 <1>  -0.9000 
 25 O        5.4810     8.6810    -0.7960 O.co2 1 <1>  -0.9000 
 26 H       -0.8500    -0.0110    -0.3730 H     1 <1>   0.1500 
 27 H       -2.2770     4.4900     1.0770 H     1 <1>   0.1500 
 28 H       -1.6890     5.1400    -1.4580 H     1 <1>   0.0800 
 29 H       -0.2530     4.4100    -2.0670 H     1 <1>   0.0800 
 30 H       -2.9360     2.4980     2.3750 H     1 <1>   0.1500 
 31 H        0.7650     6.5390     1.9650 H     1 <1>   0.0800 
 32 H        1.8880     5.2970     2.3720 H     1 <1>   0.0800 
 33 H        2.3180     3.4450     0.5690 H     1 <1>   0.0800 
 34 H        1.7040     3.7160    -1.0230 H     1 <1>   0.0800 
 35 H        2.5400     7.8830     1.7970 H     1 <1>   0.0800 
 36 H        3.7930     4.2890    -1.4790 H     1 <1>   0.0800 
 37 H        1.6830     7.1740    -0.4380 H     1 <1>   0.4500 
 38 H        4.1360     6.6440     2.8670 H     1 <1>   0.0800 
 39 H        4.9470     6.9440     1.3670 H     1 <1>   0.0800 
 40 H        5.5080     5.1460     0.1060 H     1 <1>   0.0800 
 41 H        4.8280     3.5830     0.4800 H     1 <1>   0.0800 
 42 H        3.0160     6.3590    -2.0740 H     1 <1>   0.0800 
 43 H        4.4650     6.6580    -1.1750 H     1 <1>   0.0800 
 44 H        3.0580     8.9050    -1.5440 H     1 <1>   0.0800 
 45 H        2.4790     9.3850     0.0260 H     1 <1>   0.0800 
@<TRIPOS>BOND
  1   1   2  1   
  2   2   3  ar  
  3   2   4  ar  
  4   3   5  ar  
  5   3   6  1   
  6   4   7  ar  
  7   4  26  1   
  8   5   8  ar  
  9   5  27  1   
 10   6   9  1   
 11   6  28  1   
 12   6  29  1   
 13   7   8  ar  
 14   7  10  1   
 15   8  30  1   
 16   9  11  2   
 17   9  12  am  
 18  12  13  1   
 19  12  14  1   
 20  13  15  1   
 21  13  31  1   
 22  13  32  1   
 23  14  16  1   
 24  14  33  1   
 25  14  34  1   
 26  15  17  1   
 27  15  18  1   
 28  15  35  1   
 29  16  19  1   
 30  16  20  1   
 31  16  36  1   
 32  17  20  1   
 33  17  21  1   
 34  17  37  1   
 35  18  22  1   
 36  18  38  1   
 37  18  39  1   
 38  19  22  1   
 39  19  40  1   
 40  19  41  1   
 41  20  42  1   
 42  20  43  1   
 43  21  23  1   
 44  21  44  1   
 45  21  45  1   
 46  23  24  ar  
 47  23  25  ar  
@<TRIPOS>SUBSTRUCTURE
  1 ****  12 GROUP 4 **** **** 0

# MOE 2024.06 (io_trps.svl 2023.06)
