@<TRIPOS>MOLECULE
NONAME
46 48 1 0 0 
SMALL
USER_CHARGES


@<TRIPOS>ATOM
  1 CL      -0.9820    -0.2920    -1.3580 Cl    1 <1>  -0.1770 
  2 C       -1.8530     0.8010    -0.3000 C.ar  1 <1>   0.1770 
  3 C       -1.5220     2.1520    -0.3090 C.ar  1 <1>   0.0820 
  4 C       -2.8570     0.3090     0.5210 C.ar  1 <1>  -0.1440 
  5 O       -0.5500     2.6320    -1.1050 O.3   1 <1>  -0.5320 
  6 C       -2.2000     3.0340     0.5160 C.ar  1 <1>  -0.1500 
  7 C       -3.5140     1.2130     1.3450 C.ar  1 <1>   0.1770 
  8 C       -3.2170    -1.1650     0.5400 C.3   1 <1>   0.4870 
  9 C       -3.2000     2.5610     1.3490 C.ar  1 <1>  -0.1500 
 10 CL      -4.7880     0.6590     2.4030 Cl    1 <1>  -0.1770 
 11 N       -3.7290    -1.6400    -0.7910 N.4   1 <1>  -0.9590 
 12 C       -5.1580    -1.3660    -1.1490 C.3   1 <1>   0.4230 
 13 C       -3.4540    -3.1030    -0.9290 C.3   1 <1>   0.2630 
 14 C       -6.1810    -1.7270    -0.0730 C.3   1 <1>  -0.1600 
 15 C       -5.4520     0.0870    -1.5000 C.3   1 <1>  -0.1600 
 16 C       -7.4470    -0.9570    -0.4730 C.3   1 <1>  -0.0800 
 17 C       -6.9750     0.2170    -1.3640 C.3   1 <1>  -0.0800 
 18 C       -8.3130    -0.5480     0.7380 C.3   1 <1>   0.1400 
 19 C       -7.4190     1.6000    -0.8520 C.3   1 <1>  -0.0990 
 20 N       -9.2770     0.5040     0.3380 N.am  1 <1>  -0.6600 
 21 C       -8.8720     1.5640    -0.4260 C.2   1 <1>   0.5690 
 22 C      -10.6640     0.3810     0.8620 C.3   1 <1>   0.0600 
 23 O       -9.6050     2.4580    -0.7700 O.2   1 <1>  -0.5700 
 24 H       -0.0670     1.9480    -1.6100 H     1 <1>   0.4500 
 25 H       -1.9400     4.0800     0.5050 H     1 <1>   0.1500 
 26 H       -3.9330    -1.3720     1.3160 H     1 <1>   0.0800 
 27 H       -2.3200    -1.7100     0.7850 H     1 <1>   0.0800 
 28 H       -3.7320     3.2360     1.9990 H     1 <1>   0.1500 
 29 H       -3.1530    -1.1580    -1.4970 H     1 <1>   0.4500 
 30 H       -5.4070    -1.9440    -2.0260 H     1 <1>   0.0800 
 31 H       -4.0180    -3.6640    -0.2010 H     1 <1>   0.0800 
 32 H       -2.4040    -3.3040    -0.7830 H     1 <1>   0.0800 
 33 H       -3.7290    -3.4450    -1.9150 H     1 <1>   0.0800 
 34 H       -6.3710    -2.7850    -0.0420 H     1 <1>   0.0800 
 35 H       -5.8660    -1.3920     0.8950 H     1 <1>   0.0800 
 36 H       -4.9880     0.7610    -0.8130 H     1 <1>   0.0800 
 37 H       -5.1350     0.3250    -2.5000 H     1 <1>   0.0800 
 38 H       -8.0520    -1.6040    -1.0870 H     1 <1>   0.0800 
 39 H       -7.4200     0.0770    -2.3370 H     1 <1>   0.0800 
 40 H       -7.6970    -0.1530     1.5280 H     1 <1>   0.0800 
 41 H       -8.8390    -1.4080     1.1180 H     1 <1>   0.0800 
 42 H       -7.2910     2.3410    -1.6210 H     1 <1>   0.0800 
 43 H       -6.8410     1.8990     0.0030 H     1 <1>   0.0800 
 44 H      -11.1110    -0.5290     0.5020 H     1 <1>   0.0800 
 45 H      -11.2670     1.2110     0.5350 H     1 <1>   0.0800 
 46 H      -10.6480     0.3710     1.9380 H     1 <1>   0.0800 
@<TRIPOS>BOND
  1   1   2  1   
  2   2   3  ar  
  3   2   4  ar  
  4   3   5  1   
  5   3   6  ar  
  6   4   7  ar  
  7   4   8  1   
  8   5  24  1   
  9   6   9  ar  
 10   6  25  1   
 11   7   9  ar  
 12   7  10  1   
 13   8  11  1   
 14   8  26  1   
 15   8  27  1   
 16   9  28  1   
 17  11  12  1   
 18  11  13  1   
 19  11  29  1   
 20  12  14  1   
 21  12  15  1   
 22  12  30  1   
 23  13  31  1   
 24  13  32  1   
 25  13  33  1   
 26  14  16  1   
 27  14  34  1   
 28  14  35  1   
 29  15  17  1   
 30  15  36  1   
 31  15  37  1   
 32  16  17  1   
 33  16  18  1   
 34  16  38  1   
 35  17  19  1   
 36  17  39  1   
 37  18  20  1   
 38  18  40  1   
 39  18  41  1   
 40  19  21  1   
 41  19  42  1   
 42  19  43  1   
 43  20  21  am  
 44  20  22  1   
 45  21  23  2   
 46  22  44  1   
 47  22  45  1   
 48  22  46  1   
@<TRIPOS>SUBSTRUCTURE
  1 ****  15 GROUP 4 **** **** 0

# MOE 2024.06 (io_trps.svl 2023.06)
