@<TRIPOS>MOLECULE
NONAME
36 38 1 0 0 
SMALL
USER_CHARGES


@<TRIPOS>ATOM
  1 CL       0.9710     0.4640    -1.2370 Cl    1 <1>  -0.1770 
  2 C        0.6080     1.9470    -0.3820 C.ar  1 <1>   0.1770 
  3 C        1.5690     2.6030     0.3830 C.ar  1 <1>  -0.1440 
  4 C       -0.6790     2.4390    -0.5020 C.ar  1 <1>  -0.1500 
  5 C        1.1990     3.7770     1.0290 C.ar  1 <1>  -0.1500 
  6 C        3.0010     2.0990     0.5410 C.3   1 <1>   0.3640 
  7 C       -1.0290     3.6080     0.1480 C.ar  1 <1>  -0.1500 
  8 C       -0.0880     4.2750     0.9130 C.ar  1 <1>  -0.1500 
  9 N        2.9920     0.7500     1.1530 N.am  1 <1>  -0.7300 
 10 C        3.8070     2.1460    -0.7820 C.3   1 <1>   0.2610 
 11 C        3.7850    -0.2600     0.7310 C.2   1 <1>   0.5690 
 12 O        4.9730     1.3410    -0.6960 O.3   1 <1>  -0.5600 
 13 C        4.1410     3.6010    -1.1230 C.2   1 <1>   0.5690 
 14 O        3.7630    -1.3300     1.2840 O.2   1 <1>  -0.5700 
 15 C        4.7070    -0.0290    -0.4700 C.3   1 <1>   0.1810 
 16 O        3.5540     4.1210    -2.0430 O.2   1 <1>  -0.5700 
 17 N        5.0460     4.3090    -0.3840 N.am  1 <1>  -0.5100 
 18 C        5.7950     5.5220    -0.8660 C.3   1 <1>   0.2250 
 19 C        6.3050     3.8150     0.2770 C.3   1 <1>   0.2250 
 20 C        6.7950     5.2860     0.2960 C.3   1 <1>   0.2580 
 21 O        6.4110     5.9520     1.4610 O.3   1 <1>  -0.6580 
 22 H       -1.3980     1.9100    -1.1010 H     1 <1>   0.1500 
 23 H        1.9080     4.3200     1.6300 H     1 <1>   0.1500 
 24 H        3.5040     2.7450     1.2400 H     1 <1>   0.0800 
 25 H       -2.0290     3.9990     0.0580 H     1 <1>   0.1500 
 26 H       -0.3600     5.1870     1.4180 H     1 <1>   0.1500 
 27 H        2.3420     0.5740     1.9200 H     1 <1>   0.3700 
 28 H        3.2150     1.7590    -1.5890 H     1 <1>   0.0800 
 29 H        4.2530    -0.4390    -1.3540 H     1 <1>   0.0800 
 30 H        5.6460    -0.5230    -0.3000 H     1 <1>   0.0800 
 31 H        6.2160     5.3550    -1.8420 H     1 <1>   0.0000 
 32 H        5.2170     6.4250    -0.7780 H     1 <1>   0.0000 
 33 H        6.1230     3.3930     1.2490 H     1 <1>   0.0000 
 34 H        6.8710     3.1830    -0.3850 H     1 <1>   0.0000 
 35 H        7.8350     5.4440     0.0750 H     1 <1>   0.0000 
 36 H        5.4440     5.8730     1.5700 H     1 <1>   0.4000 
@<TRIPOS>BOND
  1   1   2  1   
  2   2   3  ar  
  3   2   4  ar  
  4   3   5  ar  
  5   3   6  1   
  6   4   7  ar  
  7   4  22  1   
  8   5   8  ar  
  9   5  23  1   
 10   6   9  1   
 11   6  10  1   
 12   6  24  1   
 13   7   8  ar  
 14   7  25  1   
 15   8  26  1   
 16   9  11  am  
 17   9  27  1   
 18  10  12  1   
 19  10  13  1   
 20  10  28  1   
 21  11  14  2   
 22  11  15  1   
 23  12  15  1   
 24  13  16  2   
 25  13  17  am  
 26  15  29  1   
 27  15  30  1   
 28  17  18  1   
 29  17  19  1   
 30  18  20  1   
 31  18  31  1   
 32  18  32  1   
 33  19  20  1   
 34  19  33  1   
 35  19  34  1   
 36  20  21  1   
 37  20  35  1   
 38  21  36  1   
@<TRIPOS>SUBSTRUCTURE
  1 ****   6 GROUP 4 **** **** 0

# MOE 2024.06 (io_trps.svl 2023.06)
