@<TRIPOS>MOLECULE
NONAME
34 35 1 0 0 
SMALL
USER_CHARGES


@<TRIPOS>ATOM
  1 CL       1.0720    -0.4580     0.0250 Cl    1 <1>  -0.1770 
  2 C        0.3580    -2.0420    -0.1850 C.ar  1 <1>   0.1770 
  3 C        0.3710    -2.9990     0.8290 C.ar  1 <1>  -0.1790 
  4 C       -0.1990    -2.3070    -1.4230 C.ar  1 <1>  -0.1500 
  5 C        0.9130    -2.7600     2.1500 C.2   1 <1>   0.9790 
  6 C       -0.1750    -4.2470     0.5230 C.ar  1 <1>  -0.1500 
  7 C       -0.7470    -3.5490    -1.6880 C.ar  1 <1>  -0.1500 
  8 O        0.7020    -1.7020     2.7640 O.co2 1 <1>  -0.9000 
  9 O        1.5390    -3.6700     2.7210 O.co2 1 <1>  -0.9000 
 10 C       -0.7370    -4.5390    -0.7120 C.ar  1 <1>   0.1170 
 11 N       -1.2600    -5.8220    -0.9250 N.am  1 <1>  -0.5470 
 12 C       -2.1940    -6.2980    -1.8000 C.2   1 <1>   0.5690 
 13 O       -2.7470    -5.6270    -2.6380 O.2   1 <1>  -0.5700 
 14 C       -2.5640    -7.7790    -1.6870 C.3   1 <1>   0.1710 
 15 N       -2.3130    -8.3830    -0.3440 N.3   1 <1>  -0.8100 
 16 C       -2.4120    -9.8760    -0.4160 C.3   1 <1>   0.1710 
 17 C       -3.2500    -7.8670     0.6820 C.3   1 <1>   0.1100 
 18 C       -2.4340   -10.5910     0.9450 C.2   1 <1>   0.5690 
 19 C       -2.9120    -8.4130     2.0850 C.3   1 <1>   0.1400 
 20 O       -2.2070   -11.7740     1.0060 O.2   1 <1>  -0.5700 
 21 N       -2.7300    -9.8890     2.0650 N.am  1 <1>  -0.7300 
 22 H       -0.1960    -1.5410    -2.1760 H     1 <1>   0.1500 
 23 H       -0.1510    -5.0020     1.2900 H     1 <1>   0.1500 
 24 H       -1.1740    -3.7450    -2.6530 H     1 <1>   0.1500 
 25 H       -0.9640    -6.5360    -0.2520 H     1 <1>   0.3700 
 26 H       -1.9790    -8.3030    -2.4220 H     1 <1>   0.0800 
 27 H       -3.6010    -7.8940    -1.9510 H     1 <1>   0.0800 
 28 H       -1.5770   -10.2570    -0.9770 H     1 <1>   0.0800 
 29 H       -3.3130   -10.1530    -0.9330 H     1 <1>   0.0800 
 30 H       -4.2590    -8.1470     0.4290 H     1 <1>   0.0800 
 31 H       -3.2080    -6.7920     0.7170 H     1 <1>   0.0800 
 32 H       -3.7030    -8.1580     2.7680 H     1 <1>   0.0800 
 33 H       -2.0040    -7.9520     2.4350 H     1 <1>   0.0800 
 34 H       -2.6790   -10.3880     2.9550 H     1 <1>   0.3700 
@<TRIPOS>BOND
  1   1   2  1   
  2   2   3  ar  
  3   2   4  ar  
  4   3   5  1   
  5   3   6  ar  
  6   4   7  ar  
  7   4  22  1   
  8   5   8  ar  
  9   5   9  ar  
 10   6  10  ar  
 11   6  23  1   
 12   7  10  ar  
 13   7  24  1   
 14  10  11  1   
 15  11  12  am  
 16  11  25  1   
 17  12  13  2   
 18  12  14  1   
 19  14  15  1   
 20  14  26  1   
 21  14  27  1   
 22  15  16  1   
 23  15  17  1   
 24  16  18  1   
 25  16  28  1   
 26  16  29  1   
 27  17  19  1   
 28  17  30  1   
 29  17  31  1   
 30  18  20  2   
 31  18  21  am  
 32  19  21  1   
 33  19  32  1   
 34  19  33  1   
 35  21  34  1   
@<TRIPOS>SUBSTRUCTURE
  1 ****  11 GROUP 4 **** **** 0

# MOE 2024.06 (io_trps.svl 2023.06)
