@<TRIPOS>MOLECULE
NONAME
34 35 1 0 0 
SMALL
USER_CHARGES


@<TRIPOS>ATOM
  1 F        0.3570    -0.2890    -0.5530 F     1 <1>  -0.1900 
  2 C        1.2510    -0.8170     0.2570 C.ar  1 <1>   0.1900 
  3 C        1.0530    -2.0860     0.8030 C.ar  1 <1>   0.4100 
  4 C        2.3960    -0.1180     0.5580 C.ar  1 <1>   0.1660 
  5 N        1.9750    -2.5960     1.6040 N.ar  1 <1>  -0.6200 
  6 N       -0.0730    -2.8610     0.5680 N.pl3 1 <1>  -0.8380 
  7 N        3.3120    -0.6370     1.3600 N.ar  1 <1>  -0.6200 
  8 C        2.6840     1.2690    -0.0050 C.3   1 <1>  -0.0170 
  9 C        3.0390    -1.8460     1.8270 C.ar  1 <1>   0.4700 
 10 C        0.0410    -4.3560     0.5430 C.3   1 <1>   0.2090 
 11 C       -1.4110    -2.3330     0.9660 C.3   1 <1>   0.2090 
 12 C        3.5890     1.1920    -1.2400 C.3   1 <1>  -0.2400 
 13 C       -0.9550    -4.9680    -0.4490 C.3   1 <1>  -0.1860 
 14 C       -2.5330    -3.3410     0.6930 C.3   1 <1>  -0.1600 
 15 C       -1.1560    -6.4020    -0.0080 C.2   1 <1>   0.9060 
 16 C       -2.2320    -4.1120    -0.5880 C.3   1 <1>   0.2000 
 17 O       -0.2270    -7.1950    -0.1800 O.co2 1 <1>  -0.9000 
 18 O       -2.2190    -6.7450     0.5310 O.co2 1 <1>  -0.9000 
 19 O       -3.3260    -4.8940    -0.8830 O.3   1 <1>  -0.6800 
 20 H        1.7650     1.7640    -0.2660 H     1 <1>   0.0800 
 21 H        3.1640     1.8600     0.7550 H     1 <1>   0.0800 
 22 H        3.7830    -2.2770     2.4770 H     1 <1>   0.1500 
 23 H        1.0400    -4.6590     0.2760 H     1 <1>   0.0800 
 24 H       -0.1570    -4.7290     1.5350 H     1 <1>   0.0800 
 25 H       -1.3990    -2.0750     2.0110 H     1 <1>   0.0800 
 26 H       -1.6110    -1.4410     0.4000 H     1 <1>   0.0800 
 27 H        3.1150     0.6140    -2.0130 H     1 <1>   0.0800 
 28 H        4.5240     0.7250    -0.9830 H     1 <1>   0.0800 
 29 H        3.7880     2.1800    -1.6160 H     1 <1>   0.0800 
 30 H       -0.4810    -5.0060    -1.4090 H     1 <1>   0.0800 
 31 H       -3.4660    -2.8170     0.6010 H     1 <1>   0.0800 
 32 H       -2.6070    -4.0280     1.5180 H     1 <1>   0.0800 
 33 H       -2.1110    -3.4130    -1.3970 H     1 <1>   0.0800 
 34 H       -3.2050    -5.7330    -0.3410 H     1 <1>   0.4000 
@<TRIPOS>BOND
  1   1   2  1   
  2   2   3  ar  
  3   2   4  ar  
  4   3   5  ar  
  5   3   6  1   
  6   4   7  ar  
  7   4   8  1   
  8   5   9  ar  
  9   6  10  1   
 10   6  11  1   
 11   7   9  ar  
 12   8  12  1   
 13   8  20  1   
 14   8  21  1   
 15   9  22  1   
 16  10  13  1   
 17  10  23  1   
 18  10  24  1   
 19  11  14  1   
 20  11  25  1   
 21  11  26  1   
 22  12  27  1   
 23  12  28  1   
 24  12  29  1   
 25  13  15  1   
 26  13  16  1   
 27  13  30  1   
 28  14  16  1   
 29  14  31  1   
 30  14  32  1   
 31  15  17  ar  
 32  15  18  ar  
 33  16  19  1   
 34  16  33  1   
 35  19  34  1   
@<TRIPOS>SUBSTRUCTURE
  1 ****   6 GROUP 4 **** **** 0

# MOE 2024.06 (io_trps.svl 2023.06)
