@<TRIPOS>MOLECULE
NONAME
25 25 1 0 0 
SMALL
USER_CHARGES


@<TRIPOS>ATOM
  1 F        0.3630     0.5400     1.5770 F     1 <1>  -0.1900 
  2 C        1.3380     1.1570     0.9600 C.ar  1 <1>   0.1900 
  3 C        1.0990     2.3890     0.3540 C.ar  1 <1>  -0.1440 
  4 C        2.5760     0.5340     0.9480 C.ar  1 <1>  -0.1500 
  5 C        2.1670     3.0060    -0.2850 C.ar  1 <1>  -0.1500 
  6 C       -0.2650     3.0710     0.3620 C.3   1 <1>   0.3440 
  7 C        3.6320     1.1590     0.3060 C.ar  1 <1>  -0.1500 
  8 C        3.4040     2.3830    -0.2970 C.ar  1 <1>   0.1900 
  9 O       -0.7060     3.1600     1.6660 O.3   1 <1>  -0.6800 
 10 C       -1.2960     2.3230    -0.4770 C.3   1 <1>  -0.0990 
 11 F        4.3970     2.9760    -0.9040 F     1 <1>  -0.1900 
 12 C       -2.5610     3.1330    -0.5840 C.2   1 <1>   0.6590 
 13 O       -2.6160     4.1060    -1.2910 O.2   1 <1>  -0.5700 
 14 O       -3.5990     2.7010     0.1200 O.3   1 <1>  -0.4300 
 15 C       -4.8330     3.3880     0.1140 C.3   1 <1>   0.0400 
 16 H        2.7060    -0.4170     1.4330 H     1 <1>   0.1500 
 17 H        2.0550     3.9600    -0.7720 H     1 <1>   0.1500 
 18 H       -0.1720     4.0800    -0.0060 H     1 <1>   0.0800 
 19 H        4.6110     0.7130     0.2720 H     1 <1>   0.1500 
 20 H       -0.6110     2.2850     2.0940 H     1 <1>   0.4000 
 21 H       -1.5090     1.3570    -0.0610 H     1 <1>   0.0800 
 22 H       -0.9070     2.1850    -1.4680 H     1 <1>   0.0800 
 23 H       -5.5200     2.8620     0.7520 H     1 <1>   0.0800 
 24 H       -5.2090     3.4190    -0.8940 H     1 <1>   0.0800 
 25 H       -4.6750     4.3870     0.4820 H     1 <1>   0.0800 
@<TRIPOS>BOND
  1   1   2  1   
  2   2   3  ar  
  3   2   4  ar  
  4   3   5  ar  
  5   3   6  1   
  6   4   7  ar  
  7   4  16  1   
  8   5   8  ar  
  9   5  17  1   
 10   6   9  1   
 11   6  10  1   
 12   6  18  1   
 13   7   8  ar  
 14   7  19  1   
 15   8  11  1   
 16   9  20  1   
 17  10  12  1   
 18  10  21  1   
 19  10  22  1   
 20  12  13  2   
 21  12  14  1   
 22  14  15  1   
 23  15  23  1   
 24  15  24  1   
 25  15  25  1   
@<TRIPOS>SUBSTRUCTURE
  1 ****   6 GROUP 4 **** **** 0

# MOE 2024.06 (io_trps.svl 2023.06)
