@<TRIPOS>MOLECULE
NONAME
39 40 1 0 0 
SMALL
USER_CHARGES


@<TRIPOS>ATOM
  1 O       -2.3510     1.1590    -2.0230 O.2   1 <1>  -0.5700 
  2 C       -2.3950     1.0740    -0.8190 C.2   1 <1>   0.5690 
  3 N       -2.6410    -0.1070    -0.2060 N.am  1 <1>  -0.7300 
  4 C       -2.1680     2.3120     0.0490 C.3   1 <1>  -0.0190 
  5 C       -2.9450    -1.3790    -0.8980 C.3   1 <1>   0.2840 
  6 C       -2.6620     3.6110    -0.6200 C.3   1 <1>  -0.1600 
  7 C       -0.6800     2.4380     0.4540 C.3   1 <1>  -0.1600 
  8 C       -4.1050    -2.0770    -0.1970 C.ar  1 <1>   0.1660 
  9 C       -2.5650     4.8290     0.3240 C.3   1 <1>   0.2000 
 10 C       -0.2710     3.8600     0.8890 C.3   1 <1>  -0.1600 
 11 N       -3.8990    -2.4670     1.0560 N.ar  1 <1>  -0.6200 
 12 C       -5.2990    -2.2640    -0.8790 C.ar  1 <1>  -0.1500 
 13 O       -2.2800     5.9710    -0.4470 O.3   1 <1>  -0.5600 
 14 C       -1.4670     4.6610     1.4080 C.3   1 <1>   0.2000 
 15 C       -4.9200    -3.0720     1.6440 C.ar  1 <1>   0.1600 
 16 C       -6.3530    -2.8930    -0.2520 C.ar  1 <1>  -0.1500 
 17 C       -3.3620     6.5020    -1.1480 C.3   1 <1>   0.0400 
 18 O       -1.0150     5.9060     1.7940 O.3   1 <1>  -0.6800 
 19 C       -6.1460    -3.3060     1.0460 C.ar  1 <1>  -0.1500 
 20 H       -2.7170    -0.1860     0.8110 H     1 <1>   0.3700 
 21 H       -2.7490     2.1770     0.9450 H     1 <1>   0.0800 
 22 H       -3.1850    -1.1910    -1.9300 H     1 <1>   0.0800 
 23 H       -2.0780    -2.0150    -0.8620 H     1 <1>   0.0800 
 24 H       -3.6830     3.4850    -0.9360 H     1 <1>   0.0800 
 25 H       -2.0600     3.7880    -1.4960 H     1 <1>   0.0800 
 26 H       -0.4830     1.7460     1.2550 H     1 <1>   0.0800 
 27 H       -0.0580     2.1490    -0.3770 H     1 <1>   0.0800 
 28 H       -3.5030     4.9810     0.8300 H     1 <1>   0.0800 
 29 H        0.1390     4.3770     0.0380 H     1 <1>   0.0800 
 30 H        0.4900     3.8020     1.6470 H     1 <1>   0.0800 
 31 H       -5.4070    -1.9190    -1.8910 H     1 <1>   0.1500 
 32 H       -1.8720     4.1740     2.2780 H     1 <1>   0.0800 
 33 H       -4.7710    -3.4010     2.6580 H     1 <1>   0.1500 
 34 H       -7.2930    -3.0540    -0.7520 H     1 <1>   0.1500 
 35 H       -3.0230     7.3780    -1.6720 H     1 <1>   0.0800 
 36 H       -4.1380     6.7740    -0.4530 H     1 <1>   0.0800 
 37 H       -3.7240     5.7780    -1.8570 H     1 <1>   0.0800 
 38 H       -1.1030     6.4780     0.9970 H     1 <1>   0.4000 
 39 H       -6.9260    -3.8040     1.5930 H     1 <1>   0.1500 
@<TRIPOS>BOND
  1   1   2  2   
  2   2   3  am  
  3   2   4  1   
  4   3   5  1   
  5   3  20  1   
  6   4   6  1   
  7   4   7  1   
  8   4  21  1   
  9   5   8  1   
 10   5  22  1   
 11   5  23  1   
 12   6   9  1   
 13   6  24  1   
 14   6  25  1   
 15   7  10  1   
 16   7  26  1   
 17   7  27  1   
 18   8  11  ar  
 19   8  12  ar  
 20   9  13  1   
 21   9  14  1   
 22   9  28  1   
 23  10  14  1   
 24  10  29  1   
 25  10  30  1   
 26  11  15  ar  
 27  12  16  ar  
 28  12  31  1   
 29  13  17  1   
 30  14  18  1   
 31  14  32  1   
 32  15  19  ar  
 33  15  33  1   
 34  16  19  ar  
 35  16  34  1   
 36  17  35  1   
 37  17  36  1   
 38  17  37  1   
 39  18  38  1   
 40  19  39  1   
@<TRIPOS>SUBSTRUCTURE
  1 ****   2 GROUP 4 **** **** 0

# MOE 2024.06 (io_trps.svl 2023.06)
