@<TRIPOS>MOLECULE
NONAME
46 47 1 0 0 
SMALL
USER_CHARGES


@<TRIPOS>ATOM
  1 S        0.6590     0.2820    -1.5460 S.o2  1 <1>   1.3330 
  2 O        0.9510    -1.1020    -1.8460 O.2   1 <1>  -0.6500 
  3 O       -0.0940     1.0750    -2.4910 O.2   1 <1>  -0.6500 
  4 N       -0.1870     0.3240    -0.0720 N.am  1 <1>  -0.8490 
  5 C        2.2080     1.1080    -1.1760 C.3   1 <1>  -0.0550 
  6 C       -0.8600     1.6050     0.1720 C.3   1 <1>   0.1160 
  7 C       -1.1550    -0.7710     0.0390 C.3   1 <1>   0.1160 
  8 C        3.1340     0.3250    -0.2190 C.3   1 <1>  -0.0800 
  9 C        4.5210     0.9230    -0.0350 C.3   1 <1>   0.2200 
 10 C        2.6270     0.1950     1.2240 C.3   1 <1>   0.1200 
 11 N        4.4460     2.3960     0.1280 N.am  1 <1>  -0.7300 
 12 C        4.9140     0.3040     1.2980 C.3   1 <1>   0.1200 
 13 O        3.7450     0.3180     2.0580 O.3   1 <1>  -0.5600 
 14 C        4.6770     3.3120    -0.8570 C.2   1 <1>   0.5440 
 15 O        4.9030     2.8980    -1.9760 O.2   1 <1>  -0.5700 
 16 C        4.6160     4.7350    -0.5800 C.ar  1 <1>   0.0860 
 17 C        4.2260     5.6380    -1.5680 C.ar  1 <1>  -0.1500 
 18 C        4.9360     5.2600     0.6770 C.ar  1 <1>  -0.1500 
 19 C        4.1470     6.9910    -1.3070 C.ar  1 <1>   0.0820 
 20 C        4.8600     6.6170     0.9440 C.ar  1 <1>  -0.1500 
 21 O        3.7600     7.8330    -2.2790 O.3   1 <1>  -0.5330 
 22 C        4.4600     7.5030    -0.0510 C.ar  1 <1>   0.0820 
 23 O        4.3560     8.8470     0.1270 O.3   1 <1>  -0.3620 
 24 C        4.6760     9.4530     1.3600 C.3   1 <1>   0.0400 
 25 H        2.7370     1.2540    -2.0990 H     1 <1>   0.0800 
 26 H        2.0030     2.0790    -0.7730 H     1 <1>   0.0800 
 27 H       -1.3020     1.6090     1.1540 H     1 <1>   0.0800 
 28 H       -1.6330     1.7710    -0.5610 H     1 <1>   0.0800 
 29 H       -0.1530     2.4150     0.1150 H     1 <1>   0.0800 
 30 H       -1.6670    -0.7240     0.9850 H     1 <1>   0.0800 
 31 H       -0.6480    -1.7200    -0.0200 H     1 <1>   0.0800 
 32 H       -1.8770    -0.7150    -0.7590 H     1 <1>   0.0800 
 33 H        3.2570    -0.6710    -0.6090 H     1 <1>   0.0800 
 34 H        5.2000     0.6600    -0.8290 H     1 <1>   0.0800 
 35 H        2.1610    -0.7590     1.3990 H     1 <1>   0.0800 
 36 H        1.9440     0.9850     1.4820 H     1 <1>   0.0800 
 37 H        4.1310     2.6920     1.0550 H     1 <1>   0.3700 
 38 H        5.6870     0.8540     1.8040 H     1 <1>   0.0800 
 39 H        5.2140    -0.7220     1.1700 H     1 <1>   0.0800 
 40 H        3.9820     5.2790    -2.5530 H     1 <1>   0.1500 
 41 H        5.2580     4.5950     1.4580 H     1 <1>   0.1500 
 42 H        5.1180     6.9660     1.9270 H     1 <1>   0.1500 
 43 H        3.7690     8.7500    -1.9390 H     1 <1>   0.4500 
 44 H        4.5250    10.5130     1.2620 H     1 <1>   0.0800 
 45 H        5.7070     9.2520     1.5910 H     1 <1>   0.0800 
 46 H        4.0260     9.0620     2.1220 H     1 <1>   0.0800 
@<TRIPOS>BOND
  1   1   2  2   
  2   1   3  2   
  3   1   4  am  
  4   1   5  1   
  5   4   6  1   
  6   4   7  1   
  7   5   8  1   
  8   5  25  1   
  9   5  26  1   
 10   6  27  1   
 11   6  28  1   
 12   6  29  1   
 13   7  30  1   
 14   7  31  1   
 15   7  32  1   
 16   8   9  1   
 17   8  10  1   
 18   8  33  1   
 19   9  11  1   
 20   9  12  1   
 21   9  34  1   
 22  10  13  1   
 23  10  35  1   
 24  10  36  1   
 25  11  14  am  
 26  11  37  1   
 27  12  13  1   
 28  12  38  1   
 29  12  39  1   
 30  14  15  2   
 31  14  16  1   
 32  16  17  ar  
 33  16  18  ar  
 34  17  19  ar  
 35  17  40  1   
 36  18  20  ar  
 37  18  41  1   
 38  19  21  1   
 39  19  22  ar  
 40  20  22  ar  
 41  20  42  1   
 42  21  43  1   
 43  22  23  1   
 44  23  24  1   
 45  24  44  1   
 46  24  45  1   
 47  24  46  1   
@<TRIPOS>SUBSTRUCTURE
  1 ****  11 GROUP 4 **** **** 0

# MOE 2024.06 (io_trps.svl 2023.06)
