@<TRIPOS>MOLECULE
NONAME
45 47 1 0 0 
SMALL
USER_CHARGES


@<TRIPOS>ATOM
  1 CL      -0.7980    -0.9820    -1.8670 Cl    1 <1>  -0.1770 
  2 C        0.7810    -1.3210    -1.1760 C.ar  1 <1>   0.1770 
  3 C        1.8100    -0.4070    -1.3250 C.ar  1 <1>   0.1770 
  4 C        0.9710    -2.5120    -0.4780 C.ar  1 <1>   0.1170 
  5 CL       1.5620     1.0840    -2.2060 Cl    1 <1>  -0.1770 
  6 C        3.0560    -0.6530    -0.7790 C.ar  1 <1>  -0.1500 
  7 N       -0.1030    -3.4120    -0.3490 N.am  1 <1>  -0.5470 
  8 C        2.2320    -2.7420     0.0730 C.ar  1 <1>  -0.1500 
  9 C        3.2620    -1.8280    -0.0760 C.ar  1 <1>  -0.1500 
 10 C       -0.1780    -4.7250     0.0170 C.2   1 <1>   0.6900 
 11 O        0.8180    -5.3790     0.2590 O.2   1 <1>  -0.5700 
 12 N       -1.4130    -5.3050     0.0880 N.am  1 <1>  -0.6600 
 13 C       -2.7170    -4.6120    -0.0050 C.3   1 <1>   0.1400 
 14 C       -1.5960    -6.7430     0.3670 C.3   1 <1>   0.1400 
 15 C       -3.7410    -5.6020     0.5690 C.3   1 <1>  -0.0800 
 16 C       -3.1080    -6.9870     0.3320 C.3   1 <1>  -0.0800 
 17 C       -5.2070    -5.4500     0.0590 C.3   1 <1>   0.2800 
 18 C       -3.5770    -7.5810    -1.0050 C.3   1 <1>  -0.1600 
 19 O       -5.2210    -4.8790    -1.2000 O.3   1 <1>  -0.6800 
 20 C       -5.8670    -6.8350    -0.0840 C.3   1 <1>  -0.1600 
 21 C       -6.0670    -4.5480     0.9710 C.3   1 <1>  -0.1600 
 22 C       -5.1030    -7.7890    -1.0290 C.3   1 <1>  -0.1600 
 23 C       -5.5710    -3.1000     1.1340 C.3   1 <1>  -0.2400 
 24 H        3.8490     0.0650    -0.9030 H     1 <1>   0.1500 
 25 H       -0.9920    -3.0680    -0.7030 H     1 <1>   0.3700 
 26 H        2.4180    -3.6430     0.6300 H     1 <1>   0.1500 
 27 H        4.2270    -2.0340     0.3580 H     1 <1>   0.1500 
 28 H       -2.7080    -3.6930     0.5540 H     1 <1>   0.0800 
 29 H       -2.9050    -4.4010    -1.0430 H     1 <1>   0.0800 
 30 H       -1.0730    -7.3380    -0.3630 H     1 <1>   0.0800 
 31 H       -1.2020    -6.9590     1.3450 H     1 <1>   0.0800 
 32 H       -3.7470    -5.4620     1.6360 H     1 <1>   0.0800 
 33 H       -3.3740    -7.6680     1.1210 H     1 <1>   0.0800 
 34 H       -3.3050    -6.9050    -1.7980 H     1 <1>   0.0800 
 35 H       -3.0830    -8.5180    -1.1940 H     1 <1>   0.0800 
 36 H       -6.1320    -4.8780    -1.5420 H     1 <1>   0.4000 
 37 H       -5.9000    -7.2860     0.8920 H     1 <1>   0.0800 
 38 H       -6.8860    -6.7370    -0.4150 H     1 <1>   0.0800 
 39 H       -7.0720    -4.5220     0.5880 H     1 <1>   0.0800 
 40 H       -6.1210    -4.9970     1.9470 H     1 <1>   0.0800 
 41 H       -5.3330    -8.8030    -0.7520 H     1 <1>   0.0800 
 42 H       -5.4480    -7.6450    -2.0380 H     1 <1>   0.0800 
 43 H       -5.4540    -2.6250     0.1760 H     1 <1>   0.0800 
 44 H       -4.6310    -3.0730     1.6540 H     1 <1>   0.0800 
 45 H       -6.2840    -2.5330     1.7070 H     1 <1>   0.0800 
@<TRIPOS>BOND
  1   1   2  1   
  2   2   3  ar  
  3   2   4  ar  
  4   3   5  1   
  5   3   6  ar  
  6   4   7  1   
  7   4   8  ar  
  8   6   9  ar  
  9   6  24  1   
 10   7  10  am  
 11   7  25  1   
 12   8   9  ar  
 13   8  26  1   
 14   9  27  1   
 15  10  11  2   
 16  10  12  am  
 17  12  13  1   
 18  12  14  1   
 19  13  15  1   
 20  13  28  1   
 21  13  29  1   
 22  14  16  1   
 23  14  30  1   
 24  14  31  1   
 25  15  16  1   
 26  15  17  1   
 27  15  32  1   
 28  16  18  1   
 29  16  33  1   
 30  17  19  1   
 31  17  20  1   
 32  17  21  1   
 33  18  22  1   
 34  18  34  1   
 35  18  35  1   
 36  19  36  1   
 37  20  22  1   
 38  20  37  1   
 39  20  38  1   
 40  21  23  1   
 41  21  39  1   
 42  21  40  1   
 43  22  41  1   
 44  22  42  1   
 45  23  43  1   
 46  23  44  1   
 47  23  45  1   
@<TRIPOS>SUBSTRUCTURE
  1 ****  13 GROUP 4 **** **** 0

# MOE 2024.06 (io_trps.svl 2023.06)
