@<TRIPOS>MOLECULE
NONAME
47 48 1 0 0 
SMALL
USER_CHARGES


@<TRIPOS>ATOM
  1 CL       0.8060    -0.4700     0.6910 Cl    1 <1>  -0.1770 
  2 C        0.3880    -2.1000     0.2300 C.ar  1 <1>   0.1770 
  3 C        0.9670    -3.1630     0.8960 C.ar  1 <1>  -0.1500 
  4 C       -0.5170    -2.3030    -0.7940 C.ar  1 <1>  -0.1500 
  5 C        0.6310    -4.4550     0.5290 C.ar  1 <1>  -0.1500 
  6 C       -0.8490    -3.5980    -1.1570 C.ar  1 <1>  -0.1500 
  7 C       -0.2790    -4.6770    -0.4950 C.ar  1 <1>  -0.1430 
  8 C       -0.6580    -6.0950    -0.8890 C.3   1 <1>  -0.0160 
  9 C       -1.8660    -6.5570    -0.0620 C.3   1 <1>  -0.0990 
 10 C       -2.3020    -7.9720    -0.4020 C.2   1 <1>   0.5690 
 11 O       -2.3050    -8.3070    -1.5600 O.2   1 <1>  -0.5700 
 12 N       -2.7470    -8.8240     0.5730 N.am  1 <1>  -0.6600 
 13 C       -2.6220   -10.2950     0.3600 C.3   1 <1>   0.3200 
 14 C       -3.4580    -8.3610     1.8110 C.3   1 <1>   0.1400 
 15 C       -4.0020   -10.8570     0.0970 C.2   1 <1>  -0.3320 
 16 C       -4.7160    -7.5180     1.4860 C.3   1 <1>   0.3430 
 17 N       -4.7140   -11.6100     0.9590 N.pl3 1 <1>   0.0330 
 18 C       -4.7580   -10.7240    -1.0150 C.2   1 <1>   0.0770 
 19 N       -5.5230    -8.1380     0.3870 N.4   1 <1>  -0.9590 
 20 C       -5.8850   -11.8410     0.3290 C.2   1 <1>   0.0360 
 21 N       -5.9610   -11.3000    -0.8430 N.2   1 <1>  -0.5650 
 22 C       -5.5940    -7.2920    -0.8420 C.3   1 <1>   0.2630 
 23 C       -6.8870    -8.5680     0.8130 C.3   1 <1>   0.2630 
 24 H        1.6710    -2.9770     1.6870 H     1 <1>   0.1500 
 25 H       -0.9500    -1.4590    -1.2990 H     1 <1>   0.1500 
 26 H        1.0850    -5.2840     1.0450 H     1 <1>   0.1500 
 27 H       -1.5500    -3.7590    -1.9580 H     1 <1>   0.1500 
 28 H        0.1750    -6.7570    -0.7230 H     1 <1>   0.0800 
 29 H       -0.8920    -6.1280    -1.9390 H     1 <1>   0.0800 
 30 H       -2.6850    -5.8880    -0.2440 H     1 <1>   0.0800 
 31 H       -1.5980    -6.4950     0.9760 H     1 <1>   0.0800 
 32 H       -2.1740   -10.7550     1.2240 H     1 <1>   0.0800 
 33 H       -1.9860   -10.4960    -0.4870 H     1 <1>   0.0800 
 34 H       -2.7850    -7.7840     2.4220 H     1 <1>   0.0800 
 35 H       -3.7580    -9.2140     2.3930 H     1 <1>   0.0800 
 36 H       -4.4050    -6.5300     1.1910 H     1 <1>   0.0800 
 37 H       -5.3150    -7.4160     2.3750 H     1 <1>   0.0800 
 38 H       -4.4330   -11.9790     1.8740 H     1 <1>   0.2700 
 39 H       -4.4960   -10.2230    -1.9360 H     1 <1>   0.1500 
 40 H       -5.0100    -9.0010     0.1070 H     1 <1>   0.4500 
 41 H       -6.6700   -12.4310     0.7750 H     1 <1>   0.1500 
 42 H       -6.0930    -6.3600    -0.6310 H     1 <1>   0.0800 
 43 H       -6.1400    -7.8110    -1.6140 H     1 <1>   0.0800 
 44 H       -4.6040    -7.0850    -1.2140 H     1 <1>   0.0800 
 45 H       -7.4900    -7.7130     1.0710 H     1 <1>   0.0800 
 46 H       -6.8240    -9.2230     1.6650 H     1 <1>   0.0800 
 47 H       -7.3690    -9.1050     0.0110 H     1 <1>   0.0800 
@<TRIPOS>BOND
  1   1   2  1   
  2   2   3  ar  
  3   2   4  ar  
  4   3   5  ar  
  5   3  24  1   
  6   4   6  ar  
  7   4  25  1   
  8   5   7  ar  
  9   5  26  1   
 10   6   7  ar  
 11   6  27  1   
 12   7   8  1   
 13   8   9  1   
 14   8  28  1   
 15   8  29  1   
 16   9  10  1   
 17   9  30  1   
 18   9  31  1   
 19  10  11  2   
 20  10  12  am  
 21  12  13  1   
 22  12  14  1   
 23  13  15  1   
 24  13  32  1   
 25  13  33  1   
 26  14  16  1   
 27  14  34  1   
 28  14  35  1   
 29  15  17  1   
 30  15  18  2   
 31  16  19  1   
 32  16  36  1   
 33  16  37  1   
 34  17  20  1   
 35  17  38  1   
 36  18  21  1   
 37  18  39  1   
 38  19  22  1   
 39  19  23  1   
 40  19  40  1   
 41  20  21  2   
 42  20  41  1   
 43  22  42  1   
 44  22  43  1   
 45  22  44  1   
 46  23  45  1   
 47  23  46  1   
 48  23  47  1   
@<TRIPOS>SUBSTRUCTURE
  1 ****  10 GROUP 4 **** **** 0

# MOE 2024.06 (io_trps.svl 2023.06)
