@<TRIPOS>MOLECULE
NONAME
60 62 1 0 0 
SMALL
USER_CHARGES


@<TRIPOS>ATOM
  1 O       -1.5950     0.8480     2.2880 O.2   1 <1>  -0.5700 
  2 C       -2.5120     1.3570     1.6840 C.2   1 <1>   0.5690 
  3 N       -3.6720     0.6630     1.4440 N.am  1 <1>  -0.6600 
  4 C       -2.2460     2.7620     1.0870 C.3   1 <1>   0.4840 
  5 C       -3.5400    -0.8250     1.3280 C.3   1 <1>   0.3210 
  6 C       -5.0280     1.2410     1.1640 C.3   1 <1>   0.1400 
  7 N       -0.8900     2.8240     0.4290 N.4   1 <1>  -0.9590 
  8 C       -2.3430     3.8350     2.1780 C.3   1 <1>  -0.2400 
  9 C       -2.8630    -1.1800    -0.0010 C.2   1 <1>   0.0460 
 10 C       -5.5990     0.7990    -0.2040 C.3   1 <1>   0.3430 
 11 C       -0.4940     4.1480    -0.1300 C.3   1 <1>   0.4860 
 12 C       -0.7190     1.7470    -0.5980 C.3   1 <1>   0.3430 
 13 N       -3.1200    -0.5000    -1.1470 N.2   1 <1>  -0.5650 
 14 C       -1.9630    -2.1660    -0.2280 C.2   1 <1>  -0.3320 
 15 N       -7.0200     1.2310    -0.4430 N.4   1 <1>  -0.9590 
 16 C        0.8990     4.0860    -0.7380 C.ar  1 <1>  -0.1440 
 17 C        0.7640     1.5570    -0.9120 C.3   1 <1>  -0.0170 
 18 C       -2.3980    -1.1050    -2.0360 C.2   1 <1>   0.0360 
 19 N       -1.6690    -2.1250    -1.5410 N.pl3 1 <1>   0.0330 
 20 C       -1.3400    -3.1930     0.7060 C.3   1 <1>  -0.0600 
 21 C       -7.9930     0.5510     0.4750 C.3   1 <1>   0.2630 
 22 C       -7.3950     0.9360    -1.8640 C.3   1 <1>   0.2630 
 23 C        1.4850     2.8810    -1.1150 C.ar  1 <1>  -0.1440 
 24 C        1.5950     5.2710    -0.9270 C.ar  1 <1>  -0.1500 
 25 C        2.7530     2.8770    -1.6730 C.ar  1 <1>  -0.1500 
 26 C        2.8610     5.2600    -1.4860 C.ar  1 <1>  -0.1500 
 27 C        3.4400     4.0620    -1.8590 C.ar  1 <1>  -0.1500 
 28 H       -3.0010     2.9490     0.3440 H     1 <1>   0.0800 
 29 H       -4.5060    -1.2930     1.3760 H     1 <1>   0.0800 
 30 H       -2.9550    -1.2060     2.1480 H     1 <1>   0.0800 
 31 H       -4.9800     2.3150     1.2020 H     1 <1>   0.0800 
 32 H       -5.6860     0.9110     1.9490 H     1 <1>   0.0800 
 33 H       -0.2130     2.5960     1.1730 H     1 <1>   0.4500 
 34 H       -1.5410     3.7250     2.8880 H     1 <1>   0.0800 
 35 H       -3.2690     3.7210     2.7130 H     1 <1>   0.0800 
 36 H       -2.3310     4.8260     1.7640 H     1 <1>   0.0800 
 37 H       -5.5470    -0.2760    -0.2760 H     1 <1>   0.0800 
 38 H       -4.9700     1.2030    -0.9800 H     1 <1>   0.0800 
 39 H       -0.4960     4.8930     0.6480 H     1 <1>   0.0800 
 40 H       -1.1930     4.4490    -0.8930 H     1 <1>   0.0800 
 41 H       -1.2460     2.0150    -1.4990 H     1 <1>   0.0800 
 42 H       -1.1150     0.8090    -0.2410 H     1 <1>   0.0800 
 43 H       -7.1000     2.2510    -0.3080 H     1 <1>   0.4500 
 44 H        0.8560     0.9520    -1.7960 H     1 <1>   0.0800 
 45 H        1.2290     1.0220    -0.1030 H     1 <1>   0.0800 
 46 H       -2.3650    -0.8450    -3.0810 H     1 <1>   0.1500 
 47 H       -1.0420    -2.7500    -2.0590 H     1 <1>   0.2700 
 48 H       -1.7040    -3.0750     1.7110 H     1 <1>   0.0800 
 49 H       -0.2700    -3.0810     0.7210 H     1 <1>   0.0800 
 50 H       -1.5780    -4.1890     0.3770 H     1 <1>   0.0800 
 51 H       -7.9360    -0.5190     0.3570 H     1 <1>   0.0800 
 52 H       -9.0000     0.8660     0.2510 H     1 <1>   0.0800 
 53 H       -7.7830     0.7970     1.5030 H     1 <1>   0.0800 
 54 H       -7.3350    -0.1230    -2.0560 H     1 <1>   0.0800 
 55 H       -6.7290     1.4450    -2.5420 H     1 <1>   0.0800 
 56 H       -8.4020     1.2650    -2.0630 H     1 <1>   0.0800 
 57 H        1.1660     6.2180    -0.6450 H     1 <1>   0.1500 
 58 H        3.2190     1.9510    -1.9660 H     1 <1>   0.1500 
 59 H        3.3980     6.1830    -1.6310 H     1 <1>   0.1500 
 60 H        4.4250     4.0540    -2.2940 H     1 <1>   0.1500 
@<TRIPOS>BOND
  1   1   2  2   
  2   2   3  am  
  3   2   4  1   
  4   3   5  1   
  5   3   6  1   
  6   4   7  1   
  7   4   8  1   
  8   4  28  1   
  9   5   9  1   
 10   5  29  1   
 11   5  30  1   
 12   6  10  1   
 13   6  31  1   
 14   6  32  1   
 15   7  11  1   
 16   7  12  1   
 17   7  33  1   
 18   8  34  1   
 19   8  35  1   
 20   8  36  1   
 21   9  13  1   
 22   9  14  2   
 23  10  15  1   
 24  10  37  1   
 25  10  38  1   
 26  11  16  1   
 27  11  39  1   
 28  11  40  1   
 29  12  17  1   
 30  12  41  1   
 31  12  42  1   
 32  13  18  2   
 33  14  19  1   
 34  14  20  1   
 35  15  21  1   
 36  15  22  1   
 37  15  43  1   
 38  16  23  ar  
 39  16  24  ar  
 40  17  23  1   
 41  17  44  1   
 42  17  45  1   
 43  18  19  1   
 44  18  46  1   
 45  19  47  1   
 46  20  48  1   
 47  20  49  1   
 48  20  50  1   
 49  21  51  1   
 50  21  52  1   
 51  21  53  1   
 52  22  54  1   
 53  22  55  1   
 54  22  56  1   
 55  23  25  ar  
 56  24  26  ar  
 57  24  57  1   
 58  25  27  ar  
 59  25  58  1   
 60  26  27  ar  
 61  26  59  1   
 62  27  60  1   
@<TRIPOS>SUBSTRUCTURE
  1 ****  12 GROUP 4 **** **** 0

# MOE 2024.06 (io_trps.svl 2023.06)
