@<TRIPOS>MOLECULE
NONAME
52 54 1 0 0 
SMALL
USER_CHARGES


@<TRIPOS>ATOM
  1 S        0.1290     0.1500    -0.3570 S.o2  1 <1>   1.3330 
  2 O        0.0210     0.3060    -1.7890 O.2   1 <1>  -0.6500 
  3 O       -1.0550     0.1950     0.4670 O.2   1 <1>  -0.6500 
  4 N        1.2070     1.3540     0.1810 N.am  1 <1>  -0.8490 
  5 C        0.9990    -1.3580     0.0110 C.3   1 <1>  -0.1350 
  6 C        2.1340     1.7570    -0.8970 C.3   1 <1>   0.1960 
  7 C        0.4700     2.4550     0.8160 C.3   1 <1>   0.1960 
  8 C        3.4070     2.4410    -0.3670 C.3   1 <1>   0.3430 
  9 C        1.3670     3.5380     1.4180 C.3   1 <1>  -0.1600 
 10 N        3.2930     3.9220    -0.1370 N.4   1 <1>  -0.9590 
 11 C        1.9810     4.4350     0.3500 C.3   1 <1>   0.3430 
 12 C        3.7670     4.7010    -1.3120 C.3   1 <1>   0.4860 
 13 C        3.9850     6.1400    -0.8870 C.ar  1 <1>  -0.1440 
 14 C        4.9000     6.4470     0.1160 C.ar  1 <1>   0.0820 
 15 C        3.2780     7.1580    -1.5100 C.ar  1 <1>  -0.1500 
 16 O        5.5660     5.4100     0.7000 O.3   1 <1>  -0.3620 
 17 C        5.1010     7.7740     0.4820 C.ar  1 <1>  -0.1500 
 18 C        3.4700     8.4770    -1.1400 C.ar  1 <1>   0.0820 
 19 C        6.7010     5.6540     1.5100 C.3   1 <1>   0.0400 
 20 C        4.3920     8.7870    -0.1380 C.ar  1 <1>   0.0820 
 21 O        2.7680     9.4120    -1.8250 O.3   1 <1>  -0.3620 
 22 O        4.6770    10.0550     0.2430 O.3   1 <1>  -0.3620 
 23 C        1.9540    10.3100    -1.1080 C.3   1 <1>   0.1200 
 24 C        3.6360    10.8760     0.7120 C.3   1 <1>   0.1200 
 25 C        2.7950    11.4020    -0.4500 C.3   1 <1>  -0.1600 
 26 H        0.4040    -2.2020    -0.2810 H     1 <1>   0.0800 
 27 H        1.1900    -1.4260     1.0640 H     1 <1>   0.0800 
 28 H        1.9300    -1.3970    -0.5170 H     1 <1>   0.0800 
 29 H        1.6320     2.3720    -1.6260 H     1 <1>   0.0800 
 30 H        2.4620     0.8670    -1.4070 H     1 <1>   0.0800 
 31 H       -0.1160     2.0520     1.6270 H     1 <1>   0.0800 
 32 H       -0.2210     2.8880     0.1090 H     1 <1>   0.0800 
 33 H        4.2090     2.2580    -1.0620 H     1 <1>   0.0800 
 34 H        3.6710     1.9550     0.5580 H     1 <1>   0.0800 
 35 H        2.1050     3.1180     2.0770 H     1 <1>   0.0800 
 36 H        0.7290     4.1620     2.0200 H     1 <1>   0.0800 
 37 H        3.9920     4.1740     0.5860 H     1 <1>   0.4500 
 38 H        2.1280     5.4200     0.7650 H     1 <1>   0.0800 
 39 H        1.2910     4.5270    -0.4730 H     1 <1>   0.0800 
 40 H        3.0470     4.6520    -2.1120 H     1 <1>   0.0800 
 41 H        4.7040     4.3030    -1.6650 H     1 <1>   0.0800 
 42 H        2.5750     6.9530    -2.2990 H     1 <1>   0.1500 
 43 H        5.8040     8.0560     1.2420 H     1 <1>   0.1500 
 44 H        7.1420     4.7090     1.7730 H     1 <1>   0.0800 
 45 H        6.3950     6.1720     2.4020 H     1 <1>   0.0800 
 46 H        7.4110     6.2420     0.9530 H     1 <1>   0.0800 
 47 H        1.3850     9.7550    -0.3820 H     1 <1>   0.0800 
 48 H        1.2750    10.7520    -1.8170 H     1 <1>   0.0800 
 49 H        4.0970    11.6990     1.2300 H     1 <1>   0.0800 
 50 H        3.0420    10.3140     1.4120 H     1 <1>   0.0800 
 51 H        2.1250    12.1470    -0.0620 H     1 <1>   0.0800 
 52 H        3.4240    11.8800    -1.1800 H     1 <1>   0.0800 
@<TRIPOS>BOND
  1   1   2  2   
  2   1   3  2   
  3   1   4  am  
  4   1   5  1   
  5   4   6  1   
  6   4   7  1   
  7   5  26  1   
  8   5  27  1   
  9   5  28  1   
 10   6   8  1   
 11   6  29  1   
 12   6  30  1   
 13   7   9  1   
 14   7  31  1   
 15   7  32  1   
 16   8  10  1   
 17   8  33  1   
 18   8  34  1   
 19   9  11  1   
 20   9  35  1   
 21   9  36  1   
 22  10  11  1   
 23  10  12  1   
 24  10  37  1   
 25  11  38  1   
 26  11  39  1   
 27  12  13  1   
 28  12  40  1   
 29  12  41  1   
 30  13  14  ar  
 31  13  15  ar  
 32  14  16  1   
 33  14  17  ar  
 34  15  18  ar  
 35  15  42  1   
 36  16  19  1   
 37  17  20  ar  
 38  17  43  1   
 39  18  20  ar  
 40  18  21  1   
 41  19  44  1   
 42  19  45  1   
 43  19  46  1   
 44  20  22  1   
 45  21  23  1   
 46  22  24  1   
 47  23  25  1   
 48  23  47  1   
 49  23  48  1   
 50  24  25  1   
 51  24  49  1   
 52  24  50  1   
 53  25  51  1   
 54  25  52  1   
@<TRIPOS>SUBSTRUCTURE
  1 ****  11 GROUP 4 **** **** 0

# MOE 2024.06 (io_trps.svl 2023.06)
