@<TRIPOS>MOLECULE
NONAME
51 53 1 0 0 
SMALL
USER_CHARGES


@<TRIPOS>ATOM
  1 O       -0.6000     0.1100    -0.5770 O.2   1 <1>  -0.5700 
  2 C       -1.4340     0.7700     0.0180 C.2   1 <1>   0.7150 
  3 N       -2.5800     0.1300     0.4470 N.am  1 <1>  -0.6600 
  4 C       -1.1860     2.1770     0.2250 C.2   1 <1>   0.0550 
  5 C       -2.6580    -1.3610     0.5700 C.3   1 <1>   0.1400 
  6 C       -3.9120     0.7950     0.5870 C.3   1 <1>   0.1400 
  7 O       -1.8360     2.8880     1.1190 O.3   1 <1>  -0.0190 
  8 C       -0.3120     3.0280    -0.3590 C.2   1 <1>  -0.1500 
  9 C       -3.7750    -1.9360    -0.3170 C.3   1 <1>   0.3440 
 10 C       -4.9750     0.0990    -0.2960 C.3   1 <1>   0.2000 
 11 N       -1.4690     4.1310     1.1500 N.2   1 <1>  -0.4100 
 12 C       -0.5390     4.2460     0.2640 C.2   1 <1>   0.1080 
 13 O       -4.9860    -1.2790    -0.0460 O.3   1 <1>  -0.5600 
 14 C       -3.9390    -3.4330    -0.0700 C.ar  1 <1>  -0.1440 
 15 C       -6.4130     0.6320    -0.0980 C.3   1 <1>  -0.0800 
 16 C        0.2080     5.5370    -0.0550 C.3   1 <1>   0.1010 
 17 C       -3.2400    -4.3380    -0.8560 C.ar  1 <1>  -0.1500 
 18 C       -4.7650    -3.9140     0.9380 C.ar  1 <1>  -0.1500 
 19 C       -6.5350     2.1140    -0.4870 C.3   1 <1>  -0.2400 
 20 C       -6.9580     0.4260     1.3260 C.3   1 <1>  -0.2400 
 21 C        0.9670     6.0460     1.1760 C.3   1 <1>  -0.2400 
 22 C       -0.7570     6.6110    -0.5710 C.3   1 <1>  -0.2400 
 23 C       -3.3630    -5.6990    -0.6380 C.ar  1 <1>  -0.1500 
 24 C       -4.8880    -5.2750     1.1570 C.ar  1 <1>  -0.1500 
 25 C       -4.1870    -6.1690     0.3690 C.ar  1 <1>  -0.1500 
 26 H       -1.7230    -1.8190     0.2990 H     1 <1>   0.0800 
 27 H       -2.8600    -1.6190     1.5940 H     1 <1>   0.0800 
 28 H       -4.2110     0.7600     1.6190 H     1 <1>   0.0800 
 29 H       -3.8510     1.8250     0.2910 H     1 <1>   0.0800 
 30 H        0.4040     2.8160    -1.1320 H     1 <1>   0.1500 
 31 H       -3.5350    -1.7720    -1.3530 H     1 <1>   0.0800 
 32 H       -4.7070     0.2360    -1.3300 H     1 <1>   0.0800 
 33 H       -7.0410     0.0740    -0.7730 H     1 <1>   0.0800 
 34 H        0.9260     5.3290    -0.8300 H     1 <1>   0.0800 
 35 H       -2.5940    -3.9880    -1.6430 H     1 <1>   0.1500 
 36 H       -5.3170    -3.2250     1.5540 H     1 <1>   0.1500 
 37 H       -5.9880     2.7430     0.1930 H     1 <1>   0.0800 
 38 H       -7.5680     2.4160    -0.4650 H     1 <1>   0.0800 
 39 H       -6.1620     2.2730    -1.4840 H     1 <1>   0.0800 
 40 H       -6.4180     1.0170     2.0420 H     1 <1>   0.0800 
 41 H       -6.8850    -0.6100     1.6070 H     1 <1>   0.0800 
 42 H       -7.9950     0.7100     1.3680 H     1 <1>   0.0800 
 43 H        0.2780     6.2760     1.9700 H     1 <1>   0.0800 
 44 H        1.5260     6.9320     0.9350 H     1 <1>   0.0800 
 45 H        1.6490     5.2920     1.5260 H     1 <1>   0.0800 
 46 H       -1.4840     6.8520     0.1840 H     1 <1>   0.0800 
 47 H       -1.2760     6.2520    -1.4420 H     1 <1>   0.0800 
 48 H       -0.2200     7.5050    -0.8340 H     1 <1>   0.0800 
 49 H       -2.8170    -6.3940    -1.2530 H     1 <1>   0.1500 
 50 H       -5.5320    -5.6360     1.9400 H     1 <1>   0.1500 
 51 H       -4.2830    -7.2270     0.5380 H     1 <1>   0.1500 
@<TRIPOS>BOND
  1   1   2  2   
  2   2   3  am  
  3   2   4  1   
  4   3   5  1   
  5   3   6  1   
  6   4   7  1   
  7   4   8  2   
  8   5   9  1   
  9   5  26  1   
 10   5  27  1   
 11   6  10  1   
 12   6  28  1   
 13   6  29  1   
 14   7  11  1   
 15   8  12  1   
 16   8  30  1   
 17   9  13  1   
 18   9  14  1   
 19   9  31  1   
 20  10  13  1   
 21  10  15  1   
 22  10  32  1   
 23  11  12  2   
 24  12  16  1   
 25  14  17  ar  
 26  14  18  ar  
 27  15  19  1   
 28  15  20  1   
 29  15  33  1   
 30  16  21  1   
 31  16  22  1   
 32  16  34  1   
 33  17  23  ar  
 34  17  35  1   
 35  18  24  ar  
 36  18  36  1   
 37  19  37  1   
 38  19  38  1   
 39  19  39  1   
 40  20  40  1   
 41  20  41  1   
 42  20  42  1   
 43  21  43  1   
 44  21  44  1   
 45  21  45  1   
 46  22  46  1   
 47  22  47  1   
 48  22  48  1   
 49  23  25  ar  
 50  23  49  1   
 51  24  25  ar  
 52  24  50  1   
 53  25  51  1   
@<TRIPOS>SUBSTRUCTURE
  1 ****   3 GROUP 4 **** **** 0

# MOE 2024.06 (io_trps.svl 2023.06)
