@<TRIPOS>MOLECULE
NONAME
44 45 1 0 0 
SMALL
USER_CHARGES


@<TRIPOS>ATOM
  1 CL       4.1210    -0.9970     2.7130 Cl    1 <1>  -0.1770 
  2 C        3.1190    -1.3080     1.3200 C.ar  1 <1>   0.1770 
  3 C        2.4920    -2.5340     1.2030 C.ar  1 <1>  -0.1500 
  4 C        2.9730    -0.3190     0.3620 C.ar  1 <1>  -0.1500 
  5 C        1.6840    -2.8150     0.1000 C.ar  1 <1>   0.0860 
  6 C        2.1700    -0.5670    -0.7380 C.ar  1 <1>  -0.1500 
  7 C        1.5430    -1.7970    -0.8440 C.ar  1 <1>   0.1900 
  8 C        1.0310    -4.0960    -0.0420 C.2   1 <1>   0.5440 
  9 F        0.7650    -1.9850    -1.8750 F     1 <1>  -0.1900 
 10 O        1.1360    -4.7650    -1.0500 O.2   1 <1>  -0.5700 
 11 N        0.2240    -4.5910     0.9410 N.am  1 <1>  -0.6600 
 12 C        0.5970    -5.8630     1.6350 C.3   1 <1>   0.3210 
 13 C       -1.1390    -4.0240     1.1880 C.3   1 <1>   0.1400 
 14 C       -0.1630    -7.0870     1.1250 C.2   1 <1>   0.0460 
 15 C       -2.2250    -4.6830     0.3090 C.3   1 <1>   0.3430 
 16 N       -1.3880    -7.3990     1.6020 N.2   1 <1>  -0.5650 
 17 C        0.2530    -8.0190     0.2350 C.2   1 <1>  -0.3320 
 18 N       -1.7320    -4.9600    -1.0770 N.4   1 <1>  -0.9590 
 19 C       -1.6670    -8.5260     1.0320 C.2   1 <1>   0.0360 
 20 N       -0.7110    -8.9560     0.1840 N.pl3 1 <1>   0.0330 
 21 C        1.5360    -8.1210    -0.5760 C.3   1 <1>  -0.0600 
 22 C       -1.8480    -3.7940    -1.9970 C.3   1 <1>   0.2630 
 23 C       -2.3560    -6.1860    -1.6410 C.3   1 <1>   0.2630 
 24 H        2.6380    -3.2730     1.9710 H     1 <1>   0.1500 
 25 H        3.4780     0.6240     0.4820 H     1 <1>   0.1500 
 26 H        2.0320     0.1810    -1.5000 H     1 <1>   0.1500 
 27 H        0.4200    -5.7610     2.6910 H     1 <1>   0.0800 
 28 H        1.6500    -6.0370     1.5020 H     1 <1>   0.0800 
 29 H       -1.1230    -2.9680     0.9830 H     1 <1>   0.0800 
 30 H       -1.4000    -4.1470     2.2260 H     1 <1>   0.0800 
 31 H       -3.1020    -4.0590     0.2780 H     1 <1>   0.0800 
 32 H       -2.5140    -5.6080     0.7750 H     1 <1>   0.0800 
 33 H       -0.7100    -5.1670    -0.9620 H     1 <1>   0.4500 
 34 H       -2.5690    -9.0890     1.2080 H     1 <1>   0.1500 
 35 H       -0.7060    -9.8300    -0.3530 H     1 <1>   0.2700 
 36 H        2.1650    -7.2650    -0.4090 H     1 <1>   0.0800 
 37 H        1.3110    -8.1690    -1.6260 H     1 <1>   0.0800 
 38 H        2.0840    -9.0040    -0.2970 H     1 <1>   0.0800 
 39 H       -2.8830    -3.5710    -2.1950 H     1 <1>   0.0800 
 40 H       -1.3520    -4.0100    -2.9300 H     1 <1>   0.0800 
 41 H       -1.3820    -2.9280    -1.5590 H     1 <1>   0.0800 
 42 H       -3.4160    -6.0440    -1.7690 H     1 <1>   0.0800 
 43 H       -2.1930    -7.0160    -0.9740 H     1 <1>   0.0800 
 44 H       -1.9140    -6.4210    -2.5950 H     1 <1>   0.0800 
@<TRIPOS>BOND
  1   1   2  1   
  2   2   3  ar  
  3   2   4  ar  
  4   3   5  ar  
  5   3  24  1   
  6   4   6  ar  
  7   4  25  1   
  8   5   7  ar  
  9   5   8  1   
 10   6   7  ar  
 11   6  26  1   
 12   7   9  1   
 13   8  10  2   
 14   8  11  am  
 15  11  12  1   
 16  11  13  1   
 17  12  14  1   
 18  12  27  1   
 19  12  28  1   
 20  13  15  1   
 21  13  29  1   
 22  13  30  1   
 23  14  16  1   
 24  14  17  2   
 25  15  18  1   
 26  15  31  1   
 27  15  32  1   
 28  16  19  2   
 29  17  20  1   
 30  17  21  1   
 31  18  22  1   
 32  18  23  1   
 33  18  33  1   
 34  19  20  1   
 35  19  34  1   
 36  20  35  1   
 37  21  36  1   
 38  21  37  1   
 39  21  38  1   
 40  22  39  1   
 41  22  40  1   
 42  22  41  1   
 43  23  42  1   
 44  23  43  1   
 45  23  44  1   
@<TRIPOS>SUBSTRUCTURE
  1 ****   8 GROUP 4 **** **** 0

# MOE 2024.06 (io_trps.svl 2023.06)
