@<TRIPOS>MOLECULE
NONAME
56 57 1 0 0 
SMALL
USER_CHARGES


@<TRIPOS>ATOM
  1 S       -0.2450     0.6090    -0.1320 S.o2  1 <1>   1.3330 
  2 O        0.8640     1.2080    -0.8370 O.2   1 <1>  -0.6500 
  3 O       -0.4270     0.8320     1.2840 O.2   1 <1>  -0.6500 
  4 N       -1.6820     1.0360    -0.9310 N.am  1 <1>  -0.8490 
  5 C       -0.1820    -1.1690    -0.3710 C.3   1 <1>  -0.0550 
  6 C       -1.4930     1.2800    -2.3670 C.3   1 <1>   0.1160 
  7 C       -2.3170     2.2130    -0.3230 C.3   1 <1>   0.1160 
  8 C       -1.3610    -1.9110     0.2890 C.3   1 <1>  -0.1600 
  9 C       -1.2530    -3.4190     0.0770 C.3   1 <1>   0.3430 
 10 N       -2.3270    -4.1310     0.8220 N.4   1 <1>  -0.9590 
 11 C       -2.0900    -5.6240     0.9500 C.3   1 <1>   0.3430 
 12 C       -3.6750    -3.8560     0.2620 C.3   1 <1>   0.3430 
 13 C       -2.7070    -6.5010    -0.2180 C.3   1 <1>   0.0000 
 14 C       -4.6260    -4.8820     0.8430 C.3   1 <1>  -0.1600 
 15 C       -4.1800    -6.2920     0.4010 C.3   1 <1>   0.2000 
 16 C       -3.2970    -7.4380    -1.3560 C.3   1 <1>   0.1200 
 17 C       -1.2390    -6.6440    -0.8420 C.3   1 <1>  -0.0170 
 18 O       -4.3160    -7.1440     1.4870 O.3   1 <1>  -0.6800 
 19 O       -3.7250    -6.6240    -2.4030 O.3   1 <1>  -0.6800 
 20 C       -0.3650    -7.6730    -0.1210 C.ar  1 <1>  -0.1440 
 21 C        1.0100    -7.6020    -0.2880 C.ar  1 <1>  -0.1500 
 22 C       -0.8920    -8.6680     0.6940 C.ar  1 <1>  -0.1500 
 23 C        1.8470    -8.4970     0.3550 C.ar  1 <1>  -0.1500 
 24 C       -0.0560    -9.5640     1.3370 C.ar  1 <1>  -0.1500 
 25 C        1.3140    -9.4780     1.1700 C.ar  1 <1>  -0.1500 
 26 H       -0.1680    -1.3770    -1.4230 H     1 <1>   0.0800 
 27 H        0.7390    -1.5310     0.0460 H     1 <1>   0.0800 
 28 H       -2.4420     1.4660    -2.8400 H     1 <1>   0.0800 
 29 H       -1.0420     0.4220    -2.8360 H     1 <1>   0.0800 
 30 H       -0.8520     2.1330    -2.5240 H     1 <1>   0.0800 
 31 H       -3.2270     2.4590    -0.8440 H     1 <1>   0.0800 
 32 H       -1.6500     3.0590    -0.3570 H     1 <1>   0.0800 
 33 H       -2.5640     2.0120     0.7060 H     1 <1>   0.0800 
 34 H       -1.3550    -1.6920     1.3440 H     1 <1>   0.0800 
 35 H       -2.2760    -1.5380    -0.1350 H     1 <1>   0.0800 
 36 H       -0.2910    -3.7530     0.4330 H     1 <1>   0.0800 
 37 H       -1.3220    -3.6460    -0.9750 H     1 <1>   0.0800 
 38 H       -2.3180    -3.7650     1.7840 H     1 <1>   0.4500 
 39 H       -1.0350    -5.7950     1.0980 H     1 <1>   0.0800 
 40 H       -2.5220    -5.9490     1.8830 H     1 <1>   0.0800 
 41 H       -3.9940    -2.8570     0.5140 H     1 <1>   0.0800 
 42 H       -3.6570    -3.9570    -0.8130 H     1 <1>   0.0800 
 43 H       -5.6130    -4.6830     0.4640 H     1 <1>   0.0800 
 44 H       -4.6550    -4.7840     1.9150 H     1 <1>   0.0800 
 45 H       -4.9870    -6.5590    -0.2650 H     1 <1>   0.0800 
 46 H       -4.1220    -8.0620    -1.0460 H     1 <1>   0.0800 
 47 H       -2.6210    -8.1780    -1.7580 H     1 <1>   0.0800 
 48 H       -1.1770    -6.8650    -1.8980 H     1 <1>   0.0800 
 49 H       -0.6950    -5.7180    -0.8480 H     1 <1>   0.0800 
 50 H       -5.2560    -7.2340     1.7510 H     1 <1>   0.4000 
 51 H       -4.0420    -7.1670    -3.1570 H     1 <1>   0.4000 
 52 H        1.4480    -6.8520    -0.9230 H     1 <1>   0.1500 
 53 H       -1.9520    -8.7720     0.8480 H     1 <1>   0.1500 
 54 H        2.9130    -8.4350     0.2190 H     1 <1>   0.1500 
 55 H       -0.4710   -10.3310     1.9680 H     1 <1>   0.1500 
 56 H        1.9630   -10.1760     1.6710 H     1 <1>   0.1500 
@<TRIPOS>BOND
  1   1   2  2   
  2   1   3  2   
  3   1   4  am  
  4   1   5  1   
  5   4   6  1   
  6   4   7  1   
  7   5   8  1   
  8   5  26  1   
  9   5  27  1   
 10   6  28  1   
 11   6  29  1   
 12   6  30  1   
 13   7  31  1   
 14   7  32  1   
 15   7  33  1   
 16   8   9  1   
 17   8  34  1   
 18   8  35  1   
 19   9  10  1   
 20   9  36  1   
 21   9  37  1   
 22  10  11  1   
 23  10  12  1   
 24  10  38  1   
 25  11  13  1   
 26  11  39  1   
 27  11  40  1   
 28  12  14  1   
 29  12  41  1   
 30  12  42  1   
 31  13  15  1   
 32  13  16  1   
 33  13  17  1   
 34  14  15  1   
 35  14  43  1   
 36  14  44  1   
 37  15  18  1   
 38  15  45  1   
 39  16  19  1   
 40  16  46  1   
 41  16  47  1   
 42  17  20  1   
 43  17  48  1   
 44  17  49  1   
 45  18  50  1   
 46  19  51  1   
 47  20  21  ar  
 48  20  22  ar  
 49  21  23  ar  
 50  21  52  1   
 51  22  24  ar  
 52  22  53  1   
 53  23  25  ar  
 54  23  54  1   
 55  24  25  ar  
 56  24  55  1   
 57  25  56  1   
@<TRIPOS>SUBSTRUCTURE
  1 ****   9 GROUP 4 **** **** 0

# MOE 2024.06 (io_trps.svl 2023.06)
