@<TRIPOS>MOLECULE
NONAME
46 48 1 0 0 
SMALL
USER_CHARGES


@<TRIPOS>ATOM
  1 O       -1.7110     1.2540     2.2140 O.2   1 <1>  -0.5700 
  2 C       -1.6110     1.7660     1.1090 C.2   1 <1>   0.5440 
  3 N       -2.3540     1.1980     0.0820 N.am  1 <1>  -0.6600 
  4 C       -0.7510     2.9450     0.9480 C.ar  1 <1>   0.3960 
  5 C       -2.9250    -0.1720     0.2420 C.3   1 <1>   0.1400 
  6 C       -2.6260     1.9080    -1.2020 C.3   1 <1>   0.1400 
  7 N       -0.0350     3.1110    -0.1790 N.ar  1 <1>  -0.6200 
  8 C       -0.6960     3.8730     1.9890 C.ar  1 <1>  -0.1500 
  9 C       -4.3290    -0.1180     0.8620 C.3   1 <1>   0.1400 
 10 C       -4.0620     1.7330    -1.7170 C.3   1 <1>  -0.1600 
 11 C        0.7070     4.1930    -0.2570 C.ar  1 <1>   0.4100 
 12 C        0.0870     5.0050     1.8960 C.ar  1 <1>  -0.1500 
 13 N       -5.3630     0.3880    -0.0990 N.am  1 <1>  -0.6600 
 14 C       -5.1320     1.7670    -0.6200 C.3   1 <1>   0.1400 
 15 N        1.4100     4.3040    -1.4100 N.pl3 1 <1>  -0.9000 
 16 C        0.8020     5.1600     0.7360 C.ar  1 <1>  -0.1500 
 17 C       -6.5250    -0.3030    -0.3810 C.2   1 <1>   0.7160 
 18 O       -7.4460     0.2710    -0.9310 O.2   1 <1>  -0.5700 
 19 C       -6.6780    -1.6910    -0.0330 C.2   1 <1>  -0.0860 
 20 C       -6.0050    -2.7950    -0.4190 C.2   1 <1>  -0.0400 
 21 C       -7.6120    -2.2340     0.8320 C.2   1 <1>   0.1080 
 22 O       -6.4540    -3.8800     0.1650 O.3   1 <1>  -0.0190 
 23 C       -4.8620    -2.9330    -1.4050 C.3   1 <1>  -0.0600 
 24 N       -7.4500    -3.4990     0.9330 N.2   1 <1>  -0.4100 
 25 C       -8.6820    -1.4540     1.5670 C.3   1 <1>  -0.0590 
 26 H       -2.2850    -0.7410     0.8950 H     1 <1>   0.0800 
 27 H       -2.9500    -0.6790    -0.7050 H     1 <1>   0.0800 
 28 H       -1.9280     1.5660    -1.9480 H     1 <1>   0.0800 
 29 H       -2.4590     2.9610    -1.0620 H     1 <1>   0.0800 
 30 H       -1.2750     3.6970     2.8780 H     1 <1>   0.1500 
 31 H       -4.3050     0.5190     1.7290 H     1 <1>   0.0800 
 32 H       -4.5840    -1.1040     1.2040 H     1 <1>   0.0800 
 33 H       -4.1480     0.8250    -2.2850 H     1 <1>   0.0800 
 34 H       -4.2550     2.5410    -2.4000 H     1 <1>   0.0800 
 35 H        0.1320     5.7270     2.6940 H     1 <1>   0.1500 
 36 H       -6.0440     2.1620    -1.0350 H     1 <1>   0.0800 
 37 H       -4.8350     2.4190     0.1840 H     1 <1>   0.0800 
 38 H        2.3400     4.7160    -1.3500 H     1 <1>   0.4000 
 39 H        1.3920     3.4460    -1.9640 H     1 <1>   0.4000 
 40 H        1.4310     6.0160     0.5830 H     1 <1>   0.1500 
 41 H       -4.6360    -1.9850    -1.8570 H     1 <1>   0.0800 
 42 H       -5.1370    -3.6260    -2.1790 H     1 <1>   0.0800 
 43 H       -3.9880    -3.3040    -0.9010 H     1 <1>   0.0800 
 44 H       -8.2280    -0.7150     2.2010 H     1 <1>   0.0800 
 45 H       -9.2740    -2.1170     2.1700 H     1 <1>   0.0800 
 46 H       -9.3230    -0.9630     0.8570 H     1 <1>   0.0800 
@<TRIPOS>BOND
  1   1   2  2   
  2   2   3  am  
  3   2   4  1   
  4   3   5  1   
  5   3   6  1   
  6   4   7  ar  
  7   4   8  ar  
  8   5   9  1   
  9   5  26  1   
 10   5  27  1   
 11   6  10  1   
 12   6  28  1   
 13   6  29  1   
 14   7  11  ar  
 15   8  12  ar  
 16   8  30  1   
 17   9  13  1   
 18   9  31  1   
 19   9  32  1   
 20  10  14  1   
 21  10  33  1   
 22  10  34  1   
 23  11  15  1   
 24  11  16  ar  
 25  12  16  ar  
 26  12  35  1   
 27  13  14  1   
 28  13  17  am  
 29  14  36  1   
 30  14  37  1   
 31  15  38  1   
 32  15  39  1   
 33  16  40  1   
 34  17  18  2   
 35  17  19  1   
 36  19  20  2   
 37  19  21  1   
 38  20  22  1   
 39  20  23  1   
 40  21  24  2   
 41  21  25  1   
 42  22  24  1   
 43  23  41  1   
 44  23  42  1   
 45  23  43  1   
 46  25  44  1   
 47  25  45  1   
 48  25  46  1   
@<TRIPOS>SUBSTRUCTURE
  1 ****   5 GROUP 4 **** **** 0

# MOE 2024.06 (io_trps.svl 2023.06)
