@<TRIPOS>MOLECULE
NONAME
51 54 1 0 0 
SMALL
USER_CHARGES


@<TRIPOS>ATOM
  1 O       -3.0410     1.3290    -1.6920 O.2   1 <1>  -0.5700 
  2 C       -2.4610     1.1510    -0.6500 C.2   1 <1>   0.5690 
  3 N       -2.2020    -0.0920    -0.1810 N.am  1 <1>  -0.7300 
  4 C       -2.0180     2.3420     0.1680 C.3   1 <1>  -0.0990 
  5 C       -2.5990    -1.3430    -0.8650 C.3   1 <1>   0.2200 
  6 C       -1.5270     3.4780    -0.7370 C.3   1 <1>   0.0960 
  7 C       -3.9080    -1.8360    -0.2730 C.3   1 <1>  -0.0800 
  8 C       -1.6440    -2.4650    -0.4780 C.3   1 <1>   0.1200 
  9 N       -1.0040     4.5870     0.0840 N.pl3 1 <1>   0.0480 
 10 C       -3.4420    -2.6410     0.9470 C.3   1 <1>   0.1200 
 11 C       -4.6920    -2.7000    -1.2810 C.3   1 <1>  -0.0170 
 12 O       -2.0810    -2.9150     0.7680 O.3   1 <1>  -0.5600 
 13 C        0.2710     4.8290     0.4810 C.2   1 <1>   0.0060 
 14 C       -1.7280     5.5770     0.6370 C.2   1 <1>  -0.3020 
 15 C       -6.0550    -3.1060    -0.7290 C.ar  1 <1>  -0.1440 
 16 N        0.3920     5.8770     1.2280 N.2   1 <1>  -0.5650 
 17 C        1.4520     3.9630     0.0950 C.3   1 <1>  -0.0600 
 18 C       -0.8630     6.3510     1.3270 C.2   1 <1>   0.0770 
 19 C       -7.1430    -2.2030    -0.6590 C.ar  1 <1>   0.0000 
 20 C       -6.2620    -4.3770    -0.2790 C.ar  1 <1>  -0.1500 
 21 C       -8.3570    -2.6780    -0.1070 C.ar  1 <1>   0.3100 
 22 C       -7.1000    -0.8610    -1.1060 C.ar  1 <1>  -0.1500 
 23 C       -7.5070    -4.7480     0.2420 C.ar  1 <1>   0.1600 
 24 N       -8.5220    -3.9500     0.3380 N.ar  1 <1>  -0.6200 
 25 C       -9.4510    -1.8020    -0.0130 C.ar  1 <1>  -0.1500 
 26 C       -8.1850    -0.0340    -1.0020 C.ar  1 <1>  -0.1500 
 27 C       -9.3760    -0.5070    -0.4470 C.ar  1 <1>  -0.1500 
 28 H       -1.7880    -0.2380     0.7430 H     1 <1>   0.3700 
 29 H       -2.8530     2.6810     0.7520 H     1 <1>   0.0800 
 30 H       -1.2260     2.0430     0.8300 H     1 <1>   0.0800 
 31 H       -2.6420    -1.1880    -1.9300 H     1 <1>   0.0800 
 32 H       -2.3370     3.8460    -1.3420 H     1 <1>   0.0800 
 33 H       -0.7510     3.1250    -1.3910 H     1 <1>   0.0800 
 34 H       -4.5260    -1.0110     0.0350 H     1 <1>   0.0800 
 35 H       -0.6220    -2.1380    -0.4090 H     1 <1>   0.0800 
 36 H       -1.7190    -3.2860    -1.1680 H     1 <1>   0.0800 
 37 H       -3.9700    -3.5710     1.0630 H     1 <1>   0.0800 
 38 H       -3.5410    -2.0610     1.8480 H     1 <1>   0.0800 
 39 H       -4.1240    -3.5810    -1.5230 H     1 <1>   0.0800 
 40 H       -4.8330    -2.1590    -2.2000 H     1 <1>   0.0800 
 41 H       -2.7900     5.6780     0.5150 H     1 <1>   0.1500 
 42 H        2.3470     4.3470     0.5520 H     1 <1>   0.0800 
 43 H        1.5830     3.9710    -0.9720 H     1 <1>   0.0800 
 44 H        1.3000     2.9550     0.4320 H     1 <1>   0.0800 
 45 H       -1.0800     7.2380     1.8980 H     1 <1>   0.1500 
 46 H       -5.4850    -5.1200    -0.3070 H     1 <1>   0.1500 
 47 H       -6.1970    -0.4730    -1.5410 H     1 <1>   0.1500 
 48 H       -7.6260    -5.7600     0.5880 H     1 <1>   0.1500 
 49 H      -10.3570    -2.1890     0.4140 H     1 <1>   0.1500 
 50 H       -8.1360     0.9860    -1.3450 H     1 <1>   0.1500 
 51 H      -10.2220     0.1540    -0.3690 H     1 <1>   0.1500 
@<TRIPOS>BOND
  1   1   2  2   
  2   2   3  am  
  3   2   4  1   
  4   3   5  1   
  5   3  28  1   
  6   4   6  1   
  7   4  29  1   
  8   4  30  1   
  9   5   7  1   
 10   5   8  1   
 11   5  31  1   
 12   6   9  1   
 13   6  32  1   
 14   6  33  1   
 15   7  10  1   
 16   7  11  1   
 17   7  34  1   
 18   8  12  1   
 19   8  35  1   
 20   8  36  1   
 21   9  13  1   
 22   9  14  1   
 23  10  12  1   
 24  10  37  1   
 25  10  38  1   
 26  11  15  1   
 27  11  39  1   
 28  11  40  1   
 29  13  16  2   
 30  13  17  1   
 31  14  18  2   
 32  14  41  1   
 33  15  19  ar  
 34  15  20  ar  
 35  16  18  1   
 36  17  42  1   
 37  17  43  1   
 38  17  44  1   
 39  18  45  1   
 40  19  21  ar  
 41  19  22  ar  
 42  20  23  ar  
 43  20  46  1   
 44  21  24  ar  
 45  21  25  ar  
 46  22  26  ar  
 47  22  47  1   
 48  23  24  ar  
 49  23  48  1   
 50  25  27  ar  
 51  25  49  1   
 52  26  27  ar  
 53  26  50  1   
 54  27  51  1   
@<TRIPOS>SUBSTRUCTURE
  1 ****   3 GROUP 4 **** **** 0

# MOE 2024.06 (io_trps.svl 2023.06)
