@<TRIPOS>MOLECULE
NONAME
50 54 1 0 0 
SMALL
USER_CHARGES


@<TRIPOS>ATOM
  1 O        0.4850     0.7630    -0.9570 O.3   1 <1>  -0.5600 
  2 C        0.9960    -0.2140    -0.1070 C.3   1 <1>   0.2800 
  3 C       -0.7430     0.9610    -0.4010 C.3   1 <1>   0.2000 
  4 C        0.7880     0.4000     1.2900 C.3   1 <1>  -0.0800 
  5 C        2.5060    -0.3350    -0.2930 C.3   1 <1>   0.2090 
  6 C       -0.0170    -1.3250    -0.3390 C.3   1 <1>  -0.1600 
  7 C       -0.2750     1.4740     0.9690 C.3   1 <1>  -0.0800 
  8 C       -1.3010    -0.4780    -0.3940 C.3   1 <1>  -0.1600 
  9 C        2.1970     0.7970     1.7650 C.3   1 <1>   0.2090 
 10 N        3.0310     0.7850     0.5450 N.pl3 1 <1>  -0.8220 
 11 C        0.3920     2.8610     0.8390 C.3   1 <1>   0.3430 
 12 C        4.4150     0.8750     0.7220 C.2   1 <1>   0.2700 
 13 N       -0.4460     3.8850     0.1470 N.4   1 <1>  -0.9590 
 14 N        5.1440    -0.0470     1.2380 N.2   1 <1>  -0.3380 
 15 N        5.1760     1.9420     0.4180 N.pl3 1 <1>   0.5930 
 16 C        0.3710     5.1160    -0.0770 C.3   1 <1>   0.2630 
 17 C       -1.7100     4.2060     0.8810 C.3   1 <1>   0.2630 
 18 N        6.3790     0.4490     1.2710 N.2   1 <1>   0.0000 
 19 N        6.4160     1.6370     0.7930 N.2   1 <1>  -0.4180 
 20 C        4.7680     3.1920    -0.1340 C.ar  1 <1>  -0.0230 
 21 C        5.1950     4.3920     0.4290 C.ar  1 <1>  -0.1500 
 22 C        3.9320     3.2430    -1.2480 C.ar  1 <1>  -0.1500 
 23 C        4.7980     5.6050    -0.1040 C.ar  1 <1>  -0.1500 
 24 C        3.5420     4.4560    -1.7880 C.ar  1 <1>  -0.1500 
 25 C        3.9730     5.6390    -1.2150 C.ar  1 <1>  -0.1500 
 26 H       -1.3270     1.6470    -0.9890 H     1 <1>   0.0800 
 27 H        0.3930    -0.3260     1.9790 H     1 <1>   0.0800 
 28 H        2.7860    -0.2270    -1.3260 H     1 <1>   0.0800 
 29 H        2.8620    -1.2760     0.0900 H     1 <1>   0.0800 
 30 H        0.1740    -1.8070    -1.2820 H     1 <1>   0.0800 
 31 H       -0.0230    -2.0570     0.4500 H     1 <1>   0.0800 
 32 H       -1.0660     1.4800     1.6960 H     1 <1>   0.0800 
 33 H       -1.9440    -0.6470     0.4520 H     1 <1>   0.0800 
 34 H       -1.8480    -0.6750    -1.3000 H     1 <1>   0.0800 
 35 H        2.5730     0.0520     2.4470 H     1 <1>   0.0800 
 36 H        2.2370     1.7530     2.2560 H     1 <1>   0.0800 
 37 H        1.3040     2.7320     0.2730 H     1 <1>   0.0800 
 38 H        0.6660     3.2170     1.8180 H     1 <1>   0.0800 
 39 H       -0.6730     3.4960    -0.7820 H     1 <1>   0.4500 
 40 H        0.6510     5.5590     0.8650 H     1 <1>   0.0800 
 41 H       -0.1890     5.8400    -0.6470 H     1 <1>   0.0800 
 42 H        1.2700     4.8730    -0.6200 H     1 <1>   0.0800 
 43 H       -1.4850     4.5980     1.8590 H     1 <1>   0.0800 
 44 H       -2.3140     3.3210     0.9930 H     1 <1>   0.0800 
 45 H       -2.2800     4.9410     0.3370 H     1 <1>   0.0800 
 46 H        5.8500     4.3770     1.2860 H     1 <1>   0.1500 
 47 H        3.5920     2.3280    -1.7030 H     1 <1>   0.1500 
 48 H        5.1430     6.5250     0.3380 H     1 <1>   0.1500 
 49 H        2.9130     4.4770    -2.6630 H     1 <1>   0.1500 
 50 H        3.6810     6.5850    -1.6380 H     1 <1>   0.1500 
@<TRIPOS>BOND
  1   1   2  1   
  2   1   3  1   
  3   2   4  1   
  4   2   5  1   
  5   2   6  1   
  6   3   7  1   
  7   3   8  1   
  8   3  26  1   
  9   4   7  1   
 10   4   9  1   
 11   4  27  1   
 12   5  10  1   
 13   5  28  1   
 14   5  29  1   
 15   6   8  1   
 16   6  30  1   
 17   6  31  1   
 18   7  11  1   
 19   7  32  1   
 20   8  33  1   
 21   8  34  1   
 22   9  10  1   
 23   9  35  1   
 24   9  36  1   
 25  10  12  1   
 26  11  13  1   
 27  11  37  1   
 28  11  38  1   
 29  12  14  2   
 30  12  15  1   
 31  13  16  1   
 32  13  17  1   
 33  13  39  1   
 34  14  18  1   
 35  15  19  1   
 36  15  20  1   
 37  16  40  1   
 38  16  41  1   
 39  16  42  1   
 40  17  43  1   
 41  17  44  1   
 42  17  45  1   
 43  18  19  2   
 44  20  21  ar  
 45  20  22  ar  
 46  21  23  ar  
 47  21  46  1   
 48  22  24  ar  
 49  22  47  1   
 50  23  25  ar  
 51  23  48  1   
 52  24  25  ar  
 53  24  49  1   
 54  25  50  1   
@<TRIPOS>SUBSTRUCTURE
  1 ****  10 GROUP 4 **** **** 0

# MOE 2024.06 (io_trps.svl 2023.06)
