@<TRIPOS>MOLECULE
NONAME
52 55 1 0 0 
SMALL
USER_CHARGES


@<TRIPOS>ATOM
  1 O       -0.5190    -0.1370     0.4850 O.2   1 <1>  -0.5700 
  2 C       -1.4240     0.6730     0.5370 C.2   1 <1>   0.7160 
  3 N       -2.5560     0.3250     1.2040 N.am  1 <1>  -0.7300 
  4 C       -1.3320     1.9530    -0.1010 C.2   1 <1>  -0.0860 
  5 C       -2.8890    -1.0270     1.7210 C.3   1 <1>   0.1400 
  6 C       -2.4040     2.8220    -0.3520 C.2   1 <1>   0.3720 
  7 C       -0.2670     2.6170    -0.6330 C.2   1 <1>   0.0870 
  8 C       -3.3890    -1.9450     0.5970 C.3   1 <1>   0.2000 
  9 N       -2.0170     3.8760    -0.9780 N.2   1 <1>  -0.4100 
 10 N       -3.7430     2.6020     0.0120 N.pl3 1 <1>  -0.8210 
 11 O       -0.7300     3.7330    -1.1390 O.3   1 <1>  -0.0190 
 12 C        1.1450     2.3420    -0.7230 C.ar  1 <1>   0.0530 
 13 O       -3.9270    -3.1000     1.1480 O.3   1 <1>  -0.5600 
 14 C       -4.5280    -1.3760    -0.2430 C.3   1 <1>  -0.1600 
 15 C       -4.6810     2.5600    -1.1470 C.3   1 <1>   0.2090 
 16 C       -4.2640     3.5870     1.0020 C.3   1 <1>   0.2090 
 17 C        1.8670     2.7020    -1.8620 C.ar  1 <1>  -0.1500 
 18 C        1.8520     1.7320     0.3130 C.ar  1 <1>  -0.1500 
 19 C       -4.7570    -3.7240     0.2230 C.3   1 <1>   0.1200 
 20 C       -5.2840    -2.6180    -0.6890 C.3   1 <1>  -0.1600 
 21 C       -5.6840     3.6830    -0.9230 C.3   1 <1>  -0.1600 
 22 C       -5.6980     3.8760     0.5840 C.3   1 <1>  -0.1600 
 23 C        3.2230     2.4570    -1.9640 C.ar  1 <1>  -0.1500 
 24 C        3.2080     1.4800     0.2190 C.ar  1 <1>  -0.1500 
 25 C        3.9070     1.8440    -0.9280 C.ar  1 <1>   0.0830 
 26 O        5.2330     1.6350    -1.1040 O.3   1 <1>  -0.3630 
 27 C        6.0110     0.9800    -0.1270 C.3   1 <1>   0.0400 
 28 H       -3.3460     0.9710     1.0520 H     1 <1>   0.3700 
 29 H       -2.0130    -1.4650     2.1670 H     1 <1>   0.0800 
 30 H       -3.6520    -0.9350     2.4740 H     1 <1>   0.0800 
 31 H       -2.5650    -2.2390    -0.0320 H     1 <1>   0.0800 
 32 H       -5.1590    -0.7570     0.3710 H     1 <1>   0.0800 
 33 H       -4.1550    -0.7970    -1.0690 H     1 <1>   0.0800 
 34 H       -4.1660     2.6830    -2.0860 H     1 <1>   0.0800 
 35 H       -5.1860     1.6100    -1.1470 H     1 <1>   0.0800 
 36 H       -4.2220     3.1820     1.9980 H     1 <1>   0.0800 
 37 H       -3.6840     4.4960     0.9660 H     1 <1>   0.0800 
 38 H        1.3550     3.1780    -2.6800 H     1 <1>   0.1500 
 39 H        1.3310     1.4480     1.2100 H     1 <1>   0.1500 
 40 H       -4.1660    -4.4360    -0.3290 H     1 <1>   0.0800 
 41 H       -5.5450    -4.2290     0.7530 H     1 <1>   0.0800 
 42 H       -5.0690    -2.8600    -1.7150 H     1 <1>   0.0800 
 43 H       -6.3470    -2.4960    -0.5710 H     1 <1>   0.0800 
 44 H       -5.3170     4.5740    -1.4030 H     1 <1>   0.0800 
 45 H       -6.6530     3.4410    -1.3200 H     1 <1>   0.0800 
 46 H       -6.3510     3.1550     1.0440 H     1 <1>   0.0800 
 47 H       -6.0050     4.8660     0.8700 H     1 <1>   0.0800 
 48 H        3.7640     2.7390    -2.8490 H     1 <1>   0.1500 
 49 H        3.7010     1.0020     1.0440 H     1 <1>   0.1500 
 50 H        7.0210     0.9170    -0.4910 H     1 <1>   0.0800 
 51 H        5.6160    -0.0080     0.0280 H     1 <1>   0.0800 
 52 H        5.9850     1.5540     0.7820 H     1 <1>   0.0800 
@<TRIPOS>BOND
  1   1   2  2   
  2   2   3  am  
  3   2   4  1   
  4   3   5  1   
  5   3  28  1   
  6   4   6  1   
  7   4   7  2   
  8   5   8  1   
  9   5  29  1   
 10   5  30  1   
 11   6   9  2   
 12   6  10  1   
 13   7  11  1   
 14   7  12  1   
 15   8  13  1   
 16   8  14  1   
 17   8  31  1   
 18   9  11  1   
 19  10  15  1   
 20  10  16  1   
 21  12  17  ar  
 22  12  18  ar  
 23  13  19  1   
 24  14  20  1   
 25  14  32  1   
 26  14  33  1   
 27  15  21  1   
 28  15  34  1   
 29  15  35  1   
 30  16  22  1   
 31  16  36  1   
 32  16  37  1   
 33  17  23  ar  
 34  17  38  1   
 35  18  24  ar  
 36  18  39  1   
 37  19  20  1   
 38  19  40  1   
 39  19  41  1   
 40  20  42  1   
 41  20  43  1   
 42  21  22  1   
 43  21  44  1   
 44  21  45  1   
 45  22  46  1   
 46  22  47  1   
 47  23  25  ar  
 48  23  48  1   
 49  24  25  ar  
 50  24  49  1   
 51  25  26  1   
 52  26  27  1   
 53  27  50  1   
 54  27  51  1   
 55  27  52  1   
@<TRIPOS>SUBSTRUCTURE
  1 ****   4 GROUP 4 **** **** 0

# MOE 2024.06 (io_trps.svl 2023.06)
