@<TRIPOS>MOLECULE
NONAME
50 52 1 0 0 
SMALL
USER_CHARGES


@<TRIPOS>ATOM
  1 F       -0.2840     1.1400     0.1520 F     1 <1>  -0.1900 
  2 C       -0.0830     2.4180    -0.0060 C.ar  1 <1>   0.1900 
  3 C        1.1190     2.9620     0.4020 C.ar  1 <1>  -0.1500 
  4 C       -1.0770     3.1870    -0.5790 C.ar  1 <1>  -0.1500 
  5 C        1.3250     4.3200     0.2330 C.ar  1 <1>  -0.1500 
  6 C       -0.8530     4.5430    -0.7400 C.ar  1 <1>  -0.1500 
  7 C        0.3440     5.1430    -0.3350 C.ar  1 <1>   0.0860 
  8 C        0.5500     6.5710    -0.5070 C.2   1 <1>   0.5440 
  9 O       -0.0090     7.1780    -1.3990 O.2   1 <1>  -0.5700 
 10 N        1.3740     7.2670     0.3320 N.am  1 <1>  -0.7300 
 11 C        1.6350     8.7290     0.2390 C.3   1 <1>   0.1400 
 12 C        2.6610     9.0280    -0.8600 C.3   1 <1>   0.2090 
 13 N        2.9360    10.4880    -0.9400 N.pl3 1 <1>  -0.8690 
 14 C        3.7330    11.1650    -0.0460 C.ar  1 <1>   0.4100 
 15 N        4.3590    10.4520     0.8810 N.ar  1 <1>  -0.6200 
 16 C        3.8430    12.5440    -0.1510 C.ar  1 <1>  -0.1500 
 17 C        5.1070    11.1380     1.7270 C.ar  1 <1>   0.1600 
 18 C        4.6370    13.2620     0.7210 C.ar  1 <1>   0.0860 
 19 C        5.2760    12.5060     1.6950 C.ar  1 <1>  -0.1500 
 20 C        4.7820    14.7000     0.6260 C.2   1 <1>   0.5440 
 21 O        3.7830    15.3920     0.6680 O.2   1 <1>  -0.5700 
 22 N        6.0170    15.3000     0.4840 N.am  1 <1>  -0.6600 
 23 C        7.2470    14.5750     0.0550 C.3   1 <1>   0.1400 
 24 C        6.1810    16.7790     0.5690 C.3   1 <1>   0.1400 
 25 C        7.7150    15.1090    -1.3030 C.3   1 <1>  -0.1600 
 26 C        6.6360    17.3290    -0.7870 C.3   1 <1>  -0.1600 
 27 C        7.9120    16.6310    -1.2800 C.3   1 <1>  -0.1600 
 28 H        1.8720     2.3310     0.8390 H     1 <1>   0.1500 
 29 H       -2.0000     2.7310    -0.8900 H     1 <1>   0.1500 
 30 H        2.2650     4.7440     0.5370 H     1 <1>   0.1500 
 31 H       -1.6160     5.1580    -1.1880 H     1 <1>   0.1500 
 32 H        1.7970     6.7960     1.1330 H     1 <1>   0.3700 
 33 H        2.0050     9.0830     1.1850 H     1 <1>   0.0800 
 34 H        0.7150     9.2390     0.0130 H     1 <1>   0.0800 
 35 H        2.2800     8.6900    -1.8080 H     1 <1>   0.0800 
 36 H        3.5780     8.5030    -0.6510 H     1 <1>   0.0800 
 37 H        2.2240    11.0310    -1.4330 H     1 <1>   0.4000 
 38 H        3.3060    13.0610    -0.9220 H     1 <1>   0.1500 
 39 H        5.6150    10.5720     2.4900 H     1 <1>   0.1500 
 40 H        5.8990    12.9960     2.4210 H     1 <1>   0.1500 
 41 H        7.0670    13.5180    -0.0290 H     1 <1>   0.0800 
 42 H        8.0170    14.7280     0.7920 H     1 <1>   0.0800 
 43 H        6.9180    17.0060     1.3200 H     1 <1>   0.0800 
 44 H        5.2580    17.2520     0.8590 H     1 <1>   0.0800 
 45 H        6.9820    14.8510    -2.0470 H     1 <1>   0.0800 
 46 H        8.6390    14.6300    -1.5750 H     1 <1>   0.0800 
 47 H        6.8110    18.3860    -0.7010 H     1 <1>   0.0800 
 48 H        5.8420    17.1840    -1.4990 H     1 <1>   0.0800 
 49 H        8.1600    16.9820    -2.2670 H     1 <1>   0.0800 
 50 H        8.7290    16.8770    -0.6240 H     1 <1>   0.0800 
@<TRIPOS>BOND
  1   1   2  1   
  2   2   3  ar  
  3   2   4  ar  
  4   3   5  ar  
  5   3  28  1   
  6   4   6  ar  
  7   4  29  1   
  8   5   7  ar  
  9   5  30  1   
 10   6   7  ar  
 11   6  31  1   
 12   7   8  1   
 13   8   9  2   
 14   8  10  am  
 15  10  11  1   
 16  10  32  1   
 17  11  12  1   
 18  11  33  1   
 19  11  34  1   
 20  12  13  1   
 21  12  35  1   
 22  12  36  1   
 23  13  14  1   
 24  13  37  1   
 25  14  15  ar  
 26  14  16  ar  
 27  15  17  ar  
 28  16  18  ar  
 29  16  38  1   
 30  17  19  ar  
 31  17  39  1   
 32  18  19  ar  
 33  18  20  1   
 34  19  40  1   
 35  20  21  2   
 36  20  22  am  
 37  22  23  1   
 38  22  24  1   
 39  23  25  1   
 40  23  41  1   
 41  23  42  1   
 42  24  26  1   
 43  24  43  1   
 44  24  44  1   
 45  25  27  1   
 46  25  45  1   
 47  25  46  1   
 48  26  27  1   
 49  26  47  1   
 50  26  48  1   
 51  27  49  1   
 52  27  50  1   
@<TRIPOS>SUBSTRUCTURE
  1 ****  13 GROUP 4 **** **** 0

# MOE 2024.06 (io_trps.svl 2023.06)
