@<TRIPOS>MOLECULE
NONAME
44 46 1 0 0 
SMALL
USER_CHARGES


@<TRIPOS>ATOM
  1 O       -0.5260     0.9780     1.0100 O.2   1 <1>  -0.5700 
  2 C       -0.2130     2.1030     0.6680 C.2   1 <1>   0.5440 
  3 N       -1.2020     3.0360     0.4310 N.am  1 <1>  -0.6600 
  4 C        1.1950     2.4170     0.5030 C.ar  1 <1>   0.0860 
  5 C       -2.6220     2.8010     0.8440 C.3   1 <1>   0.1400 
  6 C       -1.0090     4.2710    -0.3770 C.3   1 <1>   0.1400 
  7 C        2.0140     1.6030    -0.2760 C.ar  1 <1>  -0.1500 
  8 C        1.7760     3.5270     1.1190 C.ar  1 <1>  -0.1500 
  9 C       -3.5580     2.7190    -0.3870 C.3   1 <1>   0.0000 
 10 C       -1.9080     4.2270    -1.6180 C.3   1 <1>  -0.1600 
 11 C        3.3540     1.9030    -0.4470 C.ar  1 <1>   0.0820 
 12 C        3.1170     3.8290     0.9480 C.ar  1 <1>  -0.1500 
 13 C       -5.0240     2.5250     0.0370 C.3   1 <1>   0.2000 
 14 C       -3.3820     3.9860    -1.2520 C.3   1 <1>  -0.1600 
 15 C       -3.2930     1.4260    -1.1790 C.3   1 <1>  -0.1600 
 16 O        4.1310     1.1140    -1.2010 O.3   1 <1>  -0.5320 
 17 C        3.9090     3.0160     0.1590 C.ar  1 <1>  -0.1500 
 18 O       -5.3460     3.3110     1.1480 O.3   1 <1>  -0.5600 
 19 C       -5.1740     1.0320     0.3440 C.3   1 <1>  -0.1600 
 20 C       -4.0550     0.3260    -0.4340 C.3   1 <1>  -0.1600 
 21 C       -6.7080     3.4250     1.4110 C.3   1 <1>   0.0400 
 22 H       -2.7000     1.9040     1.4330 H     1 <1>   0.0800 
 23 H       -2.9260     3.6200     1.4730 H     1 <1>   0.0800 
 24 H       -1.2640     5.1250     0.2270 H     1 <1>   0.0800 
 25 H        0.0150     4.3720    -0.6900 H     1 <1>   0.0800 
 26 H        1.5830     0.7350    -0.7410 H     1 <1>   0.1500 
 27 H        1.1630     4.1560     1.7410 H     1 <1>   0.1500 
 28 H       -1.8180     5.1570    -2.1500 H     1 <1>   0.0800 
 29 H       -1.5600     3.4450    -2.2700 H     1 <1>   0.0800 
 30 H        3.5440     4.6920     1.4300 H     1 <1>   0.1500 
 31 H       -5.6670     2.7970    -0.7830 H     1 <1>   0.0800 
 32 H       -3.9690     3.9090    -2.1500 H     1 <1>   0.0800 
 33 H       -3.7450     4.8340    -0.6970 H     1 <1>   0.0800 
 34 H       -3.7000     1.5190    -2.1710 H     1 <1>   0.0800 
 35 H       -2.2460     1.1930    -1.2600 H     1 <1>   0.0800 
 36 H        3.6640     0.3330    -1.5480 H     1 <1>   0.4500 
 37 H        4.9530     3.2330     0.0140 H     1 <1>   0.1500 
 38 H       -5.0450     0.8530     1.3970 H     1 <1>   0.0800 
 39 H       -6.1400     0.6770     0.0310 H     1 <1>   0.0800 
 40 H       -3.3900    -0.1650     0.2570 H     1 <1>   0.0800 
 41 H       -4.4450    -0.4070    -1.1190 H     1 <1>   0.0800 
 42 H       -6.8290     4.0650     2.2670 H     1 <1>   0.0800 
 43 H       -7.1160     2.4530     1.6280 H     1 <1>   0.0800 
 44 H       -7.2000     3.8620     0.5600 H     1 <1>   0.0800 
@<TRIPOS>BOND
  1   1   2  2   
  2   2   3  am  
  3   2   4  1   
  4   3   5  1   
  5   3   6  1   
  6   4   7  ar  
  7   4   8  ar  
  8   5   9  1   
  9   5  22  1   
 10   5  23  1   
 11   6  10  1   
 12   6  24  1   
 13   6  25  1   
 14   7  11  ar  
 15   7  26  1   
 16   8  12  ar  
 17   8  27  1   
 18   9  13  1   
 19   9  14  1   
 20   9  15  1   
 21  10  14  1   
 22  10  28  1   
 23  10  29  1   
 24  11  16  1   
 25  11  17  ar  
 26  12  17  ar  
 27  12  30  1   
 28  13  18  1   
 29  13  19  1   
 30  13  31  1   
 31  14  32  1   
 32  14  33  1   
 33  15  20  1   
 34  15  34  1   
 35  15  35  1   
 36  16  36  1   
 37  17  37  1   
 38  18  21  1   
 39  19  20  1   
 40  19  38  1   
 41  19  39  1   
 42  20  40  1   
 43  20  41  1   
 44  21  42  1   
 45  21  43  1   
 46  21  44  1   
@<TRIPOS>SUBSTRUCTURE
  1 ****   3 GROUP 4 **** **** 0

# MOE 2024.06 (io_trps.svl 2023.06)
