@<TRIPOS>MOLECULE
NONAME
48 52 1 0 0 
SMALL
USER_CHARGES


@<TRIPOS>ATOM
  1 S       -1.6470    -0.1170    -1.8550 S.3   1 <1>  -0.0800 
  2 C       -1.4680    -1.8680    -1.9790 C.ar  1 <1>   0.2970 
  3 C       -2.1450    -0.2520    -0.1710 C.2   1 <1>  -0.1400 
  4 N       -1.0850    -2.4630    -3.0890 N.ar  1 <1>  -0.5670 
  5 C       -1.7760    -2.4790    -0.7850 C.ar  1 <1>   0.0000 
  6 C       -2.1800    -1.5310     0.2320 C.2   1 <1>  -0.1810 
  7 C       -2.4720     0.9950     0.6210 C.3   1 <1>   0.0200 
  8 C       -1.0110    -3.7720    -2.9560 C.ar  1 <1>   0.4700 
  9 C       -1.6360    -3.8700    -0.7980 C.ar  1 <1>   0.4100 
 10 C       -2.6110    -1.8900     1.6480 C.3   1 <1>   0.0210 
 11 C       -2.5410     0.6330     2.1150 C.3   1 <1>  -0.1600 
 12 N       -1.2630    -4.5160    -1.8880 N.ar  1 <1>  -0.6200 
 13 N       -1.8880    -4.6260     0.3140 N.pl3 1 <1>  -0.8690 
 14 C       -3.2890    -0.6950     2.3500 C.3   1 <1>  -0.1600 
 15 C       -1.8150    -6.1030     0.4230 C.3   1 <1>   0.2890 
 16 C       -3.2050    -6.7210     0.3690 C.3   1 <1>  -0.0800 
 17 C       -1.4100    -6.4640     1.8470 C.3   1 <1>   0.1200 
 18 C       -3.7010    -6.5790     1.8120 C.3   1 <1>   0.1200 
 19 C       -4.1600    -6.1370    -0.6890 C.3   1 <1>  -0.0170 
 20 O       -2.5750    -6.3370     2.6080 O.3   1 <1>  -0.5600 
 21 C       -5.4890    -6.8750    -0.6900 C.ar  1 <1>  -0.1430 
 22 C       -5.6400    -8.0980    -1.3120 C.ar  1 <1>  -0.1500 
 23 C       -6.6120    -6.3630    -0.0720 C.ar  1 <1>  -0.1500 
 24 C       -6.8700    -8.7340    -1.2810 C.ar  1 <1>   0.1600 
 25 C       -7.7960    -7.0800    -0.1000 C.ar  1 <1>   0.1600 
 26 N       -7.9520    -8.2550    -0.6880 N.ar  1 <1>  -0.6200 
 27 H       -1.7180     1.7450     0.4600 H     1 <1>   0.0800 
 28 H       -3.4190     1.3810     0.2870 H     1 <1>   0.0800 
 29 H       -0.7030    -4.3120    -3.8360 H     1 <1>   0.1500 
 30 H       -3.3090    -2.7080     1.6240 H     1 <1>   0.0800 
 31 H       -1.7430    -2.1940     2.2070 H     1 <1>   0.0800 
 32 H       -1.5380     0.5360     2.4950 H     1 <1>   0.0800 
 33 H       -3.0230     1.4290     2.6540 H     1 <1>   0.0800 
 34 H       -2.1690    -4.1680     1.1810 H     1 <1>   0.4000 
 35 H       -4.2920    -0.5950     1.9720 H     1 <1>   0.0800 
 36 H       -3.3560    -0.8940     3.4050 H     1 <1>   0.0800 
 37 H       -1.1410    -6.5150    -0.3080 H     1 <1>   0.0800 
 38 H       -3.0880    -7.7720     0.1710 H     1 <1>   0.0800 
 39 H       -0.6460    -5.8150     2.2370 H     1 <1>   0.0800 
 40 H       -1.0890    -7.4890     1.9030 H     1 <1>   0.0800 
 41 H       -4.1900    -7.4740     2.1570 H     1 <1>   0.0800 
 42 H       -4.3620    -5.7370     1.9210 H     1 <1>   0.0800 
 43 H       -3.7060    -6.2160    -1.6610 H     1 <1>   0.0800 
 44 H       -4.3340    -5.0920    -0.5020 H     1 <1>   0.0800 
 45 H       -4.8140    -8.5610    -1.8200 H     1 <1>   0.1500 
 46 H       -6.5790    -5.4130     0.4290 H     1 <1>   0.1500 
 47 H       -6.9700    -9.6880    -1.7710 H     1 <1>   0.1500 
 48 H       -8.6620    -6.6660     0.3880 H     1 <1>   0.1500 
@<TRIPOS>BOND
  1   1   2  1   
  2   1   3  1   
  3   2   4  ar  
  4   2   5  ar  
  5   3   6  2   
  6   3   7  1   
  7   4   8  ar  
  8   5   6  1   
  9   5   9  ar  
 10   6  10  1   
 11   7  11  1   
 12   7  27  1   
 13   7  28  1   
 14   8  12  ar  
 15   8  29  1   
 16   9  12  ar  
 17   9  13  1   
 18  10  14  1   
 19  10  30  1   
 20  10  31  1   
 21  11  14  1   
 22  11  32  1   
 23  11  33  1   
 24  13  15  1   
 25  13  34  1   
 26  14  35  1   
 27  14  36  1   
 28  15  16  1   
 29  15  17  1   
 30  15  37  1   
 31  16  18  1   
 32  16  19  1   
 33  16  38  1   
 34  17  20  1   
 35  17  39  1   
 36  17  40  1   
 37  18  20  1   
 38  18  41  1   
 39  18  42  1   
 40  19  21  1   
 41  19  43  1   
 42  19  44  1   
 43  21  22  ar  
 44  21  23  ar  
 45  22  24  ar  
 46  22  45  1   
 47  23  25  ar  
 48  23  46  1   
 49  24  26  ar  
 50  24  47  1   
 51  25  26  ar  
 52  25  48  1   
@<TRIPOS>SUBSTRUCTURE
  1 ****  13 GROUP 4 **** **** 0

# MOE 2024.06 (io_trps.svl 2023.06)
