@<TRIPOS>MOLECULE
NONAME
50 53 1 0 0 
SMALL
USER_CHARGES


@<TRIPOS>ATOM
  1 O       -3.0170    -1.2660     2.7300 O.2   1 <1>  -0.5700 
  2 C       -2.3090    -1.6530     1.8250 C.2   1 <1>   0.6900 
  3 N       -2.2790    -2.9760     1.4190 N.am  1 <1>  -0.4690 
  4 N       -1.5350    -0.7550     1.1650 N.am  1 <1>  -0.4900 
  5 C       -1.4710    -3.3670     0.3560 C.2   1 <1>  -0.0410 
  6 C       -3.0950    -4.0050     2.1430 C.3   1 <1>   0.2010 
  7 C       -0.7610    -1.0810     0.0970 C.2   1 <1>   0.6160 
  8 C       -0.7240    -2.4550    -0.3100 C.2   1 <1>  -0.1240 
  9 C       -3.9780    -4.8370     1.2120 C.2   1 <1>   0.5690 
 10 O       -0.1560    -0.1890    -0.4620 O.2   1 <1>  -0.5700 
 11 C        0.1630    -2.8470    -1.4850 C.3   1 <1>  -0.1020 
 12 O       -3.5600    -5.9320     0.9080 O.2   1 <1>  -0.5700 
 13 N       -5.1870    -4.3740     0.7460 N.am  1 <1>  -0.6600 
 14 C       -5.7340    -2.9950     0.9830 C.3   1 <1>   0.1400 
 15 C       -6.1010    -5.2580    -0.0340 C.3   1 <1>   0.1400 
 16 C       -6.1020    -2.2990    -0.3440 C.3   1 <1>   0.1430 
 17 C       -6.4630    -4.6020    -1.3700 C.3   1 <1>  -0.1600 
 18 C       -6.7340    -0.9560    -0.0300 C.ar  1 <1>   0.1670 
 19 C       -7.0530    -3.1970    -1.1640 C.3   1 <1>  -0.1600 
 20 C       -4.8410    -1.9010    -1.1620 C.3   1 <1>  -0.1600 
 21 N       -7.9160    -0.7830     0.5220 N.ar  1 <1>  -0.6200 
 22 C       -5.9230     0.0820    -0.3770 C.ar  1 <1>  -0.1430 
 23 C       -4.6200    -0.3890    -0.9680 C.3   1 <1>  -0.0170 
 24 C       -8.2560     0.4850     0.7030 C.ar  1 <1>   0.4770 
 25 C       -6.3770     1.3560    -0.1440 C.ar  1 <1>   0.1600 
 26 N       -7.5570     1.5710     0.3990 N.ar  1 <1>  -0.6200 
 27 C       -9.6080     0.7310     1.3280 C.3   1 <1>  -0.0970 
 28 H       -1.5410     0.2080     1.4810 H     1 <1>   0.3700 
 29 H       -1.4740    -4.4140     0.0910 H     1 <1>   0.1500 
 30 H       -3.7170    -3.5480     2.8900 H     1 <1>   0.0800 
 31 H       -2.4230    -4.6700     2.6520 H     1 <1>   0.0800 
 32 H       -0.1400    -2.3120    -2.3670 H     1 <1>   0.0800 
 33 H        0.0990    -3.9020    -1.6830 H     1 <1>   0.0800 
 34 H        1.1880    -2.5990    -1.2690 H     1 <1>   0.0800 
 35 H       -5.0360    -2.3810     1.5190 H     1 <1>   0.0800 
 36 H       -6.6210    -3.0790     1.5880 H     1 <1>   0.0800 
 37 H       -6.9950    -5.4260     0.5420 H     1 <1>   0.0800 
 38 H       -5.6440    -6.2160    -0.2180 H     1 <1>   0.0800 
 39 H       -7.1800    -5.2200    -1.8810 H     1 <1>   0.0800 
 40 H       -5.5810    -4.5530    -1.9840 H     1 <1>   0.0800 
 41 H       -7.2670    -2.7400    -2.1140 H     1 <1>   0.0800 
 42 H       -7.9860    -3.2880    -0.6360 H     1 <1>   0.0800 
 43 H       -5.0160    -2.0790    -2.2080 H     1 <1>   0.0800 
 44 H       -3.9730    -2.4650    -0.8730 H     1 <1>   0.0800 
 45 H       -4.4110     0.1010    -1.9030 H     1 <1>   0.0800 
 46 H       -3.8240    -0.2020    -0.2730 H     1 <1>   0.0800 
 47 H       -5.7710     2.2080    -0.4020 H     1 <1>   0.1500 
 48 H       -9.9860    -0.1720     1.7720 H     1 <1>   0.0800 
 49 H      -10.2920     1.0660     0.5720 H     1 <1>   0.0800 
 50 H       -9.5230     1.4850     2.0870 H     1 <1>   0.0800 
@<TRIPOS>BOND
  1   1   2  2   
  2   2   3  am  
  3   2   4  am  
  4   3   5  1   
  5   3   6  1   
  6   4   7  am  
  7   4  28  1   
  8   5   8  2   
  9   5  29  1   
 10   6   9  1   
 11   6  30  1   
 12   6  31  1   
 13   7   8  1   
 14   7  10  2   
 15   8  11  1   
 16   9  12  2   
 17   9  13  am  
 18  11  32  1   
 19  11  33  1   
 20  11  34  1   
 21  13  14  1   
 22  13  15  1   
 23  14  16  1   
 24  14  35  1   
 25  14  36  1   
 26  15  17  1   
 27  15  37  1   
 28  15  38  1   
 29  16  18  1   
 30  16  19  1   
 31  16  20  1   
 32  17  19  1   
 33  17  39  1   
 34  17  40  1   
 35  18  21  ar  
 36  18  22  ar  
 37  19  41  1   
 38  19  42  1   
 39  20  23  1   
 40  20  43  1   
 41  20  44  1   
 42  21  24  ar  
 43  22  23  1   
 44  22  25  ar  
 45  23  45  1   
 46  23  46  1   
 47  24  26  ar  
 48  24  27  1   
 49  25  26  ar  
 50  25  47  1   
 51  27  48  1   
 52  27  49  1   
 53  27  50  1   
@<TRIPOS>SUBSTRUCTURE
  1 ****  20 GROUP 4 **** **** 0

# MOE 2024.06 (io_trps.svl 2023.06)
