@<TRIPOS>MOLECULE
NONAME
45 47 1 0 0 
SMALL
USER_CHARGES


@<TRIPOS>ATOM
  1 O       -3.0690     0.5920    -2.3710 O.2   1 <1>  -0.5700 
  2 C       -2.7160     0.7540    -1.2100 C.2   1 <1>   0.5690 
  3 N       -2.3800    -0.3020    -0.4240 N.am  1 <1>  -0.7300 
  4 C       -2.6530     2.1680    -0.6100 C.3   1 <1>   0.2010 
  5 C       -2.3230    -1.7170    -0.8640 C.3   1 <1>   0.2200 
  6 N       -1.4120     2.4300     0.1330 N.am  1 <1>  -0.7300 
  7 C       -3.5250    -2.5080    -0.3590 C.3   1 <1>  -0.0800 
  8 C       -1.2010    -2.4120    -0.1070 C.3   1 <1>   0.1200 
  9 C       -1.1470     3.4700     0.9110 C.2   1 <1>   0.5690 
 10 C       -3.1150    -2.8520     1.0790 C.3   1 <1>   0.1200 
 11 C       -4.8840    -1.7900    -0.4900 C.3   1 <1>  -0.0170 
 12 O       -1.7290    -2.6720     1.1580 O.3   1 <1>  -0.5600 
 13 O       -0.0580     3.5440     1.4500 O.2   1 <1>  -0.5700 
 14 C       -2.1930     4.5500     1.1220 C.3   1 <1>  -0.1790 
 15 C       -6.1290    -2.5940    -0.0940 C.ar  1 <1>  -0.1440 
 16 C       -7.3860    -1.9420    -0.0210 C.ar  1 <1>   0.0000 
 17 C       -6.1080    -3.9300     0.1960 C.ar  1 <1>  -0.1500 
 18 C       -8.5090    -2.7060     0.3810 C.ar  1 <1>   0.3100 
 19 C       -7.5970    -0.5770    -0.3340 C.ar  1 <1>  -0.1500 
 20 C       -7.2810    -4.5940     0.5740 C.ar  1 <1>   0.1600 
 21 N       -8.4400    -4.0270     0.6760 N.ar  1 <1>  -0.6200 
 22 C       -9.7620    -2.0790     0.4780 C.ar  1 <1>  -0.1500 
 23 C       -8.8320     0.0030    -0.2330 C.ar  1 <1>  -0.1500 
 24 C       -9.9300    -0.7540     0.1810 C.ar  1 <1>  -0.1500 
 25 H       -2.1120    -0.1600     0.5550 H     1 <1>   0.3700 
 26 H       -3.5090     2.2790     0.0560 H     1 <1>   0.0800 
 27 H       -2.7490     2.8850    -1.4260 H     1 <1>   0.0800 
 28 H       -2.2000    -1.7800    -1.9320 H     1 <1>   0.0800 
 29 H       -0.6410     1.7890     0.0210 H     1 <1>   0.3700 
 30 H       -3.5620    -3.4210    -0.9270 H     1 <1>   0.0800 
 31 H       -0.3170    -1.8060    -0.0160 H     1 <1>   0.0800 
 32 H       -0.9560    -3.3550    -0.5640 H     1 <1>   0.0800 
 33 H       -3.3450    -3.8710     1.3370 H     1 <1>   0.0800 
 34 H       -3.5710    -2.1860     1.7920 H     1 <1>   0.0800 
 35 H       -5.0020    -1.4730    -1.5130 H     1 <1>   0.0800 
 36 H       -4.8580    -0.9080     0.1230 H     1 <1>   0.0800 
 37 H       -2.4740     4.9790     0.1620 H     1 <1>   0.0800 
 38 H       -1.7730     5.3310     1.7560 H     1 <1>   0.0800 
 39 H       -3.0660     4.1210     1.6100 H     1 <1>   0.0800 
 40 H       -5.2170    -4.5230     0.1500 H     1 <1>   0.1500 
 41 H       -6.7720     0.0250    -0.6640 H     1 <1>   0.1500 
 42 H       -7.2140    -5.6450     0.7960 H     1 <1>   0.1500 
 43 H      -10.5920    -2.6830     0.7950 H     1 <1>   0.1500 
 44 H       -8.9770     1.0420    -0.4730 H     1 <1>   0.1500 
 45 H      -10.8970    -0.2870     0.2590 H     1 <1>   0.1500 
@<TRIPOS>BOND
  1   1   2  2   
  2   2   3  am  
  3   2   4  1   
  4   3   5  1   
  5   3  25  1   
  6   4   6  1   
  7   4  26  1   
  8   4  27  1   
  9   5   7  1   
 10   5   8  1   
 11   5  28  1   
 12   6   9  am  
 13   6  29  1   
 14   7  10  1   
 15   7  11  1   
 16   7  30  1   
 17   8  12  1   
 18   8  31  1   
 19   8  32  1   
 20   9  13  2   
 21   9  14  1   
 22  10  12  1   
 23  10  33  1   
 24  10  34  1   
 25  11  15  1   
 26  11  35  1   
 27  11  36  1   
 28  14  37  1   
 29  14  38  1   
 30  14  39  1   
 31  15  16  ar  
 32  15  17  ar  
 33  16  18  ar  
 34  16  19  ar  
 35  17  20  ar  
 36  17  40  1   
 37  18  21  ar  
 38  18  22  ar  
 39  19  23  ar  
 40  19  41  1   
 41  20  21  ar  
 42  20  42  1   
 43  22  24  ar  
 44  22  43  1   
 45  23  24  ar  
 46  23  44  1   
 47  24  45  1   
@<TRIPOS>SUBSTRUCTURE
  1 ****  11 GROUP 4 **** **** 0

# MOE 2024.06 (io_trps.svl 2023.06)
