@<TRIPOS>MOLECULE
NONAME
46 47 1 0 0 
SMALL
USER_CHARGES


@<TRIPOS>ATOM
  1 S        0.6260     0.2900     1.3670 S.o2  1 <1>   1.3330 
  2 O        1.0590     1.4850     2.0570 O.2   1 <1>  -0.6500 
  3 O       -0.2510    -0.6520     2.0140 O.2   1 <1>  -0.6500 
  4 N        2.0600    -0.5490     0.8850 N.am  1 <1>  -0.6930 
  5 C       -0.0630     0.7730    -0.2020 C.3   1 <1>  -0.1350 
  6 C        1.9690    -1.7060     0.1130 C.ar  1 <1>   0.1990 
  7 C        3.3640     0.1500     1.1270 C.3   1 <1>   0.3370 
  8 C        2.3640    -1.7170    -1.2220 C.ar  1 <1>  -0.1500 
  9 C        1.4610    -2.8770     0.6630 C.ar  1 <1>  -0.1500 
 10 C        3.5920     1.3400     0.1660 C.2   1 <1>   0.5690 
 11 C        4.5340    -0.8480     1.1440 C.3   1 <1>  -0.2400 
 12 C        2.2610    -2.8670    -1.9820 C.ar  1 <1>  -0.1500 
 13 C        1.3540    -4.0290    -0.0940 C.ar  1 <1>  -0.1500 
 14 O        4.1540     1.1590    -0.8900 O.2   1 <1>  -0.5700 
 15 N        3.1100     2.5680     0.5380 N.am  1 <1>  -0.4940 
 16 C        1.7550    -4.0260    -1.4190 C.ar  1 <1>  -0.1500 
 17 C        3.1040     3.8160    -0.1300 C.2   1 <1>  -0.0880 
 18 N        4.0660     4.3790    -0.9230 N.pl3 1 <1>   0.3140 
 19 C        2.0950     4.7150    -0.0640 C.2   1 <1>  -0.1500 
 20 N        3.6770     5.6030    -1.3590 N.2   1 <1>  -0.7070 
 21 C        5.4280     3.9010    -1.2590 C.3   1 <1>   0.0960 
 22 C        2.5040     5.7880    -0.8410 C.2   1 <1>   0.1390 
 23 C        6.3160     3.7770    -0.0100 C.3   1 <1>  -0.1600 
 24 C        7.7230     3.2930    -0.3770 C.3   1 <1>  -0.2400 
 25 H       -0.9620     1.3380    -0.0500 H     1 <1>   0.0800 
 26 H       -0.3000    -0.0960    -0.7850 H     1 <1>   0.0800 
 27 H        0.6350     1.3760    -0.7490 H     1 <1>   0.0800 
 28 H        3.3250     0.5580     2.1220 H     1 <1>   0.0800 
 29 H        2.7560    -0.8220    -1.6700 H     1 <1>   0.1500 
 30 H        1.1470    -2.8800     1.6920 H     1 <1>   0.1500 
 31 H        4.7050    -1.2630     0.1670 H     1 <1>   0.0800 
 32 H        4.3360    -1.6420     1.8410 H     1 <1>   0.0800 
 33 H        5.4330    -0.3430     1.4490 H     1 <1>   0.0800 
 34 H        2.5740    -2.8610    -3.0120 H     1 <1>   0.1500 
 35 H        0.9580    -4.9280     0.3470 H     1 <1>   0.1500 
 36 H        2.4820     2.5320     1.3570 H     1 <1>   0.3700 
 37 H        1.6740    -4.9220    -2.0100 H     1 <1>   0.1500 
 38 H        1.1650     4.6410     0.4700 H     1 <1>   0.1500 
 39 H        5.8680     4.6130    -1.9340 H     1 <1>   0.0800 
 40 H        5.3570     2.9680    -1.7800 H     1 <1>   0.0800 
 41 H        1.9230     6.6800    -1.0030 H     1 <1>   0.1500 
 42 H        5.8780     3.0800     0.6810 H     1 <1>   0.0800 
 43 H        6.3850     4.7380     0.4710 H     1 <1>   0.0800 
 44 H        7.6760     2.3240    -0.8430 H     1 <1>   0.0800 
 45 H        8.3300     3.2170     0.5090 H     1 <1>   0.0800 
 46 H        8.1950     3.9830    -1.0550 H     1 <1>   0.0800 
@<TRIPOS>BOND
  1   1   2  2   
  2   1   3  2   
  3   1   4  am  
  4   1   5  1   
  5   4   6  1   
  6   4   7  1   
  7   5  25  1   
  8   5  26  1   
  9   5  27  1   
 10   6   8  ar  
 11   6   9  ar  
 12   7  10  1   
 13   7  11  1   
 14   7  28  1   
 15   8  12  ar  
 16   8  29  1   
 17   9  13  ar  
 18   9  30  1   
 19  10  14  2   
 20  10  15  am  
 21  11  31  1   
 22  11  32  1   
 23  11  33  1   
 24  12  16  ar  
 25  12  34  1   
 26  13  16  ar  
 27  13  35  1   
 28  15  17  1   
 29  15  36  1   
 30  16  37  1   
 31  17  18  1   
 32  17  19  2   
 33  18  20  1   
 34  18  21  1   
 35  19  22  1   
 36  19  38  1   
 37  20  22  2   
 38  21  23  1   
 39  21  39  1   
 40  21  40  1   
 41  22  41  1   
 42  23  24  1   
 43  23  42  1   
 44  23  43  1   
 45  24  44  1   
 46  24  45  1   
 47  24  46  1   
@<TRIPOS>SUBSTRUCTURE
  1 ****  10 GROUP 4 **** **** 0

# MOE 2024.06 (io_trps.svl 2023.06)
