@<TRIPOS>MOLECULE
NONAME
57 59 1 0 0 
SMALL
USER_CHARGES


@<TRIPOS>ATOM
  1 O        3.9150     3.2980     0.5710 O.co2 1 <1>  -0.9000 
  2 C        3.9600     2.1180     0.9430 C.2   1 <1>   0.9060 
  3 O        4.8750     1.8040     1.7150 O.co2 1 <1>  -0.9000 
  4 C        3.0410     1.0540     0.3240 C.3   1 <1>  -0.1060 
  5 C        3.8110    -0.2950     0.2720 C.3   1 <1>   0.2000 
  6 C        2.7080     1.4430    -1.1430 C.3   1 <1>  -0.1600 
  7 C        1.7710     0.9270     1.2140 C.3   1 <1>  -0.0160 
  8 O        2.9710    -1.2960    -0.2140 O.3   1 <1>  -0.6800 
  9 C        5.0620    -0.2760    -0.6390 C.3   1 <1>   0.1400 
 10 C        3.9490     1.5470    -2.0530 C.3   1 <1>   0.1400 
 11 C        0.7160     2.0100     0.9970 C.ar  1 <1>  -0.1440 
 12 N        5.1990     0.9760    -1.4510 N.am  1 <1>  -0.6600 
 13 C       -0.4400     1.7220     0.2850 C.ar  1 <1>  -0.1500 
 14 C        0.8910     3.2850     1.5110 C.ar  1 <1>  -0.1500 
 15 C        6.3790     1.6670    -1.3270 C.2   1 <1>   0.5690 
 16 C       -1.4050     2.6950     0.0880 C.ar  1 <1>  -0.1500 
 17 C       -0.0720     4.2600     1.3140 C.ar  1 <1>  -0.1500 
 18 O        7.4450     1.0990    -1.4230 O.2   1 <1>  -0.5700 
 19 C        6.4100     3.1690    -0.9770 C.3   1 <1>   0.4040 
 20 C       -1.2210     3.9660     0.6030 C.ar  1 <1>  -0.1500 
 21 N        6.7110     3.4630     0.4750 N.4   1 <1>  -0.9590 
 22 C        6.4220     4.8700     0.8280 C.3   1 <1>   0.4230 
 23 C        7.9710     2.8490     0.9790 C.3   1 <1>   0.2630 
 24 C        7.4890     5.8300     0.2800 C.3   1 <1>  -0.1600 
 25 C        6.4220     5.0620     2.3450 C.3   1 <1>  -0.1600 
 26 C        8.1210     6.5410     1.4840 C.3   1 <1>  -0.1600 
 27 C        7.7680     5.6930     2.7020 C.3   1 <1>  -0.1600 
 28 H        4.1030    -0.5930     1.2650 H     1 <1>   0.0800 
 29 H        2.2090     2.3980    -1.1610 H     1 <1>   0.0800 
 30 H        2.0160     0.7400    -1.5680 H     1 <1>   0.0800 
 31 H        1.2930    -0.0210     1.0520 H     1 <1>   0.0800 
 32 H        2.0690     0.9360     2.2490 H     1 <1>   0.0800 
 33 H        2.6320    -1.0280    -1.0880 H     1 <1>   0.4000 
 34 H        5.0670    -1.1280    -1.2960 H     1 <1>   0.0800 
 35 H        5.9230    -0.3630     0.0030 H     1 <1>   0.0800 
 36 H        4.1060     2.5820    -2.2970 H     1 <1>   0.0800 
 37 H        3.7500     1.0300    -2.9760 H     1 <1>   0.0800 
 38 H       -0.5930     0.7370    -0.1180 H     1 <1>   0.1500 
 39 H        1.7850     3.5270     2.0600 H     1 <1>   0.1500 
 40 H       -2.2980     2.4620    -0.4640 H     1 <1>   0.1500 
 41 H        0.0800     5.2460     1.7140 H     1 <1>   0.1500 
 42 H        5.4480     3.5870    -1.2140 H     1 <1>   0.0800 
 43 H        7.1470     3.6410    -1.5990 H     1 <1>   0.0800 
 44 H       -1.9680     4.7240     0.4500 H     1 <1>   0.1500 
 45 H        5.9280     2.9540     0.9750 H     1 <1>   0.4500 
 46 H        5.4450     5.1280     0.4490 H     1 <1>   0.0800 
 47 H        8.8260     3.3090     0.5150 H     1 <1>   0.0800 
 48 H        7.9790     1.7930     0.7630 H     1 <1>   0.0800 
 49 H        8.0360     2.9710     2.0470 H     1 <1>   0.0800 
 50 H        8.2460     5.3080    -0.2770 H     1 <1>   0.0800 
 51 H        7.0270     6.5550    -0.3670 H     1 <1>   0.0800 
 52 H        5.6410     5.7630     2.5830 H     1 <1>   0.0800 
 53 H        6.2220     4.1500     2.8810 H     1 <1>   0.0800 
 54 H        9.1860     6.6590     1.3730 H     1 <1>   0.0800 
 55 H        7.6750     7.5160     1.5940 H     1 <1>   0.0800 
 56 H        7.7070     6.2850     3.6000 H     1 <1>   0.0800 
 57 H        8.5110     4.9280     2.8410 H     1 <1>   0.0800 
@<TRIPOS>BOND
  1   1   2  ar  
  2   2   3  ar  
  3   2   4  1   
  4   4   5  1   
  5   4   6  1   
  6   4   7  1   
  7   5   8  1   
  8   5   9  1   
  9   5  28  1   
 10   6  10  1   
 11   6  29  1   
 12   6  30  1   
 13   7  11  1   
 14   7  31  1   
 15   7  32  1   
 16   8  33  1   
 17   9  12  1   
 18   9  34  1   
 19   9  35  1   
 20  10  12  1   
 21  10  36  1   
 22  10  37  1   
 23  11  13  ar  
 24  11  14  ar  
 25  12  15  am  
 26  13  16  ar  
 27  13  38  1   
 28  14  17  ar  
 29  14  39  1   
 30  15  18  2   
 31  15  19  1   
 32  16  20  ar  
 33  16  40  1   
 34  17  20  ar  
 35  17  41  1   
 36  19  21  1   
 37  19  42  1   
 38  19  43  1   
 39  20  44  1   
 40  21  22  1   
 41  21  23  1   
 42  21  45  1   
 43  22  24  1   
 44  22  25  1   
 45  22  46  1   
 46  23  47  1   
 47  23  48  1   
 48  23  49  1   
 49  24  26  1   
 50  24  50  1   
 51  24  51  1   
 52  25  27  1   
 53  25  52  1   
 54  25  53  1   
 55  26  27  1   
 56  26  54  1   
 57  26  55  1   
 58  27  56  1   
 59  27  57  1   
@<TRIPOS>SUBSTRUCTURE
  1 ****   2 GROUP 4 **** **** 0

# MOE 2024.06 (io_trps.svl 2023.06)
