@<TRIPOS>MOLECULE
NONAME
49 51 1 0 0 
SMALL
USER_CHARGES


@<TRIPOS>ATOM
  1 O       -1.6430     0.8270    -1.5030 O.2   1 <1>  -0.5700 
  2 C       -1.7190     0.6210    -0.3140 C.2   1 <1>   0.6300 
  3 N       -2.7590    -0.0810     0.2130 N.am  1 <1>  -0.6600 
  4 C       -0.6710     1.2260     0.6270 C.3   1 <1>  -0.0950 
  5 C       -2.9410    -1.5250    -0.1320 C.3   1 <1>   0.3640 
  6 C       -4.0580     0.6290     0.3390 C.3   1 <1>   0.1400 
  7 C       -0.2640     0.5010     1.8780 C.3   1 <1>  -0.2000 
  8 C        0.6720     0.5630     0.7070 C.3   1 <1>  -0.2000 
  9 C       -0.7290     2.7580     0.6660 C.3   1 <1>  -0.1450 
 10 C       -1.5970    -2.2530    -0.2530 C.ar  1 <1>  -0.1440 
 11 C       -3.8840    -1.6880    -1.3560 C.3   1 <1>   0.2000 
 12 C       -4.9290     0.3750    -0.9040 C.3   1 <1>   0.1200 
 13 C       -1.1390    -3.0050     0.8180 C.ar  1 <1>  -0.1500 
 14 C       -0.8150    -2.1870    -1.3970 C.ar  1 <1>  -0.1500 
 15 O       -5.0880    -0.9990    -1.1150 O.3   1 <1>  -0.5600 
 16 C       -4.2650    -3.1510    -1.6420 C.3   1 <1>   0.1200 
 17 C        0.0690    -3.6810     0.7650 C.ar  1 <1>   0.0820 
 18 C        0.3870    -2.8670    -1.4740 C.ar  1 <1>  -0.1500 
 19 O       -3.2050    -3.8620    -2.1990 O.3   1 <1>  -0.6800 
 20 O        0.3980    -4.3630     1.8960 O.3   1 <1>  -0.3630 
 21 C        0.8450    -3.6290    -0.4030 C.ar  1 <1>   0.0820 
 22 C        1.7340    -4.3820     2.3480 C.3   1 <1>   0.0400 
 23 O        2.0130    -4.3320    -0.4740 O.3   1 <1>  -0.3630 
 24 C        2.7420    -4.4470    -1.6760 C.3   1 <1>   0.0400 
 25 H       -3.4580    -1.9760     0.6970 H     1 <1>   0.0800 
 26 H       -4.5740     0.2850     1.2190 H     1 <1>   0.0800 
 27 H       -3.8860     1.6860     0.4440 H     1 <1>   0.0800 
 28 H       -0.0220     1.0670     2.7590 H     1 <1>   0.1000 
 29 H       -0.7210    -0.4450     2.1120 H     1 <1>   0.1000 
 30 H        0.8410    -0.3340     0.1370 H     1 <1>   0.1000 
 31 H        1.5530     1.1760     0.7750 H     1 <1>   0.1000 
 32 H        0.0350     3.1550     1.3100 H     1 <1>   0.0800 
 33 H       -1.6880     3.0800     1.0290 H     1 <1>   0.0800 
 34 H       -0.5830     3.1530    -0.3240 H     1 <1>   0.0800 
 35 H       -3.4360    -1.2620    -2.2370 H     1 <1>   0.0800 
 36 H       -4.4760     0.8110    -1.7790 H     1 <1>   0.0800 
 37 H       -5.9060     0.8040    -0.7690 H     1 <1>   0.0800 
 38 H       -1.7140    -3.0720     1.7240 H     1 <1>   0.1500 
 39 H       -1.1340    -1.6000    -2.2430 H     1 <1>   0.1500 
 40 H       -5.0720    -3.1820    -2.3530 H     1 <1>   0.0800 
 41 H       -4.5680    -3.6510    -0.7390 H     1 <1>   0.0800 
 42 H        0.9500    -2.7830    -2.3840 H     1 <1>   0.1500 
 43 H       -2.4080    -3.8200    -1.6260 H     1 <1>   0.4000 
 44 H        1.7290    -4.5890     3.4030 H     1 <1>   0.0800 
 45 H        2.1840    -3.4220     2.1620 H     1 <1>   0.0800 
 46 H        2.2660    -5.1580     1.8290 H     1 <1>   0.0800 
 47 H        3.5770    -5.1000    -1.4980 H     1 <1>   0.0800 
 48 H        3.0960    -3.4730    -1.9650 H     1 <1>   0.0800 
 49 H        2.1040    -4.8680    -2.4330 H     1 <1>   0.0800 
@<TRIPOS>BOND
  1   1   2  2   
  2   2   3  am  
  3   2   4  1   
  4   3   5  1   
  5   3   6  1   
  6   4   7  1   
  7   4   8  1   
  8   4   9  1   
  9   5  10  1   
 10   5  11  1   
 11   5  25  1   
 12   6  12  1   
 13   6  26  1   
 14   6  27  1   
 15   7   8  1   
 16   7  28  1   
 17   7  29  1   
 18   8  30  1   
 19   8  31  1   
 20   9  32  1   
 21   9  33  1   
 22   9  34  1   
 23  10  13  ar  
 24  10  14  ar  
 25  11  15  1   
 26  11  16  1   
 27  11  35  1   
 28  12  15  1   
 29  12  36  1   
 30  12  37  1   
 31  13  17  ar  
 32  13  38  1   
 33  14  18  ar  
 34  14  39  1   
 35  16  19  1   
 36  16  40  1   
 37  16  41  1   
 38  17  20  1   
 39  17  21  ar  
 40  18  21  ar  
 41  18  42  1   
 42  19  43  1   
 43  20  22  1   
 44  21  23  1   
 45  22  44  1   
 46  22  45  1   
 47  22  46  1   
 48  23  24  1   
 49  24  47  1   
 50  24  48  1   
 51  24  49  1   
@<TRIPOS>SUBSTRUCTURE
  1 ****  10 GROUP 4 **** **** 0

# MOE 2024.06 (io_trps.svl 2023.06)
