@<TRIPOS>MOLECULE
NONAME
47 50 1 0 0 
SMALL
USER_CHARGES


@<TRIPOS>ATOM
  1 F       -0.8780    -0.6370    -2.3810 F     1 <1>  -0.3400 
  2 C       -2.0660    -1.2050    -2.1790 C.3   1 <1>   1.1640 
  3 F       -2.9400    -0.2030    -2.1430 F     1 <1>  -0.3400 
  4 F       -2.3290    -1.8890    -3.2880 F     1 <1>  -0.3400 
  5 C       -2.1030    -2.0880    -0.9020 C.ar  1 <1>   0.1660 
  6 N       -3.2280    -2.6960    -0.5570 N.ar  1 <1>  -0.6200 
  7 C       -0.9710    -2.2450    -0.1250 C.ar  1 <1>  -0.1500 
  8 C       -3.2200    -3.4430     0.5440 C.ar  1 <1>   0.7200 
  9 C       -1.0590    -3.0380     0.9920 C.ar  1 <1>   0.1600 
 10 N       -2.1680    -3.6390     1.3330 N.ar  1 <1>  -0.6200 
 11 N       -4.3990    -4.0680     0.8880 N.pl3 1 <1>  -0.8380 
 12 C       -5.7090    -3.7620     0.2500 C.3   1 <1>   0.2090 
 13 C       -4.4740    -5.1930     1.8620 C.3   1 <1>   0.2090 
 14 C       -6.1720    -4.9950    -0.5240 C.3   1 <1>  -0.1600 
 15 C       -4.9290    -6.4500     1.1210 C.3   1 <1>  -0.1600 
 16 C       -6.2600    -6.2330     0.3850 C.3   1 <1>   0.4240 
 17 O       -7.2030    -5.9670     1.4000 O.3   1 <1>  -0.5600 
 18 C       -6.6360    -7.4940    -0.4260 C.ar  1 <1>  -0.1430 
 19 C       -8.5470    -6.1800     1.1030 C.3   1 <1>   0.1200 
 20 C       -7.8240    -8.1780    -0.1890 C.ar  1 <1>  -0.1430 
 21 C       -5.7870    -7.9660    -1.4220 C.ar  1 <1>  -0.1500 
 22 C       -8.7710    -7.6720     0.8810 C.3   1 <1>  -0.0170 
 23 C       -8.1470    -9.3110    -0.9190 C.ar  1 <1>  -0.1500 
 24 C       -6.1100    -9.0930    -2.1540 C.ar  1 <1>  -0.1500 
 25 C       -7.2880    -9.7760    -1.9090 C.ar  1 <1>   0.0820 
 26 O       -7.5290   -10.8740    -2.6690 O.3   1 <1>  -0.3630 
 27 C       -8.6900   -11.6520    -2.4840 C.3   1 <1>   0.0400 
 28 H       -0.0380    -1.7700    -0.3670 H     1 <1>   0.1500 
 29 H       -0.1960    -3.1820     1.6200 H     1 <1>   0.1500 
 30 H       -5.6410    -2.9180    -0.4130 H     1 <1>   0.0800 
 31 H       -6.4240    -3.5180     1.0170 H     1 <1>   0.0800 
 32 H       -5.1790    -4.9430     2.6360 H     1 <1>   0.0800 
 33 H       -3.5240    -5.3800     2.3300 H     1 <1>   0.0800 
 34 H       -5.4650    -5.1730    -1.3110 H     1 <1>   0.0800 
 35 H       -7.1200    -4.8050    -0.9870 H     1 <1>   0.0800 
 36 H       -5.0370    -7.2640     1.8130 H     1 <1>   0.0800 
 37 H       -4.1580    -6.7170     0.4240 H     1 <1>   0.0800 
 38 H       -8.8130    -5.6130     0.2280 H     1 <1>   0.0800 
 39 H       -9.1280    -5.8320     1.9390 H     1 <1>   0.0800 
 40 H       -4.8640    -7.4580    -1.6390 H     1 <1>   0.1500 
 41 H       -9.7910    -7.8360     0.5840 H     1 <1>   0.0800 
 42 H       -8.5950    -8.2010     1.8010 H     1 <1>   0.0800 
 43 H       -9.0680    -9.8190    -0.7090 H     1 <1>   0.1500 
 44 H       -5.4490    -9.4530    -2.9210 H     1 <1>   0.1500 
 45 H       -8.6600   -12.4670    -3.1850 H     1 <1>   0.0800 
 46 H       -9.5540   -11.0400    -2.6720 H     1 <1>   0.0800 
 47 H       -8.6970   -12.0350    -1.4790 H     1 <1>   0.0800 
@<TRIPOS>BOND
  1   1   2  1   
  2   2   3  1   
  3   2   4  1   
  4   2   5  1   
  5   5   6  ar  
  6   5   7  ar  
  7   6   8  ar  
  8   7   9  ar  
  9   7  28  1   
 10   8  10  ar  
 11   8  11  1   
 12   9  10  ar  
 13   9  29  1   
 14  11  12  1   
 15  11  13  1   
 16  12  14  1   
 17  12  30  1   
 18  12  31  1   
 19  13  15  1   
 20  13  32  1   
 21  13  33  1   
 22  14  16  1   
 23  14  34  1   
 24  14  35  1   
 25  15  16  1   
 26  15  36  1   
 27  15  37  1   
 28  16  17  1   
 29  16  18  1   
 30  17  19  1   
 31  18  20  ar  
 32  18  21  ar  
 33  19  22  1   
 34  19  38  1   
 35  19  39  1   
 36  20  22  1   
 37  20  23  ar  
 38  21  24  ar  
 39  21  40  1   
 40  22  41  1   
 41  22  42  1   
 42  23  25  ar  
 43  23  43  1   
 44  24  25  ar  
 45  24  44  1   
 46  25  26  1   
 47  26  27  1   
 48  27  45  1   
 49  27  46  1   
 50  27  47  1   
@<TRIPOS>SUBSTRUCTURE
  1 ****  14 GROUP 4 **** **** 0

# MOE 2024.06 (io_trps.svl 2023.06)
