@<TRIPOS>MOLECULE
NONAME
50 53 1 0 0 
SMALL
USER_CHARGES


@<TRIPOS>ATOM
  1 S       -3.8560     1.2800     0.8680 S.3   1 <1>  -0.0800 
  2 C       -3.3000     1.1250    -0.7840 C.2   1 <1>   0.1980 
  3 C       -3.4980    -0.4030     1.1140 C.2   1 <1>  -0.1100 
  4 N       -2.9040    -0.0420    -1.0980 N.2   1 <1>  -0.5650 
  5 C       -3.3430     2.3620    -1.6500 C.3   1 <1>  -0.0600 
  6 C       -3.0110    -0.9170    -0.0280 C.2   1 <1>   0.0460 
  7 C       -2.5700    -2.3500    -0.2720 C.3   1 <1>   0.0820 
  8 C       -3.0660    -3.3090     0.7970 C.2   1 <1>   0.5690 
  9 O       -2.2400    -3.7690     1.5520 O.2   1 <1>  -0.5700 
 10 N       -4.3970    -3.6480     0.8950 N.am  1 <1>  -0.6600 
 11 C       -5.4910    -3.1160     0.0320 C.3   1 <1>   0.1400 
 12 C       -4.8840    -4.5960     1.9370 C.3   1 <1>   0.1400 
 13 C       -6.1810    -4.2840    -0.6750 C.3   1 <1>  -0.1600 
 14 C       -5.5780    -5.7790     1.2580 C.3   1 <1>  -0.1600 
 15 C       -6.7120    -5.3250     0.3270 C.3   1 <1>   0.4240 
 16 O       -7.6450    -4.6860     1.1670 O.3   1 <1>  -0.5600 
 17 C       -7.3310    -6.5380    -0.4010 C.ar  1 <1>  -0.1430 
 18 C       -8.9560    -4.5730     0.7070 C.3   1 <1>   0.1200 
 19 C       -8.6820    -6.8440    -0.2700 C.ar  1 <1>  -0.1430 
 20 C       -6.5450    -7.3490    -1.2130 C.ar  1 <1>  -0.1500 
 21 C       -9.5620    -5.9680     0.6000 C.3   1 <1>  -0.0170 
 22 C       -9.2280    -7.9370    -0.9250 C.ar  1 <1>  -0.1500 
 23 C       -7.0890    -8.4370    -1.8700 C.ar  1 <1>  -0.1500 
 24 C       -8.4310    -8.7420    -1.7310 C.ar  1 <1>   0.0830 
 25 O       -8.8860    -9.8270    -2.4060 O.3   1 <1>  -0.3630 
 26 C      -10.2320   -10.2360    -2.3150 C.3   1 <1>   0.0400 
 27 H       -3.6880    -0.8270     2.0840 H     1 <1>   0.1500 
 28 H       -2.7280     3.1290    -1.2190 H     1 <1>   0.0800 
 29 H       -4.3540     2.7170    -1.7280 H     1 <1>   0.0800 
 30 H       -2.9760     2.1290    -2.6330 H     1 <1>   0.0800 
 31 H       -1.4960    -2.3770    -0.3020 H     1 <1>   0.0800 
 32 H       -2.9270    -2.6810    -1.2280 H     1 <1>   0.0800 
 33 H       -5.1190    -2.4240    -0.7010 H     1 <1>   0.0800 
 34 H       -6.2000    -2.5910     0.6500 H     1 <1>   0.0800 
 35 H       -5.5750    -4.0850     2.5850 H     1 <1>   0.0800 
 36 H       -4.0680    -4.9560     2.5410 H     1 <1>   0.0800 
 37 H       -5.4690    -4.7470    -1.3320 H     1 <1>   0.0800 
 38 H       -6.9840    -3.9210    -1.2880 H     1 <1>   0.0800 
 39 H       -5.9790    -6.4420     2.0020 H     1 <1>   0.0800 
 40 H       -4.8370    -6.3260     0.7060 H     1 <1>   0.0800 
 41 H       -8.9570    -4.0750    -0.2470 H     1 <1>   0.0800 
 42 H       -9.5040    -3.9780     1.4160 H     1 <1>   0.0800 
 43 H       -5.4980    -7.1420    -1.3450 H     1 <1>   0.1500 
 44 H      -10.5480    -5.8940     0.1780 H     1 <1>   0.0800 
 45 H       -9.6440    -6.3990     1.5810 H     1 <1>   0.0800 
 46 H      -10.2720    -8.1490    -0.7990 H     1 <1>   0.1500 
 47 H       -6.4750    -9.0610    -2.4940 H     1 <1>   0.1500 
 48 H      -10.3550   -11.1150    -2.9210 H     1 <1>   0.0800 
 49 H      -10.8620    -9.4460    -2.6840 H     1 <1>   0.0800 
 50 H      -10.4590   -10.4640    -1.2890 H     1 <1>   0.0800 
@<TRIPOS>BOND
  1   1   2  1   
  2   1   3  1   
  3   2   4  2   
  4   2   5  1   
  5   3   6  2   
  6   3  27  1   
  7   4   6  1   
  8   5  28  1   
  9   5  29  1   
 10   5  30  1   
 11   6   7  1   
 12   7   8  1   
 13   7  31  1   
 14   7  32  1   
 15   8   9  2   
 16   8  10  am  
 17  10  11  1   
 18  10  12  1   
 19  11  13  1   
 20  11  33  1   
 21  11  34  1   
 22  12  14  1   
 23  12  35  1   
 24  12  36  1   
 25  13  15  1   
 26  13  37  1   
 27  13  38  1   
 28  14  15  1   
 29  14  39  1   
 30  14  40  1   
 31  15  16  1   
 32  15  17  1   
 33  16  18  1   
 34  17  19  ar  
 35  17  20  ar  
 36  18  21  1   
 37  18  41  1   
 38  18  42  1   
 39  19  21  1   
 40  19  22  ar  
 41  20  23  ar  
 42  20  43  1   
 43  21  44  1   
 44  21  45  1   
 45  22  24  ar  
 46  22  46  1   
 47  23  24  ar  
 48  23  47  1   
 49  24  25  1   
 50  25  26  1   
 51  26  48  1   
 52  26  49  1   
 53  26  50  1   
@<TRIPOS>SUBSTRUCTURE
  1 ****  13 GROUP 4 **** **** 0

# MOE 2024.06 (io_trps.svl 2023.06)
