@<TRIPOS>MOLECULE
NONAME
50 53 1 0 0 
SMALL
USER_CHARGES


@<TRIPOS>ATOM
  1 O       -0.5020    -0.3450     0.5180 O.2   1 <1>  -0.5700 
  2 C       -1.4500     0.3730     0.2900 C.2   1 <1>   0.5690 
  3 N       -2.7110    -0.1080     0.4580 N.am  1 <1>  -0.5470 
  4 C       -1.2570     1.8550    -0.1620 C.3   1 <1>   0.4300 
  5 C       -3.8690     0.6370     0.1870 C.ar  1 <1>   0.1170 
  6 N       -2.5080     2.4420    -0.7560 N.pl3 1 <1>  -0.8690 
  7 C       -0.1750     1.9620    -1.2580 C.3   1 <1>  -0.1600 
  8 C       -0.9140     2.6990     1.0810 C.3   1 <1>  -0.1600 
  9 C       -3.7550     1.9050    -0.4080 C.ar  1 <1>   0.1000 
 10 C       -5.1210     0.1350     0.5060 C.ar  1 <1>  -0.1500 
 11 C        1.1810     2.3540    -0.6830 C.3   1 <1>   0.2090 
 12 C       -0.1970     3.9910     0.7100 C.3   1 <1>   0.2090 
 13 C       -4.9060     2.6350    -0.6620 C.ar  1 <1>  -0.1500 
 14 C       -6.2610     0.8770     0.2460 C.ar  1 <1>  -0.1500 
 15 N        1.0680     3.6840    -0.0150 N.pl3 1 <1>  -0.8380 
 16 C       -6.1530     2.1270    -0.3370 C.ar  1 <1>  -0.1500 
 17 C        2.1920     4.4950     0.0850 C.ar  1 <1>   0.4100 
 18 N        3.3290     3.8240     0.2610 N.ar  1 <1>  -0.6200 
 19 C        2.1440     5.9040     0.0230 C.ar  1 <1>   0.0860 
 20 C        4.4450     4.5110     0.3830 C.ar  1 <1>   0.1670 
 21 C        0.9270     6.6500    -0.1640 C.2   1 <1>   0.5440 
 22 C        3.3370     6.5990     0.1530 C.ar  1 <1>  -0.1500 
 23 C        4.5090     5.8990     0.3350 C.ar  1 <1>  -0.1430 
 24 C        5.6960     3.6750     0.5800 C.3   1 <1>  -0.0970 
 25 O        0.2510     6.5840    -1.1680 O.2   1 <1>  -0.5700 
 26 N        0.4870     7.5050     0.7910 N.am  1 <1>  -0.8000 
 27 C        5.8210     6.6610     0.4690 C.3   1 <1>  -0.0970 
 28 H       -2.7850    -1.0750     0.7660 H     1 <1>   0.3700 
 29 H       -2.4530     3.4540    -0.9000 H     1 <1>   0.4000 
 30 H       -0.4420     2.7060    -1.9870 H     1 <1>   0.0800 
 31 H       -0.0830     1.0230    -1.7730 H     1 <1>   0.0800 
 32 H       -0.2620     2.1410     1.7300 H     1 <1>   0.0800 
 33 H       -1.8080     2.9130     1.6380 H     1 <1>   0.0800 
 34 H       -5.2100    -0.8350     0.9590 H     1 <1>   0.1500 
 35 H        1.9090     2.4100    -1.4750 H     1 <1>   0.0800 
 36 H        1.5170     1.6200     0.0320 H     1 <1>   0.0800 
 37 H        0.0260     4.5520     1.6010 H     1 <1>   0.0800 
 38 H       -0.8330     4.5870     0.0780 H     1 <1>   0.0800 
 39 H       -4.8260     3.6020    -1.1230 H     1 <1>   0.1500 
 40 H       -7.2310     0.4820     0.4970 H     1 <1>   0.1500 
 41 H       -7.0380     2.7050    -0.5410 H     1 <1>   0.1500 
 42 H        3.3350     7.6740     0.1020 H     1 <1>   0.1500 
 43 H        5.4320     2.6570     0.8060 H     1 <1>   0.0800 
 44 H        6.2820     4.0570     1.3950 H     1 <1>   0.0800 
 45 H        6.2820     3.6840    -0.3190 H     1 <1>   0.0800 
 46 H       -0.3590     8.0470     0.6150 H     1 <1>   0.3700 
 47 H        0.9600     7.6500     1.6820 H     1 <1>   0.3700 
 48 H        6.5370     6.2950    -0.2450 H     1 <1>   0.0800 
 49 H        6.2200     6.5380     1.4600 H     1 <1>   0.0800 
 50 H        5.6780     7.7120     0.2900 H     1 <1>   0.0800 
@<TRIPOS>BOND
  1   1   2  2   
  2   2   3  am  
  3   2   4  1   
  4   3   5  1   
  5   3  28  1   
  6   4   6  1   
  7   4   7  1   
  8   4   8  1   
  9   5   9  ar  
 10   5  10  ar  
 11   6   9  1   
 12   6  29  1   
 13   7  11  1   
 14   7  30  1   
 15   7  31  1   
 16   8  12  1   
 17   8  32  1   
 18   8  33  1   
 19   9  13  ar  
 20  10  14  ar  
 21  10  34  1   
 22  11  15  1   
 23  11  35  1   
 24  11  36  1   
 25  12  15  1   
 26  12  37  1   
 27  12  38  1   
 28  13  16  ar  
 29  13  39  1   
 30  14  16  ar  
 31  14  40  1   
 32  15  17  1   
 33  16  41  1   
 34  17  18  ar  
 35  17  19  ar  
 36  18  20  ar  
 37  19  21  1   
 38  19  22  ar  
 39  20  23  ar  
 40  20  24  1   
 41  21  25  2   
 42  21  26  am  
 43  22  23  ar  
 44  22  42  1   
 45  23  27  1   
 46  24  43  1   
 47  24  44  1   
 48  24  45  1   
 49  26  46  1   
 50  26  47  1   
 51  27  48  1   
 52  27  49  1   
 53  27  50  1   
@<TRIPOS>SUBSTRUCTURE
  1 ****  12 GROUP 4 **** **** 0

# MOE 2024.06 (io_trps.svl 2023.06)
