@<TRIPOS>MOLECULE
NONAME
52 55 1 0 0 
SMALL
USER_CHARGES


@<TRIPOS>ATOM
  1 O        0.0120    -0.7310    -0.2010 O.3   1 <1>  -0.5600 
  2 C        0.7090    -1.5710    -1.0780 C.3   1 <1>   0.1200 
  3 C       -1.1400    -1.3210     0.3350 C.3   1 <1>   0.1200 
  4 C        1.1780    -2.8540    -0.3680 C.3   1 <1>   0.2090 
  5 C       -0.7940    -2.5860     1.1400 C.3   1 <1>   0.2090 
  6 N        0.0390    -3.5310     0.3300 N.pl3 1 <1>  -0.8380 
  7 C       -0.0540    -4.8990     0.4520 C.ar  1 <1>   0.7200 
  8 N       -1.0490    -5.3810     1.1960 N.ar  1 <1>  -0.6200 
  9 N        0.8530    -5.6360    -0.1870 N.ar  1 <1>  -0.6200 
 10 C       -1.1350    -6.6810     1.2980 C.ar  1 <1>   0.1600 
 11 C        0.7480    -6.9330    -0.0720 C.ar  1 <1>   0.1600 
 12 C       -0.2560    -7.5230     0.6580 C.ar  1 <1>  -0.1430 
 13 C       -0.4090    -9.0210     0.7550 C.3   1 <1>   0.4860 
 14 N       -0.9760    -9.5650    -0.5200 N.4   1 <1>  -0.9590 
 15 C       -2.3100    -8.9490    -0.8410 C.3   1 <1>   0.3430 
 16 C       -1.2240   -11.0380    -0.3830 C.3   1 <1>   0.3430 
 17 C       -3.3500    -9.8800    -0.2160 C.3   1 <1>   0.2000 
 18 C       -2.7410   -11.2560    -0.4880 C.3   1 <1>  -0.0800 
 19 O       -3.3870    -9.6370     1.1560 O.3   1 <1>  -0.6800 
 20 C       -3.2460   -12.4160     0.3910 C.3   1 <1>  -0.0170 
 21 C       -2.4620   -13.6830     0.0870 C.ar  1 <1>  -0.1430 
 22 C       -2.6270   -14.3740    -1.0980 C.ar  1 <1>  -0.1500 
 23 C       -1.5430   -14.2050     0.9760 C.ar  1 <1>  -0.1500 
 24 C       -1.8690   -15.5080    -1.3390 C.ar  1 <1>   0.1600 
 25 C       -0.8380   -15.3490     0.6380 C.ar  1 <1>   0.1600 
 26 N       -0.9710   -16.0020    -0.5030 N.ar  1 <1>  -0.6200 
 27 H        0.0660    -1.8170    -1.9050 H     1 <1>   0.0800 
 28 H        1.5570    -1.0250    -1.4510 H     1 <1>   0.0800 
 29 H       -1.6140    -0.5960     0.9710 H     1 <1>   0.0800 
 30 H       -1.8090    -1.5650    -0.4720 H     1 <1>   0.0800 
 31 H        1.9340    -2.6020     0.3540 H     1 <1>   0.0800 
 32 H        1.6220    -3.5030    -1.1010 H     1 <1>   0.0800 
 33 H       -1.7120    -3.0490     1.4540 H     1 <1>   0.0800 
 34 H       -0.2470    -2.3030     2.0230 H     1 <1>   0.0800 
 35 H       -1.9360    -7.0770     1.9020 H     1 <1>   0.1500 
 36 H        1.4860    -7.5300    -0.5820 H     1 <1>   0.1500 
 37 H       -1.0650    -9.2590     1.5770 H     1 <1>   0.0800 
 38 H        0.5520    -9.4680     0.9530 H     1 <1>   0.0800 
 39 H       -0.3170    -9.3710    -1.2850 H     1 <1>   0.4500 
 40 H       -2.4110    -7.9420    -0.4720 H     1 <1>   0.0800 
 41 H       -2.4500    -8.9400    -1.9100 H     1 <1>   0.0800 
 42 H       -0.7140   -11.5940    -1.1530 H     1 <1>   0.0800 
 43 H       -0.8780   -11.3850     0.5770 H     1 <1>   0.0800 
 44 H       -4.3350    -9.7420    -0.6300 H     1 <1>   0.0800 
 45 H       -2.9480   -11.5070    -1.5140 H     1 <1>   0.0800 
 46 H       -4.2200    -9.9780     1.5510 H     1 <1>   0.4000 
 47 H       -4.2920   -12.5920     0.2030 H     1 <1>   0.0800 
 48 H       -3.1380   -12.1810     1.4360 H     1 <1>   0.0800 
 49 H       -3.3370   -14.0530    -1.8380 H     1 <1>   0.1500 
 50 H       -1.3670   -13.7470     1.9320 H     1 <1>   0.1500 
 51 H       -2.0080   -16.0380    -2.2670 H     1 <1>   0.1500 
 52 H       -0.1270   -15.7480     1.3420 H     1 <1>   0.1500 
@<TRIPOS>BOND
  1   1   2  1   
  2   1   3  1   
  3   2   4  1   
  4   2  27  1   
  5   2  28  1   
  6   3   5  1   
  7   3  29  1   
  8   3  30  1   
  9   4   6  1   
 10   4  31  1   
 11   4  32  1   
 12   5   6  1   
 13   5  33  1   
 14   5  34  1   
 15   6   7  1   
 16   7   8  ar  
 17   7   9  ar  
 18   8  10  ar  
 19   9  11  ar  
 20  10  12  ar  
 21  10  35  1   
 22  11  12  ar  
 23  11  36  1   
 24  12  13  1   
 25  13  14  1   
 26  13  37  1   
 27  13  38  1   
 28  14  15  1   
 29  14  16  1   
 30  14  39  1   
 31  15  17  1   
 32  15  40  1   
 33  15  41  1   
 34  16  18  1   
 35  16  42  1   
 36  16  43  1   
 37  17  18  1   
 38  17  19  1   
 39  17  44  1   
 40  18  20  1   
 41  18  45  1   
 42  19  46  1   
 43  20  21  1   
 44  20  47  1   
 45  20  48  1   
 46  21  22  ar  
 47  21  23  ar  
 48  22  24  ar  
 49  22  49  1   
 50  23  25  ar  
 51  23  50  1   
 52  24  26  ar  
 53  24  51  1   
 54  25  26  ar  
 55  25  52  1   
@<TRIPOS>SUBSTRUCTURE
  1 ****  13 GROUP 4 **** **** 0

# MOE 2024.06 (io_trps.svl 2023.06)
