@<TRIPOS>MOLECULE
NONAME
60 62 1 0 0 
SMALL
USER_CHARGES


@<TRIPOS>ATOM
  1 O       -0.8900     4.5170     3.5680 O.2   1 <1>  -0.5700 
  2 C       -1.1750     4.5630     2.3930 C.2   1 <1>   0.5690 
  3 N       -2.2820     3.9010     1.8990 N.am  1 <1>  -0.6600 
  4 C       -0.2540     5.4030     1.5100 C.3   1 <1>   0.0440 
  5 C       -2.6870     3.9480     0.4600 C.3   1 <1>   0.2200 
  6 C       -3.1090     3.0710     2.8320 C.3   1 <1>   0.0600 
  7 C        0.4330     4.6070     0.4040 C.ar  1 <1>  -0.1440 
  8 C       -4.1800     4.1500     0.2170 C.3   1 <1>  -0.1600 
  9 C       -2.3740     2.6570    -0.2870 C.3   1 <1>  -0.1600 
 10 C        1.0770     3.4160     0.6970 C.ar  1 <1>  -0.1500 
 11 C        0.4150     5.0590    -0.9070 C.ar  1 <1>  -0.1500 
 12 C       -4.3900     3.6950    -1.2360 C.3   1 <1>  -0.0800 
 13 C       -3.2280     2.7400    -1.5600 C.3   1 <1>  -0.0800 
 14 C        1.6760     2.6780    -0.3080 C.ar  1 <1>  -0.1500 
 15 C        1.0150     4.3190    -1.9110 C.ar  1 <1>  -0.1500 
 16 C       -5.6830     2.8980    -1.4590 C.3   1 <1>  -0.1600 
 17 C       -3.8540     1.4030    -1.9710 C.3   1 <1>  -0.1600 
 18 C        1.6470     3.1190    -1.6230 C.ar  1 <1>  -0.1430 
 19 C       -5.2530     1.4340    -1.3630 C.3   1 <1>   0.4230 
 20 C        2.2960     2.3100    -2.7450 C.3   1 <1>   0.0630 
 21 N       -6.1920     0.4620    -2.0050 N.4   1 <1>  -0.9590 
 22 C        1.6090     0.9490    -2.8990 C.3   1 <1>  -0.2400 
 23 C        3.7980     2.1390    -2.5020 C.3   1 <1>  -0.2400 
 24 C       -6.4780     0.7080    -3.4580 C.3   1 <1>   0.2630 
 25 C       -7.4730     0.3790    -1.2390 C.3   1 <1>   0.2630 
 26 H       -0.8260     6.2120     1.0980 H     1 <1>   0.0800 
 27 H        0.5080     5.8390     2.1310 H     1 <1>   0.0800 
 28 H       -2.1800     4.7520    -0.0410 H     1 <1>   0.0800 
 29 H       -3.4380     2.1700     2.3510 H     1 <1>   0.0800 
 30 H       -3.9630     3.6380     3.1560 H     1 <1>   0.0800 
 31 H       -2.5380     2.7920     3.7010 H     1 <1>   0.0800 
 32 H       -4.7610     3.5360     0.8790 H     1 <1>   0.0800 
 33 H       -4.4570     5.1810     0.3510 H     1 <1>   0.0800 
 34 H       -1.3290     2.5850    -0.5280 H     1 <1>   0.0800 
 35 H       -2.6560     1.8090     0.3080 H     1 <1>   0.0800 
 36 H        1.1100     3.0550     1.7110 H     1 <1>   0.1500 
 37 H       -0.0650     5.9880    -1.1570 H     1 <1>   0.1500 
 38 H       -4.3540     4.5530    -1.8880 H     1 <1>   0.0800 
 39 H       -2.6280     3.1430    -2.3610 H     1 <1>   0.0800 
 40 H        2.1650     1.7540    -0.0570 H     1 <1>   0.1500 
 41 H        0.9870     4.6870    -2.9210 H     1 <1>   0.1500 
 42 H       -6.0460     3.1320    -2.4430 H     1 <1>   0.0800 
 43 H       -6.4370     3.1480    -0.7340 H     1 <1>   0.0800 
 44 H       -3.2790     0.5650    -1.6170 H     1 <1>   0.0800 
 45 H       -3.8960     1.3760    -3.0440 H     1 <1>   0.0800 
 46 H       -5.1520     1.1920    -0.3160 H     1 <1>   0.0800 
 47 H        2.1740     2.8460    -3.6720 H     1 <1>   0.0800 
 48 H       -5.7310    -0.4580    -1.9380 H     1 <1>   0.4500 
 49 H        1.7410     0.3530    -2.0140 H     1 <1>   0.0800 
 50 H        2.0220     0.4170    -3.7370 H     1 <1>   0.0800 
 51 H        0.5570     1.0890    -3.0650 H     1 <1>   0.0800 
 52 H        3.9800     1.5610    -1.6140 H     1 <1>   0.0800 
 53 H        4.2600     3.1030    -2.3830 H     1 <1>   0.0800 
 54 H        4.2560     1.6400    -3.3370 H     1 <1>   0.0800 
 55 H       -6.9800     1.6530    -3.5900 H     1 <1>   0.0800 
 56 H       -7.1120    -0.0710    -3.8490 H     1 <1>   0.0800 
 57 H       -5.5650     0.7190    -4.0310 H     1 <1>   0.0800 
 58 H       -7.9990     1.3200    -1.2850 H     1 <1>   0.0800 
 59 H       -7.2780     0.1440    -0.2050 H     1 <1>   0.0800 
 60 H       -8.1080    -0.3890    -1.6510 H     1 <1>   0.0800 
@<TRIPOS>BOND
  1   1   2  2   
  2   2   3  am  
  3   2   4  1   
  4   3   5  1   
  5   3   6  1   
  6   4   7  1   
  7   4  26  1   
  8   4  27  1   
  9   5   8  1   
 10   5   9  1   
 11   5  28  1   
 12   6  29  1   
 13   6  30  1   
 14   6  31  1   
 15   7  10  ar  
 16   7  11  ar  
 17   8  12  1   
 18   8  32  1   
 19   8  33  1   
 20   9  13  1   
 21   9  34  1   
 22   9  35  1   
 23  10  14  ar  
 24  10  36  1   
 25  11  15  ar  
 26  11  37  1   
 27  12  13  1   
 28  12  16  1   
 29  12  38  1   
 30  13  17  1   
 31  13  39  1   
 32  14  18  ar  
 33  14  40  1   
 34  15  18  ar  
 35  15  41  1   
 36  16  19  1   
 37  16  42  1   
 38  16  43  1   
 39  17  19  1   
 40  17  44  1   
 41  17  45  1   
 42  18  20  1   
 43  19  21  1   
 44  19  46  1   
 45  20  22  1   
 46  20  23  1   
 47  20  47  1   
 48  21  24  1   
 49  21  25  1   
 50  21  48  1   
 51  22  49  1   
 52  22  50  1   
 53  22  51  1   
 54  23  52  1   
 55  23  53  1   
 56  23  54  1   
 57  24  55  1   
 58  24  56  1   
 59  24  57  1   
 60  25  58  1   
 61  25  59  1   
 62  25  60  1   
@<TRIPOS>SUBSTRUCTURE
  1 ****   9 GROUP 4 **** **** 0

# MOE 2024.06 (io_trps.svl 2023.06)
