@<TRIPOS>MOLECULE
NONAME
47 50 1 0 0 
SMALL
USER_CHARGES


@<TRIPOS>ATOM
  1 F        2.4350    -2.6500     1.3140 F     1 <1>  -0.3400 
  2 C        2.5170    -3.8470     0.7430 C.3   1 <1>   1.2000 
  3 F        3.1260    -3.6670    -0.4230 F     1 <1>  -0.3400 
  4 F        3.3540    -4.5480     1.5010 F     1 <1>  -0.3400 
  5 C        1.1370    -4.5230     0.6520 C.2   1 <1>   0.0060 
  6 N        0.5380    -4.9760    -0.4070 N.2   1 <1>  -0.5650 
  7 N        0.4070    -4.6990     1.7880 N.pl3 1 <1>   0.0330 
  8 C       -0.6430    -5.4810     0.0470 C.ar  1 <1>   0.2270 
  9 C       -0.7380    -5.3150     1.4150 C.ar  1 <1>  -0.1520 
 10 C       -1.6700    -6.1010    -0.6540 C.ar  1 <1>  -0.1500 
 11 C       -1.8610    -5.7550     2.1180 C.ar  1 <1>  -0.1500 
 12 C       -2.7890    -6.5690     0.0180 C.ar  1 <1>   0.0860 
 13 C       -2.8680    -6.3720     1.4130 C.ar  1 <1>  -0.1500 
 14 C       -3.8510    -7.2660    -0.6750 C.2   1 <1>   0.5440 
 15 O       -4.6850    -6.6260    -1.2890 O.2   1 <1>  -0.5700 
 16 N       -3.9610    -8.6400    -0.6420 N.am  1 <1>  -0.6600 
 17 C       -2.9170    -9.4980     0.0230 C.3   1 <1>   0.3640 
 18 C       -5.1800    -9.2920    -1.2070 C.3   1 <1>   0.1400 
 19 C       -1.5930    -9.3600    -0.7350 C.ar  1 <1>  -0.1430 
 20 C       -3.2620   -11.0130     0.1730 C.3   1 <1>   0.2000 
 21 C       -5.0480   -10.8120    -1.3260 C.3   1 <1>   0.1200 
 22 C       -1.5400    -9.4710    -2.1190 C.ar  1 <1>  -0.1500 
 23 C       -0.4200    -9.1090    -0.0360 C.ar  1 <1>  -0.1500 
 24 O       -4.5980   -11.3280    -0.1160 O.3   1 <1>  -0.5600 
 25 C       -2.9900   -11.5290     1.5940 C.3   1 <1>   0.1200 
 26 C       -0.3380    -9.3330    -2.7900 C.ar  1 <1>  -0.1500 
 27 C        0.7820    -8.9680    -0.7060 C.ar  1 <1>  -0.1500 
 28 O       -1.6720   -11.2880     1.9740 O.3   1 <1>  -0.6800 
 29 C        0.8240    -9.0810    -2.0840 C.ar  1 <1>  -0.1500 
 30 H        0.6630    -4.4210     2.7410 H     1 <1>   0.2700 
 31 H       -1.5730    -6.2270    -1.7160 H     1 <1>   0.1500 
 32 H       -1.9300    -5.6130     3.1820 H     1 <1>   0.1500 
 33 H       -3.7490    -6.7210     1.9230 H     1 <1>   0.1500 
 34 H       -2.7710    -9.1060     1.0140 H     1 <1>   0.0800 
 35 H       -6.0180    -9.0640    -0.5710 H     1 <1>   0.0800 
 36 H       -5.3880    -8.8790    -2.1790 H     1 <1>   0.0800 
 37 H       -2.6590   -11.5830    -0.5130 H     1 <1>   0.0800 
 38 H       -4.3610   -11.0840    -2.1090 H     1 <1>   0.0800 
 39 H       -6.0070   -11.2500    -1.5370 H     1 <1>   0.0800 
 40 H       -2.4380    -9.6550    -2.6820 H     1 <1>   0.1500 
 41 H       -0.4370    -9.0140     1.0360 H     1 <1>   0.1500 
 42 H       -3.1670   -12.5890     1.6490 H     1 <1>   0.0800 
 43 H       -3.6290   -11.0230     2.2960 H     1 <1>   0.0800 
 44 H       -0.3080    -9.4160    -3.8620 H     1 <1>   0.1500 
 45 H        1.6840    -8.7650    -0.1570 H     1 <1>   0.1500 
 46 H       -1.0510   -11.8260     1.4420 H     1 <1>   0.4000 
 47 H        1.7580    -8.9660    -2.6050 H     1 <1>   0.1500 
@<TRIPOS>BOND
  1   1   2  1   
  2   2   3  1   
  3   2   4  1   
  4   2   5  1   
  5   5   6  2   
  6   5   7  1   
  7   6   8  1   
  8   7   9  1   
  9   7  30  1   
 10   8   9  ar  
 11   8  10  ar  
 12   9  11  ar  
 13  10  12  ar  
 14  10  31  1   
 15  11  13  ar  
 16  11  32  1   
 17  12  13  ar  
 18  12  14  1   
 19  13  33  1   
 20  14  15  2   
 21  14  16  am  
 22  16  17  1   
 23  16  18  1   
 24  17  19  1   
 25  17  20  1   
 26  17  34  1   
 27  18  21  1   
 28  18  35  1   
 29  18  36  1   
 30  19  22  ar  
 31  19  23  ar  
 32  20  24  1   
 33  20  25  1   
 34  20  37  1   
 35  21  24  1   
 36  21  38  1   
 37  21  39  1   
 38  22  26  ar  
 39  22  40  1   
 40  23  27  ar  
 41  23  41  1   
 42  25  28  1   
 43  25  42  1   
 44  25  43  1   
 45  26  29  ar  
 46  26  44  1   
 47  27  29  ar  
 48  27  45  1   
 49  28  46  1   
 50  29  47  1   
@<TRIPOS>SUBSTRUCTURE
  1 ****  10 GROUP 4 **** **** 0

# MOE 2024.06 (io_trps.svl 2023.06)
