@<TRIPOS>MOLECULE
NONAME
54 55 1 0 0 
SMALL
USER_CHARGES


@<TRIPOS>ATOM
  1 N        1.0040    -0.1670    -2.1040 N.pl3 1 <1>   0.3000 
  2 N        0.9540     1.0690    -1.5830 N.2   1 <1>  -0.7070 
  3 C        1.2230    -1.0930    -1.1510 C.2   1 <1>  -0.3320 
  4 C        1.2130     0.9250    -0.3150 C.2   1 <1>   0.1080 
  5 C        1.3860    -0.4210     0.0090 C.2   1 <1>  -0.1500 
  6 C        1.2570    -2.5840    -1.3980 C.3   1 <1>   0.2900 
  7 C        1.3180     2.1130     0.6620 C.3   1 <1>   0.1810 
  8 N       -0.0140    -3.1230    -0.8960 N.3   1 <1>  -0.8100 
  9 C        0.1300     3.0700     0.4670 C.3   1 <1>  -0.2400 
 10 C        1.3270     1.6520     2.1290 C.3   1 <1>  -0.2400 
 11 C        2.6200     2.8740     0.3780 C.3   1 <1>  -0.2400 
 12 C        0.0760    -4.5520    -0.5490 C.3   1 <1>   0.2900 
 13 C       -1.1700    -2.8300    -1.7940 C.3   1 <1>   0.1100 
 14 C       -0.8250    -4.7710     0.6440 C.2   1 <1>  -0.3320 
 15 C       -2.4420    -2.4970    -0.9920 C.3   1 <1>   0.3430 
 16 N       -0.4760    -4.3680     1.8810 N.pl3 1 <1>   0.0330 
 17 C       -2.0380    -5.3570     0.7660 C.2   1 <1>   0.0460 
 18 N       -2.0670    -1.6480     0.1670 N.4   1 <1>  -0.9590 
 19 C       -1.5120    -4.7120     2.6710 C.2   1 <1>   0.0360 
 20 N       -2.4790    -5.2850     2.0330 N.2   1 <1>  -0.5650 
 21 C       -2.8910    -6.0440    -0.2790 C.3   1 <1>  -0.0590 
 22 C       -2.9570    -1.9000     1.3360 C.3   1 <1>   0.2630 
 23 C       -1.9530    -0.1980    -0.1740 C.3   1 <1>   0.2630 
 24 H        0.8870    -0.3330    -3.1120 H     1 <1>   0.2700 
 25 H        1.6020    -0.8240     0.9810 H     1 <1>   0.1500 
 26 H        2.0830    -2.9960    -0.8410 H     1 <1>   0.0800 
 27 H        1.3960    -2.8190    -2.4410 H     1 <1>   0.0800 
 28 H       -0.7970     2.5630     0.6550 H     1 <1>   0.0800 
 29 H        0.1150     3.4410    -0.5430 H     1 <1>   0.0800 
 30 H        0.2050     3.9110     1.1320 H     1 <1>   0.0800 
 31 H        0.4390     1.0900     2.3530 H     1 <1>   0.0800 
 32 H        1.3670     2.5010     2.7880 H     1 <1>   0.0800 
 33 H        2.1880     1.0380     2.3260 H     1 <1>   0.0800 
 34 H        2.6250     3.2300    -0.6370 H     1 <1>   0.0800 
 35 H        3.4670     2.2240     0.5080 H     1 <1>   0.0800 
 36 H        2.7260     3.7160     1.0380 H     1 <1>   0.0800 
 37 H        1.0820    -4.8210    -0.2710 H     1 <1>   0.0800 
 38 H       -0.2140    -5.1730    -1.3800 H     1 <1>   0.0800 
 39 H       -1.3630    -3.6570    -2.4570 H     1 <1>   0.0800 
 40 H       -0.9530    -1.9790    -2.4130 H     1 <1>   0.0800 
 41 H       -2.8680    -3.4190    -0.6350 H     1 <1>   0.0800 
 42 H       -3.1730    -2.0050    -1.6130 H     1 <1>   0.0800 
 43 H        0.4000    -3.9210     2.1690 H     1 <1>   0.2700 
 44 H       -1.1080    -2.0070     0.3670 H     1 <1>   0.4500 
 45 H       -1.5150    -4.5220     3.7310 H     1 <1>   0.1500 
 46 H       -2.4250    -6.0090    -1.2440 H     1 <1>   0.0800 
 47 H       -3.8560    -5.5740    -0.3300 H     1 <1>   0.0800 
 48 H       -3.0300    -7.0730     0.0010 H     1 <1>   0.0800 
 49 H       -3.9540    -1.5440     1.1320 H     1 <1>   0.0800 
 50 H       -2.5790    -1.3960     2.2100 H     1 <1>   0.0800 
 51 H       -3.0080    -2.9570     1.5440 H     1 <1>   0.0800 
 52 H       -2.9180     0.2070    -0.4300 H     1 <1>   0.0800 
 53 H       -1.2860    -0.0610    -1.0090 H     1 <1>   0.0800 
 54 H       -1.5550     0.3500     0.6630 H     1 <1>   0.0800 
@<TRIPOS>BOND
  1   1   2  1   
  2   1   3  1   
  3   1  24  1   
  4   2   4  2   
  5   3   5  2   
  6   3   6  1   
  7   4   5  1   
  8   4   7  1   
  9   5  25  1   
 10   6   8  1   
 11   6  26  1   
 12   6  27  1   
 13   7   9  1   
 14   7  10  1   
 15   7  11  1   
 16   8  12  1   
 17   8  13  1   
 18   9  28  1   
 19   9  29  1   
 20   9  30  1   
 21  10  31  1   
 22  10  32  1   
 23  10  33  1   
 24  11  34  1   
 25  11  35  1   
 26  11  36  1   
 27  12  14  1   
 28  12  37  1   
 29  12  38  1   
 30  13  15  1   
 31  13  39  1   
 32  13  40  1   
 33  14  16  1   
 34  14  17  2   
 35  15  18  1   
 36  15  41  1   
 37  15  42  1   
 38  16  19  1   
 39  16  43  1   
 40  17  20  1   
 41  17  21  1   
 42  18  22  1   
 43  18  23  1   
 44  18  44  1   
 45  19  20  2   
 46  19  45  1   
 47  21  46  1   
 48  21  47  1   
 49  21  48  1   
 50  22  49  1   
 51  22  50  1   
 52  22  51  1   
 53  23  52  1   
 54  23  53  1   
 55  23  54  1   
@<TRIPOS>SUBSTRUCTURE
  1 ****  18 GROUP 4 **** **** 0

# MOE 2024.06 (io_trps.svl 2023.06)
