@<TRIPOS>MOLECULE
NONAME
39 42 1 0 0 
SMALL
USER_CHARGES


@<TRIPOS>ATOM
  1 S        0.3400    -0.0610    -0.3150 S.3   1 <1>  -0.0800 
  2 C        0.1000    -1.7890    -0.0570 C.ar  1 <1>   0.2970 
  3 C       -1.2420     0.0960    -1.0830 C.2   1 <1>  -0.1100 
  4 N        0.9950    -2.5690     0.5070 N.ar  1 <1>  -0.5670 
  5 C       -1.1290    -2.1750    -0.5280 C.ar  1 <1>   0.0000 
  6 C       -1.8730    -1.0910    -1.1170 C.2   1 <1>  -0.1500 
  7 C        0.5990    -3.8250     0.5850 C.ar  1 <1>   0.4770 
  8 C       -1.4260    -3.5270    -0.3640 C.ar  1 <1>   0.4100 
  9 N       -0.5510    -4.3520     0.1860 N.ar  1 <1>  -0.6200 
 10 C        1.5720    -4.7940     1.2120 C.3   1 <1>  -0.0960 
 11 N       -2.6410    -4.0520    -0.7460 N.pl3 1 <1>  -0.8380 
 12 C       -2.7220    -5.4450    -1.2850 C.3   1 <1>   0.2090 
 13 C       -3.8790    -3.6160    -0.0290 C.3   1 <1>   0.2090 
 14 C       -3.1380    -6.4530    -0.1970 C.3   1 <1>   0.1400 
 15 C       -4.2650    -4.6250     1.0650 C.3   1 <1>   0.1400 
 16 N       -4.3830    -6.0080     0.5050 N.am  1 <1>  -0.6600 
 17 C       -5.6120    -6.5980     0.3020 C.2   1 <1>   0.7150 
 18 O       -6.6030    -5.8900     0.3330 O.2   1 <1>  -0.5700 
 19 C       -5.7330    -8.0160     0.0610 C.2   1 <1>  -0.0450 
 20 S       -7.0770    -8.5970    -0.9300 S.3   1 <1>  -0.0800 
 21 C       -4.9960    -9.0870     0.4560 C.2   1 <1>  -0.1500 
 22 C       -6.5710   -10.2650    -0.7720 C.2   1 <1>  -0.1100 
 23 C       -5.4630   -10.3490    -0.0140 C.2   1 <1>  -0.1500 
 24 H       -1.5230     1.0750    -1.4310 H     1 <1>   0.1500 
 25 H       -2.8440    -1.2760    -1.5400 H     1 <1>   0.1500 
 26 H        2.5040    -4.3070     1.4340 H     1 <1>   0.0800 
 27 H        1.7570    -5.6060     0.5340 H     1 <1>   0.0800 
 28 H        1.1540    -5.1810     2.1210 H     1 <1>   0.0800 
 29 H       -1.7690    -5.7330    -1.6940 H     1 <1>   0.0800 
 30 H       -3.4410    -5.4690    -2.0850 H     1 <1>   0.0800 
 31 H       -4.6880    -3.5290    -0.7330 H     1 <1>   0.0800 
 32 H       -3.7240    -2.6520     0.4230 H     1 <1>   0.0800 
 33 H       -2.3400    -6.5410     0.5200 H     1 <1>   0.0800 
 34 H       -3.2790    -7.4130    -0.6590 H     1 <1>   0.0800 
 35 H       -5.1910    -4.3220     1.5220 H     1 <1>   0.0800 
 36 H       -3.5060    -4.6200     1.8280 H     1 <1>   0.0800 
 37 H       -4.1230    -9.0260     1.0830 H     1 <1>   0.1500 
 38 H       -7.1640   -11.0130    -1.2670 H     1 <1>   0.1500 
 39 H       -4.9520   -11.2620     0.2390 H     1 <1>   0.1500 
@<TRIPOS>BOND
  1   1   2  1   
  2   1   3  1   
  3   2   4  ar  
  4   2   5  ar  
  5   3   6  2   
  6   3  24  1   
  7   4   7  ar  
  8   5   6  1   
  9   5   8  ar  
 10   6  25  1   
 11   7   9  ar  
 12   7  10  1   
 13   8   9  ar  
 14   8  11  1   
 15  10  26  1   
 16  10  27  1   
 17  10  28  1   
 18  11  12  1   
 19  11  13  1   
 20  12  14  1   
 21  12  29  1   
 22  12  30  1   
 23  13  15  1   
 24  13  31  1   
 25  13  32  1   
 26  14  16  1   
 27  14  33  1   
 28  14  34  1   
 29  15  16  1   
 30  15  35  1   
 31  15  36  1   
 32  16  17  am  
 33  17  18  2   
 34  17  19  1   
 35  19  20  1   
 36  19  21  2   
 37  20  22  1   
 38  21  23  1   
 39  21  37  1   
 40  22  23  2   
 41  22  38  1   
 42  23  39  1   
@<TRIPOS>SUBSTRUCTURE
  1 ****  11 GROUP 4 **** **** 0

# MOE 2024.06 (io_trps.svl 2023.06)
