@<TRIPOS>MOLECULE
NONAME
53 55 1 0 0 
SMALL
USER_CHARGES


@<TRIPOS>ATOM
  1 S        1.5040     0.0100    -0.0020 S.o2  1 <1>   1.2040 
  2 O        2.0030    -0.5910    -1.2160 O.2   1 <1>  -0.6500 
  3 O        2.2940    -0.0370     1.2070 O.2   1 <1>  -0.6500 
  4 C       -0.2200    -0.4320     0.3080 C.ar  1 <1>  -0.0090 
  5 C        1.3990     1.7400    -0.3760 C.3   1 <1>  -0.0550 
  6 C       -0.7650    -0.3360     1.5830 C.ar  1 <1>  -0.1500 
  7 C       -1.0510    -0.8400    -0.7290 C.ar  1 <1>  -0.1500 
  8 C        2.8200     2.1990    -0.6790 C.3   1 <1>   0.3430 
  9 C       -2.0980    -0.6280     1.8150 C.ar  1 <1>  -0.1500 
 10 C       -2.3850    -1.1330    -0.5050 C.ar  1 <1>  -0.1500 
 11 N        2.9380     3.6820    -0.8630 N.4   1 <1>  -0.9590 
 12 C       -2.9100    -1.0240     0.7690 C.ar  1 <1>  -0.1500 
 13 C        2.7050     4.4420     0.4030 C.3   1 <1>   0.4380 
 14 C        2.1250     4.2150    -2.0070 C.3   1 <1>   0.2630 
 15 C        3.7680     5.5380     0.5540 C.3   1 <1>  -0.0630 
 16 C        3.6750     6.5590    -0.5740 C.ar  1 <1>  -0.0320 
 17 C        4.1970     6.0050     1.9160 C.3   1 <1>  -0.1900 
 18 C        5.1270     5.1650     1.1000 C.3   1 <1>  -0.2000 
 19 C        2.6280     7.4680    -0.5860 C.ar  1 <1>  -0.1500 
 20 C        4.6000     6.5750    -1.6080 C.ar  1 <1>  -0.1500 
 21 C        3.6140     5.3910     3.1970 C.3   1 <1>  -0.1450 
 22 C        4.5910     7.4720     2.1450 C.3   1 <1>  -0.1450 
 23 C        2.4950     8.3700    -1.6270 C.ar  1 <1>  -0.1500 
 24 C        4.4680     7.4770    -2.6500 C.ar  1 <1>  -0.1500 
 25 C        3.4140     8.3720    -2.6610 C.ar  1 <1>  -0.1500 
 26 H        1.0010     2.2650     0.4700 H     1 <1>   0.0800 
 27 H        0.7670     1.8890    -1.2300 H     1 <1>   0.0800 
 28 H       -0.1440    -0.0380     2.4110 H     1 <1>   0.1500 
 29 H       -0.6550    -0.9400    -1.7270 H     1 <1>   0.1500 
 30 H        3.1650     1.6950    -1.5700 H     1 <1>   0.0800 
 31 H        3.4650     1.8910     0.1310 H     1 <1>   0.0800 
 32 H       -2.5050    -0.5520     2.8100 H     1 <1>   0.1500 
 33 H       -3.0140    -1.4510    -1.3190 H     1 <1>   0.1500 
 34 H        3.9260     3.8850    -1.0870 H     1 <1>   0.4500 
 35 H       -3.9470    -1.2530     0.9470 H     1 <1>   0.1500 
 36 H        2.7800     3.7740     1.2440 H     1 <1>   0.0800 
 37 H        1.7220     4.8820     0.4060 H     1 <1>   0.0800 
 38 H        1.0720     4.1060    -1.8070 H     1 <1>   0.0800 
 39 H        2.3630     3.6840    -2.9140 H     1 <1>   0.0800 
 40 H        2.3330     5.2610    -2.1650 H     1 <1>   0.0800 
 41 H        6.0160     5.6400     0.7200 H     1 <1>   0.1000 
 42 H        5.3230     4.1590     1.4310 H     1 <1>   0.1000 
 43 H        1.9140     7.4840     0.2190 H     1 <1>   0.1500 
 44 H        5.4320     5.8940    -1.6120 H     1 <1>   0.1500 
 45 H        3.4670     4.3300     3.1110 H     1 <1>   0.0800 
 46 H        2.6730     5.8550     3.4370 H     1 <1>   0.0800 
 47 H        4.2870     5.5560     4.0210 H     1 <1>   0.0800 
 48 H        5.0880     7.8880     1.2860 H     1 <1>   0.0800 
 49 H        5.2620     7.5530     2.9820 H     1 <1>   0.0800 
 50 H        3.7180     8.0660     2.3490 H     1 <1>   0.0800 
 51 H        1.6820     9.0770    -1.6310 H     1 <1>   0.1500 
 52 H        5.1900     7.4910    -3.4500 H     1 <1>   0.1500 
 53 H        3.3130     9.0770    -3.4700 H     1 <1>   0.1500 
@<TRIPOS>BOND
  1   1   2  2   
  2   1   3  2   
  3   1   4  1   
  4   1   5  1   
  5   4   6  ar  
  6   4   7  ar  
  7   5   8  1   
  8   5  26  1   
  9   5  27  1   
 10   6   9  ar  
 11   6  28  1   
 12   7  10  ar  
 13   7  29  1   
 14   8  11  1   
 15   8  30  1   
 16   8  31  1   
 17   9  12  ar  
 18   9  32  1   
 19  10  12  ar  
 20  10  33  1   
 21  11  13  1   
 22  11  14  1   
 23  11  34  1   
 24  12  35  1   
 25  13  15  1   
 26  13  36  1   
 27  13  37  1   
 28  14  38  1   
 29  14  39  1   
 30  14  40  1   
 31  15  16  1   
 32  15  17  1   
 33  15  18  1   
 34  16  19  ar  
 35  16  20  ar  
 36  17  18  1   
 37  17  21  1   
 38  17  22  1   
 39  18  41  1   
 40  18  42  1   
 41  19  23  ar  
 42  19  43  1   
 43  20  24  ar  
 44  20  44  1   
 45  21  45  1   
 46  21  46  1   
 47  21  47  1   
 48  22  48  1   
 49  22  49  1   
 50  22  50  1   
 51  23  25  ar  
 52  23  51  1   
 53  24  25  ar  
 54  24  52  1   
 55  25  53  1   
@<TRIPOS>SUBSTRUCTURE
  1 ****  11 GROUP 4 **** **** 0

# MOE 2024.06 (io_trps.svl 2023.06)
