@<TRIPOS>MOLECULE
NONAME
44 46 1 0 0 
SMALL
USER_CHARGES


@<TRIPOS>ATOM
  1 S        1.1510     0.3870    -0.1590 S.3   1 <1>  -0.0800 
  2 C        2.7140     0.9240     0.4540 C.2   1 <1>  -0.0450 
  3 C        0.8880    -0.7340     1.1760 C.2   1 <1>  -0.0450 
  4 C        3.4810     1.9040    -0.2700 C.2   1 <1>   0.7150 
  5 C        2.9710     0.2510     1.6050 C.2   1 <1>  -0.1500 
  6 C       -0.3050    -1.5280     1.2470 C.2   1 <1>   0.5940 
  7 C        1.9620    -0.6610     2.0050 C.2   1 <1>  -0.1500 
  8 O        4.6480     2.1170     0.0120 O.2   1 <1>  -0.5700 
  9 N        2.9440     2.6970    -1.2580 N.am  1 <1>  -0.6600 
 10 O       -0.5250    -2.2870     2.1560 O.2   1 <1>  -0.5700 
 11 C       -1.3530    -1.4340     0.1570 C.3   1 <1>  -0.1790 
 12 C        3.6920     2.9490    -2.5340 C.3   1 <1>   0.1400 
 13 C        1.8750     3.6770    -0.9360 C.3   1 <1>   0.1400 
 14 C        4.8550     3.9570    -2.3830 C.3   1 <1>   0.3430 
 15 C        2.4650     4.9110    -0.2360 C.3   1 <1>  -0.1600 
 16 N        4.7780     4.7130    -1.0970 N.4   1 <1>  -0.9590 
 17 C        3.5980     5.6150    -0.9900 C.3   1 <1>   0.3430 
 18 C        6.0600     5.3460    -0.7100 C.3   1 <1>   0.5240 
 19 C        5.9640     5.7120     0.7540 C.2   1 <1>  -0.1810 
 20 C        5.9390     4.8830     1.8200 C.2   1 <1>  -0.0100 
 21 C        5.8680     7.0090     1.2820 C.2   1 <1>  -0.1500 
 22 O        5.8280     5.5690     2.9370 O.3   1 <1>  -0.2800 
 23 C        5.7880     6.8470     2.6200 C.2   1 <1>  -0.0100 
 24 H        3.8670     0.3760     2.1900 H     1 <1>   0.1500 
 25 H        2.0610    -1.2460     2.9050 H     1 <1>   0.1500 
 26 H       -0.9200    -1.6980    -0.7900 H     1 <1>   0.0800 
 27 H       -1.7440    -0.4350     0.1100 H     1 <1>   0.0800 
 28 H       -2.1600    -2.1110     0.3670 H     1 <1>   0.0800 
 29 H        3.0070     3.3060    -3.2840 H     1 <1>   0.0800 
 30 H        4.0910     2.0160    -2.8970 H     1 <1>   0.0800 
 31 H        1.1460     3.2200    -0.2870 H     1 <1>   0.0800 
 32 H        1.3650     3.9680    -1.8400 H     1 <1>   0.0800 
 33 H        4.8650     4.6330    -3.2220 H     1 <1>   0.0800 
 34 H        5.7750     3.3970    -2.4040 H     1 <1>   0.0800 
 35 H        2.8040     4.6420     0.7500 H     1 <1>   0.0800 
 36 H        1.6680     5.6200    -0.0980 H     1 <1>   0.0800 
 37 H        4.6330     3.9640    -0.3900 H     1 <1>   0.4500 
 38 H        3.8670     6.5040    -0.4420 H     1 <1>   0.0800 
 39 H        3.2650     5.9150    -1.9700 H     1 <1>   0.0800 
 40 H        6.2500     6.2230    -1.3070 H     1 <1>   0.0800 
 41 H        6.8700     4.6480    -0.8440 H     1 <1>   0.0800 
 42 H        5.9910     3.8070     1.8840 H     1 <1>   0.1500 
 43 H        5.8670     7.9330     0.7300 H     1 <1>   0.1500 
 44 H        5.7060     7.5740     3.4110 H     1 <1>   0.1500 
@<TRIPOS>BOND
  1   1   2  1   
  2   1   3  1   
  3   2   4  1   
  4   2   5  2   
  5   3   6  1   
  6   3   7  2   
  7   4   8  2   
  8   4   9  am  
  9   5   7  1   
 10   5  24  1   
 11   6  10  2   
 12   6  11  1   
 13   7  25  1   
 14   9  12  1   
 15   9  13  1   
 16  11  26  1   
 17  11  27  1   
 18  11  28  1   
 19  12  14  1   
 20  12  29  1   
 21  12  30  1   
 22  13  15  1   
 23  13  31  1   
 24  13  32  1   
 25  14  16  1   
 26  14  33  1   
 27  14  34  1   
 28  15  17  1   
 29  15  35  1   
 30  15  36  1   
 31  16  17  1   
 32  16  18  1   
 33  16  37  1   
 34  17  38  1   
 35  17  39  1   
 36  18  19  1   
 37  18  40  1   
 38  18  41  1   
 39  19  20  2   
 40  19  21  1   
 41  20  22  1   
 42  20  42  1   
 43  21  23  2   
 44  21  43  1   
 45  22  23  1   
 46  23  44  1   
@<TRIPOS>SUBSTRUCTURE
  1 ****   4 GROUP 4 **** **** 0

# MOE 2024.06 (io_trps.svl 2023.06)
