@<TRIPOS>MOLECULE
NONAME
33 33 1 0 0 
SMALL
USER_CHARGES


@<TRIPOS>ATOM
  1 F       -1.9000    -0.2510     0.0420 F     1 <1>  -0.3400 
  2 C       -2.0440     0.9610     0.5610 C.3   1 <1>   1.0200 
  3 F       -2.8370     0.8200     1.6180 F     1 <1>  -0.3400 
  4 F       -0.8530     1.3070     1.0350 F     1 <1>  -0.3400 
  5 C       -2.6110     1.9940    -0.4600 C.3   1 <1>   0.2000 
  6 O       -3.8790     1.6480    -0.9710 O.3   1 <1>  -0.6800 
  7 C       -2.7220     3.4110     0.1230 C.3   1 <1>   0.0000 
  8 C       -3.1220     4.4890    -0.9100 C.3   1 <1>   0.2250 
  9 C       -1.3740     4.1570     0.2670 C.3   1 <1>   0.2250 
 10 N       -2.0220     5.3440    -0.3660 N.am  1 <1>  -0.5100 
 11 C       -2.1700     6.5660     0.2120 C.2   1 <1>   0.7800 
 12 O       -1.4250     6.9540     1.0910 O.2   1 <1>  -0.5700 
 13 O       -3.1830     7.3150    -0.2270 O.3   1 <1>  -0.4300 
 14 C       -3.5500     8.6030     0.2180 C.3   1 <1>   0.2800 
 15 C       -3.9480     8.5590     1.6980 C.3   1 <1>  -0.2400 
 16 C       -2.4190     9.6010    -0.0560 C.3   1 <1>  -0.2400 
 17 C       -4.7710     8.9810    -0.6220 C.3   1 <1>  -0.2400 
 18 H       -1.9420     2.0140    -1.3020 H     1 <1>   0.0800 
 19 H       -4.5220     1.4860    -0.2490 H     1 <1>   0.4000 
 20 H       -3.3090     3.4630     1.0250 H     1 <1>   0.0000 
 21 H       -4.0970     4.9080    -0.7410 H     1 <1>   0.0000 
 22 H       -2.9270     4.2170    -1.9330 H     1 <1>   0.0000 
 23 H       -0.5860     3.7720    -0.3550 H     1 <1>   0.0000 
 24 H       -1.0860     4.3360     1.2880 H     1 <1>   0.0000 
 25 H       -4.3580     9.5070     1.9950 H     1 <1>   0.0800 
 26 H       -3.0970     8.3640     2.3230 H     1 <1>   0.0800 
 27 H       -4.6910     7.8000     1.8630 H     1 <1>   0.0800 
 28 H       -2.7540    10.6000     0.1560 H     1 <1>   0.0800 
 29 H       -2.1190     9.5540    -1.0870 H     1 <1>   0.0800 
 30 H       -1.5680     9.4060     0.5700 H     1 <1>   0.0800 
 31 H       -5.1250     9.9590    -0.3480 H     1 <1>   0.0800 
 32 H       -5.5670     8.2760    -0.4630 H     1 <1>   0.0800 
 33 H       -4.5160     8.9940    -1.6660 H     1 <1>   0.0800 
@<TRIPOS>BOND
  1   1   2  1   
  2   2   3  1   
  3   2   4  1   
  4   2   5  1   
  5   5   6  1   
  6   5   7  1   
  7   5  18  1   
  8   6  19  1   
  9   7   8  1   
 10   7   9  1   
 11   7  20  1   
 12   8  10  1   
 13   8  21  1   
 14   8  22  1   
 15   9  10  1   
 16   9  23  1   
 17   9  24  1   
 18  10  11  am  
 19  11  12  2   
 20  11  13  1   
 21  13  14  1   
 22  14  15  1   
 23  14  16  1   
 24  14  17  1   
 25  15  25  1   
 26  15  26  1   
 27  15  27  1   
 28  16  28  1   
 29  16  29  1   
 30  16  30  1   
 31  17  31  1   
 32  17  32  1   
 33  17  33  1   
@<TRIPOS>SUBSTRUCTURE
  1 ****  10 GROUP 4 **** **** 0

# MOE 2024.06 (io_trps.svl 2023.06)
