@<TRIPOS>MOLECULE
NONAME
50 52 1 0 0 
SMALL
USER_CHARGES


@<TRIPOS>ATOM
  1 S       -0.3710     0.0960     1.1400 S.o2  1 <1>   1.4470 
  2 O        0.8380    -0.2860     1.8330 O.2   1 <1>  -0.6500 
  3 O       -1.6650    -0.2940     1.6500 O.2   1 <1>  -0.6500 
  4 N       -0.1910    -0.5790    -0.3870 N.am  1 <1>  -0.9140 
  5 C       -0.3530     1.8830     0.8110 C.ar  1 <1>  -0.0090 
  6 C       -0.8360    -1.8700    -0.5840 C.3   1 <1>   0.1960 
  7 C        0.4810     2.7420     1.5160 C.ar  1 <1>  -0.1500 
  8 C       -1.1880     2.4450    -0.1460 C.ar  1 <1>  -0.1500 
  9 C       -0.0870    -2.9760     0.1650 C.3   1 <1>  -0.1600 
 10 C        0.4880     4.1040     1.2700 C.ar  1 <1>  -0.1500 
 11 C       -1.1810     3.8060    -0.3960 C.ar  1 <1>  -0.1500 
 12 C       -0.6810    -4.3550    -0.1450 C.3   1 <1>  -0.2400 
 13 C       -0.3380     4.6720     0.2990 C.ar  1 <1>   0.0860 
 14 C       -0.3340     6.0950     0.0150 C.2   1 <1>   0.5440 
 15 O       -1.3630     6.6510    -0.3160 O.2   1 <1>  -0.5700 
 16 N        0.8450     6.8030     0.0990 N.am  1 <1>  -0.4940 
 17 C        1.0810     8.1940    -0.0550 C.2   1 <1>  -0.0880 
 18 N        2.3090     8.7880    -0.0650 N.pl3 1 <1>   0.3140 
 19 C        0.1810     9.1930    -0.2190 C.2   1 <1>  -0.1500 
 20 N        2.2040    10.1310    -0.2290 N.2   1 <1>  -0.7070 
 21 C        3.6180     8.0810     0.0770 C.3   1 <1>   0.1760 
 22 C        0.9310    10.3550    -0.3200 C.2   1 <1>   0.1390 
 23 C        4.8180     8.9850     0.3710 C.3   1 <1>  -0.1600 
 24 C        4.0250     7.3440    -1.2010 C.3   1 <1>  -0.1600 
 25 C        6.0280     8.1330    -0.0090 C.3   1 <1>  -0.1600 
 26 C        5.5530     7.2130    -1.1400 C.3   1 <1>  -0.1600 
 27 H        0.8130    -0.7290    -0.4650 H     1 <1>   0.4200 
 28 H       -0.8260    -2.0950    -1.6380 H     1 <1>   0.0800 
 29 H       -1.8670    -1.8290    -0.2700 H     1 <1>   0.0800 
 30 H        1.1310     2.3350     2.2750 H     1 <1>   0.1500 
 31 H       -1.8540     1.8060    -0.7020 H     1 <1>   0.1500 
 32 H       -0.1520    -2.8100     1.2270 H     1 <1>   0.0800 
 33 H        0.9510    -2.9730    -0.1200 H     1 <1>   0.0800 
 34 H        1.1370     4.7330     1.8540 H     1 <1>   0.1500 
 35 H       -1.8430     4.2140    -1.1420 H     1 <1>   0.1500 
 36 H       -1.7150    -4.3930     0.1520 H     1 <1>   0.0800 
 37 H       -0.1440    -5.1150     0.3950 H     1 <1>   0.0800 
 38 H       -0.6120    -4.5700    -1.1970 H     1 <1>   0.0800 
 39 H        1.6690     6.2230     0.2450 H     1 <1>   0.3700 
 40 H       -0.8910     9.1250    -0.2660 H     1 <1>   0.1500 
 41 H        3.5310     7.3730     0.8810 H     1 <1>   0.0800 
 42 H        0.5100    11.3370    -0.4590 H     1 <1>   0.1500 
 43 H        4.8470     9.2950     1.4010 H     1 <1>   0.0800 
 44 H        4.7940     9.8530    -0.2660 H     1 <1>   0.0800 
 45 H        3.7610     7.9450    -2.0560 H     1 <1>   0.0800 
 46 H        3.5490     6.3830    -1.2800 H     1 <1>   0.0800 
 47 H        6.3280     7.5370     0.8370 H     1 <1>   0.0800 
 48 H        6.8600     8.7450    -0.3140 H     1 <1>   0.0800 
 49 H        5.9860     7.5150    -2.0790 H     1 <1>   0.0800 
 50 H        5.8450     6.1960    -0.9370 H     1 <1>   0.0800 
@<TRIPOS>BOND
  1   1   2  2   
  2   1   3  2   
  3   1   4  am  
  4   1   5  1   
  5   4   6  1   
  6   4  27  1   
  7   5   7  ar  
  8   5   8  ar  
  9   6   9  1   
 10   6  28  1   
 11   6  29  1   
 12   7  10  ar  
 13   7  30  1   
 14   8  11  ar  
 15   8  31  1   
 16   9  12  1   
 17   9  32  1   
 18   9  33  1   
 19  10  13  ar  
 20  10  34  1   
 21  11  13  ar  
 22  11  35  1   
 23  12  36  1   
 24  12  37  1   
 25  12  38  1   
 26  13  14  1   
 27  14  15  2   
 28  14  16  am  
 29  16  17  1   
 30  16  39  1   
 31  17  18  1   
 32  17  19  2   
 33  18  20  1   
 34  18  21  1   
 35  19  22  1   
 36  19  40  1   
 37  20  22  2   
 38  21  23  1   
 39  21  24  1   
 40  21  41  1   
 41  22  42  1   
 42  23  25  1   
 43  23  43  1   
 44  23  44  1   
 45  24  26  1   
 46  24  45  1   
 47  24  46  1   
 48  25  26  1   
 49  25  47  1   
 50  25  48  1   
 51  26  49  1   
 52  26  50  1   
@<TRIPOS>SUBSTRUCTURE
  1 ****  10 GROUP 4 **** **** 0

# MOE 2024.06 (io_trps.svl 2023.06)
