@<TRIPOS>MOLECULE
NONAME
41 43 1 0 0 
SMALL
USER_CHARGES


@<TRIPOS>ATOM
  1 CL       1.3590    -3.3020    -0.3700 Cl    1 <1>  -0.1230 
  2 C       -0.2850    -3.8550    -0.1060 C.2   1 <1>   0.1230 
  3 C       -1.1160    -3.4680     0.9330 C.2   1 <1>   0.1390 
  4 C       -0.9880    -4.7240    -0.8550 C.2   1 <1>  -0.3020 
  5 N       -2.2760    -4.0580     0.8490 N.2   1 <1>  -0.7070 
  6 N       -2.1930    -4.8330    -0.2580 N.pl3 1 <1>   0.3140 
  7 C       -3.3200    -5.6670    -0.7060 C.3   1 <1>   0.0960 
  8 C       -4.3430    -5.7840     0.4310 C.3   1 <1>   0.3430 
  9 N       -5.5020    -6.6550     0.0640 N.4   1 <1>  -0.9590 
 10 C       -6.4100    -6.0980    -0.9910 C.3   1 <1>   0.3430 
 11 C       -6.3770    -7.0230     1.2110 C.3   1 <1>   0.3430 
 12 C       -7.8200    -6.6210    -0.6700 C.3   1 <1>   0.2000 
 13 C       -7.6890    -7.5030     0.5790 C.3   1 <1>  -0.0800 
 14 O       -8.6500    -5.5470    -0.3770 O.3   1 <1>  -0.6800 
 15 C       -7.6800    -9.0190     0.2500 C.3   1 <1>   0.0200 
 16 C       -6.3630    -9.4960    -0.3390 C.2   1 <1>  -0.0400 
 17 O       -5.9420    -9.0100    -1.4750 O.3   1 <1>  -0.0190 
 18 C       -5.4320   -10.3490     0.1130 C.2   1 <1>  -0.1500 
 19 N       -4.7500    -9.4280    -1.7680 N.2   1 <1>  -0.4100 
 20 C       -4.4280   -10.2670    -0.8480 C.2   1 <1>   0.1080 
 21 C       -3.1310   -11.0470    -0.8190 C.3   1 <1>  -0.0590 
 22 H       -0.8390    -2.7730     1.7070 H     1 <1>   0.1500 
 23 H       -0.6980    -5.2470    -1.7470 H     1 <1>   0.1500 
 24 H       -3.7580    -5.1990    -1.5660 H     1 <1>   0.0800 
 25 H       -2.9400    -6.6370    -0.9700 H     1 <1>   0.0800 
 26 H       -4.6940    -4.7990     0.6930 H     1 <1>   0.0800 
 27 H       -3.8430    -6.1980     1.2930 H     1 <1>   0.0800 
 28 H       -5.1410    -7.5530    -0.3200 H     1 <1>   0.4500 
 29 H       -6.4120    -5.0210    -0.9720 H     1 <1>   0.0800 
 30 H       -6.1000    -6.4400    -1.9660 H     1 <1>   0.0800 
 31 H       -5.9270    -7.7860     1.8250 H     1 <1>   0.0800 
 32 H       -6.5690    -6.1490     1.8140 H     1 <1>   0.0800 
 33 H       -8.2490    -7.1410    -1.5110 H     1 <1>   0.0800 
 34 H       -8.5110    -7.3280     1.2520 H     1 <1>   0.0800 
 35 H       -8.4300    -5.0970     0.4620 H     1 <1>   0.4000 
 36 H       -8.4830    -9.2570    -0.4260 H     1 <1>   0.0800 
 37 H       -7.8580    -9.5710     1.1570 H     1 <1>   0.0800 
 38 H       -5.4130   -10.9570     1.0010 H     1 <1>   0.1500 
 39 H       -2.5730   -10.8080     0.0680 H     1 <1>   0.0800 
 40 H       -2.5350   -10.8100    -1.6820 H     1 <1>   0.0800 
 41 H       -3.3410   -12.1010    -0.8270 H     1 <1>   0.0800 
@<TRIPOS>BOND
  1   1   2  1   
  2   2   3  1   
  3   2   4  2   
  4   3   5  2   
  5   3  22  1   
  6   4   6  1   
  7   4  23  1   
  8   5   6  1   
  9   6   7  1   
 10   7   8  1   
 11   7  24  1   
 12   7  25  1   
 13   8   9  1   
 14   8  26  1   
 15   8  27  1   
 16   9  10  1   
 17   9  11  1   
 18   9  28  1   
 19  10  12  1   
 20  10  29  1   
 21  10  30  1   
 22  11  13  1   
 23  11  31  1   
 24  11  32  1   
 25  12  13  1   
 26  12  14  1   
 27  12  33  1   
 28  13  15  1   
 29  13  34  1   
 30  14  35  1   
 31  15  16  1   
 32  15  36  1   
 33  15  37  1   
 34  16  17  1   
 35  16  18  2   
 36  17  19  1   
 37  18  20  1   
 38  18  38  1   
 39  19  20  2   
 40  20  21  1   
 41  21  39  1   
 42  21  40  1   
 43  21  41  1   
@<TRIPOS>SUBSTRUCTURE
  1 ****   9 GROUP 4 **** **** 0

# MOE 2024.06 (io_trps.svl 2023.06)
