@<TRIPOS>MOLECULE
NONAME
46 48 1 0 0 
SMALL
USER_CHARGES


@<TRIPOS>ATOM
  1 S        0.5260     0.4310    -1.3520 S.o2  1 <1>   1.3330 
  2 O        0.7560    -0.9160    -1.8260 O.2   1 <1>  -0.6500 
  3 O       -0.2760     1.3410    -2.1370 O.2   1 <1>  -0.6500 
  4 N       -0.1930     0.3260     0.1850 N.am  1 <1>  -0.8490 
  5 C        2.1220     1.1840    -1.0220 C.3   1 <1>  -0.0550 
  6 C       -0.8290     1.5760     0.6150 C.3   1 <1>   0.1160 
  7 C       -1.1610    -0.7730     0.2660 C.3   1 <1>   0.1160 
  8 C        3.1040     0.2760    -0.2510 C.3   1 <1>  -0.0800 
  9 C        4.5150     0.8280    -0.1160 C.3   1 <1>   0.2200 
 10 C        2.7190    -0.0250     1.2040 C.3   1 <1>   0.1200 
 11 N        4.4880     2.2670     0.2490 N.am  1 <1>  -0.7300 
 12 C        5.0040     0.0350     1.0870 C.3   1 <1>   0.1200 
 13 O        3.9060    -0.0150     1.9450 O.3   1 <1>  -0.5600 
 14 C        4.7210     3.3010    -0.6120 C.2   1 <1>   0.5440 
 15 O        4.8800     3.0320    -1.7860 O.2   1 <1>  -0.5700 
 16 C        4.7750     4.6780    -0.1610 C.ar  1 <1>   0.0860 
 17 C        4.2090     5.0650     1.0740 C.ar  1 <1>   0.1600 
 18 C        5.3660     5.6690    -0.9050 C.ar  1 <1>  -0.1500 
 19 N        4.2130     6.2650     1.5680 N.ar  1 <1>  -0.6200 
 20 C        5.3970     6.9850    -0.4200 C.ar  1 <1>   0.0000 
 21 C        4.8060     7.2420     0.8360 C.ar  1 <1>   0.3100 
 22 C        5.9890     8.0500    -1.1270 C.ar  1 <1>  -0.1500 
 23 C        4.8340     8.5530     1.3350 C.ar  1 <1>  -0.1500 
 24 C        5.9990     9.3190    -0.6130 C.ar  1 <1>  -0.1500 
 25 C        5.4160     9.5750     0.6320 C.ar  1 <1>  -0.1500 
 26 H        2.5740     1.4340    -1.9630 H     1 <1>   0.0800 
 27 H        1.9760     2.1020    -0.4880 H     1 <1>   0.0800 
 28 H       -1.1860     1.4810     1.6260 H     1 <1>   0.0800 
 29 H       -1.6600     1.8170    -0.0290 H     1 <1>   0.0800 
 30 H       -0.1210     2.3860     0.5800 H     1 <1>   0.0800 
 31 H       -1.5920    -0.8200     1.2510 H     1 <1>   0.0800 
 32 H       -0.6720    -1.7120     0.0690 H     1 <1>   0.0800 
 33 H       -1.9460    -0.6350    -0.4590 H     1 <1>   0.0800 
 34 H        3.1700    -0.6650    -0.7690 H     1 <1>   0.0800 
 35 H        5.1180     0.6610    -0.9930 H     1 <1>   0.0800 
 36 H        2.2510    -0.9900     1.3020 H     1 <1>   0.0800 
 37 H        2.0750     0.7330     1.6150 H     1 <1>   0.0800 
 38 H        4.3890     2.4160     1.2560 H     1 <1>   0.3700 
 39 H        5.8390     0.4960     1.5850 H     1 <1>   0.0800 
 40 H        5.2530    -0.9740     0.8070 H     1 <1>   0.0800 
 41 H        3.7260     4.3040     1.6600 H     1 <1>   0.1500 
 42 H        5.8090     5.4470    -1.8610 H     1 <1>   0.1500 
 43 H        6.4360     7.8480    -2.0850 H     1 <1>   0.1500 
 44 H        4.3800     8.7290     2.2930 H     1 <1>   0.1500 
 45 H        6.4530    10.1310    -1.1560 H     1 <1>   0.1500 
 46 H        5.4310    10.5770     1.0250 H     1 <1>   0.1500 
@<TRIPOS>BOND
  1   1   2  2   
  2   1   3  2   
  3   1   4  am  
  4   1   5  1   
  5   4   6  1   
  6   4   7  1   
  7   5   8  1   
  8   5  26  1   
  9   5  27  1   
 10   6  28  1   
 11   6  29  1   
 12   6  30  1   
 13   7  31  1   
 14   7  32  1   
 15   7  33  1   
 16   8   9  1   
 17   8  10  1   
 18   8  34  1   
 19   9  11  1   
 20   9  12  1   
 21   9  35  1   
 22  10  13  1   
 23  10  36  1   
 24  10  37  1   
 25  11  14  am  
 26  11  38  1   
 27  12  13  1   
 28  12  39  1   
 29  12  40  1   
 30  14  15  2   
 31  14  16  1   
 32  16  17  ar  
 33  16  18  ar  
 34  17  19  ar  
 35  17  41  1   
 36  18  20  ar  
 37  18  42  1   
 38  19  21  ar  
 39  20  21  ar  
 40  20  22  ar  
 41  21  23  ar  
 42  22  24  ar  
 43  22  43  1   
 44  23  25  ar  
 45  23  44  1   
 46  24  25  ar  
 47  24  45  1   
 48  25  46  1   
@<TRIPOS>SUBSTRUCTURE
  1 ****  14 GROUP 4 **** **** 0

# MOE 2024.06 (io_trps.svl 2023.06)
