@<TRIPOS>MOLECULE
NONAME
45 47 1 0 0 
SMALL
USER_CHARGES


@<TRIPOS>ATOM
  1 F        0.0580    -0.5790     0.1410 F     1 <1>  -0.1900 
  2 C       -0.0890    -1.8510    -0.1090 C.ar  1 <1>   0.1900 
  3 C        0.5880    -2.7670     0.6740 C.ar  1 <1>  -0.1500 
  4 C       -0.9140    -2.2370    -1.1460 C.ar  1 <1>  -0.1500 
  5 C        0.4270    -4.1160     0.4080 C.ar  1 <1>  -0.1500 
  6 C       -1.0700    -3.5880    -1.4050 C.ar  1 <1>  -0.1500 
  7 C       -0.4060    -4.5320    -0.6270 C.ar  1 <1>  -0.1430 
  8 C       -0.5960    -6.0120    -0.9030 C.3   1 <1>   0.4870 
  9 N       -1.5680    -6.5510     0.0810 N.4   1 <1>  -0.9590 
 10 C       -2.9160    -5.9460    -0.0650 C.3   1 <1>   0.3430 
 11 C       -1.7550    -8.0230    -0.0040 C.3   1 <1>   0.3430 
 12 C       -3.8570    -6.9220     0.6280 C.3   1 <1>  -0.0800 
 13 C       -3.2110    -8.3020     0.3850 C.3   1 <1>  -0.0800 
 14 C       -5.3350    -6.7820     0.1810 C.3   1 <1>   0.2800 
 15 C       -3.9190    -9.1060    -0.7200 C.3   1 <1>  -0.1600 
 16 O       -5.3620    -6.4520    -1.1600 O.3   1 <1>  -0.6800 
 17 C       -6.0580    -8.1310     0.3440 C.3   1 <1>  -0.1600 
 18 C       -6.1050    -5.6790     0.9410 C.3   1 <1>  -0.1600 
 19 C       -5.4160    -9.3000    -0.4310 C.3   1 <1>  -0.1600 
 20 C       -5.5500    -4.2490     0.8220 C.3   1 <1>  -0.2400 
 21 H        1.2270    -2.4220     1.4680 H     1 <1>   0.1500 
 22 H       -1.4190    -1.4900    -1.7340 H     1 <1>   0.1500 
 23 H        0.9600    -4.8300     1.0140 H     1 <1>   0.1500 
 24 H       -1.7110    -3.8900    -2.2170 H     1 <1>   0.1500 
 25 H        0.3510    -6.5190    -0.8080 H     1 <1>   0.0800 
 26 H       -0.9630    -6.1550    -1.9070 H     1 <1>   0.0800 
 27 H       -1.2330    -6.3070     1.0200 H     1 <1>   0.4500 
 28 H       -2.9600    -4.9610     0.3690 H     1 <1>   0.0800 
 29 H       -3.1710    -5.8820    -1.1110 H     1 <1>   0.0800 
 30 H       -1.5890    -8.3590    -1.0150 H     1 <1>   0.0800 
 31 H       -1.0740    -8.5390     0.6540 H     1 <1>   0.0800 
 32 H       -3.8110    -6.7300     1.6860 H     1 <1>   0.0800 
 33 H       -3.2370    -8.8800     1.2930 H     1 <1>   0.0800 
 34 H       -3.8210    -8.5810    -1.6560 H     1 <1>   0.0800 
 35 H       -3.4540   -10.0700    -0.8420 H     1 <1>   0.0800 
 36 H       -6.2890    -6.4480    -1.4710 H     1 <1>   0.4000 
 37 H       -6.0480    -8.3830     1.3900 H     1 <1>   0.0800 
 38 H       -7.0930    -8.0400     0.0620 H     1 <1>   0.0800 
 39 H       -7.1250    -5.6730     0.5960 H     1 <1>   0.0800 
 40 H       -6.1410    -5.9380     1.9850 H     1 <1>   0.0800 
 41 H       -5.5600   -10.2060     0.1340 H     1 <1>   0.0800 
 42 H       -5.9280    -9.4290    -1.3700 H     1 <1>   0.0800 
 43 H       -5.4250    -3.9670    -0.2090 H     1 <1>   0.0800 
 44 H       -4.6120    -4.1500     1.3360 H     1 <1>   0.0800 
 45 H       -6.2410    -3.5580     1.2730 H     1 <1>   0.0800 
@<TRIPOS>BOND
  1   1   2  1   
  2   2   3  ar  
  3   2   4  ar  
  4   3   5  ar  
  5   3  21  1   
  6   4   6  ar  
  7   4  22  1   
  8   5   7  ar  
  9   5  23  1   
 10   6   7  ar  
 11   6  24  1   
 12   7   8  1   
 13   8   9  1   
 14   8  25  1   
 15   8  26  1   
 16   9  10  1   
 17   9  11  1   
 18   9  27  1   
 19  10  12  1   
 20  10  28  1   
 21  10  29  1   
 22  11  13  1   
 23  11  30  1   
 24  11  31  1   
 25  12  13  1   
 26  12  14  1   
 27  12  32  1   
 28  13  15  1   
 29  13  33  1   
 30  14  16  1   
 31  14  17  1   
 32  14  18  1   
 33  15  19  1   
 34  15  34  1   
 35  15  35  1   
 36  16  36  1   
 37  17  19  1   
 38  17  37  1   
 39  17  38  1   
 40  18  20  1   
 41  18  39  1   
 42  18  40  1   
 43  19  41  1   
 44  19  42  1   
 45  20  43  1   
 46  20  44  1   
 47  20  45  1   
@<TRIPOS>SUBSTRUCTURE
  1 ****  10 GROUP 4 **** **** 0

# MOE 2024.06 (io_trps.svl 2023.06)
