@<TRIPOS>MOLECULE
NONAME
54 57 1 0 0 
SMALL
USER_CHARGES


@<TRIPOS>ATOM
  1 O       -0.7240    -2.8560     2.4110 O.2   1 <1>  -0.5700 
  2 C       -0.0550    -2.4310     1.4940 C.2   1 <1>   0.7800 
  3 O       -0.0910    -1.1610     1.1220 O.3   1 <1>  -0.4300 
  4 N        0.7710    -3.1570     0.7130 N.am  1 <1>  -0.6600 
  5 C        0.7360    -0.9420    -0.0070 C.3   1 <1>   0.1200 
  6 C        1.3320    -2.3150    -0.3450 C.3   1 <1>   0.1400 
  7 C        0.9210    -4.6440     0.7160 C.3   1 <1>   0.2010 
  8 C        0.4220    -5.3020    -0.5740 C.2   1 <1>   0.5690 
  9 O        1.2670    -5.6330    -1.3760 O.2   1 <1>  -0.5700 
 10 N       -0.9180    -5.4990    -0.8200 N.am  1 <1>  -0.6600 
 11 C       -1.3960    -6.1000    -2.0980 C.3   1 <1>   0.1400 
 12 C       -2.0280    -5.1030     0.0930 C.3   1 <1>   0.1400 
 13 C       -2.2320    -7.3440    -1.7910 C.3   1 <1>  -0.1600 
 14 C       -2.8660    -6.3370     0.4290 C.3   1 <1>  -0.1600 
 15 C       -3.3960    -7.0320    -0.8370 C.3   1 <1>   0.4240 
 16 O       -4.2060    -6.1150    -1.5340 O.3   1 <1>  -0.5600 
 17 C       -4.1650    -8.3240    -0.4830 C.ar  1 <1>  -0.1430 
 18 C       -5.5340    -5.9890    -1.1280 C.3   1 <1>   0.1200 
 19 C       -5.5200    -8.4480    -0.7590 C.ar  1 <1>  -0.1430 
 20 C       -3.5130    -9.3880     0.1330 C.ar  1 <1>  -0.1500 
 21 C       -6.2620    -7.2990    -1.4100 C.3   1 <1>  -0.0170 
 22 C       -6.1940    -9.6140    -0.4420 C.ar  1 <1>  -0.1500 
 23 C       -4.1810   -10.5640     0.4670 C.ar  1 <1>   0.0820 
 24 C       -5.5440   -10.6780     0.1570 C.ar  1 <1>   0.0820 
 25 O       -3.5380   -11.5890     1.1010 O.3   1 <1>  -0.3630 
 26 O       -6.3270   -11.7680     0.4010 O.3   1 <1>  -0.3630 
 27 C       -2.2300   -11.4590     1.6130 C.3   1 <1>   0.0400 
 28 C       -5.7990   -13.0730     0.3180 C.3   1 <1>   0.0400 
 29 H        1.4990    -0.2320     0.2570 H     1 <1>   0.0800 
 30 H        0.1320    -0.5610    -0.8110 H     1 <1>   0.0800 
 31 H        1.0090    -2.6500    -1.3160 H     1 <1>   0.0800 
 32 H        2.4070    -2.3010    -0.2970 H     1 <1>   0.0800 
 33 H        0.3970    -5.0610     1.5560 H     1 <1>   0.0800 
 34 H        1.9620    -4.8820     0.8360 H     1 <1>   0.0800 
 35 H       -0.5670    -6.3700    -2.7300 H     1 <1>   0.0800 
 36 H       -1.9930    -5.3750    -2.6260 H     1 <1>   0.0800 
 37 H       -2.6400    -4.3640    -0.3970 H     1 <1>   0.0800 
 38 H       -1.6580    -4.6730     1.0030 H     1 <1>   0.0800 
 39 H       -1.5820    -8.0820    -1.3620 H     1 <1>   0.0800 
 40 H       -2.6260    -7.7520    -2.7030 H     1 <1>   0.0800 
 41 H       -3.6820    -6.0620     1.0690 H     1 <1>   0.0800 
 42 H       -2.2490    -7.0180     0.9840 H     1 <1>   0.0800 
 43 H       -5.9750    -5.1840    -1.6890 H     1 <1>   0.0800 
 44 H       -5.5650    -5.7470    -0.0800 H     1 <1>   0.0800 
 45 H       -2.4700    -9.2850     0.3510 H     1 <1>   0.1500 
 46 H       -6.3150    -7.4580    -2.4730 H     1 <1>   0.0800 
 47 H       -7.2640    -7.2380    -1.0260 H     1 <1>   0.0800 
 48 H       -7.2420    -9.7130    -0.6610 H     1 <1>   0.1500 
 49 H       -1.9840   -12.3680     2.1320 H     1 <1>   0.0800 
 50 H       -2.2040   -10.6300     2.2970 H     1 <1>   0.0800 
 51 H       -1.5470   -11.3110     0.7950 H     1 <1>   0.0800 
 52 H       -6.6150   -13.7550     0.1650 H     1 <1>   0.0800 
 53 H       -5.3010   -13.3040     1.2420 H     1 <1>   0.0800 
 54 H       -5.1140   -13.1240    -0.5090 H     1 <1>   0.0800 
@<TRIPOS>BOND
  1   1   2  2   
  2   2   3  1   
  3   2   4  am  
  4   3   5  1   
  5   4   6  1   
  6   4   7  1   
  7   5   6  1   
  8   5  29  1   
  9   5  30  1   
 10   6  31  1   
 11   6  32  1   
 12   7   8  1   
 13   7  33  1   
 14   7  34  1   
 15   8   9  2   
 16   8  10  am  
 17  10  11  1   
 18  10  12  1   
 19  11  13  1   
 20  11  35  1   
 21  11  36  1   
 22  12  14  1   
 23  12  37  1   
 24  12  38  1   
 25  13  15  1   
 26  13  39  1   
 27  13  40  1   
 28  14  15  1   
 29  14  41  1   
 30  14  42  1   
 31  15  16  1   
 32  15  17  1   
 33  16  18  1   
 34  17  19  ar  
 35  17  20  ar  
 36  18  21  1   
 37  18  43  1   
 38  18  44  1   
 39  19  21  1   
 40  19  22  ar  
 41  20  23  ar  
 42  20  45  1   
 43  21  46  1   
 44  21  47  1   
 45  22  24  ar  
 46  22  48  1   
 47  23  24  ar  
 48  23  25  1   
 49  24  26  1   
 50  25  27  1   
 51  26  28  1   
 52  27  49  1   
 53  27  50  1   
 54  27  51  1   
 55  28  52  1   
 56  28  53  1   
 57  28  54  1   
@<TRIPOS>SUBSTRUCTURE
  1 ****  14 GROUP 4 **** **** 0

# MOE 2024.06 (io_trps.svl 2023.06)
