@<TRIPOS>MOLECULE
NONAME
56 61 1 0 0 
SMALL
USER_CHARGES


@<TRIPOS>ATOM
  1 O       -2.2420     1.6550    -2.7390 O.2   1 <1>  -0.5700 
  2 C       -2.7120     1.7380    -1.6270 C.2   1 <1>   0.6300 
  3 N       -3.8670     1.0850    -1.2740 N.am  1 <1>  -0.6600 
  4 C       -1.9660     2.5850    -0.6010 C.3   1 <1>  -0.1000 
  5 C       -4.4830     1.1140     0.0820 C.3   1 <1>   0.1400 
  6 C       -4.6060     0.2310    -2.2420 C.3   1 <1>   0.1400 
  7 C       -2.5390     3.9050    -0.1410 C.3   1 <1>  -0.1950 
  8 C       -1.3160     3.8890    -0.9910 C.3   1 <1>  -0.1950 
  9 C       -4.5330    -0.3090     0.6460 C.3   1 <1>  -0.1600 
 10 C       -4.6530    -1.2050    -1.7140 C.3   1 <1>  -0.1600 
 11 C       -2.1260     4.7210     1.0990 C.3   1 <1>   0.0150 
 12 C       -0.2830     4.6960    -0.1830 C.3   1 <1>   0.0150 
 13 C       -5.2620    -1.2810    -0.2990 C.3   1 <1>   0.4240 
 14 C       -0.6530     4.3630     1.2590 C.3   1 <1>  -0.1600 
 15 C       -2.0020     6.1850     0.6370 C.3   1 <1>  -0.1600 
 16 C       -0.7310     6.1680    -0.2470 C.3   1 <1>  -0.1600 
 17 O       -6.5660    -0.7470    -0.3850 O.3   1 <1>  -0.5600 
 18 C       -5.2760    -2.7300     0.2710 C.ar  1 <1>  -0.1440 
 19 C       -7.5880    -1.5910    -0.8000 C.3   1 <1>   0.1200 
 20 C       -4.0970    -3.4490     0.5130 C.ar  1 <1>   0.0820 
 21 C       -6.4920    -3.3530     0.5530 C.ar  1 <1>  -0.1440 
 22 C       -7.7990    -2.6380     0.2820 C.3   1 <1>  -0.0170 
 23 O       -2.9010    -2.8710     0.2210 O.3   1 <1>  -0.3630 
 24 C       -4.1560    -4.7380     1.0400 C.ar  1 <1>  -0.1500 
 25 C       -6.5380    -4.6340     1.0770 C.ar  1 <1>  -0.1500 
 26 C       -1.6740    -3.5590     0.3150 C.3   1 <1>   0.0400 
 27 C       -5.3710    -5.3270     1.3230 C.ar  1 <1>  -0.1500 
 28 H       -1.4480     1.9550     0.0960 H     1 <1>   0.1000 
 29 H       -3.9270     1.7420     0.7540 H     1 <1>   0.0800 
 30 H       -5.4790     1.5150     0.0050 H     1 <1>   0.0800 
 31 H       -5.6050     0.6160    -2.3600 H     1 <1>   0.0800 
 32 H       -4.1280     0.2450    -3.2060 H     1 <1>   0.0800 
 33 H       -3.4660     4.2230    -0.5860 H     1 <1>   0.1000 
 34 H       -1.3910     4.1830    -2.0250 H     1 <1>   0.1000 
 35 H       -5.0330    -0.3070     1.5970 H     1 <1>   0.0800 
 36 H       -3.5240    -0.6240     0.8180 H     1 <1>   0.0800 
 37 H       -3.6470    -1.5750    -1.7060 H     1 <1>   0.0800 
 38 H       -5.2060    -1.8290    -2.3890 H     1 <1>   0.0800 
 39 H       -2.7400     4.5650     1.9680 H     1 <1>   0.0800 
 40 H        0.7420     4.5150    -0.4550 H     1 <1>   0.0800 
 41 H       -0.4870     3.3340     1.5170 H     1 <1>   0.0800 
 42 H       -0.1480     4.9930     1.9720 H     1 <1>   0.0800 
 43 H       -2.8700     6.5040     0.0860 H     1 <1>   0.0800 
 44 H       -1.8610     6.8360     1.4830 H     1 <1>   0.0800 
 45 H        0.0250     6.8090     0.1700 H     1 <1>   0.0800 
 46 H       -0.9400     6.4750    -1.2570 H     1 <1>   0.0800 
 47 H       -8.4760    -0.9980    -0.9310 H     1 <1>   0.0800 
 48 H       -7.3220    -2.0450    -1.7380 H     1 <1>   0.0800 
 49 H       -8.1480    -2.1620     1.1810 H     1 <1>   0.0800 
 50 H       -8.5480    -3.3370    -0.0460 H     1 <1>   0.0800 
 51 H       -3.2670    -5.3030     1.2420 H     1 <1>   0.1500 
 52 H       -7.4830    -5.0990     1.2960 H     1 <1>   0.1500 
 53 H       -0.8960    -2.8990    -0.0240 H     1 <1>   0.0800 
 54 H       -1.7120    -4.4300    -0.3150 H     1 <1>   0.0800 
 55 H       -1.5020    -3.8300     1.3410 H     1 <1>   0.0800 
 56 H       -5.4100    -6.3210     1.7320 H     1 <1>   0.1500 
@<TRIPOS>BOND
  1   1   2  2   
  2   2   3  am  
  3   2   4  1   
  4   3   5  1   
  5   3   6  1   
  6   4   7  1   
  7   4   8  1   
  8   4  28  1   
  9   5   9  1   
 10   5  29  1   
 11   5  30  1   
 12   6  10  1   
 13   6  31  1   
 14   6  32  1   
 15   7   8  1   
 16   7  11  1   
 17   7  33  1   
 18   8  12  1   
 19   8  34  1   
 20   9  13  1   
 21   9  35  1   
 22   9  36  1   
 23  10  13  1   
 24  10  37  1   
 25  10  38  1   
 26  11  14  1   
 27  11  15  1   
 28  11  39  1   
 29  12  14  1   
 30  12  16  1   
 31  12  40  1   
 32  13  17  1   
 33  13  18  1   
 34  14  41  1   
 35  14  42  1   
 36  15  16  1   
 37  15  43  1   
 38  15  44  1   
 39  16  45  1   
 40  16  46  1   
 41  17  19  1   
 42  18  20  ar  
 43  18  21  ar  
 44  19  22  1   
 45  19  47  1   
 46  19  48  1   
 47  20  23  1   
 48  20  24  ar  
 49  21  22  1   
 50  21  25  ar  
 51  22  49  1   
 52  22  50  1   
 53  23  26  1   
 54  24  27  ar  
 55  24  51  1   
 56  25  27  ar  
 57  25  52  1   
 58  26  53  1   
 59  26  54  1   
 60  26  55  1   
 61  27  56  1   
@<TRIPOS>SUBSTRUCTURE
  1 ****   9 GROUP 4 **** **** 0

# MOE 2024.06 (io_trps.svl 2023.06)
