@<TRIPOS>MOLECULE
NONAME
46 49 1 0 0 
SMALL
USER_CHARGES


@<TRIPOS>ATOM
  1 S       -0.1510    -0.7080     2.3710 S.3   1 <1>  -0.0800 
  2 C       -0.1880     0.5970     1.1800 C.2   1 <1>   0.2930 
  3 C       -0.8740    -1.7730     1.2180 C.2   1 <1>  -0.1400 
  4 N       -0.7040     0.2190     0.0500 N.2   1 <1>  -0.5650 
  5 C        0.3410     1.8940     1.5870 C.2   1 <1>   0.7150 
  6 C       -1.0900    -1.1020     0.0840 C.2   1 <1>   0.0460 
  7 C       -1.1850    -3.2200     1.5260 C.3   1 <1>   0.0200 
  8 O        0.5780     2.1300     2.7610 O.2   1 <1>  -0.5700 
  9 N        0.6140     2.9270     0.6950 N.am  1 <1>  -0.6600 
 10 C       -1.7300    -1.7560    -1.1250 C.3   1 <1>   0.0210 
 11 C       -1.5060    -3.9470     0.2040 C.3   1 <1>  -0.1600 
 12 C        0.5620     4.3510     1.1630 C.3   1 <1>   0.1400 
 13 C        0.9560     2.6770    -0.7320 C.3   1 <1>   0.1400 
 14 C       -2.3910    -3.0980    -0.7360 C.3   1 <1>  -0.1600 
 15 C        1.9390     5.0540     1.1980 C.3   1 <1>   0.4230 
 16 C        2.2440     3.3830    -1.1870 C.3   1 <1>  -0.0800 
 17 N        2.3210     5.6970    -0.1100 N.4   1 <1>  -0.9590 
 18 C        3.1030     4.1230     1.6230 C.3   1 <1>   0.1200 
 19 C        3.5020     2.9280    -0.4010 C.3   1 <1>   0.1200 
 20 C        2.0290     4.9000    -1.3410 C.3   1 <1>   0.3430 
 21 C        1.8870     7.1200    -0.2280 C.3   1 <1>   0.2630 
 22 O        3.9560     3.8690     0.5310 O.3   1 <1>  -0.5600 
 23 H       -0.3460    -3.6870     2.0100 H     1 <1>   0.0800 
 24 H       -2.0320    -3.2610     2.1880 H     1 <1>   0.0800 
 25 H       -2.4700    -1.0950    -1.5400 H     1 <1>   0.0800 
 26 H       -0.9690    -1.9200    -1.8660 H     1 <1>   0.0800 
 27 H       -0.5810    -4.1680    -0.3010 H     1 <1>   0.0800 
 28 H       -1.9920    -4.8820     0.4210 H     1 <1>   0.0800 
 29 H       -0.1220     4.9080     0.5480 H     1 <1>   0.0800 
 30 H        0.1600     4.3770     2.1620 H     1 <1>   0.0800 
 31 H        1.1020     1.6220    -0.8900 H     1 <1>   0.0800 
 32 H        0.1240     2.9770    -1.3480 H     1 <1>   0.0800 
 33 H       -3.3220    -2.8900    -0.2360 H     1 <1>   0.0800 
 34 H       -2.6160    -3.6550    -1.6280 H     1 <1>   0.0800 
 35 H        1.8670     5.8260     1.9450 H     1 <1>   0.0800 
 36 H        2.3880     3.0180    -2.1880 H     1 <1>   0.0800 
 37 H        3.3570     5.6510    -0.0480 H     1 <1>   0.4500 
 38 H        2.7740     3.1930     2.0510 H     1 <1>   0.0800 
 39 H        3.6920     4.6240     2.3700 H     1 <1>   0.0800 
 40 H        4.3140     2.7750    -1.0910 H     1 <1>   0.0800 
 41 H        3.3300     1.9940     0.1100 H     1 <1>   0.0800 
 42 H        1.0110     5.0730    -1.6490 H     1 <1>   0.0800 
 43 H        2.6700     5.2530    -2.1320 H     1 <1>   0.0800 
 44 H        0.8130     7.1820    -0.2800 H     1 <1>   0.0800 
 45 H        2.3020     7.5630    -1.1200 H     1 <1>   0.0800 
 46 H        2.2270     7.6870     0.6240 H     1 <1>   0.0800 
@<TRIPOS>BOND
  1   1   2  1   
  2   1   3  1   
  3   2   4  2   
  4   2   5  1   
  5   3   6  2   
  6   3   7  1   
  7   4   6  1   
  8   5   8  2   
  9   5   9  am  
 10   6  10  1   
 11   7  11  1   
 12   7  23  1   
 13   7  24  1   
 14   9  12  1   
 15   9  13  1   
 16  10  14  1   
 17  10  25  1   
 18  10  26  1   
 19  11  14  1   
 20  11  27  1   
 21  11  28  1   
 22  12  15  1   
 23  12  29  1   
 24  12  30  1   
 25  13  16  1   
 26  13  31  1   
 27  13  32  1   
 28  14  33  1   
 29  14  34  1   
 30  15  17  1   
 31  15  18  1   
 32  15  35  1   
 33  16  19  1   
 34  16  20  1   
 35  16  36  1   
 36  17  20  1   
 37  17  21  1   
 38  17  37  1   
 39  18  22  1   
 40  18  38  1   
 41  18  39  1   
 42  19  22  1   
 43  19  40  1   
 44  19  41  1   
 45  20  42  1   
 46  20  43  1   
 47  21  44  1   
 48  21  45  1   
 49  21  46  1   
@<TRIPOS>SUBSTRUCTURE
  1 ****   5 GROUP 4 **** **** 0

# MOE 2024.06 (io_trps.svl 2023.06)
