@<TRIPOS>MOLECULE
NONAME
44 46 1 0 0 
SMALL
USER_CHARGES


@<TRIPOS>ATOM
  1 O        1.3410    -1.3550     1.5720 O.3   1 <1>  -0.5600 
  2 C        0.1550    -2.0960     1.5950 C.3   1 <1>   0.1200 
  3 C        1.6250    -0.6990     0.3830 C.3   1 <1>   0.1200 
  4 C        0.3570    -3.4710     0.9290 C.3   1 <1>   0.1900 
  5 C        1.9290    -1.6900    -0.7520 C.3   1 <1>  -0.0800 
  6 N        0.1430    -3.4800    -0.5600 N.3   1 <1>  -0.8100 
  7 C        1.7640    -4.0300     1.2560 C.3   1 <1>   0.3430 
  8 C        0.6320    -2.3140    -1.3160 C.3   1 <1>   0.1100 
  9 C        3.0740    -2.6640    -0.3800 C.3   1 <1>   0.3430 
 10 C       -1.1980    -3.9360    -0.9720 C.3   1 <1>   0.2540 
 11 N        2.6220    -4.0300     0.0270 N.4   1 <1>  -0.9590 
 12 C       -1.3410    -5.3980    -0.5890 C.ar  1 <1>  -0.1440 
 13 C        3.7240    -5.0280     0.1030 C.3   1 <1>   0.2630 
 14 C       -0.4070    -6.3170    -1.0400 C.ar  1 <1>   0.1600 
 15 C       -2.3640    -5.8420     0.2270 C.ar  1 <1>  -0.1500 
 16 N       -0.3830    -7.5970    -0.7240 N.ar  1 <1>  -0.6200 
 17 C       -2.3700    -7.1810     0.5500 C.ar  1 <1>  -0.1500 
 18 C       -1.3640    -8.0150     0.0610 C.ar  1 <1>   0.3930 
 19 O       -1.3110    -9.3310     0.3540 O.3   1 <1>  -0.3620 
 20 C       -2.3670   -10.0170     0.9900 C.3   1 <1>   0.0400 
 21 H       -0.0880    -2.2430     2.6330 H     1 <1>   0.0800 
 22 H       -0.6440    -1.5370     1.1390 H     1 <1>   0.0800 
 23 H        0.7990    -0.0520     0.1380 H     1 <1>   0.0800 
 24 H        2.4860    -0.0790     0.5690 H     1 <1>   0.0800 
 25 H       -0.3540    -4.1340     1.3900 H     1 <1>   0.0800 
 26 H        2.3170    -1.0700    -1.5410 H     1 <1>   0.0800 
 27 H        1.6430    -5.0420     1.6060 H     1 <1>   0.0800 
 28 H        2.2230    -3.4590     2.0450 H     1 <1>   0.0800 
 29 H        0.8110    -2.6260    -2.3330 H     1 <1>   0.0800 
 30 H       -0.1380    -1.5590    -1.3480 H     1 <1>   0.0800 
 31 H        3.6650    -2.2290     0.4100 H     1 <1>   0.0800 
 32 H        3.7110    -2.7660    -1.2430 H     1 <1>   0.0800 
 33 H       -1.9570    -3.3350    -0.4990 H     1 <1>   0.0800 
 34 H       -1.3080    -3.8450    -2.0400 H     1 <1>   0.0800 
 35 H        1.9260    -4.3010    -0.6940 H     1 <1>   0.4500 
 36 H        4.4170    -4.7600     0.8840 H     1 <1>   0.0800 
 37 H        4.2550    -5.0700    -0.8340 H     1 <1>   0.0800 
 38 H        3.3240    -6.0070     0.3140 H     1 <1>   0.0800 
 39 H        0.3740    -5.9740    -1.6950 H     1 <1>   0.1500 
 40 H       -3.1250    -5.1770     0.5990 H     1 <1>   0.1500 
 41 H       -3.1480    -7.5630     1.1800 H     1 <1>   0.1500 
 42 H       -2.1100   -11.0600     1.0250 H     1 <1>   0.0800 
 43 H       -3.2670    -9.8830     0.4170 H     1 <1>   0.0800 
 44 H       -2.4820    -9.6360     1.9890 H     1 <1>   0.0800 
@<TRIPOS>BOND
  1   1   2  1   
  2   1   3  1   
  3   2   4  1   
  4   2  21  1   
  5   2  22  1   
  6   3   5  1   
  7   3  23  1   
  8   3  24  1   
  9   4   6  1   
 10   4   7  1   
 11   4  25  1   
 12   5   8  1   
 13   5   9  1   
 14   5  26  1   
 15   6   8  1   
 16   6  10  1   
 17   7  11  1   
 18   7  27  1   
 19   7  28  1   
 20   8  29  1   
 21   8  30  1   
 22   9  11  1   
 23   9  31  1   
 24   9  32  1   
 25  10  12  1   
 26  10  33  1   
 27  10  34  1   
 28  11  13  1   
 29  11  35  1   
 30  12  14  ar  
 31  12  15  ar  
 32  13  36  1   
 33  13  37  1   
 34  13  38  1   
 35  14  16  ar  
 36  14  39  1   
 37  15  17  ar  
 38  15  40  1   
 39  16  18  ar  
 40  17  18  ar  
 41  17  41  1   
 42  18  19  1   
 43  19  20  1   
 44  20  42  1   
 45  20  43  1   
 46  20  44  1   
@<TRIPOS>SUBSTRUCTURE
  1 ****   6 GROUP 4 **** **** 0

# MOE 2024.06 (io_trps.svl 2023.06)
