@<TRIPOS>MOLECULE
NONAME
54 56 1 0 0 
SMALL
USER_CHARGES


@<TRIPOS>ATOM
  1 O       -2.6570     1.0080    -2.5380 O.2   1 <1>  -0.5700 
  2 C       -2.3940     1.2040    -1.3770 C.2   1 <1>   0.5690 
  3 N       -2.3170     0.1930    -0.4800 N.am  1 <1>  -0.7300 
  4 C       -2.1440     2.6190    -0.8970 C.3   1 <1>  -0.0990 
  5 C       -2.4900    -1.2400    -0.8020 C.3   1 <1>   0.2200 
  6 C       -0.6620     2.8680    -0.5700 C.3   1 <1>  -0.1600 
  7 C       -3.7900    -1.7350    -0.1920 C.3   1 <1>  -0.0800 
  8 C       -1.4570    -2.0610    -0.0390 C.3   1 <1>   0.1200 
  9 C       -0.4300     4.3130    -0.1000 C.3   1 <1>  -0.1600 
 10 C       -3.3700    -2.0660     1.2460 C.3   1 <1>   0.1200 
 11 C       -4.3310    -2.9680    -0.9410 C.3   1 <1>  -0.0160 
 12 O       -1.9830    -2.2500     1.2400 O.3   1 <1>  -0.5600 
 13 C        1.0120     4.5800     0.3740 C.3   1 <1>  -0.0800 
 14 C       -5.6460    -3.4500    -0.3470 C.ar  1 <1>  -0.1440 
 15 C        1.1000     5.9880     0.9900 C.3   1 <1>  -0.1600 
 16 C        2.0390     4.4320    -0.7650 C.3   1 <1>  -0.1600 
 17 C       -5.7270    -4.5850     0.4340 C.ar  1 <1>  -0.1500 
 18 C       -6.8290    -2.7720    -0.5610 C.ar  1 <1>  -0.1500 
 19 C        2.5220     6.3160     1.4650 C.3   1 <1>  -0.1600 
 20 C        3.4620     4.7670    -0.2950 C.3   1 <1>  -0.1600 
 21 C       -6.9510    -4.9740     0.9520 C.ar  1 <1>   0.1600 
 22 C       -8.0010    -3.2460     0.0040 C.ar  1 <1>   0.1600 
 23 C        3.5320     6.1700     0.3210 C.3   1 <1>  -0.1600 
 24 N       -8.0900    -4.3300     0.7580 N.ar  1 <1>  -0.6200 
 25 H       -2.0820     0.3820     0.4970 H     1 <1>   0.3700 
 26 H       -2.4610     3.3000    -1.6670 H     1 <1>   0.0800 
 27 H       -2.7500     2.7990    -0.0280 H     1 <1>   0.0800 
 28 H       -2.4310    -1.3960    -1.8660 H     1 <1>   0.0800 
 29 H       -0.3430     2.1860     0.1980 H     1 <1>   0.0800 
 30 H       -0.0820     2.6710    -1.4550 H     1 <1>   0.0800 
 31 H       -4.5430    -0.9660    -0.2070 H     1 <1>   0.0800 
 32 H       -0.5030    -1.5680     0.0290 H     1 <1>   0.0800 
 33 H       -1.3340    -3.0300    -0.4890 H     1 <1>   0.0800 
 34 H       -1.1000     4.5180     0.7170 H     1 <1>   0.0800 
 35 H       -0.6750     4.9930    -0.8990 H     1 <1>   0.0800 
 36 H       -3.8390    -2.9540     1.6300 H     1 <1>   0.0800 
 37 H       -3.5840    -1.2400     1.9020 H     1 <1>   0.0800 
 38 H       -3.6100    -3.7670    -0.9170 H     1 <1>   0.0800 
 39 H       -4.4960    -2.7120    -1.9740 H     1 <1>   0.0800 
 40 H        1.2550     3.8660     1.1440 H     1 <1>   0.0800 
 41 H        0.7980     6.7190     0.2590 H     1 <1>   0.0800 
 42 H        0.4270     6.0620     1.8260 H     1 <1>   0.0800 
 43 H        2.0370     3.4250    -1.1410 H     1 <1>   0.0800 
 44 H        1.7720     5.0880    -1.5760 H     1 <1>   0.0800 
 45 H       -4.8510    -5.1720     0.6460 H     1 <1>   0.1500 
 46 H       -6.8510    -1.8810    -1.1620 H     1 <1>   0.1500 
 47 H        2.5530     7.3220     1.8450 H     1 <1>   0.0800 
 48 H        2.7920     5.6500     2.2670 H     1 <1>   0.0800 
 49 H        3.7740     4.0420     0.4370 H     1 <1>   0.0800 
 50 H        4.1400     4.7070    -1.1290 H     1 <1>   0.0800 
 51 H       -6.9950    -5.8620     1.5600 H     1 <1>   0.1500 
 52 H       -8.9150    -2.7040    -0.1740 H     1 <1>   0.1500 
 53 H        4.5260     6.3530     0.6900 H     1 <1>   0.0800 
 54 H        3.3200     6.9030    -0.4380 H     1 <1>   0.0800 
@<TRIPOS>BOND
  1   1   2  2   
  2   2   3  am  
  3   2   4  1   
  4   3   5  1   
  5   3  25  1   
  6   4   6  1   
  7   4  26  1   
  8   4  27  1   
  9   5   7  1   
 10   5   8  1   
 11   5  28  1   
 12   6   9  1   
 13   6  29  1   
 14   6  30  1   
 15   7  10  1   
 16   7  11  1   
 17   7  31  1   
 18   8  12  1   
 19   8  32  1   
 20   8  33  1   
 21   9  13  1   
 22   9  34  1   
 23   9  35  1   
 24  10  12  1   
 25  10  36  1   
 26  10  37  1   
 27  11  14  1   
 28  11  38  1   
 29  11  39  1   
 30  13  15  1   
 31  13  16  1   
 32  13  40  1   
 33  14  17  ar  
 34  14  18  ar  
 35  15  19  1   
 36  15  41  1   
 37  15  42  1   
 38  16  20  1   
 39  16  43  1   
 40  16  44  1   
 41  17  21  ar  
 42  17  45  1   
 43  18  22  ar  
 44  18  46  1   
 45  19  23  1   
 46  19  47  1   
 47  19  48  1   
 48  20  23  1   
 49  20  49  1   
 50  20  50  1   
 51  21  24  ar  
 52  21  51  1   
 53  22  24  ar  
 54  22  52  1   
 55  23  53  1   
 56  23  54  1   
@<TRIPOS>SUBSTRUCTURE
  1 ****   3 GROUP 4 **** **** 0

# MOE 2024.06 (io_trps.svl 2023.06)
