@<TRIPOS>MOLECULE
NONAME
29 29 1 0 0 
SMALL
USER_CHARGES


@<TRIPOS>ATOM
  1 O        0.3820    -0.1840    -0.0370 O.3   1 <1>  -0.5600 
  2 C        1.4210    -1.0740     0.2020 C.3   1 <1>   0.4800 
  3 C       -0.8430    -0.5650     0.5050 C.3   1 <1>   0.1200 
  4 O        2.5430    -0.5030    -0.3750 O.3   1 <1>  -0.5600 
  5 C        1.1190    -2.4220    -0.4650 C.3   1 <1>  -0.1600 
  6 C       -1.3060    -1.8770    -0.1440 C.3   1 <1>  -0.1600 
  7 C        3.7400    -0.8240     0.2500 C.3   1 <1>   0.1200 
  8 C       -0.2390    -2.9690    -0.0020 C.3   1 <1>  -0.1600 
  9 C        4.8680    -0.1480    -0.5290 C.3   1 <1>  -0.1600 
 10 C        6.2460    -0.3380     0.1240 C.3   1 <1>  -0.1600 
 11 C        6.7000    -1.8020     0.1440 C.3   1 <1>  -0.2400 
 12 H        1.5580    -1.1620     1.2670 H     1 <1>   0.0800 
 13 H       -1.5480     0.2230     0.3030 H     1 <1>   0.0800 
 14 H       -0.7310    -0.6710     1.5700 H     1 <1>   0.0800 
 15 H        1.8920    -3.1280    -0.2270 H     1 <1>   0.0800 
 16 H        1.1050    -2.2750    -1.5300 H     1 <1>   0.0800 
 17 H       -1.5020    -1.6920    -1.1860 H     1 <1>   0.0800 
 18 H       -2.2250    -2.2000     0.3110 H     1 <1>   0.0800 
 19 H        3.8610    -1.8930     0.2450 H     1 <1>   0.0800 
 20 H        3.7080    -0.4570     1.2620 H     1 <1>   0.0800 
 21 H       -0.1700    -3.2680     1.0300 H     1 <1>   0.0800 
 22 H       -0.5100    -3.8310    -0.5850 H     1 <1>   0.0800 
 23 H        4.6570     0.9060    -0.5840 H     1 <1>   0.0800 
 24 H        4.8870    -0.5380    -1.5320 H     1 <1>   0.0800 
 25 H        6.2270     0.0480     1.1290 H     1 <1>   0.0800 
 26 H        6.9680     0.2380    -0.4300 H     1 <1>   0.0800 
 27 H        6.0590    -2.3970     0.7700 H     1 <1>   0.0800 
 28 H        7.7010    -1.8680     0.5310 H     1 <1>   0.0800 
 29 H        6.6930    -2.2110    -0.8520 H     1 <1>   0.0800 
@<TRIPOS>BOND
  1   1   2  1   
  2   1   3  1   
  3   2   4  1   
  4   2   5  1   
  5   2  12  1   
  6   3   6  1   
  7   3  13  1   
  8   3  14  1   
  9   4   7  1   
 10   5   8  1   
 11   5  15  1   
 12   5  16  1   
 13   6   8  1   
 14   6  17  1   
 15   6  18  1   
 16   7   9  1   
 17   7  19  1   
 18   7  20  1   
 19   8  21  1   
 20   8  22  1   
 21   9  10  1   
 22   9  23  1   
 23   9  24  1   
 24  10  11  1   
 25  10  25  1   
 26  10  26  1   
 27  11  27  1   
 28  11  28  1   
 29  11  29  1   
@<TRIPOS>SUBSTRUCTURE
  1 ****   4 GROUP 4 **** **** 0

# MOE 2024.06 (io_trps.svl 2023.06)
