@<TRIPOS>MOLECULE
NONAME
54 57 1 0 0 
SMALL
USER_CHARGES


@<TRIPOS>ATOM
  1 O       -0.1930     0.0640    -1.3070 O.2   1 <1>  -0.5700 
  2 C        0.2730    -0.9650    -0.9110 C.2   1 <1>   0.8520 
  3 N       -0.4040    -2.1330    -0.8820 N.pl3 1 <1>  -0.8600 
  4 C        1.6870    -1.2340    -0.3720 C.3   1 <1>   0.3890 
  5 C        0.3430    -3.1150    -0.4170 C.cat 1 <1>   1.2000 
  6 N        1.5480    -2.6850    -0.1080 N.pl3 1 <1>  -0.8440 
  7 C        1.9670    -0.4960     0.9460 C.3   1 <1>  -0.1600 
  8 C        2.7780    -1.0050    -1.4320 C.3   1 <1>  -0.1600 
  9 N       -0.0770    -4.3740    -0.2840 N.pl3 1 <1>  -0.7220 
 10 C        3.3750    -0.7760     1.4590 C.3   1 <1>   0.2090 
 11 C        4.1790    -1.2640    -0.8820 C.3   1 <1>   0.2090 
 12 C        0.7720    -5.4910     0.2400 C.3   1 <1>   0.0880 
 13 C       -1.4540    -4.8480    -0.6390 C.3   1 <1>   0.0880 
 14 N        4.3230    -0.4820     0.3620 N.pl3 1 <1>  -0.8380 
 15 C        5.5010     0.1830     0.6410 C.ar  1 <1>   0.4100 
 16 N        6.6040    -0.5310     0.4240 N.ar  1 <1>  -0.6200 
 17 C        5.5070     1.5070     1.1210 C.ar  1 <1>   0.0860 
 18 C        7.7480     0.0490     0.7280 C.ar  1 <1>   0.1600 
 19 C        4.2870     2.2590     1.2570 C.2   1 <1>   0.5440 
 20 C        6.7300     2.0790     1.4390 C.ar  1 <1>  -0.1500 
 21 C        7.8670     1.3300     1.2380 C.ar  1 <1>  -0.1500 
 22 O        3.7600     2.3770     2.3490 O.2   1 <1>  -0.5700 
 23 N        3.6980     2.8680     0.1730 N.am  1 <1>  -0.6600 
 24 C        4.2130     2.8200    -1.2100 C.3   1 <1>   0.1400 
 25 C        2.4730     3.6890     0.2660 C.3   1 <1>   0.1400 
 26 C        3.0800     3.3880    -2.0570 C.3   1 <1>  -0.1600 
 27 C        2.3260     4.3230    -1.1140 C.3   1 <1>  -0.1600 
 28 H       -1.3620    -2.1950    -1.1930 H     1 <1>   0.4500 
 29 H        2.3080    -3.2420     0.2710 H     1 <1>   0.4500 
 30 H        1.2450    -0.7600     1.6980 H     1 <1>   0.0800 
 31 H        1.8820     0.5650     0.7810 H     1 <1>   0.0800 
 32 H        2.7360     0.0220    -1.7530 H     1 <1>   0.0800 
 33 H        2.6060    -1.6180    -2.2980 H     1 <1>   0.0800 
 34 H        3.4820    -1.8050     1.7550 H     1 <1>   0.0800 
 35 H        3.5880    -0.1640     2.3210 H     1 <1>   0.0800 
 36 H        4.9210    -0.9530    -1.6000 H     1 <1>   0.0800 
 37 H        4.3330    -2.3070    -0.6690 H     1 <1>   0.0800 
 38 H        0.3190    -5.9110     1.1230 H     1 <1>   0.0800 
 39 H        1.7640    -5.1620     0.4940 H     1 <1>   0.0800 
 40 H        0.8540    -6.2670    -0.5030 H     1 <1>   0.0800 
 41 H       -1.3930    -5.6110    -1.3990 H     1 <1>   0.0800 
 42 H       -2.0750    -4.0530    -1.0110 H     1 <1>   0.0800 
 43 H       -1.9310    -5.2700     0.2300 H     1 <1>   0.0800 
 44 H        8.6450    -0.5250     0.5670 H     1 <1>   0.1500 
 45 H        6.7750     3.0810     1.8290 H     1 <1>   0.1500 
 46 H        8.8370     1.7310     1.4690 H     1 <1>   0.1500 
 47 H        4.4610     1.8130    -1.5010 H     1 <1>   0.0800 
 48 H        5.0860     3.4460    -1.2820 H     1 <1>   0.0800 
 49 H        2.5690     4.4320     1.0400 H     1 <1>   0.0800 
 50 H        1.6360     3.0500     0.4830 H     1 <1>   0.0800 
 51 H        2.4340     2.5850    -2.3650 H     1 <1>   0.0800 
 52 H        3.4490     3.8960    -2.9300 H     1 <1>   0.0800 
 53 H        2.7980     5.2910    -1.1030 H     1 <1>   0.0800 
 54 H        1.2930     4.4410    -1.3900 H     1 <1>   0.0800 
@<TRIPOS>BOND
  1   1   2  2   
  2   2   3  1   
  3   2   4  1   
  4   3   5  ar  
  5   3  28  1   
  6   4   6  1   
  7   4   7  1   
  8   4   8  1   
  9   5   6  ar  
 10   5   9  ar  
 11   6  29  1   
 12   7  10  1   
 13   7  30  1   
 14   7  31  1   
 15   8  11  1   
 16   8  32  1   
 17   8  33  1   
 18   9  12  1   
 19   9  13  1   
 20  10  14  1   
 21  10  34  1   
 22  10  35  1   
 23  11  14  1   
 24  11  36  1   
 25  11  37  1   
 26  12  38  1   
 27  12  39  1   
 28  12  40  1   
 29  13  41  1   
 30  13  42  1   
 31  13  43  1   
 32  14  15  1   
 33  15  16  ar  
 34  15  17  ar  
 35  16  18  ar  
 36  17  19  1   
 37  17  20  ar  
 38  18  21  ar  
 39  18  44  1   
 40  19  22  2   
 41  19  23  am  
 42  20  21  ar  
 43  20  45  1   
 44  21  46  1   
 45  23  24  1   
 46  23  25  1   
 47  24  26  1   
 48  24  47  1   
 49  24  48  1   
 50  25  27  1   
 51  25  49  1   
 52  25  50  1   
 53  26  27  1   
 54  26  51  1   
 55  26  52  1   
 56  27  53  1   
 57  27  54  1   
@<TRIPOS>SUBSTRUCTURE
  1 ****  14 GROUP 4 **** **** 0

# MOE 2024.06 (io_trps.svl 2023.06)
