@<TRIPOS>MOLECULE
NONAME
38 40 1 0 0 
SMALL
USER_CHARGES


@<TRIPOS>ATOM
  1 S        2.0730    -0.1330     1.5270 S.3   1 <1>  -0.0800 
  2 C        0.4580    -0.2970     0.8900 C.2   1 <1>   0.1980 
  3 C        2.2170    -1.8600     1.5140 C.2   1 <1>  -0.1100 
  4 N        0.0910    -1.4970     0.6960 N.2   1 <1>  -0.5650 
  5 C       -0.3200     0.9730     0.6390 C.3   1 <1>  -0.0600 
  6 C        1.0860    -2.4330     1.0450 C.2   1 <1>   0.1410 
  7 C        0.9070    -3.8830     0.9230 C.2   1 <1>   0.7160 
  8 O        1.7680    -4.6160     1.3800 O.2   1 <1>  -0.5700 
  9 N       -0.1730    -4.4950     0.3130 N.am  1 <1>  -0.6600 
 10 C       -1.2390    -3.8300    -0.4780 C.3   1 <1>   0.1400 
 11 C       -0.3350    -5.9680     0.2690 C.3   1 <1>   0.1400 
 12 C       -2.0100    -4.9690    -1.1450 C.3   1 <1>   0.2000 
 13 C       -1.7400    -6.2030    -0.2870 C.3   1 <1>  -0.0800 
 14 O       -3.3710    -4.7100    -1.1890 O.3   1 <1>  -0.6800 
 15 C       -1.8830    -7.5180    -1.0680 C.3   1 <1>  -0.0170 
 16 C       -1.5850    -8.7160    -0.1790 C.ar  1 <1>  -0.1440 
 17 C       -0.3550    -9.3440    -0.1790 C.ar  1 <1>  -0.1500 
 18 C       -2.5340    -9.2330     0.6790 C.ar  1 <1>  -0.1500 
 19 C       -0.1400   -10.4250     0.6590 C.ar  1 <1>   0.1600 
 20 C       -2.2160   -10.3200     1.4760 C.ar  1 <1>   0.1600 
 21 N       -1.0410   -10.9280     1.4880 N.ar  1 <1>  -0.6200 
 22 H        3.1360    -2.2980     1.8590 H     1 <1>   0.1500 
 23 H       -1.2930     0.7330     0.2500 H     1 <1>   0.0800 
 24 H        0.2010     1.5850    -0.0730 H     1 <1>   0.0800 
 25 H       -0.4350     1.5170     1.5580 H     1 <1>   0.0800 
 26 H       -1.8750    -3.2710     0.1870 H     1 <1>   0.0800 
 27 H       -0.8090    -3.1760    -1.2170 H     1 <1>   0.0800 
 28 H        0.4150    -6.3790    -0.3850 H     1 <1>   0.0800 
 29 H       -0.2230    -6.3960     1.2520 H     1 <1>   0.0800 
 30 H       -1.6580    -5.1050    -2.1530 H     1 <1>   0.0800 
 31 H       -2.4140    -6.2100     0.5510 H     1 <1>   0.0800 
 32 H       -3.7150    -4.5460    -0.2900 H     1 <1>   0.4000 
 33 H       -1.2170    -7.5190    -1.9140 H     1 <1>   0.0800 
 34 H       -2.8870    -7.5990    -1.4480 H     1 <1>   0.0800 
 35 H        0.4380    -9.0050    -0.8190 H     1 <1>   0.1500 
 36 H       -3.5160    -8.8010     0.7350 H     1 <1>   0.1500 
 37 H        0.8250   -10.9020     0.6480 H     1 <1>   0.1500 
 38 H       -2.9690   -10.7110     2.1390 H     1 <1>   0.1500 
@<TRIPOS>BOND
  1   1   2  1   
  2   1   3  1   
  3   2   4  2   
  4   2   5  1   
  5   3   6  2   
  6   3  22  1   
  7   4   6  1   
  8   5  23  1   
  9   5  24  1   
 10   5  25  1   
 11   6   7  1   
 12   7   8  2   
 13   7   9  am  
 14   9  10  1   
 15   9  11  1   
 16  10  12  1   
 17  10  26  1   
 18  10  27  1   
 19  11  13  1   
 20  11  28  1   
 21  11  29  1   
 22  12  13  1   
 23  12  14  1   
 24  12  30  1   
 25  13  15  1   
 26  13  31  1   
 27  14  32  1   
 28  15  16  1   
 29  15  33  1   
 30  15  34  1   
 31  16  17  ar  
 32  16  18  ar  
 33  17  19  ar  
 34  17  35  1   
 35  18  20  ar  
 36  18  36  1   
 37  19  21  ar  
 38  19  37  1   
 39  20  21  ar  
 40  20  38  1   
@<TRIPOS>SUBSTRUCTURE
  1 ****  11 GROUP 4 **** **** 0

# MOE 2024.06 (io_trps.svl 2023.06)
