@<TRIPOS>MOLECULE
NONAME
61 64 1 0 0 
SMALL
USER_CHARGES


@<TRIPOS>ATOM
  1 O       -0.1510     0.7550     1.4270 O.2   1 <1>  -0.5700 
  2 C       -0.0720     1.9440     1.1810 C.2   1 <1>   0.5440 
  3 N       -1.2140     2.6280     0.8190 N.am  1 <1>  -0.6600 
  4 C        1.2180     2.6040     1.2660 C.ar  1 <1>   0.0860 
  5 C       -1.1720     3.9560     0.1400 C.3   1 <1>   0.1400 
  6 C       -2.5510     1.9800     0.9570 C.3   1 <1>   0.1400 
  7 C        2.3220     2.1040     0.5810 C.ar  1 <1>  -0.1500 
  8 C        1.4000     3.7560     2.0320 C.ar  1 <1>  -0.1500 
  9 C       -2.3380     4.0710    -0.8400 C.3   1 <1>  -0.1600 
 10 C       -3.6500     3.0390     1.0850 C.3   1 <1>  -0.1600 
 11 C        3.5560     2.7280     0.6370 C.ar  1 <1>   0.0820 
 12 C        2.6270     4.3900     2.0980 C.ar  1 <1>  -0.1500 
 13 C       -3.6950     4.0290    -0.1050 C.3   1 <1>   0.2800 
 14 O        4.5600     2.1570    -0.0730 O.3   1 <1>  -0.3630 
 15 C        3.7080     3.8810     1.4010 C.ar  1 <1>  -0.1500 
 16 O       -3.9160     5.2900     0.4820 O.3   1 <1>  -0.5600 
 17 C       -4.8460     3.6830    -1.0850 C.3   1 <1>  -0.1600 
 18 C        5.8800     2.6490    -0.0030 C.3   1 <1>   0.1200 
 19 C       -4.4350     6.3140    -0.3190 C.3   1 <1>   0.1200 
 20 C       -6.1330     4.4580    -0.7860 C.3   1 <1>   0.2800 
 21 C        6.7770     1.7550    -0.8540 C.3   1 <1>  -0.0170 
 22 C       -5.8450     5.9620    -0.8200 C.3   1 <1>  -0.1600 
 23 O       -6.5260     4.1540     0.4900 O.3   1 <1>  -0.6800 
 24 C       -7.2850     4.0640    -1.7070 C.3   1 <1>  -0.2400 
 25 C        8.2130     2.2510    -0.7920 C.ar  1 <1>  -0.1440 
 26 C        8.6770     3.1680    -1.7220 C.ar  1 <1>  -0.1500 
 27 C        9.0670     1.7950     0.2000 C.ar  1 <1>  -0.1500 
 28 C        9.9820     3.6260    -1.6600 C.ar  1 <1>  -0.1500 
 29 C       10.3730     2.2520     0.2620 C.ar  1 <1>  -0.1500 
 30 C       10.8310     3.1680    -0.6680 C.ar  1 <1>  -0.1500 
 31 H       -0.2440     4.0670    -0.3940 H     1 <1>   0.0800 
 32 H       -1.2410     4.7370     0.8780 H     1 <1>   0.0800 
 33 H       -2.5560     1.3490     1.8300 H     1 <1>   0.0800 
 34 H       -2.7300     1.3600     0.0960 H     1 <1>   0.0800 
 35 H        2.2140     1.2080    -0.0030 H     1 <1>   0.1500 
 36 H        0.5640     4.1500     2.5840 H     1 <1>   0.1500 
 37 H       -2.2690     3.2480    -1.5300 H     1 <1>   0.0800 
 38 H       -2.2400     4.9700    -1.4160 H     1 <1>   0.0800 
 39 H       -3.4680     3.5740     2.0010 H     1 <1>   0.0800 
 40 H       -4.5910     2.5330     1.1970 H     1 <1>   0.0800 
 41 H        2.7430     5.2780     2.6950 H     1 <1>   0.1500 
 42 H        4.6510     4.3920     1.4650 H     1 <1>   0.1500 
 43 H       -5.0380     2.6250    -1.0850 H     1 <1>   0.0800 
 44 H       -4.5420     3.9300    -2.0860 H     1 <1>   0.0800 
 45 H        6.1980     2.6310     1.0250 H     1 <1>   0.0800 
 46 H        5.8900     3.6580    -0.3780 H     1 <1>   0.0800 
 47 H       -3.7690     6.4760    -1.1470 H     1 <1>   0.0800 
 48 H       -4.4640     7.2120     0.2740 H     1 <1>   0.0800 
 49 H        6.4330     1.7640    -1.8720 H     1 <1>   0.0800 
 50 H        6.7270     0.7450    -0.4870 H     1 <1>   0.0800 
 51 H       -5.9250     6.3190    -1.8300 H     1 <1>   0.0800 
 52 H       -6.5860     6.4910    -0.2460 H     1 <1>   0.0800 
 53 H       -5.8170     4.4780     1.0850 H     1 <1>   0.4000 
 54 H       -7.0330     4.2720    -2.7300 H     1 <1>   0.0800 
 55 H       -8.1690     4.6210    -1.4520 H     1 <1>   0.0800 
 56 H       -7.4930     3.0130    -1.6130 H     1 <1>   0.0800 
 57 H        8.0270     3.5310    -2.4980 H     1 <1>   0.1500 
 58 H        8.7220     1.0820     0.9280 H     1 <1>   0.1500 
 59 H       10.3370     4.3380    -2.3850 H     1 <1>   0.1500 
 60 H       11.0310     1.8940     1.0340 H     1 <1>   0.1500 
 61 H       11.8450     3.5240    -0.6200 H     1 <1>   0.1500 
@<TRIPOS>BOND
  1   1   2  2   
  2   2   3  am  
  3   2   4  1   
  4   3   5  1   
  5   3   6  1   
  6   4   7  ar  
  7   4   8  ar  
  8   5   9  1   
  9   5  31  1   
 10   5  32  1   
 11   6  10  1   
 12   6  33  1   
 13   6  34  1   
 14   7  11  ar  
 15   7  35  1   
 16   8  12  ar  
 17   8  36  1   
 18   9  13  1   
 19   9  37  1   
 20   9  38  1   
 21  10  13  1   
 22  10  39  1   
 23  10  40  1   
 24  11  14  1   
 25  11  15  ar  
 26  12  15  ar  
 27  12  41  1   
 28  13  16  1   
 29  13  17  1   
 30  14  18  1   
 31  15  42  1   
 32  16  19  1   
 33  17  20  1   
 34  17  43  1   
 35  17  44  1   
 36  18  21  1   
 37  18  45  1   
 38  18  46  1   
 39  19  22  1   
 40  19  47  1   
 41  19  48  1   
 42  20  22  1   
 43  20  23  1   
 44  20  24  1   
 45  21  25  1   
 46  21  49  1   
 47  21  50  1   
 48  22  51  1   
 49  22  52  1   
 50  23  53  1   
 51  24  54  1   
 52  24  55  1   
 53  24  56  1   
 54  25  26  ar  
 55  25  27  ar  
 56  26  28  ar  
 57  26  57  1   
 58  27  29  ar  
 59  27  58  1   
 60  28  30  ar  
 61  28  59  1   
 62  29  30  ar  
 63  29  60  1   
 64  30  61  1   
@<TRIPOS>SUBSTRUCTURE
  1 ****   4 GROUP 4 **** **** 0

# MOE 2024.06 (io_trps.svl 2023.06)
