@<TRIPOS>MOLECULE
NONAME
44 46 1 0 0 
SMALL
USER_CHARGES


@<TRIPOS>ATOM
  1 CL      -3.0550    -1.3630    -3.5040 Cl    1 <1>  -0.1770 
  2 C       -3.1290    -1.8270    -1.8230 C.ar  1 <1>   0.1770 
  3 C       -3.2510    -3.1620    -1.4940 C.ar  1 <1>  -0.1500 
  4 C       -3.0640    -0.8490    -0.8480 C.ar  1 <1>  -0.1500 
  5 C       -3.3130    -3.5340    -0.1610 C.ar  1 <1>   0.0830 
  6 C       -3.1220    -1.2180     0.4850 C.ar  1 <1>  -0.1500 
  7 O       -3.4380    -4.8580     0.0930 O.3   1 <1>  -0.3630 
  8 C       -3.2460    -2.5550     0.8300 C.ar  1 <1>  -0.1500 
  9 C       -3.5570    -5.3500     1.4210 C.3   1 <1>   0.1810 
 10 C       -3.7350    -6.8660     1.4480 C.2   1 <1>   0.5690 
 11 O       -3.0060    -7.5050     2.1710 O.2   1 <1>  -0.5700 
 12 N       -4.7130    -7.4820     0.7110 N.am  1 <1>  -0.6600 
 13 C       -5.6890    -6.8240    -0.1950 C.3   1 <1>   0.1400 
 14 C       -4.8660    -8.9570     0.6430 C.3   1 <1>   0.1400 
 15 C       -6.7670    -7.8840    -0.4150 C.3   1 <1>   0.2000 
 16 C       -5.9800    -9.1970    -0.3830 C.3   1 <1>  -0.0800 
 17 O       -7.6370    -7.8370     0.6650 O.3   1 <1>  -0.6800 
 18 C       -6.8100   -10.4660    -0.1140 C.3   1 <1>   0.0210 
 19 C       -5.9230   -11.6950    -0.0970 C.2   1 <1>   0.1080 
 20 N       -5.2250   -12.0730    -1.1220 N.2   1 <1>  -0.7070 
 21 C       -5.7460   -12.5340     0.9980 C.2   1 <1>  -0.1500 
 22 N       -4.5770   -13.1770    -0.7040 N.pl3 1 <1>   0.3000 
 23 C       -4.8760   -13.4750     0.5780 C.2   1 <1>  -0.3320 
 24 C       -4.3020   -14.6590     1.3340 C.3   1 <1>  -0.0600 
 25 H       -3.2970    -3.9080    -2.2660 H     1 <1>   0.1500 
 26 H       -2.9680     0.1840    -1.1330 H     1 <1>   0.1500 
 27 H       -3.0710    -0.4640     1.2530 H     1 <1>   0.1500 
 28 H       -3.2850    -2.8090     1.8730 H     1 <1>   0.1500 
 29 H       -2.6620    -5.0900     1.9550 H     1 <1>   0.0800 
 30 H       -4.4080    -4.8860     1.8820 H     1 <1>   0.0800 
 31 H       -6.0950    -5.9220     0.2270 H     1 <1>   0.0800 
 32 H       -5.2010    -6.5990    -1.1280 H     1 <1>   0.0800 
 33 H       -3.9450    -9.4250     0.3360 H     1 <1>   0.0800 
 34 H       -5.1440    -9.3280     1.6150 H     1 <1>   0.0800 
 35 H       -7.3300    -7.7400    -1.3210 H     1 <1>   0.0800 
 36 H       -5.5040    -9.3130    -1.3410 H     1 <1>   0.0800 
 37 H       -7.1080    -7.8490     1.4870 H     1 <1>   0.4000 
 38 H       -7.5470   -10.5840    -0.8880 H     1 <1>   0.0800 
 39 H       -7.3250   -10.3920     0.8260 H     1 <1>   0.0800 
 40 H       -6.2140   -12.4290     1.9610 H     1 <1>   0.1500 
 41 H       -3.9400   -13.7010    -1.3150 H     1 <1>   0.2700 
 42 H       -4.6910   -14.6820     2.3370 H     1 <1>   0.0800 
 43 H       -3.2300   -14.5840     1.3860 H     1 <1>   0.0800 
 44 H       -4.5670   -15.5790     0.8430 H     1 <1>   0.0800 
@<TRIPOS>BOND
  1   1   2  1   
  2   2   3  ar  
  3   2   4  ar  
  4   3   5  ar  
  5   3  25  1   
  6   4   6  ar  
  7   4  26  1   
  8   5   7  1   
  9   5   8  ar  
 10   6   8  ar  
 11   6  27  1   
 12   7   9  1   
 13   8  28  1   
 14   9  10  1   
 15   9  29  1   
 16   9  30  1   
 17  10  11  2   
 18  10  12  am  
 19  12  13  1   
 20  12  14  1   
 21  13  15  1   
 22  13  31  1   
 23  13  32  1   
 24  14  16  1   
 25  14  33  1   
 26  14  34  1   
 27  15  16  1   
 28  15  17  1   
 29  15  35  1   
 30  16  18  1   
 31  16  36  1   
 32  17  37  1   
 33  18  19  1   
 34  18  38  1   
 35  18  39  1   
 36  19  20  2   
 37  19  21  1   
 38  20  22  1   
 39  21  23  2   
 40  21  40  1   
 41  22  23  1   
 42  22  41  1   
 43  23  24  1   
 44  24  42  1   
 45  24  43  1   
 46  24  44  1   
@<TRIPOS>SUBSTRUCTURE
  1 ****  12 GROUP 4 **** **** 0

# MOE 2024.06 (io_trps.svl 2023.06)
