@<TRIPOS>MOLECULE
NONAME
52 54 1 0 0 
SMALL
USER_CHARGES


@<TRIPOS>ATOM
  1 O        0.1500     0.9750     0.0140 O.2   1 <1>  -0.5700 
  2 C        0.0830     2.1510    -0.2360 C.2   1 <1>   0.5690 
  3 N       -0.6040     2.9890     0.5730 N.am  1 <1>  -0.7300 
  4 C        0.7620     2.7130    -1.4890 C.3   1 <1>   0.1810 
  5 C       -0.7060     4.4510     0.3450 C.3   1 <1>   0.3640 
  6 O        0.9940     4.1030    -1.3990 O.3   1 <1>  -0.5600 
  7 C       -2.1510     4.8960     0.5190 C.ar  1 <1>  -0.1440 
  8 C       -0.1540     4.8620    -1.0430 C.3   1 <1>   0.2610 
  9 C       -3.2080     4.1340     0.0370 C.ar  1 <1>   0.1600 
 10 C       -2.4360     6.0890     1.1560 C.ar  1 <1>  -0.1500 
 11 C        0.1050     6.3740    -1.0640 C.2   1 <1>   0.5690 
 12 N       -4.4870     4.4560     0.1430 N.ar  1 <1>  -0.6200 
 13 C       -3.7630     6.4410     1.2710 C.ar  1 <1>  -0.1500 
 14 O       -0.6450     7.0350    -1.7450 O.2   1 <1>  -0.5700 
 15 N        1.0980     6.9780    -0.3200 N.am  1 <1>  -0.6600 
 16 C       -4.7350     5.6010     0.7550 C.ar  1 <1>   0.1600 
 17 C        2.2040     6.2850     0.4130 C.3   1 <1>   0.1400 
 18 C        1.2970     8.4620    -0.3560 C.3   1 <1>   0.1400 
 19 C        3.5690     6.6780    -0.1750 C.3   1 <1>   0.1100 
 20 C        2.6890     8.8170    -0.9020 C.3   1 <1>   0.1100 
 21 N        3.7640     8.1400    -0.1400 N.3   1 <1>  -0.8100 
 22 C        5.1050     8.5110    -0.6800 C.3   1 <1>   0.1710 
 23 C        5.4540    10.0110    -0.6470 C.2   1 <1>   0.5690 
 24 O        5.6910    10.5410    -1.7100 O.2   1 <1>  -0.5700 
 25 N        5.4970    10.7180     0.5360 N.am  1 <1>  -0.6600 
 26 C        5.1580    10.1310     1.8610 C.3   1 <1>   0.0600 
 27 C        5.7910    12.1780     0.5660 C.3   1 <1>   0.0600 
 28 H       -1.0500     2.6030     1.4090 H     1 <1>   0.3700 
 29 H        0.1450     2.5250    -2.3490 H     1 <1>   0.0800 
 30 H        1.7110     2.2290    -1.6290 H     1 <1>   0.0800 
 31 H       -0.1160     4.9350     1.1040 H     1 <1>   0.0800 
 32 H       -0.9060     4.6590    -1.7850 H     1 <1>   0.0800 
 33 H       -2.9970     3.2050    -0.4660 H     1 <1>   0.1500 
 34 H       -1.6620     6.7320     1.5430 H     1 <1>   0.1500 
 35 H       -4.0460     7.3590     1.7530 H     1 <1>   0.1500 
 36 H       -5.7690     5.8870     0.8500 H     1 <1>   0.1500 
 37 H        2.1770     6.5780     1.4480 H     1 <1>   0.0800 
 38 H        2.1020     5.2180     0.3730 H     1 <1>   0.0800 
 39 H        0.5500     8.9370    -0.9680 H     1 <1>   0.0800 
 40 H        1.2010     8.8560     0.6410 H     1 <1>   0.0800 
 41 H        3.6310     6.3200    -1.1890 H     1 <1>   0.0800 
 42 H        4.3450     6.2010     0.3980 H     1 <1>   0.0800 
 43 H        2.8180     9.8840    -0.8400 H     1 <1>   0.0800 
 44 H        2.7400     8.5370    -1.9410 H     1 <1>   0.0800 
 45 H        5.8630     7.9930    -0.1220 H     1 <1>   0.0800 
 46 H        5.1760     8.1800    -1.7010 H     1 <1>   0.0800 
 47 H        5.7620    10.5800     2.6300 H     1 <1>   0.0800 
 48 H        5.3330     9.0710     1.8700 H     1 <1>   0.0800 
 49 H        4.1190    10.3120     2.0770 H     1 <1>   0.0800 
 50 H        6.6540    12.3620     1.1800 H     1 <1>   0.0800 
 51 H        4.9470    12.7090     0.9690 H     1 <1>   0.0800 
 52 H        5.9900    12.5510    -0.4240 H     1 <1>   0.0800 
@<TRIPOS>BOND
  1   1   2  2   
  2   2   3  am  
  3   2   4  1   
  4   3   5  1   
  5   3  28  1   
  6   4   6  1   
  7   4  29  1   
  8   4  30  1   
  9   5   7  1   
 10   5   8  1   
 11   5  31  1   
 12   6   8  1   
 13   7   9  ar  
 14   7  10  ar  
 15   8  11  1   
 16   8  32  1   
 17   9  12  ar  
 18   9  33  1   
 19  10  13  ar  
 20  10  34  1   
 21  11  14  2   
 22  11  15  am  
 23  12  16  ar  
 24  13  16  ar  
 25  13  35  1   
 26  15  17  1   
 27  15  18  1   
 28  16  36  1   
 29  17  19  1   
 30  17  37  1   
 31  17  38  1   
 32  18  20  1   
 33  18  39  1   
 34  18  40  1   
 35  19  21  1   
 36  19  41  1   
 37  19  42  1   
 38  20  21  1   
 39  20  43  1   
 40  20  44  1   
 41  21  22  1   
 42  22  23  1   
 43  22  45  1   
 44  22  46  1   
 45  23  24  2   
 46  23  25  am  
 47  25  26  1   
 48  25  27  1   
 49  26  47  1   
 50  26  48  1   
 51  26  49  1   
 52  27  50  1   
 53  27  51  1   
 54  27  52  1   
@<TRIPOS>SUBSTRUCTURE
  1 ****  15 GROUP 4 **** **** 0

# MOE 2024.06 (io_trps.svl 2023.06)
