@<TRIPOS>MOLECULE
NONAME
47 49 1 0 0 
SMALL
USER_CHARGES


@<TRIPOS>ATOM
  1 F       -2.8340     0.1340     1.6620 F     1 <1>  -0.3400 
  2 C       -3.4460     1.2630     1.3330 C.3   1 <1>   1.1640 
  3 F       -2.8000     2.2200     1.9900 F     1 <1>  -0.3400 
  4 F       -4.6560     1.2150     1.8720 F     1 <1>  -0.3400 
  5 C       -3.4970     1.5210    -0.1830 C.ar  1 <1>  -0.1440 
  6 C       -3.8250     0.4890    -1.0760 C.ar  1 <1>   0.0860 
  7 C       -3.2140     2.7910    -0.6820 C.ar  1 <1>  -0.1500 
  8 C       -4.1730    -0.8560    -0.6590 C.2   1 <1>   0.5440 
  9 C       -3.8240     0.7700    -2.4420 C.ar  1 <1>  -0.1500 
 10 C       -3.2350     3.0470    -2.0400 C.ar  1 <1>  -0.1500 
 11 O       -3.4550    -1.7900    -0.9610 O.2   1 <1>  -0.5700 
 12 N       -5.3340    -1.1080     0.0320 N.am  1 <1>  -0.6600 
 13 C       -3.5370     2.0310    -2.9240 C.ar  1 <1>  -0.1500 
 14 C       -5.5200    -2.4170     0.7390 C.3   1 <1>   0.1400 
 15 C       -6.5860    -0.3530    -0.3130 C.3   1 <1>   0.1400 
 16 C       -6.6590    -3.1400     0.0090 C.3   1 <1>   0.4230 
 17 C       -7.8340    -0.9120     0.3960 C.3   1 <1>  -0.1600 
 18 N       -6.7490    -4.6290     0.1370 N.4   1 <1>  -0.9590 
 19 C       -7.9910    -2.4680     0.3880 C.3   1 <1>  -0.1060 
 20 C       -7.7610    -5.1800    -0.8060 C.3   1 <1>   0.3430 
 21 C       -5.4450    -5.3390     0.0620 C.3   1 <1>   0.2630 
 22 C       -8.4350    -2.9120     1.7940 C.2   1 <1>   0.9060 
 23 C       -9.0270    -2.9380    -0.6590 C.3   1 <1>  -0.1600 
 24 C       -9.1200    -4.4780    -0.6620 C.3   1 <1>  -0.1600 
 25 O       -9.4630    -2.4310     2.2670 O.co2 1 <1>  -0.9000 
 26 O       -7.7850    -3.7810     2.3970 O.co2 1 <1>  -0.9000 
 27 H       -2.9690     3.6050    -0.0180 H     1 <1>   0.1500 
 28 H       -4.0500    -0.0210    -3.1360 H     1 <1>   0.1500 
 29 H       -3.0120     4.0340    -2.4090 H     1 <1>   0.1500 
 30 H       -3.5440     2.2230    -3.9840 H     1 <1>   0.1500 
 31 H       -4.6090    -2.9830     0.7110 H     1 <1>   0.0800 
 32 H       -5.7730    -2.2400     1.7710 H     1 <1>   0.0800 
 33 H       -6.4660     0.6830    -0.0470 H     1 <1>   0.0800 
 34 H       -6.7360    -0.4050    -1.3780 H     1 <1>   0.0800 
 35 H       -6.4850    -2.9390    -1.0340 H     1 <1>   0.0800 
 36 H       -7.7730    -0.5750     1.4180 H     1 <1>   0.0800 
 37 H       -8.7170    -0.4480    -0.0060 H     1 <1>   0.0800 
 38 H       -7.1340    -4.7190     1.1170 H     1 <1>   0.4500 
 39 H       -7.4070    -5.0520    -1.8160 H     1 <1>   0.0800 
 40 H       -7.8880    -6.2350    -0.6250 H     1 <1>   0.0800 
 41 H       -4.9590    -5.1310    -0.8770 H     1 <1>   0.0800 
 42 H       -5.5960    -6.4020     0.1550 H     1 <1>   0.0800 
 43 H       -4.8020    -5.0180     0.8650 H     1 <1>   0.0800 
 44 H       -9.9940    -2.5260    -0.4170 H     1 <1>   0.0800 
 45 H       -8.7500    -2.5850    -1.6370 H     1 <1>   0.0800 
 46 H       -9.7640    -4.7930    -1.4630 H     1 <1>   0.0800 
 47 H       -9.5800    -4.8090     0.2540 H     1 <1>   0.0800 
@<TRIPOS>BOND
  1   1   2  1   
  2   2   3  1   
  3   2   4  1   
  4   2   5  1   
  5   5   6  ar  
  6   5   7  ar  
  7   6   8  1   
  8   6   9  ar  
  9   7  10  ar  
 10   7  27  1   
 11   8  11  2   
 12   8  12  am  
 13   9  13  ar  
 14   9  28  1   
 15  10  13  ar  
 16  10  29  1   
 17  12  14  1   
 18  12  15  1   
 19  13  30  1   
 20  14  16  1   
 21  14  31  1   
 22  14  32  1   
 23  15  17  1   
 24  15  33  1   
 25  15  34  1   
 26  16  18  1   
 27  16  19  1   
 28  16  35  1   
 29  17  19  1   
 30  17  36  1   
 31  17  37  1   
 32  18  20  1   
 33  18  21  1   
 34  18  38  1   
 35  19  22  1   
 36  19  23  1   
 37  20  24  1   
 38  20  39  1   
 39  20  40  1   
 40  21  41  1   
 41  21  42  1   
 42  21  43  1   
 43  22  25  ar  
 44  22  26  ar  
 45  23  24  1   
 46  23  44  1   
 47  23  45  1   
 48  24  46  1   
 49  24  47  1   
@<TRIPOS>SUBSTRUCTURE
  1 ****  12 GROUP 4 **** **** 0

# MOE 2024.06 (io_trps.svl 2023.06)
