@<TRIPOS>MOLECULE
NONAME
48 50 1 0 0 
SMALL
USER_CHARGES


@<TRIPOS>ATOM
  1 CL       2.1070     2.9870     2.7570 Cl    1 <1>  -0.1770 
  2 C        0.9680     2.4710     1.5340 C.ar  1 <1>   0.1770 
  3 C        1.4060     1.9690     0.3140 C.ar  1 <1>  -0.1440 
  4 C       -0.3780     2.5820     1.8300 C.ar  1 <1>  -0.1500 
  5 C        0.4470     1.5750    -0.6130 C.ar  1 <1>  -0.1500 
  6 C        2.8940     1.8630    -0.0120 C.3   1 <1>   0.3640 
  7 C       -1.3190     2.1850     0.8970 C.ar  1 <1>  -0.1500 
  8 C       -0.9040     1.6810    -0.3230 C.ar  1 <1>  -0.1500 
  9 N        3.1630     0.5210    -0.5860 N.am  1 <1>  -0.7300 
 10 C        3.3480     2.9870    -0.9740 C.3   1 <1>   0.2610 
 11 C        3.9790     0.3130    -1.6430 C.2   1 <1>   0.5690 
 12 O        4.6160     2.6810    -1.5390 O.3   1 <1>  -0.5600 
 13 C        3.3900     4.3160    -0.2220 C.2   1 <1>   0.5690 
 14 O        4.1760    -0.8020    -2.0550 O.2   1 <1>  -0.5700 
 15 C        4.6300     1.5150    -2.3350 C.3   1 <1>   0.1810 
 16 O        2.4110     5.0250    -0.2250 O.2   1 <1>  -0.5700 
 17 N        4.5250     4.6700     0.4340 N.am  1 <1>  -0.7300 
 18 C        4.7580     5.9480     1.1550 C.3   1 <1>   0.1400 
 19 C        5.9370     6.7350     0.5410 C.3   1 <1>   0.2800 
 20 O        7.0500     5.9120     0.5460 O.3   1 <1>  -0.6800 
 21 C        5.6610     7.1310    -0.9280 C.3   1 <1>  -0.1600 
 22 C        6.2950     7.9720     1.3790 C.3   1 <1>  -0.1600 
 23 C        6.3690     8.4190    -1.4000 C.3   1 <1>  -0.1600 
 24 C        7.5220     8.7470     0.8470 C.3   1 <1>  -0.1600 
 25 C        7.7020     8.6550    -0.6810 C.3   1 <1>  -0.1600 
 26 H       -0.6830     2.9790     2.7820 H     1 <1>   0.1500 
 27 H        0.7430     1.1810    -1.5710 H     1 <1>   0.1500 
 28 H        3.4750     1.9450     0.8890 H     1 <1>   0.0800 
 29 H       -2.3690     2.2690     1.1190 H     1 <1>   0.1500 
 30 H       -1.6350     1.3720    -1.0510 H     1 <1>   0.1500 
 31 H        2.7420    -0.2840    -0.1210 H     1 <1>   0.3700 
 32 H        2.6430     3.0850    -1.7800 H     1 <1>   0.0800 
 33 H        4.1120     1.7250    -3.2530 H     1 <1>   0.0800 
 34 H        5.6560     1.2840    -2.5600 H     1 <1>   0.0800 
 35 H        5.3910     4.1520     0.2390 H     1 <1>   0.3700 
 36 H        3.8670     6.5510     1.1260 H     1 <1>   0.0800 
 37 H        4.9740     5.7310     2.1860 H     1 <1>   0.0800 
 38 H        7.7960     6.4250     0.1860 H     1 <1>   0.4000 
 39 H        5.9250     6.3080    -1.5710 H     1 <1>   0.0800 
 40 H        4.6030     7.2860    -1.0540 H     1 <1>   0.0800 
 41 H        5.4460     8.6320     1.3690 H     1 <1>   0.0800 
 42 H        6.4610     7.6870     2.4040 H     1 <1>   0.0800 
 43 H        6.5270     8.3740    -2.4640 H     1 <1>   0.0800 
 44 H        5.7260     9.2610    -1.2060 H     1 <1>   0.0800 
 45 H        7.4170     9.7800     1.1310 H     1 <1>   0.0800 
 46 H        8.4150     8.3770     1.3220 H     1 <1>   0.0800 
 47 H        8.1540     9.5630    -1.0430 H     1 <1>   0.0800 
 48 H        8.3730     7.8490    -0.9220 H     1 <1>   0.0800 
@<TRIPOS>BOND
  1   1   2  1   
  2   2   3  ar  
  3   2   4  ar  
  4   3   5  ar  
  5   3   6  1   
  6   4   7  ar  
  7   4  26  1   
  8   5   8  ar  
  9   5  27  1   
 10   6   9  1   
 11   6  10  1   
 12   6  28  1   
 13   7   8  ar  
 14   7  29  1   
 15   8  30  1   
 16   9  11  am  
 17   9  31  1   
 18  10  12  1   
 19  10  13  1   
 20  10  32  1   
 21  11  14  2   
 22  11  15  1   
 23  12  15  1   
 24  13  16  2   
 25  13  17  am  
 26  15  33  1   
 27  15  34  1   
 28  17  18  1   
 29  17  35  1   
 30  18  19  1   
 31  18  36  1   
 32  18  37  1   
 33  19  20  1   
 34  19  21  1   
 35  19  22  1   
 36  20  38  1   
 37  21  23  1   
 38  21  39  1   
 39  21  40  1   
 40  22  24  1   
 41  22  41  1   
 42  22  42  1   
 43  23  25  1   
 44  23  43  1   
 45  23  44  1   
 46  24  25  1   
 47  24  45  1   
 48  24  46  1   
 49  25  47  1   
 50  25  48  1   
@<TRIPOS>SUBSTRUCTURE
  1 ****  13 GROUP 4 **** **** 0

# MOE 2024.06 (io_trps.svl 2023.06)
