@<TRIPOS>MOLECULE
NONAME
54 57 1 0 0 
SMALL
USER_CHARGES


@<TRIPOS>ATOM
  1 O        1.7390    -1.5770    -2.7430 O.2   1 <1>  -0.5700 
  2 C        2.4160    -1.5230    -1.7410 C.2   1 <1>   0.5690 
  3 N        1.9100    -1.8870    -0.5110 N.am  1 <1>  -0.6600 
  4 C        3.8710    -1.0410    -1.8790 C.3   1 <1>   0.2700 
  5 C        2.7050    -1.7620     0.7560 C.3   1 <1>   0.1400 
  6 C        0.4820    -2.2670    -0.3440 C.3   1 <1>   0.1400 
  7 N        4.5050    -0.6790    -0.5680 N.pl3 1 <1>  -0.8380 
  8 C        4.2220    -1.6500     0.5210 C.3   1 <1>   0.2090 
  9 C        0.3160    -3.7790    -0.4980 C.3   1 <1>  -0.0160 
 10 C        5.3820     0.3800    -0.4510 C.ar  1 <1>   0.4100 
 11 C       -1.1360    -4.1680    -0.2790 C.ar  1 <1>  -0.1440 
 12 N        6.2910     0.4370    -1.4220 N.ar  1 <1>  -0.6200 
 13 C        5.3010     1.3200     0.5970 C.ar  1 <1>   0.0860 
 14 C       -2.0450    -4.0670    -1.3210 C.ar  1 <1>  -0.1500 
 15 C       -1.5680    -4.6200     0.9590 C.ar  1 <1>  -0.1500 
 16 C        7.1850     1.4020    -1.3410 C.ar  1 <1>   0.1600 
 17 C        4.2480     1.2920     1.5790 C.2   1 <1>   0.5440 
 18 C        6.2660     2.3150     0.6520 C.ar  1 <1>  -0.1500 
 19 C       -3.3720    -4.4130    -1.1280 C.ar  1 <1>  -0.1500 
 20 C       -2.8940    -4.9670     1.1530 C.ar  1 <1>  -0.1500 
 21 C        7.2230     2.3510    -0.3360 C.ar  1 <1>  -0.1500 
 22 O        4.4700     0.8520     2.6940 O.2   1 <1>  -0.5700 
 23 N        2.9890     1.7780     1.3080 N.am  1 <1>  -0.6600 
 24 C       -3.7970    -4.8630     0.1100 C.ar  1 <1>  -0.1500 
 25 C        2.4780     2.1080    -0.0400 C.3   1 <1>   0.1400 
 26 C        1.9000     1.8000     2.3090 C.3   1 <1>   0.1400 
 27 C        0.9700     1.9280     0.0760 C.3   1 <1>  -0.1600 
 28 C        0.6590     2.2400     1.5380 C.3   1 <1>  -0.1600 
 29 H        3.8870    -0.1880    -2.5330 H     1 <1>   0.0800 
 30 H        4.4460    -1.8210    -2.3420 H     1 <1>   0.0800 
 31 H        2.5160    -2.6140     1.3840 H     1 <1>   0.0800 
 32 H        2.3740    -0.8870     1.2840 H     1 <1>   0.0800 
 33 H       -0.1160    -1.7660    -1.0870 H     1 <1>   0.0800 
 34 H        0.1320    -1.9550     0.6240 H     1 <1>   0.0800 
 35 H        4.6080    -2.6130     0.2370 H     1 <1>   0.0800 
 36 H        4.7180    -1.3590     1.4310 H     1 <1>   0.0800 
 37 H        0.9400    -4.2890     0.2120 H     1 <1>   0.0800 
 38 H        0.6200    -4.0700    -1.4880 H     1 <1>   0.0800 
 39 H       -1.7240    -3.7180    -2.2870 H     1 <1>   0.1500 
 40 H       -0.8750    -4.7060     1.7780 H     1 <1>   0.1500 
 41 H        7.9310     1.4410    -2.1170 H     1 <1>   0.1500 
 42 H        6.2530     3.0370     1.4500 H     1 <1>   0.1500 
 43 H       -4.0720    -4.3320    -1.9410 H     1 <1>   0.1500 
 44 H       -3.2240    -5.3180     2.1150 H     1 <1>   0.1500 
 45 H        7.9890     3.1050    -0.3330 H     1 <1>   0.1500 
 46 H       -4.8270    -5.1330     0.2600 H     1 <1>   0.1500 
 47 H        2.8880     1.4620    -0.7950 H     1 <1>   0.0800 
 48 H        2.7180     3.1330    -0.2670 H     1 <1>   0.0800 
 49 H        2.1360     2.4850     3.1070 H     1 <1>   0.0800 
 50 H        1.7690     0.8120     2.7140 H     1 <1>   0.0800 
 51 H        0.7270     0.9020    -0.1420 H     1 <1>   0.0800 
 52 H        0.4370     2.5660    -0.6050 H     1 <1>   0.0800 
 53 H        0.5290     3.3000     1.6650 H     1 <1>   0.0800 
 54 H       -0.2250     1.7360     1.8850 H     1 <1>   0.0800 
@<TRIPOS>BOND
  1   1   2  2   
  2   2   3  am  
  3   2   4  1   
  4   3   5  1   
  5   3   6  1   
  6   4   7  1   
  7   4  29  1   
  8   4  30  1   
  9   5   8  1   
 10   5  31  1   
 11   5  32  1   
 12   6   9  1   
 13   6  33  1   
 14   6  34  1   
 15   7   8  1   
 16   7  10  1   
 17   8  35  1   
 18   8  36  1   
 19   9  11  1   
 20   9  37  1   
 21   9  38  1   
 22  10  12  ar  
 23  10  13  ar  
 24  11  14  ar  
 25  11  15  ar  
 26  12  16  ar  
 27  13  17  1   
 28  13  18  ar  
 29  14  19  ar  
 30  14  39  1   
 31  15  20  ar  
 32  15  40  1   
 33  16  21  ar  
 34  16  41  1   
 35  17  22  2   
 36  17  23  am  
 37  18  21  ar  
 38  18  42  1   
 39  19  24  ar  
 40  19  43  1   
 41  20  24  ar  
 42  20  44  1   
 43  21  45  1   
 44  23  25  1   
 45  23  26  1   
 46  24  46  1   
 47  25  27  1   
 48  25  47  1   
 49  25  48  1   
 50  26  28  1   
 51  26  49  1   
 52  26  50  1   
 53  27  28  1   
 54  27  51  1   
 55  27  52  1   
 56  28  53  1   
 57  28  54  1   
@<TRIPOS>SUBSTRUCTURE
  1 ****   3 GROUP 4 **** **** 0

# MOE 2024.06 (io_trps.svl 2023.06)
