@<TRIPOS>MOLECULE
NONAME
51 52 1 0 0 
SMALL
USER_CHARGES


@<TRIPOS>ATOM
  1 N       -0.8280    -0.6150    -0.7870 N.ar  1 <1>  -0.6200 
  2 C       -1.7320     0.2390    -0.3350 C.ar  1 <1>   0.4100 
  3 C        0.4010    -0.1390    -0.8920 C.ar  1 <1>   0.4700 
  4 N       -3.0300    -0.2440    -0.2420 N.pl3 1 <1>  -0.8380 
  5 C       -1.3690     1.5190     0.0230 C.ar  1 <1>  -0.1500 
  6 N        0.8490     1.0530    -0.5720 N.ar  1 <1>  -0.6200 
  7 C       -3.5890    -0.9610    -1.4320 C.3   1 <1>   0.3530 
  8 C       -4.0710     0.5420     0.4920 C.3   1 <1>   0.1290 
  9 C       -0.0540     1.8940    -0.1060 C.ar  1 <1>   0.4100 
 10 C       -4.5500    -2.0960    -1.0580 C.ar  1 <1>  -0.1440 
 11 N        0.3600     3.1610     0.2530 N.pl3 1 <1>  -0.8380 
 12 C       -4.4120    -2.9470     0.0460 C.ar  1 <1>  -0.1430 
 13 C       -5.6270    -2.2860    -1.9150 C.ar  1 <1>  -0.1500 
 14 C        1.4540     3.8250    -0.5050 C.3   1 <1>   0.2090 
 15 C        0.2040     3.5960     1.6680 C.3   1 <1>   0.1290 
 16 C       -5.3480    -3.9520     0.2570 C.ar  1 <1>  -0.1500 
 17 C       -3.2860    -2.8450     1.0700 C.3   1 <1>   0.4860 
 18 C       -6.5510    -3.2890    -1.6960 C.ar  1 <1>  -0.1500 
 19 C        1.0590     5.2660    -0.8120 C.3   1 <1>  -0.2400 
 20 C       -6.4110    -4.1250    -0.6070 C.ar  1 <1>  -0.1500 
 21 N       -1.9530    -3.0190     0.4380 N.4   1 <1>  -0.9590 
 22 C       -1.8750    -4.1960    -0.4760 C.3   1 <1>   0.2630 
 23 C       -0.8630    -3.0100     1.4500 C.3   1 <1>   0.2630 
 24 H        1.1400    -0.8160    -1.2870 H     1 <1>   0.1500 
 25 H       -2.0740     2.2370     0.3810 H     1 <1>   0.1500 
 26 H       -2.8020    -1.3700    -2.0410 H     1 <1>   0.0800 
 27 H       -4.1070    -0.2400    -2.0430 H     1 <1>   0.0800 
 28 H       -3.6810     0.8890     1.4330 H     1 <1>   0.0800 
 29 H       -4.9360    -0.0690     0.6880 H     1 <1>   0.0800 
 30 H       -4.3750     1.3910    -0.0970 H     1 <1>   0.0800 
 31 H       -5.7600    -1.6490    -2.7740 H     1 <1>   0.1500 
 32 H        1.6260     3.3070    -1.4340 H     1 <1>   0.0800 
 33 H        2.3650     3.7960     0.0680 H     1 <1>   0.0800 
 34 H       -0.3320     2.8540     2.2340 H     1 <1>   0.0800 
 35 H       -0.3410     4.5230     1.7040 H     1 <1>   0.0800 
 36 H        1.1710     3.7370     2.1190 H     1 <1>   0.0800 
 37 H       -5.2650    -4.6160     1.1010 H     1 <1>   0.1500 
 38 H       -3.4270    -3.6000     1.8240 H     1 <1>   0.0800 
 39 H       -3.3330    -1.8820     1.5500 H     1 <1>   0.0800 
 40 H       -7.3800    -3.4190    -2.3710 H     1 <1>   0.1500 
 41 H        0.1300     5.2820    -1.3540 H     1 <1>   0.0800 
 42 H        1.8170     5.7260    -1.4180 H     1 <1>   0.0800 
 43 H        0.9570     5.8350     0.0940 H     1 <1>   0.0800 
 44 H       -7.1320    -4.9060    -0.4340 H     1 <1>   0.1500 
 45 H       -1.8390    -2.1440    -0.1270 H     1 <1>   0.4500 
 46 H       -2.0280    -5.1090     0.0750 H     1 <1>   0.0800 
 47 H       -0.9100    -4.2330    -0.9530 H     1 <1>   0.0800 
 48 H       -2.6320    -4.1260    -1.2410 H     1 <1>   0.0800 
 49 H       -0.9480    -3.8610     2.1050 H     1 <1>   0.0800 
 50 H       -0.9110    -2.1070     2.0370 H     1 <1>   0.0800 
 51 H        0.0960    -3.0410     0.9590 H     1 <1>   0.0800 
@<TRIPOS>BOND
  1   1   2  ar  
  2   1   3  ar  
  3   2   4  1   
  4   2   5  ar  
  5   3   6  ar  
  6   3  24  1   
  7   4   7  1   
  8   4   8  1   
  9   5   9  ar  
 10   5  25  1   
 11   6   9  ar  
 12   7  10  1   
 13   7  26  1   
 14   7  27  1   
 15   8  28  1   
 16   8  29  1   
 17   8  30  1   
 18   9  11  1   
 19  10  12  ar  
 20  10  13  ar  
 21  11  14  1   
 22  11  15  1   
 23  12  16  ar  
 24  12  17  1   
 25  13  18  ar  
 26  13  31  1   
 27  14  19  1   
 28  14  32  1   
 29  14  33  1   
 30  15  34  1   
 31  15  35  1   
 32  15  36  1   
 33  16  20  ar  
 34  16  37  1   
 35  17  21  1   
 36  17  38  1   
 37  17  39  1   
 38  18  20  ar  
 39  18  40  1   
 40  19  41  1   
 41  19  42  1   
 42  19  43  1   
 43  20  44  1   
 44  21  22  1   
 45  21  23  1   
 46  21  45  1   
 47  22  46  1   
 48  22  47  1   
 49  22  48  1   
 50  23  49  1   
 51  23  50  1   
 52  23  51  1   
@<TRIPOS>SUBSTRUCTURE
  1 ****   4 GROUP 4 **** **** 0

# MOE 2024.06 (io_trps.svl 2023.06)
