@<TRIPOS>MOLECULE
NONAME
55 57 1 0 0 
SMALL
USER_CHARGES


@<TRIPOS>ATOM
  1 O       -0.8490    -2.1700    -0.2370 O.2   1 <1>  -0.5700 
  2 C        0.1740    -2.7840    -0.0580 C.2   1 <1>   0.5690 
  3 N        0.4320    -4.0030    -0.6240 N.am  1 <1>  -0.6600 
  4 C        1.2390    -2.1900     0.8400 C.3   1 <1>  -0.0990 
  5 C        1.7050    -4.7100    -0.3370 C.3   1 <1>   0.1400 
  6 C       -0.5500    -4.7090    -1.4890 C.3   1 <1>   0.0600 
  7 C        2.6250    -2.3260     0.1870 C.3   1 <1>  -0.0800 
  8 C        2.8910    -3.7270    -0.4160 C.3   1 <1>  -0.0800 
  9 C        3.7800    -2.0380     1.1550 C.3   1 <1>  -0.1600 
 10 C        4.1500    -4.2520     0.2870 C.3   1 <1>  -0.1600 
 11 C        4.8900    -2.9840     0.7170 C.3   1 <1>   0.2200 
 12 N        5.9220    -3.1600     1.7860 N.am  1 <1>  -0.6600 
 13 C        7.0850    -2.4130     1.8850 C.2   1 <1>   0.5690 
 14 C        5.6030    -4.1490     2.8690 C.3   1 <1>   0.0600 
 15 O        7.8260    -2.5550     2.8310 O.2   1 <1>  -0.5700 
 16 C        7.4820    -1.3280     0.8800 C.3   1 <1>   0.0440 
 17 C        8.8400    -1.5730     0.1990 C.ar  1 <1>  -0.1440 
 18 C        8.9320    -2.4120    -0.9140 C.ar  1 <1>  -0.1440 
 19 C        9.9980    -0.9550     0.6760 C.ar  1 <1>  -0.1440 
 20 C       10.1550    -2.6030    -1.5390 C.ar  1 <1>  -0.1500 
 21 C        7.7330    -3.1550    -1.4840 C.3   1 <1>  -0.0970 
 22 C       11.2090    -1.1610     0.0340 C.ar  1 <1>  -0.1500 
 23 C       10.0050    -0.0510     1.9040 C.3   1 <1>  -0.0970 
 24 C       11.2960    -1.9780    -1.0760 C.ar  1 <1>  -0.1440 
 25 C       12.6290    -2.1960    -1.7680 C.3   1 <1>  -0.0970 
 26 H        1.0170    -1.1540     1.0250 H     1 <1>   0.0800 
 27 H        1.2070    -2.7140     1.7770 H     1 <1>   0.0800 
 28 H        1.6360    -5.1340     0.6500 H     1 <1>   0.0800 
 29 H        1.8520    -5.5120    -1.0400 H     1 <1>   0.0800 
 30 H       -0.8150    -5.6530    -1.0460 H     1 <1>   0.0800 
 31 H       -0.1240    -4.8770    -2.4620 H     1 <1>   0.0800 
 32 H       -1.4440    -4.1200    -1.6040 H     1 <1>   0.0800 
 33 H        2.6740    -1.6160    -0.6230 H     1 <1>   0.0800 
 34 H        3.1270    -3.5900    -1.4580 H     1 <1>   0.0800 
 35 H        3.4860    -2.2680     2.1640 H     1 <1>   0.0800 
 36 H        4.0920    -1.0100     1.1010 H     1 <1>   0.0800 
 37 H        4.7500    -4.8550    -0.3700 H     1 <1>   0.0800 
 38 H        3.8490    -4.8340     1.1380 H     1 <1>   0.0800 
 39 H        5.3360    -2.5870    -0.1730 H     1 <1>   0.0800 
 40 H        4.5830    -4.0370     3.1890 H     1 <1>   0.0800 
 41 H        6.2330    -4.0090     3.7300 H     1 <1>   0.0800 
 42 H        5.7570    -5.1480     2.5020 H     1 <1>   0.0800 
 43 H        6.7420    -1.1720     0.1290 H     1 <1>   0.0800 
 44 H        7.5040    -0.4060     1.4240 H     1 <1>   0.0800 
 45 H       10.2260    -3.2470    -2.3960 H     1 <1>   0.1500 
 46 H        8.0210    -3.7740    -2.3140 H     1 <1>   0.0800 
 47 H        6.9940    -2.4570    -1.8320 H     1 <1>   0.0800 
 48 H        7.3100    -3.7930    -0.7300 H     1 <1>   0.0800 
 49 H       12.0980    -0.6830     0.4010 H     1 <1>   0.1500 
 50 H       11.0080     0.2090     2.1890 H     1 <1>   0.0800 
 51 H        9.5500    -0.5550     2.7380 H     1 <1>   0.0800 
 52 H        9.4680     0.8560     1.6990 H     1 <1>   0.0800 
 53 H       12.4820    -2.3950    -2.8140 H     1 <1>   0.0800 
 54 H       13.1360    -3.0320    -1.3210 H     1 <1>   0.0800 
 55 H       13.2480    -1.3220    -1.6730 H     1 <1>   0.0800 
@<TRIPOS>BOND
  1   1   2  2   
  2   2   3  am  
  3   2   4  1   
  4   3   5  1   
  5   3   6  1   
  6   4   7  1   
  7   4  26  1   
  8   4  27  1   
  9   5   8  1   
 10   5  28  1   
 11   5  29  1   
 12   6  30  1   
 13   6  31  1   
 14   6  32  1   
 15   7   8  1   
 16   7   9  1   
 17   7  33  1   
 18   8  10  1   
 19   8  34  1   
 20   9  11  1   
 21   9  35  1   
 22   9  36  1   
 23  10  11  1   
 24  10  37  1   
 25  10  38  1   
 26  11  12  1   
 27  11  39  1   
 28  12  13  am  
 29  12  14  1   
 30  13  15  2   
 31  13  16  1   
 32  14  40  1   
 33  14  41  1   
 34  14  42  1   
 35  16  17  1   
 36  16  43  1   
 37  16  44  1   
 38  17  18  ar  
 39  17  19  ar  
 40  18  20  ar  
 41  18  21  1   
 42  19  22  ar  
 43  19  23  1   
 44  20  24  ar  
 45  20  45  1   
 46  21  46  1   
 47  21  47  1   
 48  21  48  1   
 49  22  24  ar  
 50  22  49  1   
 51  23  50  1   
 52  23  51  1   
 53  23  52  1   
 54  24  25  1   
 55  25  53  1   
 56  25  54  1   
 57  25  55  1   
@<TRIPOS>SUBSTRUCTURE
  1 ****  11 GROUP 4 **** **** 0

# MOE 2024.06 (io_trps.svl 2023.06)
