@<TRIPOS>MOLECULE
Untitled Document
44 47 1 0 0 
SMALL
USER_CHARGES


@<TRIPOS>ATOM
  1 BR       0.6800     0.5250    -3.0290 Br    1 <1>  -0.1100 
  2 C        1.8000     1.0910    -1.5620 C.2   1 <1>   0.2190 
  3 N        1.4520     2.2720    -0.8850 N.am  1 <1>  -0.4690 
  4 C        2.8720     0.3500    -1.2440 C.2   1 <1>  -0.1810 
  5 C        2.2960     2.7140     0.1320 C.2   1 <1>   0.7150 
  6 C        0.2040     3.0430    -1.1860 C.3   1 <1>   0.1400 
  7 N        3.6920     0.7770    -0.1850 N.pl3 1 <1>   0.3340 
  8 O        2.0470     3.7700     0.6940 O.2   1 <1>  -0.5700 
  9 C        3.4440     1.9130     0.4910 C.2   1 <1>   0.1010 
 10 C       -0.9020     2.7380    -0.1600 C.3   1 <1>  -0.0800 
 11 C        4.7940     0.3000     0.3960 C.2   1 <1>   0.0060 
 12 N        4.3510     2.0950     1.4160 N.2   1 <1>  -0.3380 
 13 C       -1.3470     1.2780    -0.0970 C.3   1 <1>  -0.1600 
 14 C       -2.2000     3.4880    -0.4520 C.3   1 <1>  -0.1600 
 15 N        5.1960     1.0750     1.3510 N.2   1 <1>  -0.3380 
 16 C        5.4750    -1.0010    -0.0270 C.3   1 <1>   0.1000 
 17 C       -2.7110     1.3240     0.5890 C.3   1 <1>  -0.1600 
 18 C       -3.2910     2.7110     0.2900 C.3   1 <1>  -0.1600 
 19 C        4.7120    -2.2210     0.5080 C.3   1 <1>  -0.1600 
 20 C        6.9370    -1.0830     0.4390 C.3   1 <1>  -0.1600 
 21 C        5.4460    -3.5180     0.1510 C.3   1 <1>   0.1200 
 22 C        7.5440    -2.4430     0.0830 C.3   1 <1>   0.1200 
 23 O        6.7540    -3.4570     0.6260 O.3   1 <1>  -0.5600 
 24 H        3.1540    -0.5540    -1.7500 H     1 <1>   0.1500 
 25 H       -0.1470     2.8350    -2.1790 H     1 <1>   0.0800 
 26 H        0.4280     4.0960    -1.1520 H     1 <1>   0.0800 
 27 H       -0.5640     3.0380     0.8190 H     1 <1>   0.0800 
 28 H       -0.6470     0.6620     0.4410 H     1 <1>   0.0800 
 29 H       -1.4730     0.8910    -1.0930 H     1 <1>   0.0800 
 30 H       -2.4090     3.4610    -1.5080 H     1 <1>   0.0800 
 31 H       -2.1500     4.5140    -0.1300 H     1 <1>   0.0800 
 32 H        5.4790    -1.0450    -1.1030 H     1 <1>   0.0800 
 33 H       -2.5830     1.2120     1.6520 H     1 <1>   0.0800 
 34 H       -3.3540     0.5380     0.2320 H     1 <1>   0.0800 
 35 H       -4.1810     2.6400    -0.3120 H     1 <1>   0.0800 
 36 H       -3.5370     3.2070     1.2140 H     1 <1>   0.0800 
 37 H        3.7180    -2.2520     0.1020 H     1 <1>   0.0800 
 38 H        4.6290    -2.1550     1.5790 H     1 <1>   0.0800 
 39 H        6.9940    -0.9530     1.5060 H     1 <1>   0.0800 
 40 H        7.5120    -0.2970    -0.0180 H     1 <1>   0.0800 
 41 H        5.4750    -3.6780    -0.9140 H     1 <1>   0.0800 
 42 H        4.9690    -4.3630     0.6180 H     1 <1>   0.0800 
 43 H        8.5300    -2.5370     0.5030 H     1 <1>   0.0800 
 44 H        7.6020    -2.5850    -0.9830 H     1 <1>   0.0800 
@<TRIPOS>BOND
  1   1   2  1   
  2   2   3  1   
  3   2   4  2   
  4   3   5  am  
  5   3   6  1   
  6   4   7  1   
  7   4  24  1   
  8   5   8  2   
  9   5   9  1   
 10   6  10  1   
 11   6  25  1   
 12   6  26  1   
 13   7   9  1   
 14   7  11  1   
 15   9  12  2   
 16  10  13  1   
 17  10  14  1   
 18  10  27  1   
 19  11  15  2   
 20  11  16  1   
 21  12  15  1   
 22  13  17  1   
 23  13  28  1   
 24  13  29  1   
 25  14  18  1   
 26  14  30  1   
 27  14  31  1   
 28  16  19  1   
 29  16  20  1   
 30  16  32  1   
 31  17  18  1   
 32  17  33  1   
 33  17  34  1   
 34  18  35  1   
 35  18  36  1   
 36  19  21  1   
 37  19  37  1   
 38  19  38  1   
 39  20  22  1   
 40  20  39  1   
 41  20  40  1   
 42  21  23  1   
 43  21  41  1   
 44  21  42  1   
 45  22  23  1   
 46  22  43  1   
 47  22  44  1   
@<TRIPOS>SUBSTRUCTURE
  1 ****   7 GROUP 4 **** **** 0

# MOE 2024.06 (io_trps.svl 2023.06)
