@<TRIPOS>MOLECULE
NONAME
49 51 1 0 0 
SMALL
USER_CHARGES


@<TRIPOS>ATOM
  1 N        0.6570     0.4190     0.3020 N.ar  1 <1>  -0.6200 
  2 C       -0.2830     1.3440     0.5230 C.ar  1 <1>   0.7200 
  3 C        1.4730     0.6920    -0.6820 C.ar  1 <1>   0.1660 
  4 N       -0.4390     2.4860    -0.1550 N.ar  1 <1>  -0.6200 
  5 N       -1.1680     1.0990     1.5520 N.pl3 1 <1>  -0.8380 
  6 C        1.4000     1.8220    -1.4340 C.ar  1 <1>  -0.1430 
  7 C        2.6180    -0.1950    -1.1040 C.3   1 <1>   0.1430 
  8 C        0.4040     2.7160    -1.1340 C.ar  1 <1>   0.1600 
  9 C       -1.4820    -0.2770     2.0250 C.3   1 <1>   0.1290 
 10 C       -2.0260     2.1770     2.1170 C.3   1 <1>   0.1290 
 11 C        2.4810     1.8640    -2.4850 C.3   1 <1>  -0.0160 
 12 C        3.4000    -0.5980     0.1580 C.3   1 <1>   0.3430 
 13 C        2.0840    -1.4490    -1.8290 C.3   1 <1>  -0.1600 
 14 C        3.4320     0.7310    -2.0490 C.3   1 <1>  -0.1600 
 15 N        4.4800    -1.6000    -0.1500 N.4   1 <1>  -0.9590 
 16 C        3.1820    -2.5070    -2.0420 C.3   1 <1>  -0.1600 
 17 C        3.9180    -2.8450    -0.7410 C.3   1 <1>   0.3430 
 18 C        5.3050    -1.8700     1.0500 C.3   1 <1>   0.5430 
 19 C        6.1390    -0.6610     1.2720 C.1   1 <1>  -0.2000 
 20 C        6.7840     0.3260     1.4180 C.1   1 <1>  -0.2000 
 21 C        7.5930     1.5650     1.6000 C.3   1 <1>   0.0400 
 22 C        7.4610     2.4760     0.3790 C.3   1 <1>  -0.2400 
 23 H        0.2970     3.6280    -1.6970 H     1 <1>   0.1500 
 24 H       -1.1530    -1.0120     1.3120 H     1 <1>   0.0800 
 25 H       -2.5450    -0.3860     2.1540 H     1 <1>   0.0800 
 26 H       -0.9920    -0.4550     2.9660 H     1 <1>   0.0800 
 27 H       -1.5210     3.1270     2.0620 H     1 <1>   0.0800 
 28 H       -2.2480     1.9720     3.1490 H     1 <1>   0.0800 
 29 H       -2.9430     2.2380     1.5580 H     1 <1>   0.0800 
 30 H        2.9790     2.8180    -2.5070 H     1 <1>   0.0800 
 31 H        2.0520     1.6550    -3.4500 H     1 <1>   0.0800 
 32 H        2.7050    -1.0190     0.8670 H     1 <1>   0.0800 
 33 H        3.8240     0.2880     0.6020 H     1 <1>   0.0800 
 34 H        1.6460    -1.1710    -2.7730 H     1 <1>   0.0800 
 35 H        1.2980    -1.8830    -1.2330 H     1 <1>   0.0800 
 36 H        3.8310     0.2140    -2.9040 H     1 <1>   0.0800 
 37 H        4.2490     1.1760    -1.5070 H     1 <1>   0.0800 
 38 H        5.1180    -1.1670    -0.8280 H     1 <1>   0.4500 
 39 H        3.8910    -2.1690    -2.7760 H     1 <1>   0.0800 
 40 H        2.7310    -3.4050    -2.4280 H     1 <1>   0.0800 
 41 H        3.2280    -3.3000    -0.0480 H     1 <1>   0.0800 
 42 H        4.7080    -3.5500    -0.9480 H     1 <1>   0.0800 
 43 H        5.9490    -2.7180     0.8820 H     1 <1>   0.0800 
 44 H        4.6820    -2.0640     1.9080 H     1 <1>   0.0800 
 45 H        8.6260     1.2980     1.7450 H     1 <1>   0.0800 
 46 H        7.2550     2.0850     2.4800 H     1 <1>   0.0800 
 47 H        7.8110     1.9720    -0.5050 H     1 <1>   0.0800 
 48 H        8.0510     3.3650     0.5200 H     1 <1>   0.0800 
 49 H        6.4350     2.7660     0.2360 H     1 <1>   0.0800 
@<TRIPOS>BOND
  1   1   2  ar  
  2   1   3  ar  
  3   2   4  ar  
  4   2   5  1   
  5   3   6  ar  
  6   3   7  1   
  7   4   8  ar  
  8   5   9  1   
  9   5  10  1   
 10   6   8  ar  
 11   6  11  1   
 12   7  12  1   
 13   7  13  1   
 14   7  14  1   
 15   8  23  1   
 16   9  24  1   
 17   9  25  1   
 18   9  26  1   
 19  10  27  1   
 20  10  28  1   
 21  10  29  1   
 22  11  14  1   
 23  11  30  1   
 24  11  31  1   
 25  12  15  1   
 26  12  32  1   
 27  12  33  1   
 28  13  16  1   
 29  13  34  1   
 30  13  35  1   
 31  14  36  1   
 32  14  37  1   
 33  15  17  1   
 34  15  18  1   
 35  15  38  1   
 36  16  17  1   
 37  16  39  1   
 38  16  40  1   
 39  17  41  1   
 40  17  42  1   
 41  18  19  1   
 42  18  43  1   
 43  18  44  1   
 44  19  20  3   
 45  20  21  1   
 46  21  22  1   
 47  21  45  1   
 48  21  46  1   
 49  22  47  1   
 50  22  48  1   
 51  22  49  1   
@<TRIPOS>SUBSTRUCTURE
  1 ****   7 GROUP 4 **** **** 0

# MOE 2024.06 (io_trps.svl 2023.06)
