@<TRIPOS>MOLECULE
NONAME
66 69 1 0 0 
SMALL
USER_CHARGES


@<TRIPOS>ATOM
  1 N        0.5140    -1.7080    -0.0970 N.ar  1 <1>  -0.6200 
  2 C        1.2150    -0.6730    -0.5630 C.ar  1 <1>   0.7710 
  3 C        0.7920    -2.1420     1.1190 C.ar  1 <1>   0.4100 
  4 N        2.1770    -0.0770     0.1590 N.ar  1 <1>  -0.1790 
  5 N        0.9600    -0.1970    -1.8070 N.pl3 1 <1>  -0.8380 
  6 N        0.0440    -3.1870     1.5830 N.pl3 1 <1>  -0.8380 
  7 C        1.8200    -1.5560     1.8890 C.ar  1 <1>  -0.1500 
  8 C        2.5130    -0.5030     1.3950 C.ar  1 <1>   0.2180 
  9 C        1.5690     0.9980    -2.4640 C.3   1 <1>   0.2090 
 10 C        0.0020    -0.8410    -2.7420 C.3   1 <1>   0.2090 
 11 C       -0.2700    -4.3590     0.6710 C.3   1 <1>   0.2090 
 12 C       -0.1640    -3.4790     3.0440 C.3   1 <1>   0.2090 
 13 C        3.6370     0.2030     2.1440 C.3   1 <1>  -0.0170 
 14 C        0.7590     1.2130    -3.7340 C.3   1 <1>  -0.1600 
 15 C        0.2340    -0.1710    -4.0880 C.3   1 <1>  -0.1600 
 16 C       -1.7530    -4.3970     0.1590 C.3   1 <1>   0.5030 
 17 C       -1.6440    -3.3730     3.4260 C.3   1 <1>  -0.1600 
 18 C        3.2890     1.6630     2.4630 C.3   1 <1>  -0.2400 
 19 N       -2.5740    -3.6410     1.1790 N.4   1 <1>  -0.9590 
 20 C       -2.1930    -5.8690    -0.0040 C.3   1 <1>  -0.1600 
 21 C       -1.8250    -3.6960    -1.2180 C.3   1 <1>  -0.1600 
 22 C       -2.5720    -4.2170     2.5580 C.3   1 <1>   0.3430 
 23 C       -3.9210    -3.0720     0.8540 C.3   1 <1>   0.2630 
 24 C       -3.4920    -6.0530    -0.7820 C.3   1 <1>   0.3430 
 25 C       -3.0790    -3.9730    -2.0520 C.3   1 <1>   0.3430 
 26 N       -3.3520    -5.4330    -2.1260 N.4   1 <1>  -0.9590 
 27 C       -4.5720    -5.6990    -2.9580 C.3   1 <1>   0.2630 
 28 H        2.6490     0.7010    -0.2860 H     1 <1>   0.4570 
 29 H        2.0640    -1.9560     2.8530 H     1 <1>   0.1500 
 30 H        2.5930     0.7850    -2.7250 H     1 <1>   0.0800 
 31 H        1.5180     1.8720    -1.8350 H     1 <1>   0.0800 
 32 H       -1.0030    -0.6470    -2.4050 H     1 <1>   0.0800 
 33 H        0.1730    -1.9020    -2.8060 H     1 <1>   0.0800 
 34 H       -0.0580    -5.2690     1.2060 H     1 <1>   0.0800 
 35 H        0.4110    -4.3550    -0.1640 H     1 <1>   0.0800 
 36 H        0.3750    -2.7870     3.6640 H     1 <1>   0.0800 
 37 H        0.2080    -4.4650     3.2720 H     1 <1>   0.0800 
 38 H        4.5430     0.1650     1.5620 H     1 <1>   0.0800 
 39 H        3.8330    -0.3130     3.0690 H     1 <1>   0.0800 
 40 H        1.3540     1.6390    -4.5230 H     1 <1>   0.0800 
 41 H       -0.0640     1.8750    -3.5230 H     1 <1>   0.0800 
 42 H       -0.6630    -0.1280    -4.6790 H     1 <1>   0.0800 
 43 H        0.9840    -0.7190    -4.6320 H     1 <1>   0.0800 
 44 H       -1.9520    -2.3430     3.4100 H     1 <1>   0.0800 
 45 H       -1.7430    -3.7070     4.4440 H     1 <1>   0.0800 
 46 H        3.1580     2.2450     1.5690 H     1 <1>   0.0800 
 47 H        4.0840     2.1090     3.0370 H     1 <1>   0.0800 
 48 H        2.3870     1.7180     3.0490 H     1 <1>   0.0800 
 49 H       -1.9320    -2.8300     1.3130 H     1 <1>   0.4500 
 50 H       -2.2830    -6.3600     0.9460 H     1 <1>   0.0800 
 51 H       -1.4260    -6.4020    -0.5380 H     1 <1>   0.0800 
 52 H       -0.9870    -4.0080    -1.8150 H     1 <1>   0.0800 
 53 H       -1.7260    -2.6340    -1.0880 H     1 <1>   0.0800 
 54 H       -3.5660    -4.1920     2.9750 H     1 <1>   0.0800 
 55 H       -2.2310    -5.2370     2.5610 H     1 <1>   0.0800 
 56 H       -4.6290    -3.8590     0.6570 H     1 <1>   0.0800 
 57 H       -3.8620    -2.4200    -0.0010 H     1 <1>   0.0800 
 58 H       -4.2850    -2.4900     1.6870 H     1 <1>   0.0800 
 59 H       -4.3130    -5.6030    -0.2480 H     1 <1>   0.0800 
 60 H       -3.7000    -7.1080    -0.8870 H     1 <1>   0.0800 
 61 H       -2.9390    -3.5790    -3.0480 H     1 <1>   0.0800 
 62 H       -3.9300    -3.4720    -1.6230 H     1 <1>   0.0800 
 63 H       -2.5650    -5.8910    -2.6150 H     1 <1>   0.4500 
 64 H       -5.4450    -5.2520    -2.5090 H     1 <1>   0.0800 
 65 H       -4.7410    -6.7600    -3.0510 H     1 <1>   0.0800 
 66 H       -4.4490    -5.2890    -3.9490 H     1 <1>   0.0800 
@<TRIPOS>BOND
  1   1   2  ar  
  2   1   3  ar  
  3   2   4  ar  
  4   2   5  1   
  5   3   6  1   
  6   3   7  ar  
  7   4   8  ar  
  8   4  28  1   
  9   5   9  1   
 10   5  10  1   
 11   6  11  1   
 12   6  12  1   
 13   7   8  ar  
 14   7  29  1   
 15   8  13  1   
 16   9  14  1   
 17   9  30  1   
 18   9  31  1   
 19  10  15  1   
 20  10  32  1   
 21  10  33  1   
 22  11  16  1   
 23  11  34  1   
 24  11  35  1   
 25  12  17  1   
 26  12  36  1   
 27  12  37  1   
 28  13  18  1   
 29  13  38  1   
 30  13  39  1   
 31  14  15  1   
 32  14  40  1   
 33  14  41  1   
 34  15  42  1   
 35  15  43  1   
 36  16  19  1   
 37  16  20  1   
 38  16  21  1   
 39  17  22  1   
 40  17  44  1   
 41  17  45  1   
 42  18  46  1   
 43  18  47  1   
 44  18  48  1   
 45  19  22  1   
 46  19  23  1   
 47  19  49  1   
 48  20  24  1   
 49  20  50  1   
 50  20  51  1   
 51  21  25  1   
 52  21  52  1   
 53  21  53  1   
 54  22  54  1   
 55  22  55  1   
 56  23  56  1   
 57  23  57  1   
 58  23  58  1   
 59  24  26  1   
 60  24  59  1   
 61  24  60  1   
 62  25  26  1   
 63  25  61  1   
 64  25  62  1   
 65  26  27  1   
 66  26  63  1   
 67  27  64  1   
 68  27  65  1   
 69  27  66  1   
@<TRIPOS>SUBSTRUCTURE
  1 ****   1 GROUP 4 **** **** 0

# MOE 2024.06 (io_trps.svl 2023.06)
