@<TRIPOS>MOLECULE
NONAME
45 47 1 0 0 
SMALL
USER_CHARGES


@<TRIPOS>ATOM
  1 S       -0.5890     0.5400     0.4590 S.o2  1 <1>   1.0900 
  2 O        0.6450     0.2860    -0.2460 O.2   1 <1>  -0.6500 
  3 O       -0.7080     1.5930     1.4390 O.2   1 <1>  -0.6500 
  4 C       -1.1460    -1.0020     1.1250 C.3   1 <1>  -0.0550 
  5 C       -1.8990     0.6530    -0.7500 C.3   1 <1>  -0.0550 
  6 C       -1.7180    -1.7420    -0.0820 C.3   1 <1>   0.1760 
  7 C       -2.5670    -0.7280    -0.8780 C.3   1 <1>  -0.1600 
  8 N       -2.5190    -2.9240     0.3250 N.pl3 1 <1>   0.3140 
  9 N       -3.4480    -2.8300     1.2950 N.2   1 <1>  -0.7070 
 10 C       -2.4840    -4.1720    -0.2090 C.2   1 <1>  -0.3320 
 11 C       -3.9890    -4.0060     1.3580 C.2   1 <1>   0.1080 
 12 C       -3.4270    -4.8940     0.4350 C.2   1 <1>   0.0630 
 13 C       -1.5490    -4.6020    -1.3320 C.3   1 <1>  -0.0600 
 14 C       -5.0910    -4.3170     2.3470 C.3   1 <1>  -0.0590 
 15 N       -3.7300    -6.2590     0.2050 N.am  1 <1>  -0.4930 
 16 C       -4.9480    -6.8640     0.0600 C.2   1 <1>   0.7160 
 17 O       -5.9650    -6.1990     0.1020 O.2   1 <1>  -0.5700 
 18 C       -4.9910    -8.2910    -0.1580 C.2   1 <1>  -0.0860 
 19 C       -5.9590    -9.0700    -0.7190 C.2   1 <1>  -0.0400 
 20 C       -3.9770    -9.2120     0.1910 C.2   1 <1>  -0.1500 
 21 O       -5.6020   -10.3310    -0.7330 O.3   1 <1>  -0.2800 
 22 C       -7.3130    -8.7230    -1.3070 C.3   1 <1>  -0.0600 
 23 C       -4.4130   -10.4290    -0.1870 C.2   1 <1>  -0.0400 
 24 C       -3.7790   -11.7980    -0.0770 C.3   1 <1>  -0.0600 
 25 H       -1.9200    -0.8220     1.8470 H     1 <1>   0.0800 
 26 H       -0.3430    -1.5480     1.5800 H     1 <1>   0.0800 
 27 H       -1.4970     0.9670    -1.6960 H     1 <1>   0.0800 
 28 H       -2.6300     1.3760    -0.4370 H     1 <1>   0.0800 
 29 H       -0.8980    -2.0710    -0.6950 H     1 <1>   0.0800 
 30 H       -2.6500    -1.0250    -1.9090 H     1 <1>   0.0800 
 31 H       -3.5550    -0.6730    -0.4510 H     1 <1>   0.0800 
 32 H       -1.6980    -3.9790    -2.1970 H     1 <1>   0.0800 
 33 H       -1.7410    -5.6200    -1.6180 H     1 <1>   0.0800 
 34 H       -0.5240    -4.5250    -1.0160 H     1 <1>   0.0800 
 35 H       -4.9960    -3.6840     3.2100 H     1 <1>   0.0800 
 36 H       -5.0360    -5.3430     2.6580 H     1 <1>   0.0800 
 37 H       -6.0450    -4.1390     1.8860 H     1 <1>   0.0800 
 38 H       -2.9330    -6.8410    -0.0300 H     1 <1>   0.3700 
 39 H       -3.0480    -8.9720     0.6760 H     1 <1>   0.1500 
 40 H       -7.4870    -7.6640    -1.2870 H     1 <1>   0.0800 
 41 H       -8.0860    -9.2110    -0.7420 H     1 <1>   0.0800 
 42 H       -7.3610    -9.0610    -2.3260 H     1 <1>   0.0800 
 43 H       -2.8140   -11.7270     0.3900 H     1 <1>   0.0800 
 44 H       -3.6650   -12.2240    -1.0570 H     1 <1>   0.0800 
 45 H       -4.4080   -12.4410     0.5120 H     1 <1>   0.0800 
@<TRIPOS>BOND
  1   1   2  2   
  2   1   3  2   
  3   1   4  1   
  4   1   5  1   
  5   4   6  1   
  6   4  25  1   
  7   4  26  1   
  8   5   7  1   
  9   5  27  1   
 10   5  28  1   
 11   6   7  1   
 12   6   8  1   
 13   6  29  1   
 14   7  30  1   
 15   7  31  1   
 16   8   9  1   
 17   8  10  1   
 18   9  11  2   
 19  10  12  2   
 20  10  13  1   
 21  11  12  1   
 22  11  14  1   
 23  12  15  1   
 24  13  32  1   
 25  13  33  1   
 26  13  34  1   
 27  14  35  1   
 28  14  36  1   
 29  14  37  1   
 30  15  16  am  
 31  15  38  1   
 32  16  17  2   
 33  16  18  1   
 34  18  19  2   
 35  18  20  1   
 36  19  21  1   
 37  19  22  1   
 38  20  23  2   
 39  20  39  1   
 40  21  23  1   
 41  22  40  1   
 42  22  41  1   
 43  22  42  1   
 44  23  24  1   
 45  24  43  1   
 46  24  44  1   
 47  24  45  1   
@<TRIPOS>SUBSTRUCTURE
  1 ****  12 GROUP 4 **** **** 0

# MOE 2024.06 (io_trps.svl 2023.06)
