@<TRIPOS>MOLECULE
NONAME
38 40 1 0 0 
SMALL
USER_CHARGES


@<TRIPOS>ATOM
  1 CL      -0.2110    -0.3140    -1.1710 Cl    1 <1>  -0.1240 
  2 C       -1.2150    -1.6060    -0.5720 C.2   1 <1>   0.1640 
  3 S       -0.5820    -3.2300    -0.7320 S.3   1 <1>  -0.0800 
  4 C       -2.4250    -1.5940     0.0100 C.2   1 <1>  -0.1500 
  5 C       -2.0270    -3.8960     0.0210 C.2   1 <1>  -0.1400 
  6 C       -2.8890    -2.9070     0.3510 C.2   1 <1>  -0.1500 
  7 C       -2.0400    -5.4070     0.1630 C.3   1 <1>   0.5230 
  8 N       -3.4220    -5.8810     0.4240 N.4   1 <1>  -0.9590 
  9 C       -4.3860    -5.6600    -0.6860 C.3   1 <1>   0.3430 
 10 C       -3.5390    -7.3210     0.7850 C.3   1 <1>   0.3430 
 11 C       -5.5790    -6.5250    -0.2840 C.3   1 <1>   0.2000 
 12 C       -4.9220    -7.7830     0.2890 C.3   1 <1>  -0.0800 
 13 O       -6.2340    -5.8730     0.7540 O.3   1 <1>  -0.6800 
 14 C       -4.8100    -8.9050    -0.7640 C.3   1 <1>   0.0200 
 15 C       -3.8790   -10.0060    -0.2940 C.2   1 <1>  -0.0400 
 16 O       -3.9600   -10.4450     0.9340 O.3   1 <1>  -0.0190 
 17 C       -2.8910   -10.6750    -0.9070 C.2   1 <1>  -0.1500 
 18 N       -3.0690   -11.3560     1.1810 N.2   1 <1>  -0.4100 
 19 C       -2.4160   -11.5260     0.0880 C.2   1 <1>   0.1080 
 20 C       -1.2870   -12.5200    -0.0810 C.3   1 <1>  -0.0590 
 21 H       -3.0070    -0.7120     0.2140 H     1 <1>   0.1500 
 22 H       -3.8470    -3.0200     0.8310 H     1 <1>   0.1500 
 23 H       -1.3880    -5.6890     0.9740 H     1 <1>   0.0800 
 24 H       -1.6660    -5.8540    -0.7440 H     1 <1>   0.0800 
 25 H       -3.8060    -5.3460     1.2180 H     1 <1>   0.4500 
 26 H       -4.6680    -4.6240    -0.7840 H     1 <1>   0.0800 
 27 H       -3.9720    -6.0140    -1.6160 H     1 <1>   0.0800 
 28 H       -2.7620    -7.8950     0.3050 H     1 <1>   0.0800 
 29 H       -3.4560    -7.4540     1.8530 H     1 <1>   0.0800 
 30 H       -6.2750    -6.6990    -1.0890 H     1 <1>   0.0800 
 31 H       -5.4890    -8.1690     1.1210 H     1 <1>   0.0800 
 32 H       -7.0830    -6.3140     0.9760 H     1 <1>   0.4000 
 33 H       -4.4430    -8.5220    -1.7000 H     1 <1>   0.0800 
 34 H       -5.7840    -9.3300    -0.9380 H     1 <1>   0.0800 
 35 H       -2.5200   -10.6100    -1.9130 H     1 <1>   0.1500 
 36 H       -0.3910   -12.0130    -0.3840 H     1 <1>   0.0800 
 37 H       -1.5520   -13.2490    -0.8260 H     1 <1>   0.0800 
 38 H       -1.1020   -13.0280     0.8480 H     1 <1>   0.0800 
@<TRIPOS>BOND
  1   1   2  1   
  2   2   3  1   
  3   2   4  2   
  4   3   5  1   
  5   4   6  1   
  6   4  21  1   
  7   5   6  2   
  8   5   7  1   
  9   6  22  1   
 10   7   8  1   
 11   7  23  1   
 12   7  24  1   
 13   8   9  1   
 14   8  10  1   
 15   8  25  1   
 16   9  11  1   
 17   9  26  1   
 18   9  27  1   
 19  10  12  1   
 20  10  28  1   
 21  10  29  1   
 22  11  12  1   
 23  11  13  1   
 24  11  30  1   
 25  12  14  1   
 26  12  31  1   
 27  13  32  1   
 28  14  15  1   
 29  14  33  1   
 30  14  34  1   
 31  15  16  1   
 32  15  17  2   
 33  16  18  1   
 34  17  19  1   
 35  17  35  1   
 36  18  19  2   
 37  19  20  1   
 38  20  36  1   
 39  20  37  1   
 40  20  38  1   
@<TRIPOS>SUBSTRUCTURE
  1 ****   8 GROUP 4 **** **** 0

# MOE 2024.06 (io_trps.svl 2023.06)
