@<TRIPOS>MOLECULE
NONAME
47 50 1 0 0 
SMALL
USER_CHARGES


@<TRIPOS>ATOM
  1 O       -3.2570     0.0160    -2.1760 O.2   1 <1>  -0.5700 
  2 C       -2.9660     0.7070    -1.2130 C.2   1 <1>   0.7670 
  3 N       -2.4910     1.9670    -1.4990 N.2   1 <1>  -0.6610 
  4 C       -3.0620     0.2450     0.1390 C.2   1 <1>   0.0290 
  5 C       -2.0790     2.6970    -0.5340 C.2   1 <1>   0.4400 
  6 C       -3.6250    -1.0340     0.4670 C.2   1 <1>   0.6160 
  7 C       -2.5850     1.0740     1.1140 C.2   1 <1>  -0.0500 
  8 N       -2.0920     2.2960     0.7710 N.pl3 1 <1>  -0.5500 
  9 O       -3.1630    -1.6640     1.4020 O.2   1 <1>  -0.5700 
 10 N       -4.7410    -1.5380    -0.1480 N.am  1 <1>  -0.6600 
 11 C       -4.6180    -2.5020    -1.2740 C.3   1 <1>   0.1400 
 12 C       -6.0430    -1.5700     0.5640 C.3   1 <1>   0.1400 
 13 C       -4.9180    -3.9240    -0.7920 C.3   1 <1>  -0.1600 
 14 C       -6.3370    -2.9870     1.0630 C.3   1 <1>  -0.1600 
 15 C       -6.2760    -4.0230    -0.0760 C.3   1 <1>   0.4240 
 16 O       -7.2060    -3.6120    -1.0560 O.3   1 <1>  -0.5600 
 17 C       -6.5700    -5.4730     0.4140 C.ar  1 <1>  -0.1430 
 18 C       -8.5350    -3.9760    -0.8850 C.3   1 <1>   0.1200 
 19 C       -5.7470    -6.1300     1.3390 C.ar  1 <1>   0.0830 
 20 C       -7.6870    -6.1560    -0.0680 C.ar  1 <1>  -0.1430 
 21 C       -8.6310    -5.4850    -1.0440 C.3   1 <1>  -0.0170 
 22 O       -4.6710    -5.4720     1.8420 O.3   1 <1>  -0.3630 
 23 C       -6.0380    -7.4330     1.7380 C.ar  1 <1>  -0.1500 
 24 C       -7.9650    -7.4510     0.3340 C.ar  1 <1>  -0.1500 
 25 C       -3.7750    -6.0460     2.7660 C.3   1 <1>   0.0400 
 26 C       -7.1410    -8.0920     1.2350 C.ar  1 <1>  -0.1500 
 27 H       -1.6970     3.6830    -0.7350 H     1 <1>   0.0600 
 28 H       -2.5930     0.7870     2.1550 H     1 <1>   0.1500 
 29 H       -1.7250     2.9380     1.4810 H     1 <1>   0.4000 
 30 H       -3.6210    -2.4660    -1.6800 H     1 <1>   0.0800 
 31 H       -5.3040    -2.2190    -2.0540 H     1 <1>   0.0800 
 32 H       -6.8170    -1.2470    -0.1110 H     1 <1>   0.0800 
 33 H       -6.0160    -0.8920     1.4000 H     1 <1>   0.0800 
 34 H       -4.1210    -4.2150    -0.1380 H     1 <1>   0.0800 
 35 H       -4.9110    -4.6010    -1.6260 H     1 <1>   0.0800 
 36 H       -7.2960    -3.0210     1.5410 H     1 <1>   0.0800 
 37 H       -5.6070    -3.2210     1.8130 H     1 <1>   0.0800 
 38 H       -9.1150    -3.4770    -1.6410 H     1 <1>   0.0800 
 39 H       -8.8710    -3.6630     0.0880 H     1 <1>   0.0800 
 40 H       -8.3700    -5.7580    -2.0510 H     1 <1>   0.0800 
 41 H       -9.6440    -5.7950    -0.8590 H     1 <1>   0.0800 
 42 H       -5.4180    -7.9550     2.4400 H     1 <1>   0.1500 
 43 H       -8.8260    -7.9670    -0.0530 H     1 <1>   0.1500 
 44 H       -3.0180    -5.3150     2.9890 H     1 <1>   0.0800 
 45 H       -3.3240    -6.9160     2.3230 H     1 <1>   0.0800 
 46 H       -4.3120    -6.2990     3.6620 H     1 <1>   0.0800 
 47 H       -7.3590    -9.0990     1.5450 H     1 <1>   0.1500 
@<TRIPOS>BOND
  1   1   2  2   
  2   2   3  1   
  3   2   4  1   
  4   3   5  2   
  5   4   6  1   
  6   4   7  2   
  7   5   8  1   
  8   5  27  1   
  9   6   9  2   
 10   6  10  am  
 11   7   8  1   
 12   7  28  1   
 13   8  29  1   
 14  10  11  1   
 15  10  12  1   
 16  11  13  1   
 17  11  30  1   
 18  11  31  1   
 19  12  14  1   
 20  12  32  1   
 21  12  33  1   
 22  13  15  1   
 23  13  34  1   
 24  13  35  1   
 25  14  15  1   
 26  14  36  1   
 27  14  37  1   
 28  15  16  1   
 29  15  17  1   
 30  16  18  1   
 31  17  19  ar  
 32  17  20  ar  
 33  18  21  1   
 34  18  38  1   
 35  18  39  1   
 36  19  22  1   
 37  19  23  ar  
 38  20  21  1   
 39  20  24  ar  
 40  21  40  1   
 41  21  41  1   
 42  22  25  1   
 43  23  26  ar  
 44  23  42  1   
 45  24  26  ar  
 46  24  43  1   
 47  25  44  1   
 48  25  45  1   
 49  25  46  1   
 50  26  47  1   
@<TRIPOS>SUBSTRUCTURE
  1 ****  13 GROUP 4 **** **** 0

# MOE 2024.06 (io_trps.svl 2023.06)
