@<TRIPOS>MOLECULE
NONAME
47 48 1 0 0 
SMALL
USER_CHARGES


@<TRIPOS>ATOM
  1 O        0.5920     0.4160    -0.0220 O.3   1 <1>  -0.5600 
  2 C        0.6600     1.8170     0.0570 C.3   1 <1>   0.2000 
  3 C        1.8360    -0.2160     0.0550 C.3   1 <1>   0.2000 
  4 C       -0.7840     2.3700     0.0980 C.3   1 <1>  -0.0800 
  5 C        1.4930     2.3670    -1.1270 C.3   1 <1>   0.2090 
  6 C        2.7170     0.2060    -1.1440 C.3   1 <1>   0.2090 
  7 C        1.5630    -1.7250     0.1060 C.3   1 <1>  -0.1600 
  8 C       -0.8140     3.9040     0.2160 C.3   1 <1>  -0.2400 
  9 C       -1.5840     1.7730     1.2690 C.3   1 <1>  -0.2400 
 10 N        2.8260     1.6910    -1.2470 N.pl3 1 <1>  -0.8380 
 11 C        2.8320    -2.5600     0.3430 C.3   1 <1>  -0.1600 
 12 C        3.9220     2.2770    -0.6300 C.ar  1 <1>   0.4100 
 13 C        2.4910    -4.0480     0.4820 C.3   1 <1>  -0.1600 
 14 N        3.7420     2.9120     0.5370 N.ar  1 <1>  -0.3100 
 15 C        5.1670     2.1780    -1.2190 C.ar  1 <1>  -0.1500 
 16 C        3.7530    -4.8830     0.7150 C.3   1 <1>  -0.2400 
 17 N        4.7590     3.4610     1.1580 N.ar  1 <1>  -0.3100 
 18 C        6.2330     2.7520    -0.5710 C.ar  1 <1>  -0.1500 
 19 C        5.9720     3.3870     0.6250 C.ar  1 <1>   0.1670 
 20 C        7.0900     4.0470     1.4050 C.3   1 <1>  -0.0970 
 21 H        1.1540     2.0720     0.9790 H     1 <1>   0.0800 
 22 H        2.3100     0.0910     0.9730 H     1 <1>   0.0800 
 23 H       -1.2740     2.0950    -0.8210 H     1 <1>   0.0800 
 24 H        1.6450     3.4240    -1.0010 H     1 <1>   0.0800 
 25 H        0.9450     2.2220    -2.0410 H     1 <1>   0.0800 
 26 H        2.2900    -0.1800    -2.0520 H     1 <1>   0.0800 
 27 H        3.6980    -0.2180    -1.0320 H     1 <1>   0.0800 
 28 H        0.8720    -1.9100     0.9110 H     1 <1>   0.0800 
 29 H        1.0950    -2.0300    -0.8140 H     1 <1>   0.0800 
 30 H       -0.2660     4.2250     1.0860 H     1 <1>   0.0800 
 31 H       -1.8280     4.2510     0.3040 H     1 <1>   0.0800 
 32 H       -0.3850     4.3680    -0.6530 H     1 <1>   0.0800 
 33 H       -1.1100     2.0040     2.2060 H     1 <1>   0.0800 
 34 H       -1.6450     0.7030     1.1740 H     1 <1>   0.0800 
 35 H       -2.5860     2.1630     1.2810 H     1 <1>   0.0800 
 36 H        3.5150    -2.4350    -0.4780 H     1 <1>   0.0800 
 37 H        3.3200    -2.2220     1.2420 H     1 <1>   0.0800 
 38 H        1.8160    -4.1900     1.3100 H     1 <1>   0.0800 
 39 H        1.9980    -4.3930    -0.4110 H     1 <1>   0.0800 
 40 H        5.2770     1.6690    -2.1570 H     1 <1>   0.1500 
 41 H        4.2500    -4.5710     1.6170 H     1 <1>   0.0800 
 42 H        4.4340    -4.7770    -0.1110 H     1 <1>   0.0800 
 43 H        3.4940    -5.9230     0.8110 H     1 <1>   0.0800 
 44 H        7.2240     2.7070    -0.9830 H     1 <1>   0.1500 
 45 H        8.0330     3.9340     0.9030 H     1 <1>   0.0800 
 46 H        7.1600     3.6020     2.3810 H     1 <1>   0.0800 
 47 H        6.8790     5.0950     1.5180 H     1 <1>   0.0800 
@<TRIPOS>BOND
  1   1   2  1   
  2   1   3  1   
  3   2   4  1   
  4   2   5  1   
  5   2  21  1   
  6   3   6  1   
  7   3   7  1   
  8   3  22  1   
  9   4   8  1   
 10   4   9  1   
 11   4  23  1   
 12   5  10  1   
 13   5  24  1   
 14   5  25  1   
 15   6  10  1   
 16   6  26  1   
 17   6  27  1   
 18   7  11  1   
 19   7  28  1   
 20   7  29  1   
 21   8  30  1   
 22   8  31  1   
 23   8  32  1   
 24   9  33  1   
 25   9  34  1   
 26   9  35  1   
 27  10  12  1   
 28  11  13  1   
 29  11  36  1   
 30  11  37  1   
 31  12  14  ar  
 32  12  15  ar  
 33  13  16  1   
 34  13  38  1   
 35  13  39  1   
 36  14  17  ar  
 37  15  18  ar  
 38  15  40  1   
 39  16  41  1   
 40  16  42  1   
 41  16  43  1   
 42  17  19  ar  
 43  18  19  ar  
 44  18  44  1   
 45  19  20  1   
 46  20  45  1   
 47  20  46  1   
 48  20  47  1   
@<TRIPOS>SUBSTRUCTURE
  1 ****  10 GROUP 4 **** **** 0

# MOE 2024.06 (io_trps.svl 2023.06)
