@<TRIPOS>MOLECULE
NONAME
47 49 1 0 0 
SMALL
USER_CHARGES


@<TRIPOS>ATOM
  1 S       -0.1790     0.1030     0.0920 S.3   1 <1>  -0.0800 
  2 C        0.9670    -1.1890     0.4210 C.2   1 <1>  -0.1400 
  3 C        1.0670     1.3200     0.2980 C.2   1 <1>  -0.1100 
  4 C        2.1900    -0.6820     0.6650 C.2   1 <1>  -0.1500 
  5 C        0.4470    -2.6140     0.3910 C.3   1 <1>   0.0200 
  6 C        2.2470     0.7460     0.5940 C.2   1 <1>  -0.1500 
  7 C        0.0160    -3.0110    -1.0210 C.3   1 <1>   0.1400 
  8 N       -0.3740    -4.4410    -1.0480 N.am  1 <1>  -0.7300 
  9 C       -1.6450    -4.9230    -1.1120 C.2   1 <1>   0.5690 
 10 O       -2.5950    -4.1770    -1.1280 O.2   1 <1>  -0.5700 
 11 C       -1.8630    -6.4410    -1.1440 C.3   1 <1>   0.2610 
 12 O       -0.6140    -7.1010    -1.3200 O.3   1 <1>  -0.5600 
 13 C       -2.5880    -6.8870     0.1560 C.3   1 <1>   0.3640 
 14 C       -0.6930    -8.5040    -1.3230 C.3   1 <1>   0.1810 
 15 N       -2.2300    -8.2640     0.6340 N.am  1 <1>  -0.6600 
 16 C       -4.1150    -6.7340     0.0360 C.ar  1 <1>  -0.1430 
 17 C       -1.3470    -9.0510    -0.0550 C.2   1 <1>   0.5690 
 18 C       -2.8650    -8.7040     1.9100 C.3   1 <1>   0.0600 
 19 C       -4.9540    -7.5990    -0.6760 C.ar  1 <1>  -0.1430 
 20 C       -4.6830    -5.6480     0.6930 C.ar  1 <1>  -0.1500 
 21 O       -1.0750   -10.1770     0.2880 O.2   1 <1>  -0.5700 
 22 C       -6.3210    -7.3590    -0.6990 C.ar  1 <1>  -0.1500 
 23 C       -4.4590    -8.8230    -1.4380 C.3   1 <1>  -0.0970 
 24 C       -6.0450    -5.4170     0.6600 C.ar  1 <1>  -0.1500 
 25 C       -6.8680    -6.2770    -0.0370 C.ar  1 <1>  -0.1500 
 26 H        0.7790     2.3490     0.1740 H     1 <1>   0.1500 
 27 H        3.0710    -1.2550     0.8970 H     1 <1>   0.1500 
 28 H        1.2260    -3.2750     0.7270 H     1 <1>   0.0800 
 29 H       -0.3910    -2.6980     1.0600 H     1 <1>   0.0800 
 30 H        3.1700     1.2710     0.7700 H     1 <1>   0.1500 
 31 H        0.8260    -2.8500    -1.7120 H     1 <1>   0.0800 
 32 H       -0.8160    -2.4010    -1.3300 H     1 <1>   0.0800 
 33 H        0.3820    -5.1340    -1.0870 H     1 <1>   0.3700 
 34 H       -2.4740    -6.6620    -1.9980 H     1 <1>   0.0800 
 35 H       -2.2560    -6.2160     0.9280 H     1 <1>   0.0800 
 36 H       -1.2490    -8.8180    -2.1870 H     1 <1>   0.0800 
 37 H        0.3080    -8.8880    -1.3970 H     1 <1>   0.0800 
 38 H       -2.6940    -7.9690     2.6770 H     1 <1>   0.0800 
 39 H       -2.4520    -9.6440     2.2370 H     1 <1>   0.0800 
 40 H       -3.9250    -8.8260     1.7690 H     1 <1>   0.0800 
 41 H       -4.0640    -4.9540     1.2360 H     1 <1>   0.1500 
 42 H       -6.9790    -8.0180    -1.2380 H     1 <1>   0.1500 
 43 H       -5.2330    -9.2240    -2.0670 H     1 <1>   0.0800 
 44 H       -4.1640    -9.5940    -0.7480 H     1 <1>   0.0800 
 45 H       -3.6290    -8.5750    -2.0680 H     1 <1>   0.0800 
 46 H       -6.4610    -4.5680     1.1730 H     1 <1>   0.1500 
 47 H       -7.9290    -6.1040    -0.0670 H     1 <1>   0.1500 
@<TRIPOS>BOND
  1   1   2  1   
  2   1   3  1   
  3   2   4  2   
  4   2   5  1   
  5   3   6  2   
  6   3  26  1   
  7   4   6  1   
  8   4  27  1   
  9   5   7  1   
 10   5  28  1   
 11   5  29  1   
 12   6  30  1   
 13   7   8  1   
 14   7  31  1   
 15   7  32  1   
 16   8   9  am  
 17   8  33  1   
 18   9  10  2   
 19   9  11  1   
 20  11  12  1   
 21  11  13  1   
 22  11  34  1   
 23  12  14  1   
 24  13  15  1   
 25  13  16  1   
 26  13  35  1   
 27  14  17  1   
 28  14  36  1   
 29  14  37  1   
 30  15  17  am  
 31  15  18  1   
 32  16  19  ar  
 33  16  20  ar  
 34  17  21  2   
 35  18  38  1   
 36  18  39  1   
 37  18  40  1   
 38  19  22  ar  
 39  19  23  1   
 40  20  24  ar  
 41  20  41  1   
 42  22  25  ar  
 43  22  42  1   
 44  23  43  1   
 45  23  44  1   
 46  23  45  1   
 47  24  25  ar  
 48  24  46  1   
 49  25  47  1   
@<TRIPOS>SUBSTRUCTURE
  1 ****   9 GROUP 4 **** **** 0

# MOE 2024.06 (io_trps.svl 2023.06)
