@<TRIPOS>MOLECULE
NONAME
24 25 1 0 0 
SMALL
USER_CHARGES


@<TRIPOS>ATOM
  1 F        0.2200     0.4320    -0.5050 F     1 <1>  -0.1900 
  2 C        0.1580     1.7190    -0.2940 C.ar  1 <1>   0.1900 
  3 C       -1.0740     2.3410    -0.3500 C.ar  1 <1>  -0.1500 
  4 C        1.3240     2.4050    -0.0230 C.ar  1 <1>  -0.1500 
  5 C       -1.1560     3.7140    -0.1250 C.ar  1 <1>  -0.1440 
  6 C        1.2500     3.7680     0.1980 C.ar  1 <1>  -0.0320 
  7 C        0.0210     4.4090     0.1480 C.ar  1 <1>  -0.1500 
  8 C       -2.4950     4.4650    -0.1750 C.3   1 <1>   1.1640 
  9 C        2.4940     4.5790     0.5010 C.3   1 <1>  -0.0680 
 10 F       -2.5750     5.2820    -1.2170 F     1 <1>  -0.3400 
 11 F       -2.7050     5.2060     0.9050 F     1 <1>  -0.3400 
 12 F       -3.5410     3.6500    -0.2670 F     1 <1>  -0.3400 
 13 C        2.8290     5.7030    -0.4330 C.3   1 <1>  -0.2470 
 14 C        3.7350     4.5090    -0.3360 C.3   1 <1>  -0.2000 
 15 C        3.1120     7.0610     0.1810 C.2   1 <1>   0.9470 
 16 O        2.1540     7.7010     0.6250 O.co2 1 <1>  -0.9000 
 17 O        4.2750     7.4740     0.2200 O.co2 1 <1>  -0.9000 
 18 H       -1.9460     1.7480    -0.5680 H     1 <1>   0.1500 
 19 H        2.2670     1.8910     0.0140 H     1 <1>   0.1500 
 20 H       -0.0010     5.4760     0.3260 H     1 <1>   0.1500 
 21 H        2.6140     4.7760     1.5530 H     1 <1>   0.1000 
 22 H        2.2490     5.8100    -1.3280 H     1 <1>   0.1000 
 23 H        3.7770     3.8370    -1.1730 H     1 <1>   0.1000 
 24 H        4.6970     4.6670     0.1230 H     1 <1>   0.1000 
@<TRIPOS>BOND
  1   1   2  1   
  2   2   3  ar  
  3   2   4  ar  
  4   3   5  ar  
  5   3  18  1   
  6   4   6  ar  
  7   4  19  1   
  8   5   7  ar  
  9   5   8  1   
 10   6   7  ar  
 11   6   9  1   
 12   7  20  1   
 13   8  10  1   
 14   8  11  1   
 15   8  12  1   
 16   9  13  1   
 17   9  14  1   
 18   9  21  1   
 19  13  14  1   
 20  13  15  1   
 21  13  22  1   
 22  14  23  1   
 23  14  24  1   
 24  15  16  ar  
 25  15  17  ar  
@<TRIPOS>SUBSTRUCTURE
  1 ****   7 GROUP 4 **** **** 0

# MOE 2024.06 (io_trps.svl 2023.06)
