@<TRIPOS>MOLECULE
NONAME
40 42 1 0 0 
SMALL
USER_CHARGES


@<TRIPOS>ATOM
  1 O        2.4920     2.8740    -2.8050 O.2   1 <1>  -0.5700 
  2 C        2.2040     2.7660    -1.6380 C.2   1 <1>   0.7800 
  3 O        1.6530     3.7720    -0.9780 O.3   1 <1>  -0.4300 
  4 N        2.4500     1.7140    -0.8250 N.am  1 <1>  -0.6600 
  5 C        1.6620     3.5180     0.4160 C.3   1 <1>   0.2800 
  6 C        1.9530     2.0070     0.5190 C.3   1 <1>   0.1400 
  7 C        2.8850     0.3570    -1.2430 C.3   1 <1>   0.0600 
  8 C        2.7980     4.3830     1.0090 C.3   1 <1>   0.3430 
  9 C        0.3050     3.9540     1.0020 C.3   1 <1>  -0.1600 
 10 N        2.6460     5.8520     0.6730 N.4   1 <1>  -0.9590 
 11 C        0.2610     5.4620     1.3470 C.3   1 <1>  -0.1600 
 12 C        1.2190     6.2970     0.4880 C.3   1 <1>   0.3430 
 13 C        3.4280     6.1980    -0.5480 C.3   1 <1>   0.5240 
 14 C        3.4690     7.7040    -0.6470 C.2   1 <1>  -0.1810 
 15 C        2.8120     8.4640    -1.6070 C.2   1 <1>   0.1390 
 16 C        4.1020     8.6100     0.1340 C.2   1 <1>  -0.3020 
 17 N        3.0020     9.7320    -1.4310 N.2   1 <1>  -0.7070 
 18 N        3.8080     9.8280    -0.3630 N.pl3 1 <1>   0.3140 
 19 C        4.2720    11.1320     0.1270 C.3   1 <1>   0.0160 
 20 H        2.6890     1.7770     1.2700 H     1 <1>   0.0800 
 21 H        1.0530     1.4460     0.7060 H     1 <1>   0.0800 
 22 H        3.1260     0.3560    -2.2930 H     1 <1>   0.0800 
 23 H        2.0940    -0.3530    -1.0700 H     1 <1>   0.0800 
 24 H        3.7570     0.0620    -0.6870 H     1 <1>   0.0800 
 25 H        3.7480     4.0140     0.6600 H     1 <1>   0.0800 
 26 H        2.7770     4.2640     2.0800 H     1 <1>   0.0800 
 27 H        0.1020     3.4000     1.9030 H     1 <1>   0.0800 
 28 H       -0.4730     3.7110     0.2980 H     1 <1>   0.0800 
 29 H        3.0540     6.4230     1.4240 H     1 <1>   0.4500 
 30 H        0.5070     5.6130     2.3840 H     1 <1>   0.0800 
 31 H       -0.7430     5.8260     1.2070 H     1 <1>   0.0800 
 32 H        0.9350     6.1730    -0.5450 H     1 <1>   0.0800 
 33 H        1.1250     7.3450     0.7320 H     1 <1>   0.0800 
 34 H        2.9690     5.7740    -1.4270 H     1 <1>   0.0800 
 35 H        4.4340     5.8200    -0.4690 H     1 <1>   0.0800 
 36 H        2.2080     8.0720    -2.4110 H     1 <1>   0.1500 
 37 H        4.7360     8.4770     0.9910 H     1 <1>   0.1500 
 38 H        4.8830    10.9990     1.0000 H     1 <1>   0.0800 
 39 H        3.4190    11.7390     0.3670 H     1 <1>   0.0800 
 40 H        4.8430    11.6110    -0.6470 H     1 <1>   0.0800 
@<TRIPOS>BOND
  1   1   2  2   
  2   2   3  1   
  3   2   4  am  
  4   3   5  1   
  5   4   6  1   
  6   4   7  1   
  7   5   6  1   
  8   5   8  1   
  9   5   9  1   
 10   6  20  1   
 11   6  21  1   
 12   7  22  1   
 13   7  23  1   
 14   7  24  1   
 15   8  10  1   
 16   8  25  1   
 17   8  26  1   
 18   9  11  1   
 19   9  27  1   
 20   9  28  1   
 21  10  12  1   
 22  10  13  1   
 23  10  29  1   
 24  11  12  1   
 25  11  30  1   
 26  11  31  1   
 27  12  32  1   
 28  12  33  1   
 29  13  14  1   
 30  13  34  1   
 31  13  35  1   
 32  14  15  1   
 33  14  16  2   
 34  15  17  2   
 35  15  36  1   
 36  16  18  1   
 37  16  37  1   
 38  17  18  1   
 39  18  19  1   
 40  19  38  1   
 41  19  39  1   
 42  19  40  1   
@<TRIPOS>SUBSTRUCTURE
  1 ****  10 GROUP 4 **** **** 0

# MOE 2024.06 (io_trps.svl 2023.06)
