@<TRIPOS>MOLECULE
NONAME
50 53 1 0 0 
SMALL
USER_CHARGES


@<TRIPOS>ATOM
  1 O        0.4340     0.1810    -2.3100 O.3   1 <1>  -0.0190 
  2 N        0.5250     1.4660    -2.1490 N.2   1 <1>  -0.4100 
  3 C        1.3410    -0.3050    -1.5000 C.2   1 <1>   0.2980 
  4 C        1.4400     1.6710    -1.2870 C.2   1 <1>   0.4300 
  5 N        2.0060     0.5590    -0.8380 N.2   1 <1>  -0.5650 
  6 C        1.5200    -1.8170    -1.4220 C.3   1 <1>   0.2900 
  7 C        1.8890     3.0330    -0.7820 C.3   1 <1>  -0.0140 
  8 N        0.3370    -2.5260    -0.8760 N.3   1 <1>  -0.8100 
  9 C        1.4470     3.5240     0.5640 C.3   1 <1>  -0.2000 
 10 C        0.9350     4.1860    -0.6790 C.3   1 <1>  -0.2000 
 11 C        0.4810    -3.9930    -1.0330 C.3   1 <1>   0.1100 
 12 C        0.0150    -2.1200     0.4960 C.3   1 <1>   0.1100 
 13 C       -0.5660    -4.8370    -0.2450 C.3   1 <1>   0.0000 
 14 C       -1.3700    -2.6580     0.8810 C.3   1 <1>  -0.1600 
 15 C       -1.7640    -3.9050     0.0750 C.3   1 <1>   0.2000 
 16 C       -1.0920    -5.9690    -1.1620 C.3   1 <1>   0.1200 
 17 C        0.0290    -5.4250     1.0760 C.3   1 <1>  -0.0160 
 18 O       -2.7650    -4.5760     0.7650 O.3   1 <1>  -0.6800 
 19 O       -0.0500    -6.6810    -1.7460 O.3   1 <1>  -0.6800 
 20 C        1.1670    -6.4320     0.9250 C.ar  1 <1>  -0.1440 
 21 C        2.4880    -6.0110     0.8930 C.ar  1 <1>  -0.1500 
 22 C        0.8890    -7.7890     0.8430 C.ar  1 <1>  -0.1500 
 23 C        3.5140    -6.9290     0.7510 C.ar  1 <1>  -0.1500 
 24 C        1.9140    -8.7080     0.7010 C.ar  1 <1>  -0.1500 
 25 C        3.2270    -8.2780     0.6520 C.ar  1 <1>  -0.1500 
 26 H        2.3800    -2.0330    -0.8130 H     1 <1>   0.0800 
 27 H        1.7170    -2.1760    -2.4170 H     1 <1>   0.0800 
 28 H        2.8990     3.2510    -1.0790 H     1 <1>   0.1000 
 29 H        0.7750     2.9080     1.1370 H     1 <1>   0.1000 
 30 H        2.1600     4.0440     1.1790 H     1 <1>   0.1000 
 31 H        1.2900     5.1690    -0.9330 H     1 <1>   0.1000 
 32 H       -0.0920     4.0310    -0.9650 H     1 <1>   0.1000 
 33 H        0.3770    -4.2020    -2.0850 H     1 <1>   0.0800 
 34 H        1.4740    -4.2940    -0.7600 H     1 <1>   0.0800 
 35 H        0.7690    -2.4940     1.1670 H     1 <1>   0.0800 
 36 H        0.0000    -1.0460     0.5810 H     1 <1>   0.0800 
 37 H       -2.0980    -1.8900     0.6890 H     1 <1>   0.0800 
 38 H       -1.3730    -2.8580     1.9370 H     1 <1>   0.0800 
 39 H       -2.1930    -3.5790    -0.8580 H     1 <1>   0.0800 
 40 H       -1.6820    -5.5590    -1.9640 H     1 <1>   0.0800 
 41 H       -1.7050    -6.6590    -0.6080 H     1 <1>   0.0800 
 42 H        0.3810    -4.6300     1.7050 H     1 <1>   0.0800 
 43 H       -0.7550    -5.9150     1.6240 H     1 <1>   0.0800 
 44 H       -2.5330    -4.6550     1.7080 H     1 <1>   0.4000 
 45 H        0.5660    -7.0040    -1.0490 H     1 <1>   0.4000 
 46 H        2.7300    -4.9660     0.9800 H     1 <1>   0.1500 
 47 H       -0.1280    -8.1420     0.8870 H     1 <1>   0.1500 
 48 H        4.5370    -6.5940     0.7210 H     1 <1>   0.1500 
 49 H        1.6890    -9.7590     0.6300 H     1 <1>   0.1500 
 50 H        4.0240    -8.9930     0.5400 H     1 <1>   0.1500 
@<TRIPOS>BOND
  1   1   2  1   
  2   1   3  1   
  3   2   4  2   
  4   3   5  2   
  5   3   6  1   
  6   4   5  1   
  7   4   7  1   
  8   6   8  1   
  9   6  26  1   
 10   6  27  1   
 11   7   9  1   
 12   7  10  1   
 13   7  28  1   
 14   8  11  1   
 15   8  12  1   
 16   9  10  1   
 17   9  29  1   
 18   9  30  1   
 19  10  31  1   
 20  10  32  1   
 21  11  13  1   
 22  11  33  1   
 23  11  34  1   
 24  12  14  1   
 25  12  35  1   
 26  12  36  1   
 27  13  15  1   
 28  13  16  1   
 29  13  17  1   
 30  14  15  1   
 31  14  37  1   
 32  14  38  1   
 33  15  18  1   
 34  15  39  1   
 35  16  19  1   
 36  16  40  1   
 37  16  41  1   
 38  17  20  1   
 39  17  42  1   
 40  17  43  1   
 41  18  44  1   
 42  19  45  1   
 43  20  21  ar  
 44  20  22  ar  
 45  21  23  ar  
 46  21  46  1   
 47  22  24  ar  
 48  22  47  1   
 49  23  25  ar  
 50  23  48  1   
 51  24  25  ar  
 52  24  49  1   
 53  25  50  1   
@<TRIPOS>SUBSTRUCTURE
  1 ****   8 GROUP 4 **** **** 0

# MOE 2024.06 (io_trps.svl 2023.06)
