@<TRIPOS>MOLECULE
NONAME
40 42 1 0 0 
SMALL
USER_CHARGES


@<TRIPOS>ATOM
  1 O        0.4260    -0.4990    -1.1520 O.2   1 <1>  -0.5700 
  2 C        1.2380    -0.8120    -0.3020 C.2   1 <1>   0.7150 
  3 N        2.1750     0.0740     0.1400 N.am  1 <1>  -0.4930 
  4 C        1.2370    -2.1450     0.2370 C.2   1 <1>  -0.2370 
  5 C        2.3820     1.4350    -0.1860 C.2   1 <1>   0.0630 
  6 N        1.7950    -2.4850     1.4400 N.pl3 1 <1>   0.0330 
  7 C        0.6960    -3.2860    -0.2950 C.2   1 <1>  -0.1500 
  8 C        3.6640     1.9790    -0.3040 C.2   1 <1>   0.3720 
  9 C        1.5410     2.4650    -0.4250 C.2   1 <1>  -0.3320 
 10 C        1.6110    -3.8100     1.6390 C.2   1 <1>  -0.3020 
 11 C        0.9310    -4.3500     0.5820 C.2   1 <1>   0.0190 
 12 N        3.6450     3.2370    -0.6130 N.2   1 <1>  -0.7070 
 13 N        4.8440     1.2320    -0.1160 N.pl3 1 <1>  -0.8210 
 14 N        2.3290     3.5370    -0.6960 N.pl3 1 <1>   0.3140 
 15 C        0.0190     2.5100    -0.4090 C.3   1 <1>  -0.0600 
 16 C        0.5210    -5.7110     0.3790 C.1   1 <1>   0.5380 
 17 C        5.8070     1.9110     0.8000 C.3   1 <1>   0.2090 
 18 C        5.5370     0.9980    -1.4130 C.3   1 <1>   0.2090 
 19 C        1.8900     4.8930    -1.0470 C.3   1 <1>   0.0160 
 20 N        0.2000    -6.7940     0.2190 N.1   1 <1>  -0.5570 
 21 C        7.0350     2.2470    -0.0330 C.3   1 <1>  -0.1600 
 22 C        7.0190     1.2130    -1.1460 C.3   1 <1>  -0.1600 
 23 H        3.0600    -0.3420     0.4270 H     1 <1>   0.3700 
 24 H        2.2500    -1.8320     2.0910 H     1 <1>   0.2700 
 25 H        0.1720    -3.3610    -1.2340 H     1 <1>   0.1500 
 26 H        1.9630    -4.3190     2.5200 H     1 <1>   0.1500 
 27 H       -0.3780     1.6220     0.0490 H     1 <1>   0.0800 
 28 H       -0.3580     2.5720    -1.4140 H     1 <1>   0.0800 
 29 H       -0.3280     3.3570     0.1540 H     1 <1>   0.0800 
 30 H        6.0720     1.2240     1.5850 H     1 <1>   0.0800 
 31 H        5.3860     2.7980     1.2440 H     1 <1>   0.0800 
 32 H        5.1960     1.7060    -2.1510 H     1 <1>   0.0800 
 33 H        5.3450     0.0010    -1.7680 H     1 <1>   0.0800 
 34 H        1.1950     4.8390    -1.8630 H     1 <1>   0.0800 
 35 H        2.7440     5.4750    -1.3390 H     1 <1>   0.0800 
 36 H        1.4220     5.3430    -0.1920 H     1 <1>   0.0800 
 37 H        7.9380     2.2180     0.5500 H     1 <1>   0.0800 
 38 H        6.9090     3.2320    -0.4470 H     1 <1>   0.0800 
 39 H        7.5390     1.5460    -2.0260 H     1 <1>   0.0800 
 40 H        7.4530     0.2900    -0.8020 H     1 <1>   0.0800 
@<TRIPOS>BOND
  1   1   2  2   
  2   2   3  am  
  3   2   4  1   
  4   3   5  1   
  5   3  23  1   
  6   4   6  1   
  7   4   7  2   
  8   5   8  1   
  9   5   9  2   
 10   6  10  1   
 11   6  24  1   
 12   7  11  1   
 13   7  25  1   
 14   8  12  2   
 15   8  13  1   
 16   9  14  1   
 17   9  15  1   
 18  10  11  2   
 19  10  26  1   
 20  11  16  1   
 21  12  14  1   
 22  13  17  1   
 23  13  18  1   
 24  14  19  1   
 25  15  27  1   
 26  15  28  1   
 27  15  29  1   
 28  16  20  3   
 29  17  21  1   
 30  17  30  1   
 31  17  31  1   
 32  18  22  1   
 33  18  32  1   
 34  18  33  1   
 35  19  34  1   
 36  19  35  1   
 37  19  36  1   
 38  21  22  1   
 39  21  37  1   
 40  21  38  1   
 41  22  39  1   
 42  22  40  1   
@<TRIPOS>SUBSTRUCTURE
  1 ****   3 GROUP 4 **** **** 0

# MOE 2024.06 (io_trps.svl 2023.06)
