@<TRIPOS>MOLECULE
NONAME
50 53 1 0 0 
SMALL
USER_CHARGES


@<TRIPOS>ATOM
  1 O        5.1210    -1.5740    -0.8750 O.2   1 <1>  -0.5700 
  2 C        3.9070    -1.4930    -0.8630 C.2   1 <1>   0.5440 
  3 N        3.3450    -0.5500    -1.6950 N.am  1 <1>  -0.6600 
  4 C        3.1150    -2.2930     0.0480 C.ar  1 <1>   0.0860 
  5 C        3.9630    -0.2350    -3.0290 C.3   1 <1>   0.1400 
  6 C        2.4510     0.5050    -1.1470 C.3   1 <1>   0.1400 
  7 C        3.6830    -2.7330     1.2630 C.ar  1 <1>   0.1600 
  8 C        1.8150    -2.6570    -0.2020 C.ar  1 <1>  -0.1500 
  9 C        5.2680     0.5890    -2.9200 C.3   1 <1>   0.3430 
 10 C        3.2720     1.5740    -0.4090 C.3   1 <1>  -0.1600 
 11 N        3.0710    -3.4270     2.1730 N.ar  1 <1>  -0.6200 
 12 C        1.1110    -3.4130     0.7480 C.ar  1 <1>   0.0000 
 13 N        5.4250     1.1900    -1.5640 N.4   1 <1>  -0.9590 
 14 C        4.3980     2.2130    -1.2300 C.3   1 <1>   0.3430 
 15 C        1.7820    -3.7770     1.9360 C.ar  1 <1>   0.3100 
 16 C       -0.2270    -3.8190     0.5690 C.ar  1 <1>  -0.1500 
 17 C        6.8160     1.5980    -1.2380 C.3   1 <1>   0.5230 
 18 C        1.0870    -4.5260     2.8970 C.ar  1 <1>  -0.1500 
 19 C       -0.8770    -4.5510     1.5260 C.ar  1 <1>  -0.1500 
 20 C        6.9770     1.6210     0.2700 C.2   1 <1>  -0.0400 
 21 C       -0.2140    -4.9080     2.7050 C.ar  1 <1>  -0.1500 
 22 O        6.4220     2.5960     0.9660 O.3   1 <1>  -0.2800 
 23 C        7.6200     0.7630     1.0920 C.2   1 <1>  -0.1500 
 24 C        6.6940     2.3870     2.2370 C.2   1 <1>  -0.0400 
 25 C        7.4330     1.2670     2.3840 C.2   1 <1>  -0.1500 
 26 C        6.1770     3.3670     3.2670 C.3   1 <1>  -0.0600 
 27 H        3.2540     0.2990    -3.6370 H     1 <1>   0.0800 
 28 H        4.1820    -1.1570    -3.5400 H     1 <1>   0.0800 
 29 H        1.7440     0.0680    -0.4620 H     1 <1>   0.0800 
 30 H        1.8880     0.9560    -1.9480 H     1 <1>   0.0800 
 31 H        4.7090    -2.4660     1.4510 H     1 <1>   0.1500 
 32 H        1.3220    -2.3770    -1.1150 H     1 <1>   0.1500 
 33 H        5.2910     1.3500    -3.6820 H     1 <1>   0.0800 
 34 H        6.0910    -0.0830    -3.1010 H     1 <1>   0.0800 
 35 H        3.6820     1.1600     0.4960 H     1 <1>   0.0800 
 36 H        2.5980     2.3560    -0.1070 H     1 <1>   0.0800 
 37 H        5.2420     0.3820    -0.9360 H     1 <1>   0.4500 
 38 H        4.8420     3.0030    -0.6460 H     1 <1>   0.0800 
 39 H        3.9990     2.6510    -2.1300 H     1 <1>   0.0800 
 40 H       -0.7360    -3.5450    -0.3390 H     1 <1>   0.1500 
 41 H        7.0390     2.5680    -1.6500 H     1 <1>   0.0800 
 42 H        7.5090     0.8790    -1.6440 H     1 <1>   0.0800 
 43 H        1.6150    -4.7920     3.7940 H     1 <1>   0.1500 
 44 H       -1.8990    -4.8590     1.3880 H     1 <1>   0.1500 
 45 H       -0.7360    -5.4830     3.4500 H     1 <1>   0.1500 
 46 H        8.1680    -0.1340     0.8570 H     1 <1>   0.1500 
 47 H        7.8160     0.8270     3.2890 H     1 <1>   0.1500 
 48 H        6.5670     4.3480     3.0650 H     1 <1>   0.0800 
 49 H        6.4850     3.0670     4.2530 H     1 <1>   0.0800 
 50 H        5.1040     3.4030     3.2330 H     1 <1>   0.0800 
@<TRIPOS>BOND
  1   1   2  2   
  2   2   3  am  
  3   2   4  1   
  4   3   5  1   
  5   3   6  1   
  6   4   7  ar  
  7   4   8  ar  
  8   5   9  1   
  9   5  27  1   
 10   5  28  1   
 11   6  10  1   
 12   6  29  1   
 13   6  30  1   
 14   7  11  ar  
 15   7  31  1   
 16   8  12  ar  
 17   8  32  1   
 18   9  13  1   
 19   9  33  1   
 20   9  34  1   
 21  10  14  1   
 22  10  35  1   
 23  10  36  1   
 24  11  15  ar  
 25  12  15  ar  
 26  12  16  ar  
 27  13  14  1   
 28  13  17  1   
 29  13  37  1   
 30  14  38  1   
 31  14  39  1   
 32  15  18  ar  
 33  16  19  ar  
 34  16  40  1   
 35  17  20  1   
 36  17  41  1   
 37  17  42  1   
 38  18  21  ar  
 39  18  43  1   
 40  19  21  ar  
 41  19  44  1   
 42  20  22  1   
 43  20  23  2   
 44  21  45  1   
 45  22  24  1   
 46  23  25  1   
 47  23  46  1   
 48  24  25  2   
 49  24  26  1   
 50  25  47  1   
 51  26  48  1   
 52  26  49  1   
 53  26  50  1   
@<TRIPOS>SUBSTRUCTURE
  1 ****   2 GROUP 4 **** **** 0

# MOE 2024.06 (io_trps.svl 2023.06)
