@<TRIPOS>MOLECULE
NONAME
53 55 1 0 0 
SMALL
USER_CHARGES


@<TRIPOS>ATOM
  1 O       -1.0550     0.9290    -2.0340 O.2   1 <1>  -0.5700 
  2 C       -1.9470     1.2620    -1.2910 C.2   1 <1>   0.5690 
  3 N       -3.0080     0.4360    -1.0150 N.am  1 <1>  -0.6600 
  4 C       -1.8550     2.6380    -0.6540 C.3   1 <1>  -0.0990 
  5 C       -3.1010    -0.9340    -1.6280 C.3   1 <1>   0.1400 
  6 C       -4.2080     0.8340    -0.2230 C.3   1 <1>   0.1400 
  7 C       -0.5720     3.3850    -1.0420 C.3   1 <1>   0.0960 
  8 C       -3.3460    -2.0330    -0.5630 C.3   1 <1>   0.0000 
  9 C       -4.4700    -0.2000     0.8710 C.3   1 <1>  -0.1600 
 10 N       -0.5110     4.6770    -0.3320 N.pl3 1 <1>   0.0480 
 11 C       -4.5920    -1.5940     0.2530 C.3   1 <1>   0.2000 
 12 C       -3.7200    -3.3600    -1.2700 C.3   1 <1>   0.1200 
 13 C       -2.0930    -2.2030     0.3540 C.3   1 <1>  -0.0170 
 14 C        0.1060     4.9800     0.8380 C.2   1 <1>   0.0060 
 15 C       -1.1140     5.8200    -0.7060 C.2   1 <1>  -0.3020 
 16 O       -4.8780    -2.4900     1.2690 O.3   1 <1>  -0.6800 
 17 O       -2.8410    -3.6610    -2.3010 O.3   1 <1>  -0.6800 
 18 C       -0.9110    -2.9340    -0.2760 C.ar  1 <1>  -0.1440 
 19 N       -0.0670     6.2040     1.2140 N.2   1 <1>  -0.5650 
 20 C        0.9230     3.9870     1.6390 C.3   1 <1>  -0.0600 
 21 C       -0.8320     6.7360     0.2440 C.2   1 <1>   0.0770 
 22 C       -0.7580    -4.3010    -0.0890 C.ar  1 <1>  -0.1500 
 23 C        0.0210    -2.2510    -1.0410 C.ar  1 <1>  -0.1500 
 24 C        0.3010    -4.9750    -0.6710 C.ar  1 <1>  -0.1500 
 25 C        1.0800    -2.9240    -1.6250 C.ar  1 <1>  -0.1500 
 26 C        1.2200    -4.2870    -1.4420 C.ar  1 <1>  -0.1500 
 27 H       -2.7030     3.2180    -0.9690 H     1 <1>   0.0800 
 28 H       -1.8810     2.5190     0.4130 H     1 <1>   0.0800 
 29 H       -3.9140    -0.9350    -2.3330 H     1 <1>   0.0800 
 30 H       -2.2090    -1.1600    -2.1850 H     1 <1>   0.0800 
 31 H       -4.0850     1.8010     0.2280 H     1 <1>   0.0800 
 32 H       -5.0570     0.8840    -0.8850 H     1 <1>   0.0800 
 33 H       -0.5540     3.5680    -2.1020 H     1 <1>   0.0800 
 34 H        0.2930     2.8000    -0.7860 H     1 <1>   0.0800 
 35 H       -5.3900     0.0510     1.3680 H     1 <1>   0.0800 
 36 H       -3.6720    -0.1620     1.5910 H     1 <1>   0.0800 
 37 H       -5.4490    -1.5950    -0.4010 H     1 <1>   0.0800 
 38 H       -4.7010    -3.2940    -1.7090 H     1 <1>   0.0800 
 39 H       -3.7180    -4.1810    -0.5730 H     1 <1>   0.0800 
 40 H       -1.7510    -1.2410     0.6890 H     1 <1>   0.0800 
 41 H       -2.3630    -2.7530     1.2360 H     1 <1>   0.0800 
 42 H       -1.6940     5.9210    -1.6040 H     1 <1>   0.1500 
 43 H       -4.2260    -2.4130     1.9910 H     1 <1>   0.4000 
 44 H       -1.9210    -3.7110    -1.9510 H     1 <1>   0.4000 
 45 H        1.2810     4.4550     2.5390 H     1 <1>   0.0800 
 46 H        1.7700     3.6590     1.0650 H     1 <1>   0.0800 
 47 H        0.3210     3.1390     1.9080 H     1 <1>   0.0800 
 48 H       -1.1440     7.7660     0.2840 H     1 <1>   0.1500 
 49 H       -1.4640    -4.8510     0.5080 H     1 <1>   0.1500 
 50 H       -0.0690    -1.1900    -1.1910 H     1 <1>   0.1500 
 51 H        0.4100    -6.0360    -0.5240 H     1 <1>   0.1500 
 52 H        1.7930    -2.3830    -2.2230 H     1 <1>   0.1500 
 53 H        2.0430    -4.8100    -1.8970 H     1 <1>   0.1500 
@<TRIPOS>BOND
  1   1   2  2   
  2   2   3  am  
  3   2   4  1   
  4   3   5  1   
  5   3   6  1   
  6   4   7  1   
  7   4  27  1   
  8   4  28  1   
  9   5   8  1   
 10   5  29  1   
 11   5  30  1   
 12   6   9  1   
 13   6  31  1   
 14   6  32  1   
 15   7  10  1   
 16   7  33  1   
 17   7  34  1   
 18   8  11  1   
 19   8  12  1   
 20   8  13  1   
 21   9  11  1   
 22   9  35  1   
 23   9  36  1   
 24  10  14  1   
 25  10  15  1   
 26  11  16  1   
 27  11  37  1   
 28  12  17  1   
 29  12  38  1   
 30  12  39  1   
 31  13  18  1   
 32  13  40  1   
 33  13  41  1   
 34  14  19  2   
 35  14  20  1   
 36  15  21  2   
 37  15  42  1   
 38  16  43  1   
 39  17  44  1   
 40  18  22  ar  
 41  18  23  ar  
 42  19  21  1   
 43  20  45  1   
 44  20  46  1   
 45  20  47  1   
 46  21  48  1   
 47  22  24  ar  
 48  22  49  1   
 49  23  25  ar  
 50  23  50  1   
 51  24  26  ar  
 52  24  51  1   
 53  25  26  ar  
 54  25  52  1   
 55  26  53  1   
@<TRIPOS>SUBSTRUCTURE
  1 ****   2 GROUP 4 **** **** 0

# MOE 2024.06 (io_trps.svl 2023.06)
