@<TRIPOS>MOLECULE
NONAME
47 49 1 0 0 
SMALL
USER_CHARGES


@<TRIPOS>ATOM
  1 S       -0.2060     0.9010     0.3950 S.3   1 <1>  -0.0800 
  2 C        1.0930     1.0620    -0.7650 C.2   1 <1>   0.1980 
  3 C        0.9460     1.1380     1.6750 C.2   1 <1>  -0.1100 
  4 N        2.2410     1.2480    -0.2480 N.2   1 <1>  -0.5650 
  5 C        0.7310     0.9740    -2.2280 C.3   1 <1>  -0.0600 
  6 C        2.1640     1.3080     1.1370 C.2   1 <1>   0.0460 
  7 C        3.4490     1.5740     1.9020 C.3   1 <1>   0.0820 
  8 C        3.9680     2.9730     1.6320 C.2   1 <1>   0.5690 
  9 O        4.1920     3.7010     2.5700 O.2   1 <1>  -0.5700 
 10 N        4.1430     3.3520     0.3310 N.am  1 <1>  -0.4940 
 11 C        4.3420     4.6500    -0.1790 C.2   1 <1>  -0.0880 
 12 N        5.5170     5.3370    -0.3090 N.pl3 1 <1>   0.3140 
 13 C        3.3500     5.4310    -0.6920 C.2   1 <1>  -0.0540 
 14 N        5.2830     6.5500    -0.8910 N.2   1 <1>  -0.7070 
 15 C        6.9350     4.8670    -0.0170 C.3   1 <1>   0.2560 
 16 C        1.9420     5.1520    -0.8140 C.ar  1 <1>   0.0540 
 17 C        4.0080     6.5880    -1.1010 C.2   1 <1>   0.1390 
 18 C        7.1240     4.5800     1.4820 C.3   1 <1>  -0.2400 
 19 C        7.9700     5.9410    -0.4140 C.3   1 <1>  -0.2400 
 20 C        7.2480     3.5980    -0.8300 C.3   1 <1>  -0.2400 
 21 C        1.2980     5.2430    -2.0450 C.ar  1 <1>  -0.1500 
 22 C        1.1840     4.7770     0.2920 C.ar  1 <1>  -0.1500 
 23 C       -0.0510     4.9630    -2.1700 C.ar  1 <1>  -0.1500 
 24 C       -0.1640     4.4950     0.1740 C.ar  1 <1>  -0.1500 
 25 C       -0.7850     4.5870    -1.0590 C.ar  1 <1>  -0.1500 
 26 H        0.5840     1.1330     2.6870 H     1 <1>   0.1500 
 27 H        0.0500     1.7670    -2.4790 H     1 <1>   0.0800 
 28 H        0.2680     0.0270    -2.4340 H     1 <1>   0.0800 
 29 H        1.6160     1.0720    -2.8290 H     1 <1>   0.0800 
 30 H        4.1960     0.8590     1.6120 H     1 <1>   0.0800 
 31 H        3.2710     1.4660     2.9560 H     1 <1>   0.0800 
 32 H        3.6500     2.7130    -0.3110 H     1 <1>   0.3700 
 33 H        3.5080     7.4300    -1.5480 H     1 <1>   0.1500 
 34 H        6.7640     5.4080     2.0670 H     1 <1>   0.0800 
 35 H        8.1630     4.4260     1.7100 H     1 <1>   0.0800 
 36 H        6.5990     3.6920     1.7710 H     1 <1>   0.0800 
 37 H        7.8010     6.8450     0.1440 H     1 <1>   0.0800 
 38 H        7.8960     6.1650    -1.4640 H     1 <1>   0.0800 
 39 H        8.9710     5.6040    -0.2140 H     1 <1>   0.0800 
 40 H        6.6110     2.7840    -0.5370 H     1 <1>   0.0800 
 41 H        8.2670     3.2940    -0.6730 H     1 <1>   0.0800 
 42 H        7.1080     3.7890    -1.8800 H     1 <1>   0.0800 
 43 H        1.8660     5.5310    -2.9120 H     1 <1>   0.1500 
 44 H        1.6650     4.7100     1.2520 H     1 <1>   0.1500 
 45 H       -0.5310     5.0390    -3.1300 H     1 <1>   0.1500 
 46 H       -0.7290     4.2040     1.0420 H     1 <1>   0.1500 
 47 H       -1.8350     4.3680    -1.1510 H     1 <1>   0.1500 
@<TRIPOS>BOND
  1   1   2  1   
  2   1   3  1   
  3   2   4  2   
  4   2   5  1   
  5   3   6  2   
  6   3  26  1   
  7   4   6  1   
  8   5  27  1   
  9   5  28  1   
 10   5  29  1   
 11   6   7  1   
 12   7   8  1   
 13   7  30  1   
 14   7  31  1   
 15   8   9  2   
 16   8  10  am  
 17  10  11  1   
 18  10  32  1   
 19  11  12  1   
 20  11  13  2   
 21  12  14  1   
 22  12  15  1   
 23  13  16  1   
 24  13  17  1   
 25  14  17  2   
 26  15  18  1   
 27  15  19  1   
 28  15  20  1   
 29  16  21  ar  
 30  16  22  ar  
 31  17  33  1   
 32  18  34  1   
 33  18  35  1   
 34  18  36  1   
 35  19  37  1   
 36  19  38  1   
 37  19  39  1   
 38  20  40  1   
 39  20  41  1   
 40  20  42  1   
 41  21  23  ar  
 42  21  43  1   
 43  22  24  ar  
 44  22  44  1   
 45  23  25  ar  
 46  23  45  1   
 47  24  25  ar  
 48  24  46  1   
 49  25  47  1   
@<TRIPOS>SUBSTRUCTURE
  1 ****  10 GROUP 4 **** **** 0

# MOE 2024.06 (io_trps.svl 2023.06)
