@<TRIPOS>MOLECULE
NONAME
48 51 1 0 0 
SMALL
USER_CHARGES


@<TRIPOS>ATOM
  1 O       -0.5420     0.8980    -1.0830 O.2   1 <1>  -0.5700 
  2 C       -0.4900     2.0300    -0.6610 C.2   1 <1>   0.5690 
  3 N       -1.5700     2.6750    -0.1150 N.am  1 <1>  -0.5090 
  4 C        0.8440     2.7670    -0.7880 C.3   1 <1>   0.1810 
  5 C       -1.5160     4.1310     0.2360 C.3   1 <1>   0.3640 
  6 C       -2.8530     1.9830     0.1670 C.3   1 <1>   0.0490 
  7 O        0.9130     3.9310    -0.0020 O.3   1 <1>  -0.5600 
  8 C       -2.6770     4.8730    -0.4290 C.ar  1 <1>  -0.1440 
  9 C       -0.1830     4.8070    -0.1740 C.3   1 <1>   0.2610 
 10 C       -3.3800     1.9850     1.5690 C.3   1 <1>  -0.2000 
 11 C       -2.8490     0.7220     0.9720 C.3   1 <1>  -0.2000 
 12 C       -3.4270     5.7800     0.3070 C.ar  1 <1>   0.1600 
 13 C       -3.0000     4.6750    -1.7600 C.ar  1 <1>  -0.1500 
 14 C        0.0490     6.1270     0.5860 C.2   1 <1>   0.5690 
 15 N       -4.4450     6.4820    -0.1650 N.ar  1 <1>  -0.6200 
 16 C       -4.0580     5.3990    -2.2660 C.ar  1 <1>  -0.1500 
 17 O       -0.5980     6.3320     1.5910 O.2   1 <1>  -0.5700 
 18 N        0.9600     7.0570     0.1340 N.am  1 <1>  -0.6600 
 19 C       -4.7360     6.2760    -1.4380 C.ar  1 <1>   0.1600 
 20 C        1.1630     8.3490     0.8520 C.3   1 <1>   0.1400 
 21 C        1.9340     6.8290    -0.9710 C.3   1 <1>   0.1400 
 22 C        2.5690     8.3760     1.4530 C.3   1 <1>  -0.1600 
 23 C        3.3510     6.8270    -0.3950 C.3   1 <1>  -0.1600 
 24 C        3.6180     8.1230     0.3700 C.3   1 <1>   0.2000 
 25 O        4.8520     8.0260     0.9700 O.3   1 <1>  -0.6800 
 26 H        1.0070     3.0370    -1.8150 H     1 <1>   0.0800 
 27 H        1.6380     2.1140    -0.4730 H     1 <1>   0.0800 
 28 H       -1.6210     4.1960     1.3040 H     1 <1>   0.0800 
 29 H       -3.5540     2.0600    -0.6470 H     1 <1>   0.1000 
 30 H       -0.2410     5.0470    -1.2190 H     1 <1>   0.0800 
 31 H       -2.8130     2.4380     2.3620 H     1 <1>   0.1000 
 32 H       -4.4420     2.0680     1.7200 H     1 <1>   0.1000 
 33 H       -3.5420    -0.0560     0.7070 H     1 <1>   0.1000 
 34 H       -1.9040     0.3340     1.3110 H     1 <1>   0.1000 
 35 H       -3.1770     5.9450     1.3430 H     1 <1>   0.1500 
 36 H       -2.4610     3.9810    -2.3810 H     1 <1>   0.1500 
 37 H       -4.3580     5.2860    -3.2910 H     1 <1>   0.1500 
 38 H       -5.5620     6.8360    -1.8430 H     1 <1>   0.1500 
 39 H        1.0420     9.1610     0.1560 H     1 <1>   0.0800 
 40 H        0.4330     8.4760     1.6340 H     1 <1>   0.0800 
 41 H        1.7560     5.8950    -1.4720 H     1 <1>   0.0800 
 42 H        1.8350     7.6190    -1.6960 H     1 <1>   0.0800 
 43 H        2.6270     7.6200     2.2160 H     1 <1>   0.0800 
 44 H        2.7420     9.3360     1.9050 H     1 <1>   0.0800 
 45 H        4.0600     6.7310    -1.1980 H     1 <1>   0.0800 
 46 H        3.4530     5.9780     0.2580 H     1 <1>   0.0800 
 47 H        3.6520     8.9560    -0.3140 H     1 <1>   0.0800 
 48 H        4.8500     7.2950     1.6170 H     1 <1>   0.4000 
@<TRIPOS>BOND
  1   1   2  2   
  2   2   3  am  
  3   2   4  1   
  4   3   5  1   
  5   3   6  1   
  6   4   7  1   
  7   4  26  1   
  8   4  27  1   
  9   5   8  1   
 10   5   9  1   
 11   5  28  1   
 12   6  10  1   
 13   6  11  1   
 14   6  29  1   
 15   7   9  1   
 16   8  12  ar  
 17   8  13  ar  
 18   9  14  1   
 19   9  30  1   
 20  10  11  1   
 21  10  31  1   
 22  10  32  1   
 23  11  33  1   
 24  11  34  1   
 25  12  15  ar  
 26  12  35  1   
 27  13  16  ar  
 28  13  36  1   
 29  14  17  2   
 30  14  18  am  
 31  15  19  ar  
 32  16  19  ar  
 33  16  37  1   
 34  18  20  1   
 35  18  21  1   
 36  19  38  1   
 37  20  22  1   
 38  20  39  1   
 39  20  40  1   
 40  21  23  1   
 41  21  41  1   
 42  21  42  1   
 43  22  24  1   
 44  22  43  1   
 45  22  44  1   
 46  23  24  1   
 47  23  45  1   
 48  23  46  1   
 49  24  25  1   
 50  24  47  1   
 51  25  48  1   
@<TRIPOS>SUBSTRUCTURE
  1 ****   9 GROUP 4 **** **** 0

# MOE 2024.06 (io_trps.svl 2023.06)
