@<TRIPOS>MOLECULE
NONAME
46 47 1 0 0 
SMALL
USER_CHARGES


@<TRIPOS>ATOM
  1 O        4.3530     2.1000    -2.9690 O.2   1 <1>  -0.5700 
  2 C        4.0040     2.0890    -1.8120 C.2   1 <1>   0.6900 
  3 N        4.0970     0.9630    -1.0600 N.am  1 <1>  -0.4900 
  4 N        3.5210     3.2200    -1.2170 N.am  1 <1>  -0.5390 
  5 C        3.7600     0.9350     0.2600 C.2   1 <1>   0.6160 
  6 C        3.1750     3.2740     0.1240 C.2   1 <1>  -0.0290 
  7 O        3.8770    -0.1040     0.8730 O.2   1 <1>  -0.5700 
  8 C        3.2900     2.1420     0.8580 C.2   1 <1>  -0.1360 
  9 C        2.6980     4.6140     0.6720 C.3   1 <1>   0.2480 
 10 N        3.6940     5.6880     0.4310 N.3   1 <1>  -0.8100 
 11 C        4.9330     5.4690     1.2370 C.3   1 <1>   0.1100 
 12 C        3.1080     7.0140     0.6910 C.3   1 <1>   0.1100 
 13 C        6.0280     4.6910     0.4870 C.3   1 <1>   0.2000 
 14 C        3.9400     8.1090    -0.0030 C.3   1 <1>   0.3430 
 15 O        7.2020     4.7780     1.2190 O.3   1 <1>  -0.5600 
 16 C        6.4140     5.2500    -0.8760 C.3   1 <1>  -0.1600 
 17 N        3.3550     9.4830     0.1600 N.4   1 <1>  -0.9590 
 18 C        8.2890     4.4690     0.4070 C.3   1 <1>   0.1200 
 19 C        7.8650     4.8190    -1.0180 C.3   1 <1>  -0.1600 
 20 C        4.0590    10.4450    -0.7440 C.3   1 <1>   0.2630 
 21 C        3.4210     9.9650     1.5770 C.3   1 <1>   0.2630 
 22 H        4.4430     0.1150    -1.4930 H     1 <1>   0.3700 
 23 H        3.5150     4.0580    -1.7990 H     1 <1>   0.3700 
 24 H        3.0470     2.0870     1.9010 H     1 <1>   0.1500 
 25 H        2.4910     4.5300     1.7260 H     1 <1>   0.0800 
 26 H        1.7760     4.8590     0.1730 H     1 <1>   0.0800 
 27 H        4.6990     4.9450     2.1480 H     1 <1>   0.0800 
 28 H        5.3640     6.4130     1.5150 H     1 <1>   0.0800 
 29 H        3.0570     7.1820     1.7530 H     1 <1>   0.0800 
 30 H        2.1110     7.0450     0.2850 H     1 <1>   0.0800 
 31 H        5.7790     3.6470     0.4130 H     1 <1>   0.0800 
 32 H        3.9930     7.8660    -1.0510 H     1 <1>   0.0800 
 33 H        4.9420     8.0960     0.3920 H     1 <1>   0.0800 
 34 H        6.3470     6.3220    -0.8650 H     1 <1>   0.0800 
 35 H        5.7920     4.8590    -1.6610 H     1 <1>   0.0800 
 36 H        2.3650     9.4450    -0.1320 H     1 <1>   0.4500 
 37 H        8.4950     3.4160     0.5060 H     1 <1>   0.0800 
 38 H        9.1380     5.0440     0.7340 H     1 <1>   0.0800 
 39 H        8.4770     5.6050    -1.4250 H     1 <1>   0.0800 
 40 H        7.9510     3.9480    -1.6450 H     1 <1>   0.0800 
 41 H        5.1020    10.5140    -0.4790 H     1 <1>   0.0800 
 42 H        3.6180    11.4250    -0.6640 H     1 <1>   0.0800 
 43 H        3.9860    10.1190    -1.7690 H     1 <1>   0.0800 
 44 H        4.4440    10.0000     1.9140 H     1 <1>   0.0800 
 45 H        2.8650     9.3090     2.2270 H     1 <1>   0.0800 
 46 H        3.0000    10.9550     1.6540 H     1 <1>   0.0800 
@<TRIPOS>BOND
  1   1   2  2   
  2   2   3  am  
  3   2   4  am  
  4   3   5  am  
  5   3  22  1   
  6   4   6  1   
  7   4  23  1   
  8   5   7  2   
  9   5   8  1   
 10   6   8  2   
 11   6   9  1   
 12   8  24  1   
 13   9  10  1   
 14   9  25  1   
 15   9  26  1   
 16  10  11  1   
 17  10  12  1   
 18  11  13  1   
 19  11  27  1   
 20  11  28  1   
 21  12  14  1   
 22  12  29  1   
 23  12  30  1   
 24  13  15  1   
 25  13  16  1   
 26  13  31  1   
 27  14  17  1   
 28  14  32  1   
 29  14  33  1   
 30  15  18  1   
 31  16  19  1   
 32  16  34  1   
 33  16  35  1   
 34  17  20  1   
 35  17  21  1   
 36  17  36  1   
 37  18  19  1   
 38  18  37  1   
 39  18  38  1   
 40  19  39  1   
 41  19  40  1   
 42  20  41  1   
 43  20  42  1   
 44  20  43  1   
 45  21  44  1   
 46  21  45  1   
 47  21  46  1   
@<TRIPOS>SUBSTRUCTURE
  1 ****  10 GROUP 4 **** **** 0

# MOE 2024.06 (io_trps.svl 2023.06)
