@<TRIPOS>MOLECULE
NONAME
48 51 1 0 0 
SMALL
USER_CHARGES


@<TRIPOS>ATOM
  1 S       -1.9730    -2.2290     1.8750 S.3   1 <1>  -0.2820 
  2 C       -2.4430    -2.2900     0.1990 C.2   1 <1>   0.6510 
  3 C       -1.5350    -0.5310     1.6870 C.2   1 <1>   0.5300 
  4 N       -2.9090    -3.3590    -0.3680 N.2   1 <1>  -0.6210 
  5 N       -2.2380    -1.0550    -0.3530 N.am  1 <1>  -0.0580 
  6 N       -1.7230    -0.0790     0.5160 N.2   1 <1>  -0.5120 
  7 C       -0.9980     0.1610     2.9300 C.3   1 <1>  -0.0990 
  8 C       -3.2250    -3.2310    -1.6960 C.2   1 <1>   0.0330 
  9 C       -2.5660    -0.9030    -1.6910 C.2   1 <1>   0.6160 
 10 C       -0.6440     1.6400     2.7070 C.3   1 <1>  -0.2400 
 11 C       -3.0700    -2.0520    -2.3560 C.2   1 <1>  -0.1360 
 12 C       -3.7640    -4.4910    -2.3710 C.3   1 <1>   0.4810 
 13 O       -2.4430     0.1570    -2.2830 O.2   1 <1>  -0.5700 
 14 N       -4.7420    -5.1050    -1.4380 N.4   1 <1>  -0.9590 
 15 C       -4.7160    -6.5820    -1.4500 C.3   1 <1>   0.5230 
 16 C       -6.1230    -4.5490    -1.5700 C.3   1 <1>   0.2630 
 17 C       -5.4650    -7.0310    -0.2210 C.2   1 <1>  -0.3320 
 18 N       -4.9320    -6.9300     1.0400 N.pl3 1 <1>   0.0330 
 19 C       -6.7070    -7.5720    -0.1370 C.2   1 <1>  -0.1810 
 20 C       -5.8580    -7.3920     1.9340 C.ar  1 <1>  -0.1520 
 21 C       -6.9820    -7.8040     1.2290 C.ar  1 <1>   0.0000 
 22 C       -7.6990    -7.9090    -1.2350 C.3   1 <1>  -0.0590 
 23 C       -5.8050    -7.4870     3.3270 C.ar  1 <1>  -0.1500 
 24 C       -8.0790    -8.3230     1.9260 C.ar  1 <1>  -0.1500 
 25 C       -6.8920    -7.9970     3.9990 C.ar  1 <1>  -0.1500 
 26 C       -8.0290    -8.4150     3.2980 C.ar  1 <1>  -0.1500 
 27 H       -0.1200    -0.3650     3.2600 H     1 <1>   0.0800 
 28 H       -1.7390     0.0900     3.7060 H     1 <1>   0.0800 
 29 H        0.1120     1.7340     1.9460 H     1 <1>   0.0800 
 30 H       -0.2720     2.0750     3.6170 H     1 <1>   0.0800 
 31 H       -1.5150     2.1900     2.3930 H     1 <1>   0.0800 
 32 H       -3.3100    -1.9180    -3.3950 H     1 <1>   0.1500 
 33 H       -2.9400    -5.1660    -2.5350 H     1 <1>   0.0800 
 34 H       -4.2230    -4.2610    -3.3180 H     1 <1>   0.0800 
 35 H       -4.3910    -4.8200    -0.5080 H     1 <1>   0.4500 
 36 H       -3.7030    -6.9510    -1.4150 H     1 <1>   0.0800 
 37 H       -5.1960    -6.9590    -2.3380 H     1 <1>   0.0800 
 38 H       -6.5460    -4.8090    -2.5260 H     1 <1>   0.0800 
 39 H       -6.1060    -3.4750    -1.4760 H     1 <1>   0.0800 
 40 H       -6.7590    -4.9460    -0.7940 H     1 <1>   0.0800 
 41 H       -3.9970    -6.6090     1.3170 H     1 <1>   0.2700 
 42 H       -7.3100    -7.6660    -2.2060 H     1 <1>   0.0800 
 43 H       -8.6150    -7.3660    -1.0800 H     1 <1>   0.0800 
 44 H       -7.9200    -8.9620    -1.2090 H     1 <1>   0.0800 
 45 H       -4.9290    -7.1670     3.8620 H     1 <1>   0.1500 
 46 H       -8.9470    -8.6430     1.3810 H     1 <1>   0.1500 
 47 H       -6.8780    -8.0820     5.0710 H     1 <1>   0.1500 
 48 H       -8.8650    -8.8120     3.8460 H     1 <1>   0.1500 
@<TRIPOS>BOND
  1   1   2  1   
  2   1   3  1   
  3   2   4  2   
  4   2   5  1   
  5   3   6  2   
  6   3   7  1   
  7   4   8  1   
  8   5   6  1   
  9   5   9  am  
 10   7  10  1   
 11   7  27  1   
 12   7  28  1   
 13   8  11  2   
 14   8  12  1   
 15   9  11  1   
 16   9  13  2   
 17  10  29  1   
 18  10  30  1   
 19  10  31  1   
 20  11  32  1   
 21  12  14  1   
 22  12  33  1   
 23  12  34  1   
 24  14  15  1   
 25  14  16  1   
 26  14  35  1   
 27  15  17  1   
 28  15  36  1   
 29  15  37  1   
 30  16  38  1   
 31  16  39  1   
 32  16  40  1   
 33  17  18  1   
 34  17  19  2   
 35  18  20  1   
 36  18  41  1   
 37  19  21  1   
 38  19  22  1   
 39  20  21  ar  
 40  20  23  ar  
 41  21  24  ar  
 42  22  42  1   
 43  22  43  1   
 44  22  44  1   
 45  23  25  ar  
 46  23  45  1   
 47  24  26  ar  
 48  24  46  1   
 49  25  26  ar  
 50  25  47  1   
 51  26  48  1   
@<TRIPOS>SUBSTRUCTURE
  1 ****   4 GROUP 4 **** **** 0

# MOE 2024.06 (io_trps.svl 2023.06)
