@<TRIPOS>MOLECULE
NONAME
48 50 1 0 0 
SMALL
USER_CHARGES


@<TRIPOS>ATOM
  1 O        2.2870    -0.5730     2.4340 O.2   1 <1>  -0.5700 
  2 C        2.2400    -0.9110     1.2640 C.2   1 <1>   0.5440 
  3 N        2.6300     0.0110     0.3030 N.am  1 <1>  -0.6600 
  4 C        1.8460    -2.2650     0.9400 C.ar  1 <1>   0.0860 
  5 C        2.9480     1.4110     0.7230 C.3   1 <1>   0.1400 
  6 C        2.9960    -0.4190    -1.0820 C.3   1 <1>   0.1400 
  7 C        0.7560    -2.5580     0.1090 C.ar  1 <1>   0.0830 
  8 C        2.5730    -3.3320     1.4680 C.ar  1 <1>  -0.1500 
  9 C        4.4680     1.6990     0.8270 C.3   1 <1>   0.4230 
 10 C        4.4160    -0.0100    -1.5310 C.3   1 <1>  -0.0800 
 11 O        0.0450    -1.5160    -0.3920 O.3   1 <1>  -0.3630 
 12 C        0.4280    -3.8790    -0.1860 C.ar  1 <1>  -0.1500 
 13 C        2.2460    -4.6400     1.1760 C.ar  1 <1>  -0.1500 
 14 N        5.0680     2.1920    -0.4680 N.4   1 <1>  -0.9590 
 15 C        5.3150     0.5280     1.3980 C.3   1 <1>   0.1200 
 16 C        5.5750    -0.6470    -0.7310 C.3   1 <1>   0.1200 
 17 C        4.5430     1.5060    -1.6850 C.3   1 <1>   0.3430 
 18 C       -1.2470    -1.6770    -0.9360 C.3   1 <1>   0.0400 
 19 C        1.1740    -4.9240     0.3460 C.ar  1 <1>   0.0830 
 20 C        4.9340     3.6750    -0.6030 C.3   1 <1>   0.2630 
 21 O        5.3400    -0.6580     0.6420 O.3   1 <1>  -0.5600 
 22 O        0.9230    -6.2310     0.1050 O.3   1 <1>  -0.3630 
 23 C       -0.1570    -6.6510    -0.6990 C.3   1 <1>   0.0400 
 24 H        2.4760     2.1020     0.0490 H     1 <1>   0.0800 
 25 H        2.5140     1.6000     1.6890 H     1 <1>   0.0800 
 26 H        2.9290    -1.4900    -1.1620 H     1 <1>   0.0800 
 27 H        2.2670    -0.0120    -1.7620 H     1 <1>   0.0800 
 28 H        3.4060    -3.1190     2.1160 H     1 <1>   0.1500 
 29 H        4.5640     2.4990     1.5410 H     1 <1>   0.0800 
 30 H        4.5110    -0.3950    -2.5300 H     1 <1>   0.0800 
 31 H       -0.3990    -4.0950    -0.8290 H     1 <1>   0.1500 
 32 H        2.8170    -5.4520     1.5890 H     1 <1>   0.1500 
 33 H        6.0690     1.9600    -0.4050 H     1 <1>   0.4500 
 34 H        4.9180     0.2590     2.3620 H     1 <1>   0.0800 
 35 H        6.3320     0.8440     1.5450 H     1 <1>   0.0800 
 36 H        6.5180    -0.1660    -0.9210 H     1 <1>   0.0800 
 37 H        5.6690    -1.6800    -1.0210 H     1 <1>   0.0800 
 38 H        3.5740     1.9060    -1.9400 H     1 <1>   0.0800 
 39 H        5.2050     1.7130    -2.5100 H     1 <1>   0.0800 
 40 H       -1.6560    -0.7000    -1.1200 H     1 <1>   0.0800 
 41 H       -1.8620    -2.2000    -0.2250 H     1 <1>   0.0800 
 42 H       -1.1760    -2.2220    -1.8600 H     1 <1>   0.0800 
 43 H        3.8950     3.9550    -0.6620 H     1 <1>   0.0800 
 44 H        5.4340     4.0170    -1.4950 H     1 <1>   0.0800 
 45 H        5.3760     4.1710     0.2460 H     1 <1>   0.0800 
 46 H       -0.1540    -7.7250    -0.7260 H     1 <1>   0.0800 
 47 H       -0.0260    -6.2600    -1.6920 H     1 <1>   0.0800 
 48 H       -1.0740    -6.2990    -0.2610 H     1 <1>   0.0800 
@<TRIPOS>BOND
  1   1   2  2   
  2   2   3  am  
  3   2   4  1   
  4   3   5  1   
  5   3   6  1   
  6   4   7  ar  
  7   4   8  ar  
  8   5   9  1   
  9   5  24  1   
 10   5  25  1   
 11   6  10  1   
 12   6  26  1   
 13   6  27  1   
 14   7  11  1   
 15   7  12  ar  
 16   8  13  ar  
 17   8  28  1   
 18   9  14  1   
 19   9  15  1   
 20   9  29  1   
 21  10  16  1   
 22  10  17  1   
 23  10  30  1   
 24  11  18  1   
 25  12  19  ar  
 26  12  31  1   
 27  13  19  ar  
 28  13  32  1   
 29  14  17  1   
 30  14  20  1   
 31  14  33  1   
 32  15  21  1   
 33  15  34  1   
 34  15  35  1   
 35  16  21  1   
 36  16  36  1   
 37  16  37  1   
 38  17  38  1   
 39  17  39  1   
 40  18  40  1   
 41  18  41  1   
 42  18  42  1   
 43  19  22  1   
 44  20  43  1   
 45  20  44  1   
 46  20  45  1   
 47  22  23  1   
 48  23  46  1   
 49  23  47  1   
 50  23  48  1   
@<TRIPOS>SUBSTRUCTURE
  1 ****   2 GROUP 4 **** **** 0

# MOE 2024.06 (io_trps.svl 2023.06)
