@<TRIPOS>MOLECULE
NONAME
48 51 1 0 0 
SMALL
USER_CHARGES


@<TRIPOS>ATOM
  1 O       -1.2560     0.9810    -1.7810 O.2   1 <1>  -0.5700 
  2 C       -1.3730     1.7980    -0.9080 C.2   1 <1>   0.4230 
  3 C       -2.5930     2.4760    -0.5650 C.ar  1 <1>   0.0860 
  4 C       -0.1410     2.1650    -0.1170 C.3   1 <1>  -0.0990 
  5 C       -2.5430     3.5930     0.2770 C.ar  1 <1>   0.0820 
  6 C       -3.8400     2.0640    -1.0330 C.ar  1 <1>  -0.1500 
  7 C       -0.1380     3.6760     0.1280 C.3   1 <1>   0.2800 
  8 O       -1.3610     4.0760     0.7290 O.3   1 <1>  -0.3630 
  9 C       -3.7030     4.2470     0.6590 C.ar  1 <1>  -0.1500 
 10 C       -4.9960     2.7230    -0.6600 C.ar  1 <1>  -0.1500 
 11 C        0.9860     4.1740     1.0370 C.3   1 <1>   0.3430 
 12 C        0.0640     4.5310    -1.1250 C.3   1 <1>  -0.1600 
 13 C       -4.9290     3.8140     0.1920 C.ar  1 <1>  -0.1500 
 14 N        1.0160     5.6490     0.8030 N.4   1 <1>  -0.9590 
 15 C        0.6340     5.8600    -0.6300 C.3   1 <1>   0.3430 
 16 C        2.2730     6.3310     1.2280 C.3   1 <1>   0.4860 
 17 C        2.1490     7.8050     0.9300 C.ar  1 <1>  -0.1430 
 18 C        1.3590     8.6340     1.6950 C.ar  1 <1>   0.1600 
 19 C        2.8080     8.3800    -0.1330 C.ar  1 <1>   0.1600 
 20 N        1.2030     9.9010     1.4120 N.ar  1 <1>  -0.6200 
 21 N        2.6680     9.6430    -0.4360 N.ar  1 <1>  -0.6200 
 22 C        1.8610    10.3460     0.3520 C.ar  1 <1>   0.7200 
 23 N        1.6660    11.6510     0.0760 N.pl3 1 <1>  -0.8690 
 24 C        2.5510    12.4600    -0.7770 C.3   1 <1>   0.2090 
 25 C        1.9810    13.8700    -0.8580 C.3   1 <1>  -0.2400 
 26 H        0.7370     1.8650    -0.6610 H     1 <1>   0.0800 
 27 H       -0.1550     1.6320     0.8160 H     1 <1>   0.0800 
 28 H       -3.8970     1.2130    -1.6930 H     1 <1>   0.1500 
 29 H       -3.6490     5.0960     1.3180 H     1 <1>   0.1500 
 30 H       -5.9510     2.3880    -1.0290 H     1 <1>   0.1500 
 31 H        1.9170     3.7300     0.7260 H     1 <1>   0.0800 
 32 H        0.7920     3.9270     2.0680 H     1 <1>   0.0800 
 33 H       -0.8440     4.6720    -1.6860 H     1 <1>   0.0800 
 34 H        0.7870     4.0720    -1.7760 H     1 <1>   0.0800 
 35 H       -5.8330     4.3210     0.4850 H     1 <1>   0.1500 
 36 H        0.2340     6.0400     1.3500 H     1 <1>   0.4500 
 37 H       -0.1070     6.6410    -0.7040 H     1 <1>   0.0800 
 38 H        1.4900     6.1360    -1.2260 H     1 <1>   0.0800 
 39 H        3.1160     5.9210     0.6940 H     1 <1>   0.0800 
 40 H        2.4360     6.1870     2.2840 H     1 <1>   0.0800 
 41 H        0.8320     8.2600     2.5570 H     1 <1>   0.1500 
 42 H        3.4620     7.7980    -0.7610 H     1 <1>   0.1500 
 43 H        1.1750    12.1500     0.8160 H     1 <1>   0.4000 
 44 H        2.6010    12.0220    -1.7610 H     1 <1>   0.0800 
 45 H        3.5420    12.4790    -0.3550 H     1 <1>   0.0800 
 46 H        0.9910    13.8440    -1.2770 H     1 <1>   0.0800 
 47 H        2.6040    14.4740    -1.4920 H     1 <1>   0.0800 
 48 H        1.9500    14.3180     0.1180 H     1 <1>   0.0800 
@<TRIPOS>BOND
  1   1   2  2   
  2   2   3  1   
  3   2   4  1   
  4   3   5  ar  
  5   3   6  ar  
  6   4   7  1   
  7   4  26  1   
  8   4  27  1   
  9   5   8  1   
 10   5   9  ar  
 11   6  10  ar  
 12   6  28  1   
 13   7   8  1   
 14   7  11  1   
 15   7  12  1   
 16   9  13  ar  
 17   9  29  1   
 18  10  13  ar  
 19  10  30  1   
 20  11  14  1   
 21  11  31  1   
 22  11  32  1   
 23  12  15  1   
 24  12  33  1   
 25  12  34  1   
 26  13  35  1   
 27  14  15  1   
 28  14  16  1   
 29  14  36  1   
 30  15  37  1   
 31  15  38  1   
 32  16  17  1   
 33  16  39  1   
 34  16  40  1   
 35  17  18  ar  
 36  17  19  ar  
 37  18  20  ar  
 38  18  41  1   
 39  19  21  ar  
 40  19  42  1   
 41  20  22  ar  
 42  21  22  ar  
 43  22  23  1   
 44  23  24  1   
 45  23  43  1   
 46  24  25  1   
 47  24  44  1   
 48  24  45  1   
 49  25  46  1   
 50  25  47  1   
 51  25  48  1   
@<TRIPOS>SUBSTRUCTURE
  1 ****  15 GROUP 4 **** **** 0

# MOE 2024.06 (io_trps.svl 2023.06)
