@<TRIPOS>MOLECULE
NONAME
43 46 1 0 0 
SMALL
USER_CHARGES


@<TRIPOS>ATOM
  1 N        0.6870     0.5340     1.2570 N.ar  1 <1>  -0.6200 
  2 C       -0.2380     1.4250     1.5980 C.ar  1 <1>   0.4760 
  3 C        1.2780     0.7910     0.1130 C.ar  1 <1>   0.1660 
  4 N       -0.6040     2.5130     0.9360 N.ar  1 <1>  -0.6200 
  5 C       -0.9580     1.1770     2.9020 C.3   1 <1>  -0.0960 
  6 C        0.9900     1.8770    -0.6550 C.ar  1 <1>  -0.1430 
  7 C        2.3610    -0.0630    -0.5000 C.3   1 <1>   0.1430 
  8 C        0.0200     2.7360    -0.2030 C.ar  1 <1>   0.1600 
  9 C        1.8370     1.9180    -1.9020 C.3   1 <1>  -0.0160 
 10 C        3.4040    -0.3760     0.5850 C.3   1 <1>   0.3430 
 11 C        1.7610    -1.3710    -1.0590 C.3   1 <1>  -0.1600 
 12 C        2.9180     0.8550    -1.6220 C.3   1 <1>  -0.1600 
 13 N        4.4420    -1.3360     0.0890 N.4   1 <1>  -0.9590 
 14 C        2.8500    -2.3760    -1.4780 C.3   1 <1>  -0.1600 
 15 C        3.8690    -2.6300    -0.3630 C.3   1 <1>   0.3430 
 16 C        5.5610    -1.4690     1.0580 C.3   1 <1>   0.5240 
 17 C        6.4920    -0.2800     0.8300 C.2   1 <1>   0.1080 
 18 N        6.5030     0.4010    -0.2830 N.2   1 <1>  -0.7070 
 19 C        7.4110     0.2080     1.7520 C.2   1 <1>  -0.1500 
 20 N        7.4520     1.3470    -0.0950 N.pl3 1 <1>   0.3000 
 21 C        8.0060     1.2460     1.1290 C.2   1 <1>  -0.3020 
 22 H       -0.8740     0.1450     3.1880 H     1 <1>   0.0800 
 23 H       -1.9980     1.4230     2.7940 H     1 <1>   0.0800 
 24 H       -0.5290     1.7940     3.6680 H     1 <1>   0.0800 
 25 H       -0.2490     3.6110    -0.7700 H     1 <1>   0.1500 
 26 H        2.2680     2.8920    -2.0610 H     1 <1>   0.0800 
 27 H        1.2390     1.6410    -2.7540 H     1 <1>   0.0800 
 28 H        2.8950    -0.7970     1.4370 H     1 <1>   0.0800 
 29 H        3.8700     0.5450     0.8970 H     1 <1>   0.0800 
 30 H        1.1160    -1.1530    -1.8950 H     1 <1>   0.0800 
 31 H        1.1480    -1.8230    -0.2970 H     1 <1>   0.0800 
 32 H        3.1730     0.3190    -2.5190 H     1 <1>   0.0800 
 33 H        3.8000     1.3630    -1.2700 H     1 <1>   0.0800 
 34 H        4.9140    -0.8590    -0.7020 H     1 <1>   0.4500 
 35 H        3.3660    -2.0260    -2.3550 H     1 <1>   0.0800 
 36 H        2.3830    -3.3100    -1.7410 H     1 <1>   0.0800 
 37 H        3.3790    -3.1200     0.4640 H     1 <1>   0.0800 
 38 H        4.6500    -3.2760    -0.7300 H     1 <1>   0.0800 
 39 H        6.1120    -2.3750     0.8680 H     1 <1>   0.0800 
 40 H        5.1960    -1.4800     2.0710 H     1 <1>   0.0800 
 41 H        7.6040    -0.1670     2.7440 H     1 <1>   0.1500 
 42 H        7.7020     2.0420    -0.8130 H     1 <1>   0.2700 
 43 H        8.7810     1.9060     1.4800 H     1 <1>   0.1500 
@<TRIPOS>BOND
  1   1   2  ar  
  2   1   3  ar  
  3   2   4  ar  
  4   2   5  1   
  5   3   6  ar  
  6   3   7  1   
  7   4   8  ar  
  8   5  22  1   
  9   5  23  1   
 10   5  24  1   
 11   6   8  ar  
 12   6   9  1   
 13   7  10  1   
 14   7  11  1   
 15   7  12  1   
 16   8  25  1   
 17   9  12  1   
 18   9  26  1   
 19   9  27  1   
 20  10  13  1   
 21  10  28  1   
 22  10  29  1   
 23  11  14  1   
 24  11  30  1   
 25  11  31  1   
 26  12  32  1   
 27  12  33  1   
 28  13  15  1   
 29  13  16  1   
 30  13  34  1   
 31  14  15  1   
 32  14  35  1   
 33  14  36  1   
 34  15  37  1   
 35  15  38  1   
 36  16  17  1   
 37  16  39  1   
 38  16  40  1   
 39  17  18  2   
 40  17  19  1   
 41  18  20  1   
 42  19  21  2   
 43  19  41  1   
 44  20  21  1   
 45  20  42  1   
 46  21  43  1   
@<TRIPOS>SUBSTRUCTURE
  1 ****  10 GROUP 4 **** **** 0

# MOE 2024.06 (io_trps.svl 2023.06)
