@<TRIPOS>MOLECULE
NONAME
52 54 1 0 0 
SMALL
USER_CHARGES


@<TRIPOS>ATOM
  1 S        0.9030     0.1860    -0.4880 S.o2  1 <1>   1.3330 
  2 O        1.4860     0.1290    -1.8100 O.2   1 <1>  -0.6500 
  3 O        1.7600     0.1580     0.6750 O.2   1 <1>  -0.6500 
  4 N       -0.2120    -1.0850    -0.3430 N.am  1 <1>  -0.8490 
  5 C       -0.1350     1.6430    -0.4200 C.3   1 <1>  -0.0550 
  6 C       -0.6040    -1.3600     1.0430 C.3   1 <1>   0.1160 
  7 C        0.2680    -2.3160    -0.9780 C.3   1 <1>   0.1160 
  8 C        0.6430     2.9540    -0.6510 C.3   1 <1>  -0.0800 
  9 C       -0.2420     4.1990    -0.7520 C.3   1 <1>   0.2000 
 10 C        1.6550     3.2930     0.4530 C.3   1 <1>   0.1400 
 11 O       -1.1840     4.1690     0.2660 O.3   1 <1>  -0.6800 
 12 C        0.7210     5.3480    -0.4680 C.3   1 <1>   0.1400 
 13 N        1.6820     4.7780     0.5100 N.am  1 <1>  -0.6600 
 14 C        2.6590     5.4810     1.1740 C.2   1 <1>   0.5440 
 15 O        3.5010     4.8640     1.7950 O.2   1 <1>  -0.5700 
 16 C        2.7070     6.9290     1.1320 C.ar  1 <1>   0.0860 
 17 C        3.7970     7.5880     0.5700 C.ar  1 <1>  -0.1500 
 18 C        1.6730     7.7080     1.6490 C.ar  1 <1>  -0.1500 
 19 C        3.8680     8.9740     0.4900 C.ar  1 <1>   0.0000 
 20 C        1.7200     9.0880     1.5840 C.ar  1 <1>  -0.1500 
 21 C        5.0090     9.6260    -0.1110 C.ar  1 <1>   0.0000 
 22 C        2.8080     9.7130     1.0050 C.ar  1 <1>  -0.1500 
 23 C        5.3880     9.3410    -1.4210 C.ar  1 <1>  -0.1500 
 24 C        5.7600    10.5570     0.6040 C.ar  1 <1>  -0.1500 
 25 C        6.4780     9.9650    -2.0000 C.ar  1 <1>  -0.1500 
 26 C        6.8520    11.1870     0.0330 C.ar  1 <1>  -0.1500 
 27 C        7.2080    10.8870    -1.2720 C.ar  1 <1>   0.0820 
 28 O        8.2620    11.4850    -1.8410 O.3   1 <1>  -0.5330 
 29 H       -0.8910     1.5590    -1.1760 H     1 <1>   0.0800 
 30 H       -0.6310     1.6810     0.5300 H     1 <1>   0.0800 
 31 H       -1.3720    -2.1140     1.0680 H     1 <1>   0.0800 
 32 H       -0.9900    -0.4680     1.5050 H     1 <1>   0.0800 
 33 H        0.2440    -1.7050     1.6140 H     1 <1>   0.0800 
 34 H       -0.4680    -3.0960    -0.8840 H     1 <1>   0.0800 
 35 H        1.1890    -2.6380    -0.5210 H     1 <1>   0.0800 
 36 H        0.4430    -2.1450    -2.0270 H     1 <1>   0.0800 
 37 H        1.1900     2.8670    -1.5740 H     1 <1>   0.0800 
 38 H       -0.7530     4.2920    -1.6950 H     1 <1>   0.0800 
 39 H        2.6340     2.9010     0.2290 H     1 <1>   0.0800 
 40 H        1.3360     2.9130     1.4090 H     1 <1>   0.0800 
 41 H       -0.7170     4.2630     1.1210 H     1 <1>   0.4000 
 42 H        0.2040     6.2100    -0.0820 H     1 <1>   0.0800 
 43 H        1.2520     5.6160    -1.3650 H     1 <1>   0.0800 
 44 H        4.6130     6.9980     0.1910 H     1 <1>   0.1500 
 45 H        0.8300     7.2210     2.1070 H     1 <1>   0.1500 
 46 H        0.9120     9.6760     1.9840 H     1 <1>   0.1500 
 47 H        2.8410    10.7880     0.9490 H     1 <1>   0.1500 
 48 H        4.8210     8.6270    -1.9910 H     1 <1>   0.1500 
 49 H        5.4850    10.7840     1.6190 H     1 <1>   0.1500 
 50 H        6.7680     9.7430    -3.0110 H     1 <1>   0.1500 
 51 H        7.4170    11.9010     0.6030 H     1 <1>   0.1500 
 52 H        8.7120    12.1170    -1.2530 H     1 <1>   0.4500 
@<TRIPOS>BOND
  1   1   2  2   
  2   1   3  2   
  3   1   4  am  
  4   1   5  1   
  5   4   6  1   
  6   4   7  1   
  7   5   8  1   
  8   5  29  1   
  9   5  30  1   
 10   6  31  1   
 11   6  32  1   
 12   6  33  1   
 13   7  34  1   
 14   7  35  1   
 15   7  36  1   
 16   8   9  1   
 17   8  10  1   
 18   8  37  1   
 19   9  11  1   
 20   9  12  1   
 21   9  38  1   
 22  10  13  1   
 23  10  39  1   
 24  10  40  1   
 25  11  41  1   
 26  12  13  1   
 27  12  42  1   
 28  12  43  1   
 29  13  14  am  
 30  14  15  2   
 31  14  16  1   
 32  16  17  ar  
 33  16  18  ar  
 34  17  19  ar  
 35  17  44  1   
 36  18  20  ar  
 37  18  45  1   
 38  19  21  1   
 39  19  22  ar  
 40  20  22  ar  
 41  20  46  1   
 42  21  23  ar  
 43  21  24  ar  
 44  22  47  1   
 45  23  25  ar  
 46  23  48  1   
 47  24  26  ar  
 48  24  49  1   
 49  25  27  ar  
 50  25  50  1   
 51  26  27  ar  
 52  26  51  1   
 53  27  28  1   
 54  28  52  1   
@<TRIPOS>SUBSTRUCTURE
  1 ****  14 GROUP 4 **** **** 0

# MOE 2024.06 (io_trps.svl 2023.06)
