@<TRIPOS>MOLECULE
NONAME
43 45 1 0 0 
SMALL
USER_CHARGES


@<TRIPOS>ATOM
  1 O       -0.7500     0.2260     0.7890 O.2   1 <1>  -0.5700 
  2 C       -1.6060     0.9840     0.3760 C.2   1 <1>   0.5440 
  3 N       -2.7630     0.4610    -0.1700 N.am  1 <1>  -0.6600 
  4 C       -1.3880     2.4000     0.4890 C.ar  1 <1>   0.0860 
  5 C       -4.0320     1.2510    -0.2330 C.3   1 <1>   0.2200 
  6 C       -2.8250    -0.9970    -0.5000 C.3   1 <1>   0.0600 
  7 C       -1.0330     2.9950     1.6840 C.ar  1 <1>   0.1600 
  8 C       -1.5270     3.2660    -0.5800 C.ar  1 <1>   0.1600 
  9 C       -5.2190     0.5990     0.4730 C.3   1 <1>  -0.1600 
 10 C       -4.5260     1.4870    -1.6570 C.3   1 <1>  -0.1600 
 11 N       -0.8820     4.2910     1.8250 N.ar  1 <1>  -0.6200 
 12 N       -1.3890     4.5640    -0.4780 N.ar  1 <1>  -0.6200 
 13 C       -6.4430     1.3090    -0.1210 C.3   1 <1>  -0.0800 
 14 C       -6.0030     1.8640    -1.4890 C.3   1 <1>  -0.0800 
 15 C       -1.0740     5.0170     0.7330 C.ar  1 <1>   0.7200 
 16 C       -6.9090     2.5160     0.7060 C.3   1 <1>  -0.1600 
 17 C       -6.2420     3.3810    -1.4390 C.3   1 <1>  -0.1600 
 18 N       -0.9280     6.3450     0.9110 N.pl3 1 <1>  -0.8690 
 19 C       -7.2590     3.5750    -0.3260 C.3   1 <1>   0.2000 
 20 C       -0.9910     7.4140    -0.1170 C.3   1 <1>   0.1290 
 21 O       -7.1340     4.8330     0.2190 O.3   1 <1>  -0.6800 
 22 H       -3.8900     2.2130     0.2290 H     1 <1>   0.0800 
 23 H       -3.5010    -1.1790    -1.3150 H     1 <1>   0.0800 
 24 H       -3.1520    -1.5490     0.3640 H     1 <1>   0.0800 
 25 H       -1.8500    -1.3540    -0.7840 H     1 <1>   0.0800 
 26 H       -0.8780     2.3680     2.5470 H     1 <1>   0.1500 
 27 H       -1.7650     2.8590    -1.5470 H     1 <1>   0.1500 
 28 H       -5.2870    -0.4440     0.2230 H     1 <1>   0.0800 
 29 H       -5.1570     0.7050     1.5410 H     1 <1>   0.0800 
 30 H       -3.9660     2.2540    -2.1600 H     1 <1>   0.0800 
 31 H       -4.4660     0.5790    -2.2280 H     1 <1>   0.0800 
 32 H       -7.2610     0.6190    -0.2450 H     1 <1>   0.0800 
 33 H       -6.5990     1.4290    -2.2750 H     1 <1>   0.0800 
 34 H       -6.1090     2.8710     1.3330 H     1 <1>   0.0800 
 35 H       -7.7610     2.2700     1.3150 H     1 <1>   0.0800 
 36 H       -6.6170     3.7500    -2.3770 H     1 <1>   0.0800 
 37 H       -5.3300     3.8950    -1.1900 H     1 <1>   0.0800 
 38 H       -0.6400     6.6090     1.8530 H     1 <1>   0.4000 
 39 H       -8.2650     3.4460    -0.6900 H     1 <1>   0.0800 
 40 H       -1.3240     7.0190    -1.0620 H     1 <1>   0.0800 
 41 H       -0.0150     7.8470    -0.2480 H     1 <1>   0.0800 
 42 H       -1.6790     8.1780     0.1980 H     1 <1>   0.0800 
 43 H       -6.2200     4.9740     0.5280 H     1 <1>   0.4000 
@<TRIPOS>BOND
  1   1   2  2   
  2   2   3  am  
  3   2   4  1   
  4   3   5  1   
  5   3   6  1   
  6   4   7  ar  
  7   4   8  ar  
  8   5   9  1   
  9   5  10  1   
 10   5  22  1   
 11   6  23  1   
 12   6  24  1   
 13   6  25  1   
 14   7  11  ar  
 15   7  26  1   
 16   8  12  ar  
 17   8  27  1   
 18   9  13  1   
 19   9  28  1   
 20   9  29  1   
 21  10  14  1   
 22  10  30  1   
 23  10  31  1   
 24  11  15  ar  
 25  12  15  ar  
 26  13  14  1   
 27  13  16  1   
 28  13  32  1   
 29  14  17  1   
 30  14  33  1   
 31  15  18  1   
 32  16  19  1   
 33  16  34  1   
 34  16  35  1   
 35  17  19  1   
 36  17  36  1   
 37  17  37  1   
 38  18  20  1   
 39  18  38  1   
 40  19  21  1   
 41  19  39  1   
 42  20  40  1   
 43  20  41  1   
 44  20  42  1   
 45  21  43  1   
@<TRIPOS>SUBSTRUCTURE
  1 ****   5 GROUP 4 **** **** 0

# MOE 2024.06 (io_trps.svl 2023.06)
