@<TRIPOS>MOLECULE
NONAME
50 53 1 0 0 
SMALL
USER_CHARGES


@<TRIPOS>ATOM
  1 O       -0.7310     0.5840    -1.6490 O.2   1 <1>  -0.5700 
  2 C       -1.6890     1.1250    -1.1300 C.2   1 <1>   0.5440 
  3 N       -2.9400     0.5620    -1.2810 N.am  1 <1>  -0.6600 
  4 C       -1.4820     2.3330    -0.3620 C.ar  1 <1>   0.0860 
  5 C       -3.2080    -0.4900    -2.3010 C.3   1 <1>   0.1400 
  6 C       -4.0730     0.7840    -0.3400 C.3   1 <1>   0.1400 
  7 C       -2.2640     3.4640    -0.5840 C.ar  1 <1>   0.1600 
  8 C       -0.5020     2.4240     0.6160 C.ar  1 <1>  -0.1500 
  9 C       -3.5200    -1.8120    -1.5980 C.3   1 <1>  -0.1600 
 10 C       -4.3870    -0.5270     0.3840 C.3   1 <1>  -0.1600 
 11 N       -2.1760     4.6090     0.0730 N.ar  1 <1>  -0.6200 
 12 C       -0.3800     3.6070     1.3140 C.ar  1 <1>  -0.1430 
 13 C       -4.6800    -1.6720    -0.6020 C.3   1 <1>   0.4240 
 14 C       -1.2360     4.6540     1.0040 C.ar  1 <1>   0.1600 
 15 C        0.6790     3.7570     2.3930 C.3   1 <1>  -0.0970 
 16 O       -5.7950    -1.3030    -1.3790 O.3   1 <1>  -0.5600 
 17 C       -4.9150    -3.0050     0.1440 C.ar  1 <1>  -0.1430 
 18 C       -7.0610    -1.5390    -0.8440 C.3   1 <1>   0.1200 
 19 C       -6.1430    -3.6560     0.0850 C.ar  1 <1>  -0.1430 
 20 C       -3.8970    -3.5790     0.8980 C.ar  1 <1>  -0.1500 
 21 C       -7.2710    -3.0440    -0.7220 C.3   1 <1>  -0.0170 
 22 C       -6.3440    -4.8520     0.7550 C.ar  1 <1>  -0.1500 
 23 C       -4.0960    -4.7710     1.5690 C.ar  1 <1>  -0.1500 
 24 C       -5.3170    -5.4180     1.5040 C.ar  1 <1>   0.0820 
 25 O       -5.4300    -6.5830     2.1890 O.3   1 <1>  -0.3620 
 26 C       -6.6250    -7.3320     2.1700 C.3   1 <1>   0.0400 
 27 H       -2.3590    -0.6160    -2.9520 H     1 <1>   0.0800 
 28 H       -4.0460    -0.1890    -2.9060 H     1 <1>   0.0800 
 29 H       -4.9350     1.1140    -0.8960 H     1 <1>   0.0800 
 30 H       -3.8320     1.5370     0.3890 H     1 <1>   0.0800 
 31 H       -3.0100     3.4080    -1.3580 H     1 <1>   0.1500 
 32 H        0.1410     1.5820     0.8080 H     1 <1>   0.1500 
 33 H       -2.6290    -2.1360    -1.0940 H     1 <1>   0.0800 
 34 H       -3.7690    -2.5630    -2.3260 H     1 <1>   0.0800 
 35 H       -5.2170    -0.3920     1.0500 H     1 <1>   0.0800 
 36 H       -3.5380    -0.7860     0.9890 H     1 <1>   0.0800 
 37 H       -1.1420     5.5800     1.5470 H     1 <1>   0.1500 
 38 H        0.8570     2.8130     2.8780 H     1 <1>   0.0800 
 39 H        0.3650     4.4670     3.1370 H     1 <1>   0.0800 
 40 H        1.6000     4.0980     1.9540 H     1 <1>   0.0800 
 41 H       -7.7860    -1.1100    -1.5130 H     1 <1>   0.0800 
 42 H       -7.1370    -1.0570     0.1150 H     1 <1>   0.0800 
 43 H       -2.9350    -3.1030     0.9710 H     1 <1>   0.1500 
 44 H       -7.2940    -3.4840    -1.7030 H     1 <1>   0.0800 
 45 H       -8.2160    -3.2310    -0.2440 H     1 <1>   0.0800 
 46 H       -7.3000    -5.3320     0.6860 H     1 <1>   0.1500 
 47 H       -3.3040    -5.2090     2.1490 H     1 <1>   0.1500 
 48 H       -6.4770    -8.2110     2.7700 H     1 <1>   0.0800 
 49 H       -6.8430    -7.6140     1.1550 H     1 <1>   0.0800 
 50 H       -7.4170    -6.7350     2.5840 H     1 <1>   0.0800 
@<TRIPOS>BOND
  1   1   2  2   
  2   2   3  am  
  3   2   4  1   
  4   3   5  1   
  5   3   6  1   
  6   4   7  ar  
  7   4   8  ar  
  8   5   9  1   
  9   5  27  1   
 10   5  28  1   
 11   6  10  1   
 12   6  29  1   
 13   6  30  1   
 14   7  11  ar  
 15   7  31  1   
 16   8  12  ar  
 17   8  32  1   
 18   9  13  1   
 19   9  33  1   
 20   9  34  1   
 21  10  13  1   
 22  10  35  1   
 23  10  36  1   
 24  11  14  ar  
 25  12  14  ar  
 26  12  15  1   
 27  13  16  1   
 28  13  17  1   
 29  14  37  1   
 30  15  38  1   
 31  15  39  1   
 32  15  40  1   
 33  16  18  1   
 34  17  19  ar  
 35  17  20  ar  
 36  18  21  1   
 37  18  41  1   
 38  18  42  1   
 39  19  21  1   
 40  19  22  ar  
 41  20  23  ar  
 42  20  43  1   
 43  21  44  1   
 44  21  45  1   
 45  22  24  ar  
 46  22  46  1   
 47  23  24  ar  
 48  23  47  1   
 49  24  25  1   
 50  25  26  1   
 51  26  48  1   
 52  26  49  1   
 53  26  50  1   
@<TRIPOS>SUBSTRUCTURE
  1 ****  10 GROUP 4 **** **** 0

# MOE 2024.06 (io_trps.svl 2023.06)
