@<TRIPOS>MOLECULE
NONAME
45 48 1 0 0 
SMALL
USER_CHARGES


@<TRIPOS>ATOM
  1 O       -2.4680    -0.1900    -1.5860 O.2   1 <1>  -0.5700 
  2 C       -2.6350     0.6060    -0.6760 C.2   1 <1>   0.7670 
  3 N       -2.5370     1.9380    -0.9970 N.2   1 <1>  -0.6610 
  4 C       -2.9230     0.1880     0.6590 C.2   1 <1>   0.0290 
  5 C       -2.6590     2.8030    -0.0630 C.2   1 <1>   0.5000 
  6 C       -3.0660    -1.2020     0.9690 C.2   1 <1>   0.6160 
  7 C       -3.0270     1.1580     1.6120 C.2   1 <1>  -0.0500 
  8 N       -2.8930     2.4600     1.2370 N.pl3 1 <1>  -0.5500 
  9 C       -2.5430     4.2880    -0.3880 C.3   1 <1>  -0.1000 
 10 O       -2.4080    -1.6680     1.8810 O.2   1 <1>  -0.5700 
 11 N       -3.9740    -2.0310     0.3480 N.am  1 <1>  -0.6600 
 12 C       -1.8960     5.2650     0.5520 C.3   1 <1>  -0.2000 
 13 C       -3.3740     5.3280     0.3070 C.3   1 <1>  -0.2000 
 14 C       -5.0010    -1.6410    -0.6550 C.3   1 <1>   0.1400 
 15 C       -4.0460    -3.4900     0.6130 C.3   1 <1>   0.1400 
 16 C       -6.0020    -2.7930    -0.6290 C.3   1 <1>   0.2000 
 17 C       -5.1290    -4.0180    -0.3380 C.3   1 <1>  -0.0800 
 18 O       -6.8750    -2.5830     0.4280 O.3   1 <1>  -0.6800 
 19 C       -5.8900    -5.2450     0.2000 C.3   1 <1>   0.0200 
 20 C       -5.0130    -6.4800     0.3310 C.2   1 <1>  -0.0400 
 21 O       -5.5150    -7.5480     0.8930 O.3   1 <1>  -0.0190 
 22 C       -3.7490    -6.7630    -0.0220 C.2   1 <1>  -0.1500 
 23 N       -4.6570    -8.5250     0.9380 N.2   1 <1>  -0.4100 
 24 C       -3.5830    -8.0800     0.3940 C.2   1 <1>   0.1080 
 25 C       -2.3130    -8.8870     0.2330 C.3   1 <1>  -0.0590 
 26 H       -3.2090     0.9240     2.6500 H     1 <1>   0.1500 
 27 H       -2.9560     3.2270     1.9120 H     1 <1>   0.4000 
 28 H       -2.3610     4.4390    -1.4380 H     1 <1>   0.1000 
 29 H       -1.5340     4.9240     1.5060 H     1 <1>   0.1000 
 30 H       -1.2680     6.0320     0.1320 H     1 <1>   0.1000 
 31 H       -3.7670     6.1400    -0.2810 H     1 <1>   0.1000 
 32 H       -4.0500     5.0330     1.0910 H     1 <1>   0.1000 
 33 H       -5.4650    -0.6990    -0.4210 H     1 <1>   0.0800 
 34 H       -4.5430    -1.5900    -1.6280 H     1 <1>   0.0800 
 35 H       -3.0910    -3.9510     0.4280 H     1 <1>   0.0800 
 36 H       -4.3210    -3.6470     1.6420 H     1 <1>   0.0800 
 37 H       -6.5750    -2.8770    -1.5370 H     1 <1>   0.0800 
 38 H       -4.6470    -4.2940    -1.2600 H     1 <1>   0.0800 
 39 H       -6.3530    -2.3760     1.2300 H     1 <1>   0.4000 
 40 H       -6.7050    -5.4760    -0.4620 H     1 <1>   0.0800 
 41 H       -6.3100    -5.0230     1.1660 H     1 <1>   0.0800 
 42 H       -3.0070    -6.1580    -0.5090 H     1 <1>   0.1500 
 43 H       -2.0470    -8.9430    -0.8060 H     1 <1>   0.0800 
 44 H       -2.4610    -9.8830     0.6090 H     1 <1>   0.0800 
 45 H       -1.5150    -8.4220     0.7810 H     1 <1>   0.0800 
@<TRIPOS>BOND
  1   1   2  2   
  2   2   3  1   
  3   2   4  1   
  4   3   5  2   
  5   4   6  1   
  6   4   7  2   
  7   5   8  1   
  8   5   9  1   
  9   6  10  2   
 10   6  11  am  
 11   7   8  1   
 12   7  26  1   
 13   8  27  1   
 14   9  12  1   
 15   9  13  1   
 16   9  28  1   
 17  11  14  1   
 18  11  15  1   
 19  12  13  1   
 20  12  29  1   
 21  12  30  1   
 22  13  31  1   
 23  13  32  1   
 24  14  16  1   
 25  14  33  1   
 26  14  34  1   
 27  15  17  1   
 28  15  35  1   
 29  15  36  1   
 30  16  17  1   
 31  16  18  1   
 32  16  37  1   
 33  17  19  1   
 34  17  38  1   
 35  18  39  1   
 36  19  20  1   
 37  19  40  1   
 38  19  41  1   
 39  20  21  1   
 40  20  22  2   
 41  21  23  1   
 42  22  24  1   
 43  22  42  1   
 44  23  24  2   
 45  24  25  1   
 46  25  43  1   
 47  25  44  1   
 48  25  45  1   
@<TRIPOS>SUBSTRUCTURE
  1 ****  11 GROUP 4 **** **** 0

# MOE 2024.06 (io_trps.svl 2023.06)
