@<TRIPOS>MOLECULE
NONAME
45 46 1 0 0 
SMALL
USER_CHARGES


@<TRIPOS>ATOM
  1 O        0.4050    -1.0640     0.1650 O.3   1 <1>  -0.3630 
  2 C        0.0520    -2.3580    -0.0210 C.ar  1 <1>   0.0830 
  3 C        0.8270    -0.5880     1.4240 C.3   1 <1>   0.0400 
  4 C       -0.0410    -3.2950     1.0030 C.ar  1 <1>  -0.1500 
  5 C       -0.2240    -2.7450    -1.3200 C.ar  1 <1>  -0.1500 
  6 C       -0.4170    -4.6030     0.7370 C.ar  1 <1>  -0.1430 
  7 C       -0.6010    -4.0440    -1.5960 C.ar  1 <1>  -0.1500 
  8 C       -0.7130    -4.9760    -0.5730 C.ar  1 <1>  -0.1440 
  9 C       -0.4880    -5.5830     1.9040 C.3   1 <1>  -0.0970 
 10 C       -1.1740    -6.3800    -0.9170 C.3   1 <1>   0.4860 
 11 N       -2.6160    -6.5230    -0.5760 N.4   1 <1>  -0.9590 
 12 C       -3.1210    -7.9040    -0.6590 C.3   1 <1>   0.5230 
 13 C       -3.5240    -5.5160    -1.2000 C.3   1 <1>   0.3430 
 14 C       -2.3480    -8.7000     0.3600 C.2   1 <1>  -0.3320 
 15 C       -3.9100    -4.4600    -0.1450 C.3   1 <1>   0.1200 
 16 N       -1.4810    -9.7020     0.0930 N.pl3 1 <1>   0.0480 
 17 C       -2.3740    -8.5590     1.7040 C.2   1 <1>   0.0770 
 18 O       -4.0630    -5.0780     1.1010 O.3   1 <1>  -0.6800 
 19 C       -1.0220   -10.0810     1.3070 C.2   1 <1>   0.0360 
 20 C       -1.1180   -10.3110    -1.2020 C.3   1 <1>   0.0160 
 21 N       -1.5260    -9.4140     2.2920 N.2   1 <1>  -0.5650 
 22 H        1.0970     0.4470     1.3160 H     1 <1>   0.0800 
 23 H        1.6820    -1.1570     1.7440 H     1 <1>   0.0800 
 24 H        0.0160    -0.6820     2.1240 H     1 <1>   0.0800 
 25 H        0.1790    -3.0110     2.0150 H     1 <1>   0.1500 
 26 H       -0.1360    -2.0170    -2.1070 H     1 <1>   0.1500 
 27 H       -0.8020    -4.3140    -2.6190 H     1 <1>   0.1500 
 28 H        0.0700    -5.2120     2.7450 H     1 <1>   0.0800 
 29 H       -0.0680    -6.5380     1.6410 H     1 <1>   0.0800 
 30 H       -1.5060    -5.7190     2.2180 H     1 <1>   0.0800 
 31 H       -0.5880    -7.0900    -0.3570 H     1 <1>   0.0800 
 32 H       -1.0200    -6.5660    -1.9660 H     1 <1>   0.0800 
 33 H       -2.6900    -6.2780     0.4280 H     1 <1>   0.4500 
 34 H       -2.9870    -8.3040    -1.6500 H     1 <1>   0.0800 
 35 H       -4.1700    -7.9280    -0.4070 H     1 <1>   0.0800 
 36 H       -4.4260    -5.9950    -1.5440 H     1 <1>   0.0800 
 37 H       -3.0550    -5.0390    -2.0450 H     1 <1>   0.0800 
 38 H       -4.8350    -3.9770    -0.4120 H     1 <1>   0.0800 
 39 H       -3.1390    -3.7130    -0.0580 H     1 <1>   0.0800 
 40 H       -2.9610    -7.8760     2.2990 H     1 <1>   0.1500 
 41 H       -4.3540    -4.4240     1.7760 H     1 <1>   0.4000 
 42 H       -0.3020   -10.8730     1.4270 H     1 <1>   0.1500 
 43 H       -0.6780    -9.5700    -1.8430 H     1 <1>   0.0800 
 44 H       -1.9970   -10.7210    -1.6650 H     1 <1>   0.0800 
 45 H       -0.4080   -11.1030    -1.0400 H     1 <1>   0.0800 
@<TRIPOS>BOND
  1   1   2  1   
  2   1   3  1   
  3   2   4  ar  
  4   2   5  ar  
  5   3  22  1   
  6   3  23  1   
  7   3  24  1   
  8   4   6  ar  
  9   4  25  1   
 10   5   7  ar  
 11   5  26  1   
 12   6   8  ar  
 13   6   9  1   
 14   7   8  ar  
 15   7  27  1   
 16   8  10  1   
 17   9  28  1   
 18   9  29  1   
 19   9  30  1   
 20  10  11  1   
 21  10  31  1   
 22  10  32  1   
 23  11  12  1   
 24  11  13  1   
 25  11  33  1   
 26  12  14  1   
 27  12  34  1   
 28  12  35  1   
 29  13  15  1   
 30  13  36  1   
 31  13  37  1   
 32  14  16  1   
 33  14  17  2   
 34  15  18  1   
 35  15  38  1   
 36  15  39  1   
 37  16  19  1   
 38  16  20  1   
 39  17  21  1   
 40  17  40  1   
 41  18  41  1   
 42  19  21  2   
 43  19  42  1   
 44  20  43  1   
 45  20  44  1   
 46  20  45  1   
@<TRIPOS>SUBSTRUCTURE
  1 ****  10 GROUP 4 **** **** 0

# MOE 2024.06 (io_trps.svl 2023.06)
