@<TRIPOS>MOLECULE
NONAME
61 64 1 0 0 
SMALL
USER_CHARGES


@<TRIPOS>ATOM
  1 O        0.3060     0.9510    -1.8200 O.2   1 <1>  -0.5700 
  2 C        0.2200     1.9710    -1.1620 C.2   1 <1>   0.5440 
  3 N       -1.0290     2.4400    -0.8150 N.am  1 <1>  -0.6600 
  4 C        1.4230     2.6690    -0.7490 C.ar  1 <1>   0.0860 
  5 C       -2.2590     1.8320    -1.4010 C.3   1 <1>   0.1400 
  6 C       -1.2180     3.5660     0.1460 C.3   1 <1>   0.1400 
  7 C        2.3080     2.1720     0.2180 C.ar  1 <1>  -0.1440 
  8 C        1.7120     3.9050    -1.3280 C.ar  1 <1>  -0.1500 
  9 C       -3.3770     2.8740    -1.5020 C.3   1 <1>  -0.1600 
 10 C       -2.5650     3.4180     0.8510 C.3   1 <1>  -0.1600 
 11 C        3.4290     2.9060     0.5740 C.ar  1 <1>  -0.1500 
 12 C        2.0810     0.8280     0.9110 C.3   1 <1>   0.1270 
 13 C        2.8290     4.6330    -0.9670 C.ar  1 <1>  -0.1500 
 14 C       -3.7350     3.5310    -0.1470 C.3   1 <1>   0.2800 
 15 C        3.6920     4.1320    -0.0110 C.ar  1 <1>  -0.1500 
 16 C        3.1950    -0.1550     0.5790 C.ar  1 <1>  -0.1440 
 17 O       -3.9010     4.8910    -0.4420 O.3   1 <1>  -0.5600 
 18 C       -5.0260     2.9190     0.4580 C.3   1 <1>  -0.1600 
 19 C        3.2970    -0.6700    -0.7040 C.ar  1 <1>  -0.1500 
 20 C        4.1140    -0.5480     1.5400 C.ar  1 <1>  -0.1500 
 21 C       -4.7070     5.6830     0.3850 C.3   1 <1>   0.1200 
 22 C       -6.3100     3.6720     0.0820 C.3   1 <1>   0.2800 
 23 C        4.3030    -1.5650    -1.0220 C.ar  1 <1>  -0.1500 
 24 C        5.1200    -1.4430     1.2210 C.ar  1 <1>  -0.1500 
 25 C       -6.1620     5.1750     0.4600 C.3   1 <1>   0.2000 
 26 O       -6.4930     3.5770    -1.2840 O.3   1 <1>  -0.6800 
 27 C       -7.5480     2.9950     0.6870 C.3   1 <1>  -0.2400 
 28 C        5.2200    -1.9580    -0.0610 C.ar  1 <1>  -0.1430 
 29 O       -6.6100     5.4200     1.7630 O.3   1 <1>  -0.6800 
 30 C        6.3240    -2.9380    -0.4120 C.3   1 <1>  -0.0970 
 31 H       -2.0410     1.4470    -2.3830 H     1 <1>   0.0800 
 32 H       -2.5720     1.0100    -0.7810 H     1 <1>   0.0800 
 33 H       -0.4280     3.5640     0.8770 H     1 <1>   0.0800 
 34 H       -1.1880     4.5010    -0.3900 H     1 <1>   0.0800 
 35 H        1.0440     4.2930    -2.0770 H     1 <1>   0.1500 
 36 H       -4.2390     2.4090    -1.9390 H     1 <1>   0.0800 
 37 H       -3.0470     3.6280    -2.1950 H     1 <1>   0.0800 
 38 H       -2.6530     4.1600     1.6220 H     1 <1>   0.0800 
 39 H       -2.5790     2.4560     1.3320 H     1 <1>   0.0800 
 40 H        4.1140     2.5190     1.3090 H     1 <1>   0.1500 
 41 H        2.0450     0.9890     1.9730 H     1 <1>   0.0800 
 42 H        1.1430     0.3850     0.6340 H     1 <1>   0.0800 
 43 H        3.0300     5.5840    -1.4300 H     1 <1>   0.1500 
 44 H        4.5670     4.6890     0.2730 H     1 <1>   0.1500 
 45 H       -5.1050     1.8800     0.1940 H     1 <1>   0.0800 
 46 H       -4.9450     2.9420     1.5290 H     1 <1>   0.0800 
 47 H        2.5900    -0.3710    -1.4600 H     1 <1>   0.1500 
 48 H        4.0540    -0.1600     2.5410 H     1 <1>   0.1500 
 49 H       -4.2560     5.7070     1.3600 H     1 <1>   0.0800 
 50 H       -4.6980     6.6780    -0.0220 H     1 <1>   0.0800 
 51 H        4.3660    -1.9510    -2.0240 H     1 <1>   0.1500 
 52 H        5.8270    -1.7380     1.9760 H     1 <1>   0.1500 
 53 H       -6.7840     5.7650    -0.1910 H     1 <1>   0.0800 
 54 H       -6.6960     2.6570    -1.5280 H     1 <1>   0.4000 
 55 H       -7.4760     2.9600     1.7580 H     1 <1>   0.0800 
 56 H       -7.6490     1.9860     0.3300 H     1 <1>   0.0800 
 57 H       -8.4320     3.5530     0.4320 H     1 <1>   0.0800 
 58 H       -6.1300     4.8590     2.4000 H     1 <1>   0.4000 
 59 H        6.0010    -3.6040    -1.1920 H     1 <1>   0.0800 
 60 H        6.5920    -3.5260     0.4470 H     1 <1>   0.0800 
 61 H        7.1920    -2.4010    -0.7510 H     1 <1>   0.0800 
@<TRIPOS>BOND
  1   1   2  2   
  2   2   3  am  
  3   2   4  1   
  4   3   5  1   
  5   3   6  1   
  6   4   7  ar  
  7   4   8  ar  
  8   5   9  1   
  9   5  31  1   
 10   5  32  1   
 11   6  10  1   
 12   6  33  1   
 13   6  34  1   
 14   7  11  ar  
 15   7  12  1   
 16   8  13  ar  
 17   8  35  1   
 18   9  14  1   
 19   9  36  1   
 20   9  37  1   
 21  10  14  1   
 22  10  38  1   
 23  10  39  1   
 24  11  15  ar  
 25  11  40  1   
 26  12  16  1   
 27  12  41  1   
 28  12  42  1   
 29  13  15  ar  
 30  13  43  1   
 31  14  17  1   
 32  14  18  1   
 33  15  44  1   
 34  16  19  ar  
 35  16  20  ar  
 36  17  21  1   
 37  18  22  1   
 38  18  45  1   
 39  18  46  1   
 40  19  23  ar  
 41  19  47  1   
 42  20  24  ar  
 43  20  48  1   
 44  21  25  1   
 45  21  49  1   
 46  21  50  1   
 47  22  25  1   
 48  22  26  1   
 49  22  27  1   
 50  23  28  ar  
 51  23  51  1   
 52  24  28  ar  
 53  24  52  1   
 54  25  29  1   
 55  25  53  1   
 56  26  54  1   
 57  27  55  1   
 58  27  56  1   
 59  27  57  1   
 60  28  30  1   
 61  29  58  1   
 62  30  59  1   
 63  30  60  1   
 64  30  61  1   
@<TRIPOS>SUBSTRUCTURE
  1 ****   3 GROUP 4 **** **** 0

# MOE 2024.06 (io_trps.svl 2023.06)
