@<TRIPOS>MOLECULE
NONAME
43 44 1 0 0 
SMALL
USER_CHARGES


@<TRIPOS>ATOM
  1 O       -0.5270     0.4690     0.4670 O.2   1 <1>  -0.5700 
  2 C       -0.1880     1.6300     0.3480 C.2   1 <1>   0.5690 
  3 N       -1.1470     2.6250     0.4390 N.am  1 <1>  -0.6600 
  4 C        1.3300     1.9040     0.0340 C.3   1 <1>   0.3410 
  5 C       -2.5800     2.2920     0.7010 C.3   1 <1>   0.1400 
  6 C       -0.8760     4.0850     0.2620 C.3   1 <1>   0.1400 
  7 O        1.7530     3.1180     0.6360 O.3   1 <1>  -0.5600 
  8 C        1.5120     1.9940    -1.4920 C.3   1 <1>  -0.2400 
  9 C        2.2220     0.7720     0.5910 C.3   1 <1>  -0.2400 
 10 C       -3.4680     2.7370    -0.4930 C.3   1 <1>   0.0000 
 11 C       -2.1580     4.8940     0.0070 C.3   1 <1>  -0.1600 
 12 C        3.0510     3.6050     0.4480 C.3   1 <1>   0.0400 
 13 C       -4.9710     2.5990    -0.1710 C.3   1 <1>   0.2000 
 14 C       -3.0960     4.1700    -0.9710 C.3   1 <1>  -0.1600 
 15 C       -3.3280     1.7190    -1.6390 C.3   1 <1>  -0.1600 
 16 O       -5.3050     3.0310     1.1010 O.3   1 <1>  -0.6800 
 17 C       -5.3160     1.1190    -0.3360 C.3   1 <1>  -0.1600 
 18 C       -4.2460     0.5470    -1.2760 C.3   1 <1>  -0.1600 
 19 H       -2.7050     1.2400     0.8890 H     1 <1>   0.0800 
 20 H       -2.8730     2.8080     1.5970 H     1 <1>   0.0800 
 21 H       -0.3810     4.4620     1.1410 H     1 <1>   0.0800 
 22 H       -0.2170     4.2180    -0.5760 H     1 <1>   0.0800 
 23 H        1.0810     1.1220    -1.9500 H     1 <1>   0.0800 
 24 H        2.5500     2.0250    -1.7680 H     1 <1>   0.0800 
 25 H        1.0070     2.8570    -1.8820 H     1 <1>   0.0800 
 26 H        1.8920    -0.1770     0.2080 H     1 <1>   0.0800 
 27 H        2.1440     0.7440     1.6630 H     1 <1>   0.0800 
 28 H        3.2490     0.8890     0.3030 H     1 <1>   0.0800 
 29 H       -2.6680     5.0600     0.9410 H     1 <1>   0.0800 
 30 H       -1.8930     5.8600    -0.3860 H     1 <1>   0.0800 
 31 H        3.1280     4.5410     0.9720 H     1 <1>   0.0800 
 32 H        3.2360     3.7730    -0.5970 H     1 <1>   0.0800 
 33 H        3.7670     2.9170     0.8610 H     1 <1>   0.0800 
 34 H       -5.5490     3.1740    -0.8750 H     1 <1>   0.0800 
 35 H       -2.5930     4.1150    -1.9210 H     1 <1>   0.0800 
 36 H       -3.9820     4.7640    -1.1140 H     1 <1>   0.0800 
 37 H       -3.6810     2.1550    -2.5580 H     1 <1>   0.0800 
 38 H       -2.3100     1.3990    -1.7820 H     1 <1>   0.0800 
 39 H       -4.9300     2.4260     1.7670 H     1 <1>   0.4000 
 40 H       -5.2780     0.6010     0.6070 H     1 <1>   0.0800 
 41 H       -6.2970     1.0130    -0.7640 H     1 <1>   0.0800 
 42 H       -3.6780    -0.2120    -0.7620 H     1 <1>   0.0800 
 43 H       -4.6830     0.1120    -2.1580 H     1 <1>   0.0800 
@<TRIPOS>BOND
  1   1   2  2   
  2   2   3  am  
  3   2   4  1   
  4   3   5  1   
  5   3   6  1   
  6   4   7  1   
  7   4   8  1   
  8   4   9  1   
  9   5  10  1   
 10   5  19  1   
 11   5  20  1   
 12   6  11  1   
 13   6  21  1   
 14   6  22  1   
 15   7  12  1   
 16   8  23  1   
 17   8  24  1   
 18   8  25  1   
 19   9  26  1   
 20   9  27  1   
 21   9  28  1   
 22  10  13  1   
 23  10  14  1   
 24  10  15  1   
 25  11  14  1   
 26  11  29  1   
 27  11  30  1   
 28  12  31  1   
 29  12  32  1   
 30  12  33  1   
 31  13  16  1   
 32  13  17  1   
 33  13  34  1   
 34  14  35  1   
 35  14  36  1   
 36  15  18  1   
 37  15  37  1   
 38  15  38  1   
 39  16  39  1   
 40  17  18  1   
 41  17  40  1   
 42  17  41  1   
 43  18  42  1   
 44  18  43  1   
@<TRIPOS>SUBSTRUCTURE
  1 ****   3 GROUP 4 **** **** 0

# MOE 2024.06 (io_trps.svl 2023.06)
