@<TRIPOS>MOLECULE
NONAME
52 54 1 0 0 
SMALL
USER_CHARGES


@<TRIPOS>ATOM
  1 F       -0.1490    -0.6830     1.1680 F     1 <1>  -0.1900 
  2 C       -0.3190    -1.9750     1.2370 C.ar  1 <1>   0.1900 
  3 C        0.5880    -2.8180     0.6120 C.ar  1 <1>  -0.1440 
  4 C       -1.4080    -2.4540     1.9400 C.ar  1 <1>  -0.1500 
  5 C        0.3720    -4.1840     0.7040 C.ar  1 <1>  -0.1500 
  6 C        1.7870    -2.2650    -0.1450 C.3   1 <1>  -0.0960 
  7 C       -1.6010    -3.8210     2.0160 C.ar  1 <1>  -0.1500 
  8 C       -0.7240    -4.7120     1.3930 C.ar  1 <1>   0.0860 
  9 C       -0.9520    -6.1420     1.4650 C.2   1 <1>   0.5440 
 10 O       -1.0730    -6.6670     2.5540 O.2   1 <1>  -0.5700 
 11 N       -1.0540    -6.9080     0.3260 N.am  1 <1>  -0.6600 
 12 C       -1.1750    -8.4080     0.4070 C.3   1 <1>   0.3640 
 13 C       -1.4030    -6.2960    -0.9970 C.3   1 <1>   0.1400 
 14 C        0.0680    -9.1200    -0.1570 C.ar  1 <1>  -0.1430 
 15 C       -2.4830    -8.9070    -0.2900 C.3   1 <1>   0.2000 
 16 C       -1.9970    -7.3170    -1.9800 C.3   1 <1>   0.1200 
 17 C        0.1480   -10.4990    -0.0160 C.ar  1 <1>  -0.1500 
 18 C        1.1250    -8.4690    -0.7820 C.ar  1 <1>  -0.1500 
 19 O       -2.9630    -8.0750    -1.3250 O.3   1 <1>  -0.5600 
 20 C       -3.6250    -9.0550     0.7220 C.3   1 <1>   0.1200 
 21 C        1.2220   -11.2250    -0.5000 C.ar  1 <1>   0.0830 
 22 C        2.2050    -9.1780    -1.2800 C.ar  1 <1>  -0.1500 
 23 O       -3.4100   -10.1720     1.5260 O.3   1 <1>  -0.6800 
 24 O        1.1550   -12.5690    -0.2860 O.3   1 <1>  -0.3630 
 25 C        2.2670   -10.5630    -1.1610 C.ar  1 <1>   0.0830 
 26 C        2.3170   -13.2940     0.0510 C.3   1 <1>   0.0400 
 27 O        3.3050   -11.2810    -1.6820 O.3   1 <1>  -0.3630 
 28 C        4.3030   -10.6840    -2.4790 C.3   1 <1>   0.0400 
 29 H       -2.0840    -1.7680     2.4170 H     1 <1>   0.1500 
 30 H        1.0620    -4.8690     0.2440 H     1 <1>   0.1500 
 31 H        2.3850    -3.0570    -0.5600 H     1 <1>   0.0800 
 32 H        2.4030    -1.6860     0.5200 H     1 <1>   0.0800 
 33 H        1.4540    -1.6300    -0.9460 H     1 <1>   0.0800 
 34 H       -2.4390    -4.2180     2.5650 H     1 <1>   0.1500 
 35 H       -1.2280    -8.7090     1.4390 H     1 <1>   0.0800 
 36 H       -2.1280    -5.5140    -0.8440 H     1 <1>   0.0800 
 37 H       -0.5280    -5.8530    -1.4360 H     1 <1>   0.0800 
 38 H       -2.3100    -9.8680    -0.7390 H     1 <1>   0.0800 
 39 H       -1.2400    -7.9760    -2.3700 H     1 <1>   0.0800 
 40 H       -2.4710    -6.8110    -2.8020 H     1 <1>   0.0800 
 41 H       -0.6350   -11.0370     0.4900 H     1 <1>   0.1500 
 42 H        1.1290    -7.4010    -0.8870 H     1 <1>   0.1500 
 43 H       -4.5660    -9.1840     0.2180 H     1 <1>   0.0800 
 44 H       -3.6710    -8.1890     1.3600 H     1 <1>   0.0800 
 45 H        2.9900    -8.6250    -1.7570 H     1 <1>   0.1500 
 46 H       -3.6120   -10.9950     1.0380 H     1 <1>   0.4000 
 47 H        2.0160   -14.1900     0.5630 H     1 <1>   0.0800 
 48 H        2.9360   -12.6920     0.6920 H     1 <1>   0.0800 
 49 H        2.8390   -13.5520    -0.8520 H     1 <1>   0.0800 
 50 H        4.9660   -11.4590    -2.8200 H     1 <1>   0.0800 
 51 H        4.8490    -9.9740    -1.8830 H     1 <1>   0.0800 
 52 H        3.8380   -10.2060    -3.3230 H     1 <1>   0.0800 
@<TRIPOS>BOND
  1   1   2  1   
  2   2   3  ar  
  3   2   4  ar  
  4   3   5  ar  
  5   3   6  1   
  6   4   7  ar  
  7   4  29  1   
  8   5   8  ar  
  9   5  30  1   
 10   6  31  1   
 11   6  32  1   
 12   6  33  1   
 13   7   8  ar  
 14   7  34  1   
 15   8   9  1   
 16   9  10  2   
 17   9  11  am  
 18  11  12  1   
 19  11  13  1   
 20  12  14  1   
 21  12  15  1   
 22  12  35  1   
 23  13  16  1   
 24  13  36  1   
 25  13  37  1   
 26  14  17  ar  
 27  14  18  ar  
 28  15  19  1   
 29  15  20  1   
 30  15  38  1   
 31  16  19  1   
 32  16  39  1   
 33  16  40  1   
 34  17  21  ar  
 35  17  41  1   
 36  18  22  ar  
 37  18  42  1   
 38  20  23  1   
 39  20  43  1   
 40  20  44  1   
 41  21  24  1   
 42  21  25  ar  
 43  22  25  ar  
 44  22  45  1   
 45  23  46  1   
 46  24  26  1   
 47  25  27  1   
 48  26  47  1   
 49  26  48  1   
 50  26  49  1   
 51  27  28  1   
 52  28  50  1   
 53  28  51  1   
 54  28  52  1   
@<TRIPOS>SUBSTRUCTURE
  1 ****  11 GROUP 4 **** **** 0

# MOE 2024.06 (io_trps.svl 2023.06)
