@<TRIPOS>MOLECULE
NONAME
50 52 1 0 0 
SMALL
USER_CHARGES


@<TRIPOS>ATOM
  1 O        0.2060     0.2320    -0.2710 O.2   1 <1>  -0.5700 
  2 C        1.1420    -0.4640     0.0410 C.2   1 <1>   0.5690 
  3 N        2.2580     0.0440     0.6140 N.am  1 <1>  -0.7300 
  4 C        1.0620    -1.9510    -0.2230 C.3   1 <1>  -0.0990 
  5 C        2.4550     1.4750     0.9560 C.3   1 <1>   0.1400 
  6 C       -0.2640    -2.5450     0.2630 C.3   1 <1>   0.2000 
  7 C        3.0470     2.2260    -0.2360 C.3   1 <1>   0.0200 
  8 O       -0.1490    -3.9340     0.1440 O.3   1 <1>  -0.5600 
  9 C       -1.4930    -2.0510    -0.5460 C.3   1 <1>   0.3430 
 10 C        3.2340     3.6870     0.1180 C.2   1 <1>   0.0060 
 11 C       -1.2540    -4.6680     0.5900 C.3   1 <1>   0.1200 
 12 N       -2.7470    -2.8060    -0.1990 N.4   1 <1>  -0.9590 
 13 N        4.2590     4.1680     0.7240 N.2   1 <1>  -0.3380 
 14 N        2.3380     4.6450    -0.1510 N.pl3 1 <1>   0.0330 
 15 C       -2.5080    -4.2900    -0.2200 C.3   1 <1>   0.3430 
 16 C       -3.8830    -2.4110    -1.0730 C.3   1 <1>   0.4860 
 17 N        4.0510     5.4850     0.8730 N.2   1 <1>  -0.3380 
 18 C        2.9040     5.7460     0.3410 C.2   1 <1>   0.2700 
 19 C       -5.1410    -3.0740    -0.5490 C.ar  1 <1>  -0.1440 
 20 N        2.3480     7.0040     0.2930 N.pl3 1 <1>  -0.8840 
 21 C       -5.6790    -4.1710    -1.2070 C.ar  1 <1>  -0.1500 
 22 C       -5.7610    -2.5950     0.5980 C.ar  1 <1>  -0.1500 
 23 C       -6.8150    -4.7910    -0.7160 C.ar  1 <1>  -0.1500 
 24 C       -6.8960    -3.2160     1.0870 C.ar  1 <1>  -0.1500 
 25 C       -7.4220    -4.3150     0.4320 C.ar  1 <1>  -0.1500 
 26 H        3.0540    -0.5640     0.8240 H     1 <1>   0.3700 
 27 H        1.8710    -2.4410     0.2890 H     1 <1>   0.0800 
 28 H        1.1760    -2.1190    -1.2780 H     1 <1>   0.0800 
 29 H        3.1150     1.5580     1.8030 H     1 <1>   0.0800 
 30 H        1.5090     1.9150     1.2240 H     1 <1>   0.0800 
 31 H       -0.3910    -2.3090     1.3070 H     1 <1>   0.0800 
 32 H        2.3980     2.1370    -1.0890 H     1 <1>   0.0800 
 33 H        4.0060     1.8070    -0.4840 H     1 <1>   0.0800 
 34 H       -1.2740    -2.1710    -1.5940 H     1 <1>   0.0800 
 35 H       -1.6440    -1.0010    -0.3620 H     1 <1>   0.0800 
 36 H       -1.3970    -4.4810     1.6400 H     1 <1>   0.0800 
 37 H       -1.0300    -5.7120     0.4560 H     1 <1>   0.0800 
 38 H       -3.0210    -2.5600     0.7600 H     1 <1>   0.4500 
 39 H        1.4210     4.5780    -0.5910 H     1 <1>   0.2700 
 40 H       -3.3640    -4.8070     0.1850 H     1 <1>   0.0800 
 41 H       -2.3710    -4.6240    -1.2350 H     1 <1>   0.0800 
 42 H       -3.7000    -2.7180    -2.0890 H     1 <1>   0.0800 
 43 H       -4.0120    -1.3400    -1.0560 H     1 <1>   0.0800 
 44 H        2.8970     7.6520     0.8670 H     1 <1>   0.4000 
 45 H        2.2820     7.3890    -0.6520 H     1 <1>   0.4000 
 46 H       -5.2290    -4.5560    -2.1070 H     1 <1>   0.1500 
 47 H       -5.3770    -1.7350     1.1210 H     1 <1>   0.1500 
 48 H       -7.2330    -5.6420    -1.2270 H     1 <1>   0.1500 
 49 H       -7.3770    -2.8450     1.9760 H     1 <1>   0.1500 
 50 H       -8.3070    -4.7970     0.8130 H     1 <1>   0.1500 
@<TRIPOS>BOND
  1   1   2  2   
  2   2   3  am  
  3   2   4  1   
  4   3   5  1   
  5   3  26  1   
  6   4   6  1   
  7   4  27  1   
  8   4  28  1   
  9   5   7  1   
 10   5  29  1   
 11   5  30  1   
 12   6   8  1   
 13   6   9  1   
 14   6  31  1   
 15   7  10  1   
 16   7  32  1   
 17   7  33  1   
 18   8  11  1   
 19   9  12  1   
 20   9  34  1   
 21   9  35  1   
 22  10  13  2   
 23  10  14  1   
 24  11  15  1   
 25  11  36  1   
 26  11  37  1   
 27  12  15  1   
 28  12  16  1   
 29  12  38  1   
 30  13  17  1   
 31  14  18  1   
 32  14  39  1   
 33  15  40  1   
 34  15  41  1   
 35  16  19  1   
 36  16  42  1   
 37  16  43  1   
 38  17  18  2   
 39  18  20  1   
 40  19  21  ar  
 41  19  22  ar  
 42  20  44  1   
 43  20  45  1   
 44  21  23  ar  
 45  21  46  1   
 46  22  24  ar  
 47  22  47  1   
 48  23  25  ar  
 49  23  48  1   
 50  24  25  ar  
 51  24  49  1   
 52  25  50  1   
@<TRIPOS>SUBSTRUCTURE
  1 ****   1 GROUP 4 **** **** 0

# MOE 2024.06 (io_trps.svl 2023.06)
