@<TRIPOS>MOLECULE
NONAME
42 43 1 0 0 
SMALL
USER_CHARGES


@<TRIPOS>ATOM
  1 F        0.2370     3.1210     0.9630 F     1 <1>  -0.1900 
  2 C        1.5010     3.0490     0.6400 C.ar  1 <1>   0.1900 
  3 C        1.8560     3.1500    -0.6910 C.ar  1 <1>  -0.1500 
  4 C        2.4360     2.8740     1.6400 C.ar  1 <1>  -0.1500 
  5 C        3.1970     3.0710    -1.0270 C.ar  1 <1>  -0.1500 
  6 C        3.7740     2.7970     1.2920 C.ar  1 <1>  -0.1500 
  7 C        4.1640     2.8910    -0.0400 C.ar  1 <1>  -0.1430 
  8 C        5.6450     2.8020    -0.4020 C.3   1 <1>   0.4330 
  9 N        6.0190     4.0460    -1.0830 N.pl3 1 <1>  -0.8690 
 10 C        5.9580     1.6170    -1.3270 C.3   1 <1>  -0.1600 
 11 C        7.0510     4.8060    -0.6420 C.ar  1 <1>   0.4100 
 12 C        5.6410     0.2560    -0.6870 C.3   1 <1>  -0.2400 
 13 N        6.7310     6.0670    -0.4200 N.ar  1 <1>  -0.6200 
 14 C        8.3310     4.2950    -0.4440 C.ar  1 <1>  -0.1500 
 15 C        7.7090     6.8440     0.0170 C.ar  1 <1>   0.1600 
 16 C        9.3340     5.1170     0.0090 C.ar  1 <1>  -0.1500 
 17 C        9.0280     6.4560     0.2510 C.ar  1 <1>   0.0860 
 18 C       10.0030     7.4140     0.7180 C.2   1 <1>   0.5440 
 19 O        9.6480     8.4330     1.2790 O.2   1 <1>  -0.5700 
 20 N       11.3430     7.2090     0.5280 N.am  1 <1>  -0.7300 
 21 C       12.4140     8.1150     0.9870 C.3   1 <1>   0.1400 
 22 C       13.6120     7.2760     1.4140 C.3   1 <1>  -0.2400 
 23 H        1.0990     3.2880    -1.4420 H     1 <1>   0.1500 
 24 H        2.1200     2.8020     2.6660 H     1 <1>   0.1500 
 25 H        3.4860     3.1510    -2.0610 H     1 <1>   0.1500 
 26 H        4.5110     2.6650     2.0660 H     1 <1>   0.1500 
 27 H        6.2260     2.7050     0.5000 H     1 <1>   0.0800 
 28 H        5.1880     4.6310    -1.1990 H     1 <1>   0.4000 
 29 H        7.0020     1.6410    -1.5790 H     1 <1>   0.0800 
 30 H        5.3980     1.7160    -2.2380 H     1 <1>   0.0800 
 31 H        6.1950     0.1280     0.2270 H     1 <1>   0.0800 
 32 H        5.9080    -0.5380    -1.3620 H     1 <1>   0.0800 
 33 H        4.5900     0.1740    -0.4690 H     1 <1>   0.0800 
 34 H        8.5200     3.2610    -0.6540 H     1 <1>   0.1500 
 35 H        7.4530     7.8730     0.2070 H     1 <1>   0.1500 
 36 H       10.3240     4.7350     0.1770 H     1 <1>   0.1500 
 37 H       11.6520     6.4390    -0.0650 H     1 <1>   0.3700 
 38 H       12.0640     8.7080     1.8160 H     1 <1>   0.0800 
 39 H       12.6890     8.7790     0.1840 H     1 <1>   0.0800 
 40 H       13.3340     6.6170     2.2180 H     1 <1>   0.0800 
 41 H       14.3970     7.9230     1.7630 H     1 <1>   0.0800 
 42 H       13.9870     6.7020     0.5870 H     1 <1>   0.0800 
@<TRIPOS>BOND
  1   1   2  1   
  2   2   3  ar  
  3   2   4  ar  
  4   3   5  ar  
  5   3  23  1   
  6   4   6  ar  
  7   4  24  1   
  8   5   7  ar  
  9   5  25  1   
 10   6   7  ar  
 11   6  26  1   
 12   7   8  1   
 13   8   9  1   
 14   8  10  1   
 15   8  27  1   
 16   9  11  1   
 17   9  28  1   
 18  10  12  1   
 19  10  29  1   
 20  10  30  1   
 21  11  13  ar  
 22  11  14  ar  
 23  12  31  1   
 24  12  32  1   
 25  12  33  1   
 26  13  15  ar  
 27  14  16  ar  
 28  14  34  1   
 29  15  17  ar  
 30  15  35  1   
 31  16  17  ar  
 32  16  36  1   
 33  17  18  1   
 34  18  19  2   
 35  18  20  am  
 36  20  21  1   
 37  20  37  1   
 38  21  22  1   
 39  21  38  1   
 40  21  39  1   
 41  22  40  1   
 42  22  41  1   
 43  22  42  1   
@<TRIPOS>SUBSTRUCTURE
  1 ****  11 GROUP 4 **** **** 0

# MOE 2024.06 (io_trps.svl 2023.06)
