@<TRIPOS>MOLECULE
NONAME
40 41 1 0 0 
SMALL
USER_CHARGES


@<TRIPOS>ATOM
  1 S       -0.0240     1.1280    -1.0880 S.o2  1 <1>   1.3330 
  2 O       -0.7040     1.9800    -2.0380 O.2   1 <1>  -0.6500 
  3 O        0.2670    -0.2360    -1.4640 O.2   1 <1>  -0.6500 
  4 N        1.4640     1.8580    -0.7300 N.am  1 <1>  -0.8490 
  5 C       -0.9920     1.0830     0.4340 C.3   1 <1>  -0.0550 
  6 C        2.3410     1.0350     0.1110 C.3   1 <1>   0.1160 
  7 C        2.1810     2.2220    -1.9560 C.3   1 <1>   0.1160 
  8 C       -1.3430     2.3880     1.1940 C.3   1 <1>  -0.0800 
  9 C       -1.8140     3.5550     0.3170 C.3   1 <1>   0.2000 
 10 C       -0.1730     2.9630     1.9960 C.3   1 <1>   0.1400 
 11 O       -2.6970     4.3080     1.0750 O.3   1 <1>  -0.6800 
 12 C       -0.5650     4.4030     0.0670 C.3   1 <1>   0.1400 
 13 N        0.3430     4.1040     1.2080 N.am  1 <1>  -0.6600 
 14 C        1.6550     4.5300     1.3120 C.2   1 <1>   0.5440 
 15 O        2.3120     4.0810     2.2390 O.2   1 <1>  -0.5700 
 16 C        2.2590     5.4800     0.3790 C.ar  1 <1>   0.3960 
 17 N        1.5860     6.6060     0.0370 N.ar  1 <1>  -0.6200 
 18 C        3.5330     5.2290    -0.1560 C.ar  1 <1>   0.1900 
 19 C        2.1860     7.4420    -0.7980 C.ar  1 <1>   0.1600 
 20 F        4.1790     4.1350     0.1450 F     1 <1>  -0.1900 
 21 C        4.1630     6.0930    -1.0240 C.ar  1 <1>  -0.1500 
 22 C        3.4450     7.2210    -1.3340 C.ar  1 <1>   0.1900 
 23 F        3.9590     8.0980    -2.1500 F     1 <1>  -0.1900 
 24 H       -1.9260     0.6170     0.1840 H     1 <1>   0.0800 
 25 H       -0.5090     0.4180     1.1220 H     1 <1>   0.0800 
 26 H        3.2250     1.5910     0.3750 H     1 <1>   0.0800 
 27 H        2.6310     0.1370    -0.4090 H     1 <1>   0.0800 
 28 H        1.8390     0.7600     1.0210 H     1 <1>   0.0800 
 29 H        3.1280     2.6740    -1.7190 H     1 <1>   0.0800 
 30 H        1.6010     2.9290    -2.5260 H     1 <1>   0.0800 
 31 H        2.3510     1.3480    -2.5620 H     1 <1>   0.0800 
 32 H       -2.1240     2.1220     1.8860 H     1 <1>   0.0800 
 33 H       -2.3210     3.2570    -0.5860 H     1 <1>   0.0800 
 34 H        0.5990     2.2350     2.1720 H     1 <1>   0.0800 
 35 H       -0.5180     3.3360     2.9450 H     1 <1>   0.0800 
 36 H       -2.1960     4.7690     1.7780 H     1 <1>   0.4000 
 37 H       -0.8080     5.4510     0.0210 H     1 <1>   0.0800 
 38 H       -0.0890     4.1140    -0.8520 H     1 <1>   0.0800 
 39 H        1.6620     8.3420    -1.0720 H     1 <1>   0.1500 
 40 H        5.1400     5.9000    -1.4290 H     1 <1>   0.1500 
@<TRIPOS>BOND
  1   1   2  2   
  2   1   3  2   
  3   1   4  am  
  4   1   5  1   
  5   4   6  1   
  6   4   7  1   
  7   5   8  1   
  8   5  24  1   
  9   5  25  1   
 10   6  26  1   
 11   6  27  1   
 12   6  28  1   
 13   7  29  1   
 14   7  30  1   
 15   7  31  1   
 16   8   9  1   
 17   8  10  1   
 18   8  32  1   
 19   9  11  1   
 20   9  12  1   
 21   9  33  1   
 22  10  13  1   
 23  10  34  1   
 24  10  35  1   
 25  11  36  1   
 26  12  13  1   
 27  12  37  1   
 28  12  38  1   
 29  13  14  am  
 30  14  15  2   
 31  14  16  1   
 32  16  17  ar  
 33  16  18  ar  
 34  17  19  ar  
 35  18  20  1   
 36  18  21  ar  
 37  19  22  ar  
 38  19  39  1   
 39  21  22  ar  
 40  21  40  1   
 41  22  23  1   
@<TRIPOS>SUBSTRUCTURE
  1 ****  13 GROUP 4 **** **** 0

# MOE 2024.06 (io_trps.svl 2023.06)
