@<TRIPOS>MOLECULE
NONAME
48 50 1 0 0 
SMALL
USER_CHARGES


@<TRIPOS>ATOM
  1 O        1.6310    -1.2590     0.8970 O.co2 1 <1>  -0.9000 
  2 C        1.7370    -0.0240     0.9460 C.2   1 <1>   0.9060 
  3 O        1.5470     0.5830     2.0050 O.co2 1 <1>  -0.9000 
  4 C        2.1310     0.7320    -0.3400 C.3   1 <1>  -0.1060 
  5 C        3.3430     0.0190    -0.9950 C.3   1 <1>   0.2000 
  6 C        2.5740     2.1930    -0.0350 C.3   1 <1>  -0.1600 
  7 C        0.9370     0.7180    -1.3340 C.3   1 <1>  -0.0160 
  8 O        3.0350    -1.3050    -1.2620 O.3   1 <1>  -0.6800 
  9 C        4.5990     0.0810    -0.1130 C.3   1 <1>   0.1400 
 10 C        3.8390     2.2560     0.8330 C.3   1 <1>   0.1400 
 11 C       -0.1680     1.7320    -1.0430 C.ar  1 <1>  -0.1440 
 12 N        4.9470     1.5110     0.1640 N.am  1 <1>  -0.6600 
 13 C       -0.9830     1.5890     0.0690 C.ar  1 <1>  -0.1500 
 14 C       -0.3700     2.8100    -1.8930 C.ar  1 <1>  -0.1500 
 15 C        6.1590     2.0390    -0.1940 C.2   1 <1>   0.5690 
 16 C       -1.9840     2.5080     0.3300 C.ar  1 <1>  -0.1500 
 17 C       -1.3730     3.7300    -1.6360 C.ar  1 <1>  -0.1500 
 18 O        7.0150     1.3740    -0.7320 O.2   1 <1>  -0.5700 
 19 C        6.4660     3.4990     0.0850 C.3   1 <1>  -0.0990 
 20 C       -2.1810     3.5790    -0.5230 C.ar  1 <1>  -0.1500 
 21 C        7.8340     3.9270    -0.4610 C.3   1 <1>   0.0960 
 22 N        8.1160     5.3310    -0.1120 N.pl3 1 <1>   0.3140 
 23 N        7.3970     6.3530    -0.6130 N.2   1 <1>  -0.7070 
 24 C        9.0760     5.7750     0.7240 C.2   1 <1>  -0.3020 
 25 C        7.9190     7.4180    -0.0870 C.2   1 <1>   0.1390 
 26 C        8.9770     7.1200     0.7620 C.2   1 <1>  -0.1500 
 27 H        3.5780     0.4780    -1.9390 H     1 <1>   0.0800 
 28 H        1.7870     2.7050     0.4910 H     1 <1>   0.0800 
 29 H        2.7510     2.7260    -0.9520 H     1 <1>   0.0800 
 30 H        1.3090     0.8980    -2.3260 H     1 <1>   0.0800 
 31 H        0.5010    -0.2670    -1.3470 H     1 <1>   0.0800 
 32 H        2.4900    -1.6170    -0.4750 H     1 <1>   0.4000 
 33 H        5.4080    -0.4150    -0.6200 H     1 <1>   0.0800 
 34 H        4.4170    -0.4240     0.8200 H     1 <1>   0.0800 
 35 H        3.6490     1.8090     1.7950 H     1 <1>   0.0800 
 36 H        4.0970     3.2840     1.0040 H     1 <1>   0.0800 
 37 H       -0.8340     0.7610     0.7440 H     1 <1>   0.1500 
 38 H        0.2530     2.9370    -2.7590 H     1 <1>   0.1500 
 39 H       -2.6020     2.3830     1.2010 H     1 <1>   0.1500 
 40 H       -1.5220     4.5620    -2.3000 H     1 <1>   0.1500 
 41 H        5.7060     4.1020    -0.3780 H     1 <1>   0.0800 
 42 H        6.4430     3.6520     1.1480 H     1 <1>   0.0800 
 43 H       -2.9580     4.2930    -0.3180 H     1 <1>   0.1500 
 44 H        7.8480     3.8340    -1.5320 H     1 <1>   0.0800 
 45 H        8.6090     3.3050    -0.0520 H     1 <1>   0.0800 
 46 H        9.7620     5.1240     1.2340 H     1 <1>   0.1500 
 47 H        7.5650     8.4150    -0.2930 H     1 <1>   0.1500 
 48 H        9.5670     7.8300     1.3140 H     1 <1>   0.1500 
@<TRIPOS>BOND
  1   1   2  ar  
  2   2   3  ar  
  3   2   4  1   
  4   4   5  1   
  5   4   6  1   
  6   4   7  1   
  7   5   8  1   
  8   5   9  1   
  9   5  27  1   
 10   6  10  1   
 11   6  28  1   
 12   6  29  1   
 13   7  11  1   
 14   7  30  1   
 15   7  31  1   
 16   8  32  1   
 17   9  12  1   
 18   9  33  1   
 19   9  34  1   
 20  10  12  1   
 21  10  35  1   
 22  10  36  1   
 23  11  13  ar  
 24  11  14  ar  
 25  12  15  am  
 26  13  16  ar  
 27  13  37  1   
 28  14  17  ar  
 29  14  38  1   
 30  15  18  2   
 31  15  19  1   
 32  16  20  ar  
 33  16  39  1   
 34  17  20  ar  
 35  17  40  1   
 36  19  21  1   
 37  19  41  1   
 38  19  42  1   
 39  20  43  1   
 40  21  22  1   
 41  21  44  1   
 42  21  45  1   
 43  22  23  1   
 44  22  24  1   
 45  23  25  2   
 46  24  26  2   
 47  24  46  1   
 48  25  26  1   
 49  25  47  1   
 50  26  48  1   
@<TRIPOS>SUBSTRUCTURE
  1 ****   6 GROUP 4 **** **** 0

# MOE 2024.06 (io_trps.svl 2023.06)
