@<TRIPOS>MOLECULE
NONAME
51 53 1 0 0 
SMALL
USER_CHARGES


@<TRIPOS>ATOM
  1 O       -0.1360     2.3680     2.7000 O.2   1 <1>  -0.5700 
  2 C        0.0680     2.8730     1.6100 C.2   1 <1>   0.5440 
  3 N       -1.0140     3.1780     0.8020 N.am  1 <1>  -0.6600 
  4 C        1.4290     3.1390     1.2050 C.ar  1 <1>   0.0860 
  5 C       -2.4160     2.8350     1.1860 C.3   1 <1>   0.1400 
  6 C       -0.9180     3.9920    -0.4400 C.3   1 <1>   0.1400 
  7 C        2.0130     2.4630     0.1200 C.ar  1 <1>   0.1000 
  8 C        2.1970     4.0730     1.8990 C.ar  1 <1>  -0.1500 
  9 C       -3.0990     2.0040     0.0740 C.3   1 <1>   0.0000 
 10 C       -1.5750     3.2430    -1.6040 C.3   1 <1>  -0.1600 
 11 N        1.3040     1.4980    -0.5840 N.pl3 1 <1>  -0.8690 
 12 C        3.3180     2.7720    -0.2530 C.ar  1 <1>  -0.1500 
 13 C        3.4950     4.3600     1.5260 C.ar  1 <1>  -0.1500 
 14 C       -4.5810     1.7050     0.3830 C.3   1 <1>   0.2000 
 15 C       -3.0040     2.7780    -1.2680 C.3   1 <1>  -0.1600 
 16 C       -2.4830     0.5950    -0.0550 C.3   1 <1>  -0.1600 
 17 C        1.8120     0.1250    -0.6500 C.3   1 <1>   0.2890 
 18 C        4.0570     3.7090     0.4400 C.ar  1 <1>  -0.1500 
 19 O       -4.7460     1.3820     1.7190 O.3   1 <1>  -0.6800 
 20 C       -4.9120     0.4530    -0.4250 C.3   1 <1>  -0.1600 
 21 C       -3.6040    -0.3410    -0.5290 C.3   1 <1>  -0.1600 
 22 C        1.3500    -0.4780    -1.9690 C.3   1 <1>  -0.2400 
 23 C        1.2580    -0.6430     0.5430 C.3   1 <1>  -0.2400 
 24 H       -2.4270     2.2890     2.1130 H     1 <1>   0.0800 
 25 H       -2.9660     3.7460     1.3440 H     1 <1>   0.0800 
 26 H       -1.4260     4.9270    -0.2790 H     1 <1>   0.0800 
 27 H        0.1070     4.2110    -0.6860 H     1 <1>   0.0800 
 28 H        1.7580     4.5730     2.7450 H     1 <1>   0.1500 
 29 H       -1.6040     3.8910    -2.4610 H     1 <1>   0.0800 
 30 H       -0.9620     2.4020    -1.8710 H     1 <1>   0.0800 
 31 H        0.3010     1.4920    -0.3540 H     1 <1>   0.4000 
 32 H        3.7480     2.2700    -1.1000 H     1 <1>   0.1500 
 33 H        4.0710     5.0860     2.0740 H     1 <1>   0.1500 
 34 H       -5.2360     2.5310     0.1600 H     1 <1>   0.0800 
 35 H       -3.3740     2.1760    -2.0790 H     1 <1>   0.0800 
 36 H       -3.6300     3.6520    -1.2050 H     1 <1>   0.0800 
 37 H       -1.6440     0.5700    -0.7250 H     1 <1>   0.0800 
 38 H       -2.1410     0.2650     0.9120 H     1 <1>   0.0800 
 39 H        2.8900     0.1270    -0.6090 H     1 <1>   0.0800 
 40 H        5.0650     3.9340     0.1400 H     1 <1>   0.1500 
 41 H       -4.1830     0.6130     1.9300 H     1 <1>   0.4000 
 42 H       -5.7100    -0.1180     0.0180 H     1 <1>   0.0800 
 43 H       -5.2190     0.7510    -1.4110 H     1 <1>   0.0800 
 44 H       -3.6410    -1.2180     0.0950 H     1 <1>   0.0800 
 45 H       -3.4370    -0.6490    -1.5470 H     1 <1>   0.0800 
 46 H        0.2770    -0.4900    -2.0260 H     1 <1>   0.0800 
 47 H        1.7120    -1.4860    -2.0570 H     1 <1>   0.0800 
 48 H        1.7420     0.0980    -2.7870 H     1 <1>   0.0800 
 49 H        0.1850    -0.6750     0.5150 H     1 <1>   0.0800 
 50 H        1.5720    -0.1750     1.4590 H     1 <1>   0.0800 
 51 H        1.6310    -1.6510     0.5340 H     1 <1>   0.0800 
@<TRIPOS>BOND
  1   1   2  2   
  2   2   3  am  
  3   2   4  1   
  4   3   5  1   
  5   3   6  1   
  6   4   7  ar  
  7   4   8  ar  
  8   5   9  1   
  9   5  24  1   
 10   5  25  1   
 11   6  10  1   
 12   6  26  1   
 13   6  27  1   
 14   7  11  1   
 15   7  12  ar  
 16   8  13  ar  
 17   8  28  1   
 18   9  14  1   
 19   9  15  1   
 20   9  16  1   
 21  10  15  1   
 22  10  29  1   
 23  10  30  1   
 24  11  17  1   
 25  11  31  1   
 26  12  18  ar  
 27  12  32  1   
 28  13  18  ar  
 29  13  33  1   
 30  14  19  1   
 31  14  20  1   
 32  14  34  1   
 33  15  35  1   
 34  15  36  1   
 35  16  21  1   
 36  16  37  1   
 37  16  38  1   
 38  17  22  1   
 39  17  23  1   
 40  17  39  1   
 41  18  40  1   
 42  19  41  1   
 43  20  21  1   
 44  20  42  1   
 45  20  43  1   
 46  21  44  1   
 47  21  45  1   
 48  22  46  1   
 49  22  47  1   
 50  22  48  1   
 51  23  49  1   
 52  23  50  1   
 53  23  51  1   
@<TRIPOS>SUBSTRUCTURE
  1 ****   3 GROUP 4 **** **** 0

# MOE 2024.06 (io_trps.svl 2023.06)
