@<TRIPOS>MOLECULE
NONAME
45 47 1 0 0 
SMALL
USER_CHARGES


@<TRIPOS>ATOM
  1 O       -0.8440    -0.6490    -0.2030 O.3   1 <1>  -0.6800 
  2 C        0.2980    -1.2870    -0.6600 C.3   1 <1>   0.1200 
  3 C        1.0440    -1.9860     0.5150 C.3   1 <1>   0.0000 
  4 C        2.3740    -2.6190     0.0170 C.3   1 <1>   0.4230 
  5 C        1.3980    -0.9450     1.6130 C.3   1 <1>  -0.1600 
  6 C        0.1570    -3.0940     1.1600 C.3   1 <1>  -0.1600 
  7 N        2.1840    -3.7640    -0.9780 N.4   1 <1>  -0.9590 
  8 C        3.3960    -1.5500    -0.4360 C.3   1 <1>   0.2090 
  9 C        2.3860     0.1280     1.1460 C.3   1 <1>   0.2090 
 10 C        0.4760    -4.5170     0.6690 C.3   1 <1>  -0.1600 
 11 C        0.9070    -4.5280    -0.7940 C.3   1 <1>   0.3430 
 12 C        2.3530    -3.3960    -2.4220 C.3   1 <1>   0.2630 
 13 N        3.6160    -0.5300     0.6260 N.pl3 1 <1>  -0.8380 
 14 C        4.8050     0.1730     0.6290 C.ar  1 <1>   0.4100 
 15 N        5.4580     0.2710    -0.5130 N.ar  1 <1>  -0.6200 
 16 C        5.3020     0.7540     1.7800 C.ar  1 <1>  -0.1500 
 17 C        6.5820     0.9630    -0.4790 C.ar  1 <1>   0.4770 
 18 C        6.4800     1.4420     1.6950 C.ar  1 <1>   0.1600 
 19 N        7.1380     1.5590     0.5590 N.ar  1 <1>  -0.6200 
 20 C        7.3340     1.0900    -1.7820 C.3   1 <1>  -0.0970 
 21 H       -1.2950    -0.1500    -0.9150 H     1 <1>   0.4000 
 22 H       -0.0120    -1.9980    -1.4040 H     1 <1>   0.0800 
 23 H        0.9140    -0.5400    -1.1300 H     1 <1>   0.0800 
 24 H        2.8140    -3.0580     0.8970 H     1 <1>   0.0800 
 25 H        1.8390    -1.4390     2.4610 H     1 <1>   0.0800 
 26 H        0.5050    -0.4600     1.9670 H     1 <1>   0.0800 
 27 H        0.2660    -3.0920     2.2320 H     1 <1>   0.0800 
 28 H       -0.8830    -2.8850     0.9730 H     1 <1>   0.0800 
 29 H        2.9400    -4.4260    -0.7520 H     1 <1>   0.4500 
 30 H        3.0630    -1.0430    -1.3240 H     1 <1>   0.0800 
 31 H        4.3330    -2.0350    -0.6480 H     1 <1>   0.0800 
 32 H        2.6270     0.7750     1.9720 H     1 <1>   0.0800 
 33 H        1.9490     0.7380     0.3740 H     1 <1>   0.0800 
 34 H       -0.4000    -5.1320     0.7860 H     1 <1>   0.0800 
 35 H        1.2530    -4.9550     1.2720 H     1 <1>   0.0800 
 36 H        0.1230    -4.0810    -1.3830 H     1 <1>   0.0800 
 37 H        1.0360    -5.5450    -1.1300 H     1 <1>   0.0800 
 38 H        1.6120    -2.6700    -2.7160 H     1 <1>   0.0800 
 39 H        2.2430    -4.2690    -3.0450 H     1 <1>   0.0800 
 40 H        3.3320    -2.9800    -2.5960 H     1 <1>   0.0800 
 41 H        4.7810     0.6570     2.7100 H     1 <1>   0.1500 
 42 H        6.9020     1.9090     2.5680 H     1 <1>   0.1500 
 43 H        8.2420     0.5200    -1.7260 H     1 <1>   0.0800 
 44 H        7.5780     2.1220    -1.9560 H     1 <1>   0.0800 
 45 H        6.7400     0.7290    -2.6000 H     1 <1>   0.0800 
@<TRIPOS>BOND
  1   1   2  1   
  2   1  21  1   
  3   2   3  1   
  4   2  22  1   
  5   2  23  1   
  6   3   4  1   
  7   3   5  1   
  8   3   6  1   
  9   4   7  1   
 10   4   8  1   
 11   4  24  1   
 12   5   9  1   
 13   5  25  1   
 14   5  26  1   
 15   6  10  1   
 16   6  27  1   
 17   6  28  1   
 18   7  11  1   
 19   7  12  1   
 20   7  29  1   
 21   8  13  1   
 22   8  30  1   
 23   8  31  1   
 24   9  13  1   
 25   9  32  1   
 26   9  33  1   
 27  10  11  1   
 28  10  34  1   
 29  10  35  1   
 30  11  36  1   
 31  11  37  1   
 32  12  38  1   
 33  12  39  1   
 34  12  40  1   
 35  13  14  1   
 36  14  15  ar  
 37  14  16  ar  
 38  15  17  ar  
 39  16  18  ar  
 40  16  41  1   
 41  17  19  ar  
 42  17  20  1   
 43  18  19  ar  
 44  18  42  1   
 45  20  43  1   
 46  20  44  1   
 47  20  45  1   
@<TRIPOS>SUBSTRUCTURE
  1 ****   8 GROUP 4 **** **** 0

# MOE 2024.06 (io_trps.svl 2023.06)
