@<TRIPOS>MOLECULE
NONAME
53 56 1 0 0 
SMALL
USER_CHARGES


@<TRIPOS>ATOM
  1 O        2.1560    -0.2810     2.4360 O.2   1 <1>  -0.5700 
  2 C        2.1970    -0.0490     1.2410 C.2   1 <1>   0.5440 
  3 N        1.5370     1.0610     0.7660 N.am  1 <1>  -0.6600 
  4 C        2.9520    -0.9200     0.3780 C.ar  1 <1>   0.0860 
  5 C        0.7050     1.9290     1.6240 C.3   1 <1>   0.1400 
  6 C        1.4210     1.4430    -0.6580 C.3   1 <1>   0.1400 
  7 C        2.3380    -1.8170    -0.5210 C.ar  1 <1>   0.4100 
  8 C        4.3390    -0.8840     0.4220 C.ar  1 <1>  -0.1500 
  9 C        0.2290     3.0450     0.7010 C.3   1 <1>  -0.1600 
 10 C        0.2610     2.4310    -0.6960 C.3   1 <1>  -0.1600 
 11 N        3.0280    -2.5940    -1.3580 N.ar  1 <1>  -0.6200 
 12 N        0.9620    -1.9590    -0.6010 N.pl3 1 <1>  -0.8380 
 13 C        5.0410    -1.7020    -0.4310 C.ar  1 <1>  -0.1500 
 14 C        4.3420    -2.5240    -1.2950 C.ar  1 <1>   0.1600 
 15 C        0.1530    -2.2530     0.6350 C.3   1 <1>   0.3900 
 16 C        0.3000    -2.3110    -1.8900 C.3   1 <1>   0.1290 
 17 C       -0.6670    -3.5410     0.5280 C.2   1 <1>   0.1080 
 18 N       -1.9690    -3.5500     0.4870 N.2   1 <1>  -0.7070 
 19 C       -0.1360    -4.8310     0.4590 C.2   1 <1>  -0.1810 
 20 N       -2.2970    -4.8510     0.3910 N.pl3 1 <1>   0.3000 
 21 C       -1.2070    -5.6440     0.3700 C.2   1 <1>  -0.3320 
 22 C        1.3300    -5.2280     0.4610 C.3   1 <1>   0.0210 
 23 C       -1.2580    -7.1550     0.2520 C.3   1 <1>   0.0200 
 24 C        1.6420    -6.3030     1.5100 C.3   1 <1>  -0.1600 
 25 C       -0.4330    -7.8420     1.3480 C.3   1 <1>  -0.1600 
 26 C        1.0890    -7.6990     1.1770 C.3   1 <1>  -0.1600 
 27 H        1.2790     2.3090     2.4530 H     1 <1>   0.0800 
 28 H       -0.1290     1.3570     1.9940 H     1 <1>   0.0800 
 29 H        1.2230     0.5900    -1.2840 H     1 <1>   0.0800 
 30 H        2.3340     1.9200    -0.9700 H     1 <1>   0.0800 
 31 H        4.8400    -0.2270     1.1120 H     1 <1>   0.1500 
 32 H        0.9240     3.8640     0.7580 H     1 <1>   0.0800 
 33 H       -0.7510     3.3960     0.9740 H     1 <1>   0.0800 
 34 H       -0.6500     1.8880    -0.8770 H     1 <1>   0.0800 
 35 H        0.3890     3.1690    -1.4680 H     1 <1>   0.0800 
 36 H        6.1160    -1.7050    -0.4320 H     1 <1>   0.1500 
 37 H        4.8960    -3.1580    -1.9670 H     1 <1>   0.1500 
 38 H       -0.5160    -1.4300     0.8140 H     1 <1>   0.0800 
 39 H        0.8000    -2.3420     1.4880 H     1 <1>   0.0800 
 40 H        0.8250    -1.8540    -2.7110 H     1 <1>   0.0800 
 41 H       -0.7190    -1.9650    -1.8880 H     1 <1>   0.0800 
 42 H        0.3100    -3.3790    -2.0250 H     1 <1>   0.0800 
 43 H       -3.2720    -5.1640     0.3410 H     1 <1>   0.2700 
 44 H        1.9320    -4.3650     0.6770 H     1 <1>   0.0800 
 45 H        1.6050    -5.5700    -0.5200 H     1 <1>   0.0800 
 46 H       -0.8990    -7.4500    -0.7180 H     1 <1>   0.0800 
 47 H       -2.2790    -7.4840     0.3370 H     1 <1>   0.0800 
 48 H        1.2740    -5.9810     2.4690 H     1 <1>   0.0800 
 49 H        2.7120    -6.3800     1.5880 H     1 <1>   0.0800 
 50 H       -0.6710    -8.8910     1.3300 H     1 <1>   0.0800 
 51 H       -0.7290    -7.4610     2.3100 H     1 <1>   0.0800 
 52 H        1.5580    -8.4010     1.8460 H     1 <1>   0.0800 
 53 H        1.3750    -7.9770     0.1770 H     1 <1>   0.0800 
@<TRIPOS>BOND
  1   1   2  2   
  2   2   3  am  
  3   2   4  1   
  4   3   5  1   
  5   3   6  1   
  6   4   7  ar  
  7   4   8  ar  
  8   5   9  1   
  9   5  27  1   
 10   5  28  1   
 11   6  10  1   
 12   6  29  1   
 13   6  30  1   
 14   7  11  ar  
 15   7  12  1   
 16   8  13  ar  
 17   8  31  1   
 18   9  10  1   
 19   9  32  1   
 20   9  33  1   
 21  10  34  1   
 22  10  35  1   
 23  11  14  ar  
 24  12  15  1   
 25  12  16  1   
 26  13  14  ar  
 27  13  36  1   
 28  14  37  1   
 29  15  17  1   
 30  15  38  1   
 31  15  39  1   
 32  16  40  1   
 33  16  41  1   
 34  16  42  1   
 35  17  18  2   
 36  17  19  1   
 37  18  20  1   
 38  19  21  2   
 39  19  22  1   
 40  20  21  1   
 41  20  43  1   
 42  21  23  1   
 43  22  24  1   
 44  22  44  1   
 45  22  45  1   
 46  23  25  1   
 47  23  46  1   
 48  23  47  1   
 49  24  26  1   
 50  24  48  1   
 51  24  49  1   
 52  25  26  1   
 53  25  50  1   
 54  25  51  1   
 55  26  52  1   
 56  26  53  1   
@<TRIPOS>SUBSTRUCTURE
  1 ****  15 GROUP 4 **** **** 0

# MOE 2024.06 (io_trps.svl 2023.06)
