@<TRIPOS>MOLECULE
NONAME
43 45 1 0 0 
SMALL
USER_CHARGES


@<TRIPOS>ATOM
  1 CL      -3.0490     2.6310    -2.5120 Cl    1 <1>  -0.1770 
  2 C       -1.7810     3.1790    -1.4420 C.ar  1 <1>   0.1770 
  3 C       -1.7150     2.6790    -0.1460 C.ar  1 <1>  -0.1440 
  4 C       -0.8740     4.1120    -1.9170 C.ar  1 <1>  -0.1500 
  5 C       -0.7030     3.1310     0.6910 C.ar  1 <1>  -0.1500 
  6 C       -2.7290     1.6590     0.3360 C.3   1 <1>   0.4870 
  7 C        0.1330     4.5660    -1.0800 C.ar  1 <1>  -0.1500 
  8 C        0.1960     4.0650     0.2070 C.ar  1 <1>   0.1900 
  9 N       -4.0470     2.3190     0.5150 N.4   1 <1>  -0.9590 
 10 F        1.1390     4.4900     1.0020 F     1 <1>  -0.1900 
 11 C       -4.0370     3.4670     1.4720 C.3   1 <1>   0.3430 
 12 C       -5.1610     1.3700     0.7630 C.3   1 <1>   0.3430 
 13 C       -5.4390     4.0650     1.6420 C.3   1 <1>  -0.1600 
 14 C       -6.5100     2.0760     0.5770 C.3   1 <1>  -0.1600 
 15 C       -6.4110     3.6060     0.5500 C.3   1 <1>   0.4180 
 16 O       -5.8670     3.9360    -0.7070 O.3   1 <1>  -0.5600 
 17 C       -7.7950     4.2200     0.7240 C.2   1 <1>  -0.2880 
 18 C       -6.0850     5.2380    -1.1870 C.3   1 <1>   0.1200 
 19 C       -8.3490     5.0660    -0.1460 C.2   1 <1>  -0.2760 
 20 C       -7.5830     5.5010    -1.3820 C.3   1 <1>  -0.0220 
 21 C       -9.7440     5.6520    -0.0080 C.3   1 <1>  -0.1020 
 22 H       -0.9540     4.4770    -2.9260 H     1 <1>   0.1500 
 23 H       -0.5920     2.7780     1.7020 H     1 <1>   0.1500 
 24 H       -2.4020     1.2270     1.2680 H     1 <1>   0.0800 
 25 H       -2.8110     0.8700    -0.3950 H     1 <1>   0.0800 
 26 H        0.8560     5.2900    -1.4150 H     1 <1>   0.1500 
 27 H       -4.2930     2.7590    -0.3980 H     1 <1>   0.4500 
 28 H       -3.3800     4.2330     1.0910 H     1 <1>   0.0800 
 29 H       -3.6610     3.1520     2.4310 H     1 <1>   0.0800 
 30 H       -5.0900     0.9880     1.7690 H     1 <1>   0.0800 
 31 H       -5.1020     0.5380     0.0800 H     1 <1>   0.0800 
 32 H       -5.3810     5.1380     1.6620 H     1 <1>   0.0800 
 33 H       -5.8270     3.7640     2.5980 H     1 <1>   0.0800 
 34 H       -7.1530     1.7710     1.3820 H     1 <1>   0.0800 
 35 H       -6.9760     1.7420    -0.3330 H     1 <1>   0.0800 
 36 H       -8.2960     3.8980     1.6190 H     1 <1>   0.1500 
 37 H       -5.5660     5.3390    -2.1240 H     1 <1>   0.0800 
 38 H       -5.6720     5.9390    -0.4830 H     1 <1>   0.0800 
 39 H       -7.9420     4.9650    -2.2430 H     1 <1>   0.0800 
 40 H       -7.7260     6.5520    -1.5580 H     1 <1>   0.0800 
 41 H      -10.3460     5.3790    -0.8560 H     1 <1>   0.0800 
 42 H       -9.6940     6.7250     0.0520 H     1 <1>   0.0800 
 43 H      -10.2230     5.2840     0.8810 H     1 <1>   0.0800 
@<TRIPOS>BOND
  1   1   2  1   
  2   2   3  ar  
  3   2   4  ar  
  4   3   5  ar  
  5   3   6  1   
  6   4   7  ar  
  7   4  22  1   
  8   5   8  ar  
  9   5  23  1   
 10   6   9  1   
 11   6  24  1   
 12   6  25  1   
 13   7   8  ar  
 14   7  26  1   
 15   8  10  1   
 16   9  11  1   
 17   9  12  1   
 18   9  27  1   
 19  11  13  1   
 20  11  28  1   
 21  11  29  1   
 22  12  14  1   
 23  12  30  1   
 24  12  31  1   
 25  13  15  1   
 26  13  32  1   
 27  13  33  1   
 28  14  15  1   
 29  14  34  1   
 30  14  35  1   
 31  15  16  1   
 32  15  17  1   
 33  16  18  1   
 34  17  19  2   
 35  17  36  1   
 36  18  20  1   
 37  18  37  1   
 38  18  38  1   
 39  19  20  1   
 40  19  21  1   
 41  20  39  1   
 42  20  40  1   
 43  21  41  1   
 44  21  42  1   
 45  21  43  1   
@<TRIPOS>SUBSTRUCTURE
  1 ****   9 GROUP 4 **** **** 0

# MOE 2024.06 (io_trps.svl 2023.06)
