@<TRIPOS>MOLECULE
NONAME
52 54 1 0 0 
SMALL
USER_CHARGES


@<TRIPOS>ATOM
  1 O       -1.9940     0.7660    -2.0720 O.2   1 <1>  -0.5700 
  2 C       -2.7570     1.1440    -1.2060 C.2   1 <1>   0.5690 
  3 N       -4.0040     0.5670    -1.1230 N.am  1 <1>  -0.6600 
  4 C       -2.2370     2.2260    -0.2150 C.3   1 <1>   0.2040 
  5 C       -4.1450    -0.8680    -1.4970 C.3   1 <1>   0.3200 
  6 C       -5.2410     1.3610    -1.3720 C.3   1 <1>   0.1400 
  7 C       -1.0010     1.6030     0.4970 C.ar  1 <1>  -0.1440 
  8 C       -1.9060     3.5110    -1.0300 C.3   1 <1>  -0.1600 
  9 C       -3.2800     2.6690     0.8550 C.3   1 <1>  -0.1600 
 10 C       -3.3080    -1.7390    -0.5820 C.2   1 <1>  -0.3320 
 11 C       -6.2580     1.1730    -0.2380 C.3   1 <1>   0.1200 
 12 C       -1.1870     0.6430     1.4900 C.ar  1 <1>  -0.1500 
 13 C        0.3140     1.9310     0.1700 C.ar  1 <1>  -0.1500 
 14 C       -1.4340     4.7050    -0.1730 C.3   1 <1>  -0.1600 
 15 C       -2.7560     3.7830     1.7740 C.3   1 <1>  -0.1600 
 16 N       -1.9630    -1.7540    -0.6210 N.pl3 1 <1>   0.0330 
 17 C       -3.6660    -2.6310     0.3670 C.2   1 <1>   0.0770 
 18 O       -7.3700     1.9630    -0.4880 O.3   1 <1>  -0.6800 
 19 C       -0.1190     0.0770     2.1620 C.ar  1 <1>  -0.1500 
 20 C        1.3870     1.3640     0.8360 C.ar  1 <1>  -0.1500 
 21 C       -2.4250     5.0320     0.9500 C.3   1 <1>  -0.1600 
 22 C       -1.5890    -2.6640     0.3020 C.2   1 <1>   0.0060 
 23 N       -2.5840    -3.2100     0.9210 N.2   1 <1>  -0.5650 
 24 C        1.1730     0.4410     1.8400 C.ar  1 <1>  -0.1500 
 25 C       -0.1380    -3.0010     0.5670 C.3   1 <1>  -0.0600 
 26 H       -3.8330    -1.0060    -2.5190 H     1 <1>   0.0800 
 27 H       -5.1740    -1.1720    -1.4190 H     1 <1>   0.0800 
 28 H       -5.6860     1.0350    -2.2970 H     1 <1>   0.0800 
 29 H       -4.9920     2.4000    -1.4820 H     1 <1>   0.0800 
 30 H       -2.7940     3.8130    -1.5570 H     1 <1>   0.0800 
 31 H       -1.1720     3.2930    -1.7850 H     1 <1>   0.0800 
 32 H       -3.6060     1.8370     1.4490 H     1 <1>   0.0800 
 33 H       -4.1490     3.0650     0.3700 H     1 <1>   0.0800 
 34 H       -5.8490     1.4560     0.7150 H     1 <1>   0.0800 
 35 H       -6.5900     0.1510    -0.1940 H     1 <1>   0.0800 
 36 H       -2.1710     0.3010     1.7550 H     1 <1>   0.1500 
 37 H        0.5360     2.6300    -0.6130 H     1 <1>   0.1500 
 38 H       -1.3090     5.5700    -0.8020 H     1 <1>   0.0800 
 39 H       -0.4780     4.4910     0.2690 H     1 <1>   0.0800 
 40 H       -1.8770     3.4490     2.2990 H     1 <1>   0.0800 
 41 H       -3.5030     4.0290     2.5090 H     1 <1>   0.0800 
 42 H       -1.3670    -1.1520    -1.2060 H     1 <1>   0.2700 
 43 H       -4.6600    -2.8990     0.6850 H     1 <1>   0.1500 
 44 H       -7.1790     2.9080    -0.3250 H     1 <1>   0.4000 
 45 H       -0.3010    -0.6550     2.9300 H     1 <1>   0.1500 
 46 H        2.3910     1.6450     0.5700 H     1 <1>   0.1500 
 47 H       -3.3290     5.4300     0.5220 H     1 <1>   0.0800 
 48 H       -2.0050     5.7880     1.5920 H     1 <1>   0.0800 
 49 H        2.0060     0.0050     2.3640 H     1 <1>   0.1500 
 50 H        0.4730    -2.1210     0.4890 H     1 <1>   0.0800 
 51 H        0.1990    -3.7290    -0.1480 H     1 <1>   0.0800 
 52 H       -0.0360    -3.4120     1.5550 H     1 <1>   0.0800 
@<TRIPOS>BOND
  1   1   2  2   
  2   2   3  am  
  3   2   4  1   
  4   3   5  1   
  5   3   6  1   
  6   4   7  1   
  7   4   8  1   
  8   4   9  1   
  9   5  10  1   
 10   5  26  1   
 11   5  27  1   
 12   6  11  1   
 13   6  28  1   
 14   6  29  1   
 15   7  12  ar  
 16   7  13  ar  
 17   8  14  1   
 18   8  30  1   
 19   8  31  1   
 20   9  15  1   
 21   9  32  1   
 22   9  33  1   
 23  10  16  1   
 24  10  17  2   
 25  11  18  1   
 26  11  34  1   
 27  11  35  1   
 28  12  19  ar  
 29  12  36  1   
 30  13  20  ar  
 31  13  37  1   
 32  14  21  1   
 33  14  38  1   
 34  14  39  1   
 35  15  21  1   
 36  15  40  1   
 37  15  41  1   
 38  16  22  1   
 39  16  42  1   
 40  17  23  1   
 41  17  43  1   
 42  18  44  1   
 43  19  24  ar  
 44  19  45  1   
 45  20  24  ar  
 46  20  46  1   
 47  21  47  1   
 48  21  48  1   
 49  22  23  2   
 50  22  25  1   
 51  24  49  1   
 52  25  50  1   
 53  25  51  1   
 54  25  52  1   
@<TRIPOS>SUBSTRUCTURE
  1 ****   2 GROUP 4 **** **** 0

# MOE 2024.06 (io_trps.svl 2023.06)
