@<TRIPOS>MOLECULE
NONAME
41 43 1 0 0 
SMALL
USER_CHARGES


@<TRIPOS>ATOM
  1 O        0.2300     0.3520    -1.7280 O.2   1 <1>  -0.5700 
  2 C        1.2310     0.3140    -1.0320 C.2   1 <1>   0.5440 
  3 N        1.3530     1.2360    -0.0160 N.am  1 <1>  -0.6600 
  4 C        2.2450    -0.6860    -1.2700 C.ar  1 <1>   0.0860 
  5 C        0.3360     2.2870     0.2190 C.3   1 <1>   0.1400 
  6 C        2.2190     1.0690     1.1740 C.3   1 <1>   0.1400 
  7 C        1.9020    -2.0450    -1.4130 C.ar  1 <1>   0.4100 
  8 C        3.5890    -0.3470    -1.3580 C.ar  1 <1>  -0.1500 
  9 C        0.7370     2.9360     1.5390 C.3   1 <1>  -0.1600 
 10 C        1.5200     1.8550     2.2770 C.3   1 <1>  -0.1600 
 11 N        2.7930    -3.0240    -1.5590 N.ar  1 <1>  -0.6200 
 12 N        0.5850    -2.4400    -1.3790 N.pl3 1 <1>  -0.8690 
 13 C        4.5060    -1.3560    -1.5440 C.ar  1 <1>  -0.1500 
 14 C        4.0590    -2.6620    -1.6320 C.ar  1 <1>   0.1600 
 15 C        0.0300    -3.6500    -2.0520 C.3   1 <1>   0.2090 
 16 C       -0.7770    -4.5010    -1.0620 C.3   1 <1>   0.0200 
 17 C        0.0770    -5.1810    -0.0050 C.2   1 <1>   0.0070 
 18 N       -0.2680    -6.2170     0.6760 N.2   1 <1>  -0.3380 
 19 N        1.3000    -4.7660     0.3370 N.pl3 1 <1>   0.0330 
 20 N        0.7510    -6.5040     1.5030 N.2   1 <1>  -0.3380 
 21 C        1.6740    -5.6280     1.2800 C.2   1 <1>   0.2700 
 22 N        2.8910    -5.6120     1.9280 N.pl3 1 <1>  -0.8840 
 23 H       -0.6340     1.8260     0.3030 H     1 <1>   0.0800 
 24 H        0.3280     2.9960    -0.5910 H     1 <1>   0.0800 
 25 H        3.1860     1.4960     0.9700 H     1 <1>   0.0800 
 26 H        2.3250     0.0300     1.4400 H     1 <1>   0.0800 
 27 H        3.8970     0.6820    -1.2850 H     1 <1>   0.1500 
 28 H       -0.1210     3.2740     2.0930 H     1 <1>   0.0800 
 29 H        1.3760     3.7780     1.3330 H     1 <1>   0.0800 
 30 H        2.2200     2.2640     2.9840 H     1 <1>   0.0800 
 31 H        0.8400     1.2010     2.7950 H     1 <1>   0.0800 
 32 H       -0.0680    -1.6380    -1.4140 H     1 <1>   0.4000 
 33 H        5.5560    -1.1370    -1.6190 H     1 <1>   0.1500 
 34 H        4.7860    -3.4450    -1.7720 H     1 <1>   0.1500 
 35 H        0.8150    -4.2450    -2.4850 H     1 <1>   0.0800 
 36 H       -0.6160    -3.3290    -2.8520 H     1 <1>   0.0800 
 37 H       -1.2970    -5.2660    -1.6110 H     1 <1>   0.0800 
 38 H       -1.5160    -3.8880    -0.5810 H     1 <1>   0.0800 
 39 H        1.8120    -3.9750    -0.0700 H     1 <1>   0.2700 
 40 H        2.9620    -6.3990     2.5780 H     1 <1>   0.4000 
 41 H        3.6970    -5.5950     1.3010 H     1 <1>   0.4000 
@<TRIPOS>BOND
  1   1   2  2   
  2   2   3  am  
  3   2   4  1   
  4   3   5  1   
  5   3   6  1   
  6   4   7  ar  
  7   4   8  ar  
  8   5   9  1   
  9   5  23  1   
 10   5  24  1   
 11   6  10  1   
 12   6  25  1   
 13   6  26  1   
 14   7  11  ar  
 15   7  12  1   
 16   8  13  ar  
 17   8  27  1   
 18   9  10  1   
 19   9  28  1   
 20   9  29  1   
 21  10  30  1   
 22  10  31  1   
 23  11  14  ar  
 24  12  15  1   
 25  12  32  1   
 26  13  14  ar  
 27  13  33  1   
 28  14  34  1   
 29  15  16  1   
 30  15  35  1   
 31  15  36  1   
 32  16  17  1   
 33  16  37  1   
 34  16  38  1   
 35  17  18  2   
 36  17  19  1   
 37  18  20  1   
 38  19  21  1   
 39  19  39  1   
 40  20  21  2   
 41  21  22  1   
 42  22  40  1   
 43  22  41  1   
@<TRIPOS>SUBSTRUCTURE
  1 ****   7 GROUP 4 **** **** 0

# MOE 2024.06 (io_trps.svl 2023.06)
