@<TRIPOS>MOLECULE
NONAME
58 60 1 0 0 
SMALL
USER_CHARGES


@<TRIPOS>ATOM
  1 O        2.5180     2.4170     1.0820 O.co2 1 <1>  -0.9000 
  2 C        2.1670     1.2450     0.9300 C.2   1 <1>   0.9060 
  3 O        1.9350     0.5230     1.9050 O.co2 1 <1>  -0.9000 
  4 C        2.4050     0.5720    -0.4370 C.3   1 <1>  -0.1060 
  5 C        3.4870    -0.4900    -0.1590 C.3   1 <1>   0.4230 
  6 C        2.9850     1.5710    -1.4930 C.3   1 <1>  -0.1600 
  7 C        1.1160    -0.0630    -1.0230 C.3   1 <1>  -0.1600 
  8 N        2.9120    -1.6040     0.6830 N.4   1 <1>  -0.9590 
  9 C        4.7440     0.2120     0.4710 C.3   1 <1>   0.3430 
 10 C        4.4590     1.9810    -1.2940 C.3   1 <1>   0.3430 
 11 C        0.6410    -1.2880    -0.2270 C.3   1 <1>  -0.1600 
 12 C        1.7680    -2.2900     0.0240 C.3   1 <1>   0.3430 
 13 C        3.8770    -2.5830     1.2620 C.3   1 <1>   0.2630 
 14 N        4.8920     1.6670     0.0940 N.4   1 <1>  -0.9590 
 15 C        6.1700     2.2960     0.5180 C.3   1 <1>   0.4860 
 16 C        6.1750     3.7680     0.1500 C.ar  1 <1>  -0.1430 
 17 C        5.2010     4.6240     0.6470 C.ar  1 <1>  -0.1500 
 18 C        7.1510     4.2700    -0.6970 C.ar  1 <1>  -0.1500 
 19 C        5.2040     5.9610     0.2940 C.ar  1 <1>  -0.1500 
 20 C        7.1500     5.6090    -1.0470 C.ar  1 <1>  -0.1500 
 21 C        6.1770     6.4630    -0.5540 C.ar  1 <1>  -0.1430 
 22 C        6.1700     7.9380    -0.9390 C.3   1 <1>  -0.0170 
 23 C        6.7350     8.8420     0.1720 C.3   1 <1>  -0.0800 
 24 C        6.5850    10.3190    -0.2170 C.3   1 <1>  -0.2400 
 25 C        8.2110     8.5360     0.4660 C.3   1 <1>  -0.2400 
 26 H        3.7870    -0.9100    -1.1030 H     1 <1>   0.0800 
 27 H        2.3850     2.4670    -1.4860 H     1 <1>   0.0800 
 28 H        2.9010     1.1670    -2.4860 H     1 <1>   0.0800 
 29 H        0.3300     0.6740    -1.0420 H     1 <1>   0.0800 
 30 H        1.2880    -0.3760    -2.0380 H     1 <1>   0.0800 
 31 H        2.4600    -1.0630     1.4740 H     1 <1>   0.4500 
 32 H        5.6260    -0.3290     0.1750 H     1 <1>   0.0800 
 33 H        4.6510     0.1580     1.5440 H     1 <1>   0.0800 
 34 H        4.5520     3.0390    -1.4860 H     1 <1>   0.0800 
 35 H        5.0860     1.4570    -1.9970 H     1 <1>   0.0800 
 36 H       -0.1520    -1.7770    -0.7650 H     1 <1>   0.0800 
 37 H        0.2290    -0.9760     0.7180 H     1 <1>   0.0800 
 38 H        2.0860    -2.7240    -0.9100 H     1 <1>   0.0800 
 39 H        1.3970    -3.0790     0.6590 H     1 <1>   0.0800 
 40 H        4.3780    -3.1280     0.4790 H     1 <1>   0.0800 
 41 H        3.3520    -3.2870     1.8890 H     1 <1>   0.0800 
 42 H        4.6100    -2.0790     1.8690 H     1 <1>   0.0800 
 43 H        4.1570     2.1800     0.6560 H     1 <1>   0.4500 
 44 H        6.2860     2.2020     1.5860 H     1 <1>   0.0800 
 45 H        7.0000     1.8050     0.0380 H     1 <1>   0.0800 
 46 H        4.4260     4.2650     1.3080 H     1 <1>   0.1500 
 47 H        7.9220     3.6330    -1.0940 H     1 <1>   0.1500 
 48 H        4.4410     6.6110     0.6860 H     1 <1>   0.1500 
 49 H        7.9140     5.9890    -1.7030 H     1 <1>   0.1500 
 50 H        6.7360     8.0810    -1.8430 H     1 <1>   0.0800 
 51 H        5.1560     8.2280    -1.1510 H     1 <1>   0.0800 
 52 H        6.1680     8.6720     1.0720 H     1 <1>   0.0800 
 53 H        7.1420    10.5350    -1.1120 H     1 <1>   0.0800 
 54 H        6.9480    10.9520     0.5730 H     1 <1>   0.0800 
 55 H        5.5510    10.5580    -0.3900 H     1 <1>   0.0800 
 56 H        8.8090     8.6630    -0.4190 H     1 <1>   0.0800 
 57 H        8.3220     7.5250     0.8160 H     1 <1>   0.0800 
 58 H        8.5830     9.1940     1.2310 H     1 <1>   0.0800 
@<TRIPOS>BOND
  1   1   2  ar  
  2   2   3  ar  
  3   2   4  1   
  4   4   5  1   
  5   4   6  1   
  6   4   7  1   
  7   5   8  1   
  8   5   9  1   
  9   5  26  1   
 10   6  10  1   
 11   6  27  1   
 12   6  28  1   
 13   7  11  1   
 14   7  29  1   
 15   7  30  1   
 16   8  12  1   
 17   8  13  1   
 18   8  31  1   
 19   9  14  1   
 20   9  32  1   
 21   9  33  1   
 22  10  14  1   
 23  10  34  1   
 24  10  35  1   
 25  11  12  1   
 26  11  36  1   
 27  11  37  1   
 28  12  38  1   
 29  12  39  1   
 30  13  40  1   
 31  13  41  1   
 32  13  42  1   
 33  14  15  1   
 34  14  43  1   
 35  15  16  1   
 36  15  44  1   
 37  15  45  1   
 38  16  17  ar  
 39  16  18  ar  
 40  17  19  ar  
 41  17  46  1   
 42  18  20  ar  
 43  18  47  1   
 44  19  21  ar  
 45  19  48  1   
 46  20  21  ar  
 47  20  49  1   
 48  21  22  1   
 49  22  23  1   
 50  22  50  1   
 51  22  51  1   
 52  23  24  1   
 53  23  25  1   
 54  23  52  1   
 55  24  53  1   
 56  24  54  1   
 57  24  55  1   
 58  25  56  1   
 59  25  57  1   
 60  25  58  1   
@<TRIPOS>SUBSTRUCTURE
  1 ****  14 GROUP 4 **** **** 0

# MOE 2024.06 (io_trps.svl 2023.06)
