@<TRIPOS>MOLECULE
NONAME
47 49 1 0 0 
SMALL
USER_CHARGES


@<TRIPOS>ATOM
  1 O        0.6820     0.2030    -2.9350 O.2   1 <1>  -0.5700 
  2 C        0.5700    -0.5670    -2.0090 C.2   1 <1>   0.5690 
  3 N        1.0400    -0.3270    -0.7600 N.am  1 <1>  -0.4930 
  4 C       -0.1420    -1.9030    -2.2320 C.3   1 <1>   0.1710 
  5 C        1.6930     0.7700    -0.2150 C.2   1 <1>   0.3520 
  6 N       -0.6470    -2.5330    -0.9760 N.3   1 <1>  -0.8100 
  7 N        1.9540     0.7910     1.0530 N.2   1 <1>  -0.7070 
  8 C        2.1340     1.9170    -0.8670 C.2   1 <1>  -0.1500 
  9 C       -0.9150    -3.9720    -1.1780 C.3   1 <1>   0.1100 
 10 C       -1.8530    -1.8440    -0.4820 C.3   1 <1>   0.1100 
 11 N        2.5790     1.9700     1.2510 N.pl3 1 <1>   0.3140 
 12 C        2.6980     2.6660     0.1040 C.2   1 <1>  -0.3020 
 13 C       -1.3120    -4.6460     0.1440 C.3   1 <1>   0.2000 
 14 C       -2.2700    -2.4310     0.8710 C.3   1 <1>  -0.1600 
 15 C        3.0440     2.3730     2.5820 C.3   1 <1>   0.0160 
 16 O       -1.6440    -5.9710    -0.1340 O.3   1 <1>  -0.5600 
 17 C       -2.5210    -3.9440     0.7770 C.3   1 <1>  -0.1600 
 18 C       -1.4730    -6.8580     0.9410 C.3   1 <1>   0.2630 
 19 C       -1.8380    -8.2950     0.5740 C.ar  1 <1>   0.1670 
 20 N       -1.6100    -9.1930     1.5240 N.ar  1 <1>  -0.6200 
 21 C       -2.3710    -8.6150    -0.6700 C.ar  1 <1>  -0.1500 
 22 C       -1.9210   -10.4450     1.2260 C.ar  1 <1>   0.1600 
 23 C       -2.6900    -9.9230    -0.9660 C.ar  1 <1>  -0.1500 
 24 C       -2.4540   -10.8580     0.0180 C.ar  1 <1>  -0.1500 
 25 H        0.8180    -1.0530    -0.0770 H     1 <1>   0.3700 
 26 H        0.5710    -2.5590    -2.6970 H     1 <1>   0.0800 
 27 H       -0.9540    -1.7560    -2.9230 H     1 <1>   0.0800 
 28 H        2.0280     2.1230    -1.9170 H     1 <1>   0.1500 
 29 H       -0.0280    -4.4540    -1.5520 H     1 <1>   0.0800 
 30 H       -1.7090    -4.0970    -1.8950 H     1 <1>   0.0800 
 31 H       -2.6570    -1.9550    -1.1910 H     1 <1>   0.0800 
 32 H       -1.6550    -0.7920    -0.3590 H     1 <1>   0.0800 
 33 H        3.1650     3.6310     0.0400 H     1 <1>   0.1500 
 34 H       -0.4620    -4.6220     0.8060 H     1 <1>   0.0800 
 35 H       -3.1620    -1.9380     1.2120 H     1 <1>   0.0800 
 36 H       -1.4920    -2.2340     1.5880 H     1 <1>   0.0800 
 37 H        3.7310     1.6330     2.9490 H     1 <1>   0.0800 
 38 H        2.1980     2.4360     3.2410 H     1 <1>   0.0800 
 39 H        3.5330     3.3270     2.5210 H     1 <1>   0.0800 
 40 H       -2.7080    -4.3330     1.7610 H     1 <1>   0.0800 
 41 H       -3.3890    -4.1180     0.1640 H     1 <1>   0.0800 
 42 H       -2.0950    -6.5400     1.7570 H     1 <1>   0.0800 
 43 H       -0.4420    -6.8290     1.2460 H     1 <1>   0.0800 
 44 H       -2.5370    -7.8490    -1.4050 H     1 <1>   0.1500 
 45 H       -1.7410   -11.1840     1.9880 H     1 <1>   0.1500 
 46 H       -3.1040   -10.1980    -1.9210 H     1 <1>   0.1500 
 47 H       -2.6800   -11.8950    -0.1470 H     1 <1>   0.1500 
@<TRIPOS>BOND
  1   1   2  2   
  2   2   3  am  
  3   2   4  1   
  4   3   5  1   
  5   3  25  1   
  6   4   6  1   
  7   4  26  1   
  8   4  27  1   
  9   5   7  2   
 10   5   8  1   
 11   6   9  1   
 12   6  10  1   
 13   7  11  1   
 14   8  12  2   
 15   8  28  1   
 16   9  13  1   
 17   9  29  1   
 18   9  30  1   
 19  10  14  1   
 20  10  31  1   
 21  10  32  1   
 22  11  12  1   
 23  11  15  1   
 24  12  33  1   
 25  13  16  1   
 26  13  17  1   
 27  13  34  1   
 28  14  17  1   
 29  14  35  1   
 30  14  36  1   
 31  15  37  1   
 32  15  38  1   
 33  15  39  1   
 34  16  18  1   
 35  17  40  1   
 36  17  41  1   
 37  18  19  1   
 38  18  42  1   
 39  18  43  1   
 40  19  20  ar  
 41  19  21  ar  
 42  20  22  ar  
 43  21  23  ar  
 44  21  44  1   
 45  22  24  ar  
 46  22  45  1   
 47  23  24  ar  
 48  23  46  1   
 49  24  47  1   
@<TRIPOS>SUBSTRUCTURE
  1 ****   6 GROUP 4 **** **** 0

# MOE 2024.06 (io_trps.svl 2023.06)
