@<TRIPOS>MOLECULE
NONAME
49 50 1 0 0 
SMALL
USER_CHARGES


@<TRIPOS>ATOM
  1 S        1.1670     0.1010    -1.0140 S.3   1 <1>  -0.4600 
  2 C       -0.5710    -0.1790    -0.5680 C.3   1 <1>   0.2140 
  3 C        1.4340     1.8420    -0.5890 C.3   1 <1>   0.0700 
  4 C       -0.9010    -1.6460    -0.7840 C.ar  1 <1>  -0.1430 
  5 C        1.7840     1.9260     0.8950 C.3   1 <1>  -0.0990 
  6 C       -1.1880    -2.4700     0.2940 C.ar  1 <1>  -0.1500 
  7 C       -0.9260    -2.1750    -2.0660 C.ar  1 <1>  -0.1500 
  8 C        2.0110     3.3770     1.2670 C.2   1 <1>   0.5690 
  9 C       -1.5010    -3.8030     0.0930 C.ar  1 <1>  -0.1500 
 10 C       -1.2380    -3.5080    -2.2690 C.ar  1 <1>  -0.1500 
 11 O        1.0190     4.0270     1.5010 O.2   1 <1>  -0.5700 
 12 N        3.2670     3.9330     1.2940 N.am  1 <1>  -0.6600 
 13 C       -1.5270    -4.3230    -1.1890 C.ar  1 <1>  -0.1500 
 14 C        3.4060     5.4190     1.4090 C.3   1 <1>   0.1400 
 15 C        4.5060     3.1480     1.5550 C.3   1 <1>   0.1400 
 16 C        2.9710     6.1410     0.1190 C.3   1 <1>  -0.0800 
 17 C        5.1660     2.7180     0.2460 C.3   1 <1>  -0.2400 
 18 C        3.8600     5.8040    -1.0930 C.3   1 <1>  -0.1600 
 19 C        2.9510     7.6640     0.3080 C.3   1 <1>  -0.1600 
 20 C        3.7850     6.8650    -2.2040 C.3   1 <1>   0.1200 
 21 C        2.4690     8.3810    -0.9690 C.3   1 <1>   0.1200 
 22 O        2.5890     7.5690    -2.1030 O.3   1 <1>  -0.5600 
 23 H       -1.1710     0.4520    -1.1990 H     1 <1>   0.0800 
 24 H       -0.6920     0.1080     0.4610 H     1 <1>   0.0800 
 25 H        0.5340     2.3850    -0.8200 H     1 <1>   0.0800 
 26 H        2.2420     2.2000    -1.2020 H     1 <1>   0.0800 
 27 H        2.6410     1.3180     1.0990 H     1 <1>   0.0800 
 28 H        0.9660     1.5520     1.4820 H     1 <1>   0.0800 
 29 H       -1.1690    -2.0780     1.2960 H     1 <1>   0.1500 
 30 H       -0.6950    -1.5470    -2.9100 H     1 <1>   0.1500 
 31 H       -1.7220    -4.4370     0.9340 H     1 <1>   0.1500 
 32 H       -1.2530    -3.9100    -3.2670 H     1 <1>   0.1500 
 33 H       -1.7690    -5.3590    -1.3460 H     1 <1>   0.1500 
 34 H        4.4230     5.6840     1.6400 H     1 <1>   0.0800 
 35 H        2.7880     5.7550     2.2250 H     1 <1>   0.0800 
 36 H        4.2680     2.2800     2.1460 H     1 <1>   0.0800 
 37 H        5.1990     3.7360     2.1310 H     1 <1>   0.0800 
 38 H        1.9610     5.8470    -0.1110 H     1 <1>   0.0800 
 39 H        4.4830     2.1540    -0.3620 H     1 <1>   0.0800 
 40 H        6.0160     2.0970     0.4620 H     1 <1>   0.0800 
 41 H        5.5100     3.5730    -0.3020 H     1 <1>   0.0800 
 42 H        3.5660     4.8500    -1.4920 H     1 <1>   0.0800 
 43 H        4.8870     5.7260    -0.7890 H     1 <1>   0.0800 
 44 H        3.9390     8.0130     0.5500 H     1 <1>   0.0800 
 45 H        2.3040     7.9320     1.1240 H     1 <1>   0.0800 
 46 H        3.8190     6.4030    -3.1760 H     1 <1>   0.0800 
 47 H        4.5960     7.5690    -2.1240 H     1 <1>   0.0800 
 48 H        3.0290     9.2850    -1.1360 H     1 <1>   0.0800 
 49 H        1.4270     8.6330    -0.8790 H     1 <1>   0.0800 
@<TRIPOS>BOND
  1   1   2  1   
  2   1   3  1   
  3   2   4  1   
  4   2  23  1   
  5   2  24  1   
  6   3   5  1   
  7   3  25  1   
  8   3  26  1   
  9   4   6  ar  
 10   4   7  ar  
 11   5   8  1   
 12   5  27  1   
 13   5  28  1   
 14   6   9  ar  
 15   6  29  1   
 16   7  10  ar  
 17   7  30  1   
 18   8  11  2   
 19   8  12  am  
 20   9  13  ar  
 21   9  31  1   
 22  10  13  ar  
 23  10  32  1   
 24  12  14  1   
 25  12  15  1   
 26  13  33  1   
 27  14  16  1   
 28  14  34  1   
 29  14  35  1   
 30  15  17  1   
 31  15  36  1   
 32  15  37  1   
 33  16  18  1   
 34  16  19  1   
 35  16  38  1   
 36  17  39  1   
 37  17  40  1   
 38  17  41  1   
 39  18  20  1   
 40  18  42  1   
 41  18  43  1   
 42  19  21  1   
 43  19  44  1   
 44  19  45  1   
 45  20  22  1   
 46  20  46  1   
 47  20  47  1   
 48  21  22  1   
 49  21  48  1   
 50  21  49  1   
@<TRIPOS>SUBSTRUCTURE
  1 ****   3 GROUP 4 **** **** 0

# MOE 2024.06 (io_trps.svl 2023.06)
