@<TRIPOS>MOLECULE
NONAME
43 45 1 0 0 
SMALL
USER_CHARGES


@<TRIPOS>ATOM
  1 S        0.2490    -0.1560    -1.0970 S.o2  1 <1>   1.3330 
  2 O       -0.5910    -1.2720    -1.4670 O.2   1 <1>  -0.6500 
  3 O        1.3770     0.1950    -1.9310 O.2   1 <1>  -0.6500 
  4 N        0.8270    -0.4430     0.4740 N.am  1 <1>  -0.8490 
  5 C       -0.7730     1.3050    -0.9070 C.3   1 <1>  -0.0550 
  6 C        2.1010    -1.1690     0.4700 C.3   1 <1>   0.1160 
  7 C       -0.1410    -1.1360     1.3310 C.3   1 <1>   0.1160 
  8 C       -0.0590     2.5000    -0.2470 C.3   1 <1>  -0.0800 
  9 C       -0.9990     3.6820    -0.0380 C.3   1 <1>   0.2000 
 10 C        1.0970     3.0850    -1.0600 C.3   1 <1>   0.1400 
 11 O       -1.7150     3.5070     1.1360 O.3   1 <1>  -0.6800 
 12 C       -0.1020     4.9190     0.0170 C.3   1 <1>   0.1400 
 13 N        1.1490     4.5150    -0.6720 N.am  1 <1>  -0.6600 
 14 C        2.2550     5.3170    -0.8950 C.2   1 <1>   0.7160 
 15 O        3.1940     4.8110    -1.4880 O.2   1 <1>  -0.5700 
 16 C        2.3530     6.7160    -0.4650 C.2   1 <1>   0.2030 
 17 N        1.4500     7.4200     0.2150 N.2   1 <1>  -0.7070 
 18 C        3.4740     7.5030    -0.7390 C.2   1 <1>  -0.1500 
 19 N        1.9950     8.6380     0.3670 N.pl3 1 <1>   0.6010 
 20 C        3.2380     8.7230    -0.2070 C.2   1 <1>  -0.0260 
 21 C        1.4670     9.7440     1.0020 C.2   1 <1>  -0.1810 
 22 N        4.0090     9.8690    -0.1880 N.2   1 <1>  -0.5760 
 23 C        2.2130    10.8800     1.0290 C.2   1 <1>  -0.1360 
 24 C        3.4970    10.8940     0.4110 C.2   1 <1>   0.3760 
 25 H       -1.1390     1.6000    -1.8710 H     1 <1>   0.0800 
 26 H       -1.6250     1.0500    -0.3070 H     1 <1>   0.0800 
 27 H        2.4480    -1.3210     1.4770 H     1 <1>   0.0800 
 28 H        2.8470    -0.6000    -0.0600 H     1 <1>   0.0800 
 29 H        1.9850    -2.1240    -0.0150 H     1 <1>   0.0800 
 30 H        0.2450    -1.2180     2.3330 H     1 <1>   0.0800 
 31 H       -0.3400    -2.1250     0.9500 H     1 <1>   0.0800 
 32 H       -1.0650    -0.5870     1.3670 H     1 <1>   0.0800 
 33 H        0.3460     2.1990     0.7050 H     1 <1>   0.0800 
 34 H       -1.6990     3.7780    -0.8520 H     1 <1>   0.0800 
 35 H        0.9050     3.0160    -2.1180 H     1 <1>   0.0800 
 36 H        2.0280     2.5890    -0.8370 H     1 <1>   0.0800 
 37 H       -1.1090     3.4920     1.9020 H     1 <1>   0.4000 
 38 H        0.1240     5.1910     1.0330 H     1 <1>   0.0800 
 39 H       -0.5600     5.7470    -0.4960 H     1 <1>   0.0800 
 40 H        4.3530     7.1880    -1.2730 H     1 <1>   0.1500 
 41 H        0.4920     9.6280     1.4350 H     1 <1>   0.1500 
 42 H        1.8720    11.7820     1.5020 H     1 <1>   0.1500 
 43 H        4.0590    11.8100     0.4520 H     1 <1>   0.0600 
@<TRIPOS>BOND
  1   1   2  2   
  2   1   3  2   
  3   1   4  am  
  4   1   5  1   
  5   4   6  1   
  6   4   7  1   
  7   5   8  1   
  8   5  25  1   
  9   5  26  1   
 10   6  27  1   
 11   6  28  1   
 12   6  29  1   
 13   7  30  1   
 14   7  31  1   
 15   7  32  1   
 16   8   9  1   
 17   8  10  1   
 18   8  33  1   
 19   9  11  1   
 20   9  12  1   
 21   9  34  1   
 22  10  13  1   
 23  10  35  1   
 24  10  36  1   
 25  11  37  1   
 26  12  13  1   
 27  12  38  1   
 28  12  39  1   
 29  13  14  am  
 30  14  15  2   
 31  14  16  1   
 32  16  17  2   
 33  16  18  1   
 34  17  19  1   
 35  18  20  2   
 36  18  40  1   
 37  19  20  1   
 38  19  21  1   
 39  20  22  1   
 40  21  23  2   
 41  21  41  1   
 42  22  24  2   
 43  23  24  1   
 44  23  42  1   
 45  24  43  1   
@<TRIPOS>SUBSTRUCTURE
  1 ****  13 GROUP 4 **** **** 0

# MOE 2024.06 (io_trps.svl 2023.06)
