@<TRIPOS>MOLECULE
NONAME
49 51 1 0 0 
SMALL
USER_CHARGES


@<TRIPOS>ATOM
  1 O       -2.2410     0.2320     1.6320 O.2   1 <1>  -0.5700 
  2 C       -1.4220     0.6180     0.8340 C.2   1 <1>   0.5690 
  3 N       -0.9330    -0.1640    -0.1570 N.am  1 <1>  -0.7300 
  4 C       -0.9470     2.0480     0.9040 C.3   1 <1>  -0.0990 
  5 C       -1.4480    -1.5060    -0.5500 C.3   1 <1>   0.2200 
  6 C       -1.7350     2.9220    -0.0790 C.3   1 <1>  -0.0220 
  7 C       -2.9190    -1.4390    -1.0010 C.3   1 <1>   0.2000 
  8 C       -1.2990    -2.5350     0.5820 C.3   1 <1>   0.1200 
  9 C       -1.1710     4.3440    -0.1120 C.2   1 <1>  -0.1240 
 10 O       -3.0160    -0.6460    -2.1510 O.3   1 <1>  -0.5600 
 11 C       -3.4470    -2.8430    -1.3100 C.3   1 <1>  -0.1600 
 12 O       -1.8040    -3.7740     0.1630 O.3   1 <1>  -0.5600 
 13 C       -0.0280     4.5640    -0.9480 C.2   1 <1>   0.4690 
 14 C       -1.7060     5.3740     0.6050 C.2   1 <1>  -0.0380 
 15 C       -4.2080     0.0630    -2.2730 C.3   1 <1>   0.0400 
 16 C       -3.1690    -3.7800    -0.1290 C.3   1 <1>   0.1200 
 17 O        0.4970     3.6340    -1.5560 O.2   1 <1>  -0.5700 
 18 C        0.5100     5.8960    -1.0560 C.ar  1 <1>   0.0860 
 19 N       -1.1740     6.6310     0.4960 N.pl3 1 <1>  -0.6000 
 20 C       -2.8840     5.2840     1.5640 C.3   1 <1>  -0.1020 
 21 C       -0.0880     6.9250    -0.3150 C.ar  1 <1>   0.1000 
 22 C        1.6070     6.2170    -1.8660 C.ar  1 <1>  -0.1500 
 23 C        0.4080     8.2250    -0.3970 C.ar  1 <1>  -0.1500 
 24 C        2.0900     7.5050    -1.9400 C.ar  1 <1>  -0.1500 
 25 C        1.4880     8.5150    -1.2020 C.ar  1 <1>  -0.1500 
 26 H       -0.3660     0.2840    -0.8820 H     1 <1>   0.3700 
 27 H       -1.0770     2.4160     1.9050 H     1 <1>   0.0800 
 28 H        0.1020     2.0800     0.6700 H     1 <1>   0.0800 
 29 H       -0.8600    -1.8600    -1.3790 H     1 <1>   0.0800 
 30 H       -2.7750     2.9180     0.1880 H     1 <1>   0.0800 
 31 H       -1.6810     2.4930    -1.0660 H     1 <1>   0.0800 
 32 H       -3.5030    -1.0010    -0.2100 H     1 <1>   0.0800 
 33 H       -1.8350    -2.2320     1.4640 H     1 <1>   0.0800 
 34 H       -0.2600    -2.6710     0.8240 H     1 <1>   0.0800 
 35 H       -4.5050    -2.8080    -1.4910 H     1 <1>   0.0800 
 36 H       -2.9590    -3.2330    -2.1860 H     1 <1>   0.0800 
 37 H       -4.1700     0.6250    -3.1900 H     1 <1>   0.0800 
 38 H       -4.3050     0.7370    -1.4390 H     1 <1>   0.0800 
 39 H       -5.0340    -0.6250    -2.3040 H     1 <1>   0.0800 
 40 H       -3.4460    -4.7910    -0.3760 H     1 <1>   0.0800 
 41 H       -3.7090    -3.4740     0.7510 H     1 <1>   0.0800 
 42 H       -1.5890     7.4000     1.0320 H     1 <1>   0.4000 
 43 H       -2.6670     5.8340     2.4620 H     1 <1>   0.0800 
 44 H       -3.0980     4.2740     1.8540 H     1 <1>   0.0800 
 45 H       -3.7600     5.7060     1.1040 H     1 <1>   0.0800 
 46 H        2.0740     5.4340    -2.4390 H     1 <1>   0.1500 
 47 H       -0.0580     9.0060     0.1740 H     1 <1>   0.1500 
 48 H        2.9340     7.7340    -2.5690 H     1 <1>   0.1500 
 49 H        1.8690     9.5200    -1.2630 H     1 <1>   0.1500 
@<TRIPOS>BOND
  1   1   2  2   
  2   2   3  am  
  3   2   4  1   
  4   3   5  1   
  5   3  26  1   
  6   4   6  1   
  7   4  27  1   
  8   4  28  1   
  9   5   7  1   
 10   5   8  1   
 11   5  29  1   
 12   6   9  1   
 13   6  30  1   
 14   6  31  1   
 15   7  10  1   
 16   7  11  1   
 17   7  32  1   
 18   8  12  1   
 19   8  33  1   
 20   8  34  1   
 21   9  13  1   
 22   9  14  2   
 23  10  15  1   
 24  11  16  1   
 25  11  35  1   
 26  11  36  1   
 27  12  16  1   
 28  13  17  2   
 29  13  18  1   
 30  14  19  1   
 31  14  20  1   
 32  15  37  1   
 33  15  38  1   
 34  15  39  1   
 35  16  40  1   
 36  16  41  1   
 37  18  21  ar  
 38  18  22  ar  
 39  19  21  1   
 40  19  42  1   
 41  20  43  1   
 42  20  44  1   
 43  20  45  1   
 44  21  23  ar  
 45  22  24  ar  
 46  22  46  1   
 47  23  25  ar  
 48  23  47  1   
 49  24  25  ar  
 50  24  48  1   
 51  25  49  1   
@<TRIPOS>SUBSTRUCTURE
  1 ****   6 GROUP 4 **** **** 0

# MOE 2024.06 (io_trps.svl 2023.06)
