@<TRIPOS>MOLECULE
NONAME
50 52 1 0 0 
SMALL
USER_CHARGES


@<TRIPOS>ATOM
  1 S        0.1520    -0.9620     1.6220 S.o2  1 <1>   1.5010 
  2 O       -0.7760    -0.4230     2.5950 O.2   1 <1>  -0.6500 
  3 O        1.0750    -2.0000     2.0300 O.2   1 <1>  -0.6500 
  4 N       -0.7650    -1.6020     0.3460 N.am  1 <1>  -0.8490 
  5 C        1.0560     0.3860     0.8390 C.2   1 <1>  -0.0630 
  6 C       -1.7740    -0.6850    -0.1810 C.3   1 <1>   0.1960 
  7 C       -1.4610    -2.8400     0.7090 C.3   1 <1>   0.1960 
  8 C        2.0070     0.2560    -0.1690 C.2   1 <1>   0.1080 
  9 C        0.9830     1.7260     1.0380 C.2   1 <1>  -0.3020 
 10 C       -3.0880    -1.0420     0.5160 C.3   1 <1>  -0.0800 
 11 C       -2.9700    -2.5610     0.6990 C.3   1 <1>  -0.0800 
 12 N        2.4800     1.3990    -0.5600 N.2   1 <1>  -0.7070 
 13 C        2.4690    -1.0500    -0.7780 C.3   1 <1>  -0.0590 
 14 N        1.8450     2.3120     0.1890 N.pl3 1 <1>   0.3140 
 15 C       -4.3930    -0.5460    -0.1730 C.3   1 <1>   0.2800 
 16 C       -3.6950    -3.3240    -0.4220 C.3   1 <1>  -0.1600 
 17 C        2.1020     3.7590     0.0460 C.3   1 <1>   0.0960 
 18 O       -4.2030    -0.4480    -1.5390 O.3   1 <1>  -0.6800 
 19 C       -5.5230    -1.5680     0.0490 C.3   1 <1>  -0.1600 
 20 C       -4.8410     0.8470     0.3220 C.3   1 <1>  -0.1600 
 21 C       -5.1960    -2.9840    -0.4720 C.3   1 <1>  -0.1600 
 22 C        0.9670     4.4490    -0.7220 C.3   1 <1>  -0.2400 
 23 C       -3.8270     1.9880     0.1230 C.3   1 <1>  -0.2400 
 24 H       -1.5030     0.3460    -0.0360 H     1 <1>   0.0800 
 25 H       -1.8530    -0.8660    -1.2390 H     1 <1>   0.0800 
 26 H       -1.2120    -3.6040    -0.0070 H     1 <1>   0.0800 
 27 H       -1.1570    -3.1860     1.6840 H     1 <1>   0.0800 
 28 H        0.3680     2.2730     1.7280 H     1 <1>   0.1500 
 29 H       -3.0650    -0.6150     1.5020 H     1 <1>   0.0800 
 30 H       -3.3930    -2.8530     1.6440 H     1 <1>   0.0800 
 31 H        1.6350    -1.5670    -1.2160 H     1 <1>   0.0800 
 32 H        2.9130    -1.6710    -0.0220 H     1 <1>   0.0800 
 33 H        3.1990    -0.8600    -1.5430 H     1 <1>   0.0800 
 34 H       -3.2500    -3.0550    -1.3650 H     1 <1>   0.0800 
 35 H       -3.5700    -4.3850    -0.2950 H     1 <1>   0.0800 
 36 H        2.2050     4.1860     1.0260 H     1 <1>   0.0800 
 37 H        3.0300     3.8830    -0.4820 H     1 <1>   0.0800 
 38 H       -5.0460    -0.2090    -1.9640 H     1 <1>   0.4000 
 39 H       -5.6970    -1.6360     1.1090 H     1 <1>   0.0800 
 40 H       -6.4400    -1.2220    -0.3940 H     1 <1>   0.0800 
 41 H       -5.7570     1.1140    -0.1750 H     1 <1>   0.0800 
 42 H       -5.0660     0.7820     1.3720 H     1 <1>   0.0800 
 43 H       -5.7470    -3.7010     0.1120 H     1 <1>   0.0800 
 44 H       -5.5290    -3.0760    -1.4910 H     1 <1>   0.0800 
 45 H        0.0360     4.3460    -0.1930 H     1 <1>   0.0800 
 46 H        0.8700     4.0160    -1.7020 H     1 <1>   0.0800 
 47 H        1.1850     5.4960    -0.8310 H     1 <1>   0.0800 
 48 H       -3.5050     2.0400    -0.9030 H     1 <1>   0.0800 
 49 H       -2.9690     1.8500     0.7550 H     1 <1>   0.0800 
 50 H       -4.2820     2.9270     0.3830 H     1 <1>   0.0800 
@<TRIPOS>BOND
  1   1   2  2   
  2   1   3  2   
  3   1   4  am  
  4   1   5  1   
  5   4   6  1   
  6   4   7  1   
  7   5   8  1   
  8   5   9  2   
  9   6  10  1   
 10   6  24  1   
 11   6  25  1   
 12   7  11  1   
 13   7  26  1   
 14   7  27  1   
 15   8  12  2   
 16   8  13  1   
 17   9  14  1   
 18   9  28  1   
 19  10  11  1   
 20  10  15  1   
 21  10  29  1   
 22  11  16  1   
 23  11  30  1   
 24  12  14  1   
 25  13  31  1   
 26  13  32  1   
 27  13  33  1   
 28  14  17  1   
 29  15  18  1   
 30  15  19  1   
 31  15  20  1   
 32  16  21  1   
 33  16  34  1   
 34  16  35  1   
 35  17  22  1   
 36  17  36  1   
 37  17  37  1   
 38  18  38  1   
 39  19  21  1   
 40  19  39  1   
 41  19  40  1   
 42  20  23  1   
 43  20  41  1   
 44  20  42  1   
 45  21  43  1   
 46  21  44  1   
 47  22  45  1   
 48  22  46  1   
 49  22  47  1   
 50  23  48  1   
 51  23  49  1   
 52  23  50  1   
@<TRIPOS>SUBSTRUCTURE
  1 ****   6 GROUP 4 **** **** 0

# MOE 2024.06 (io_trps.svl 2023.06)
