@<TRIPOS>MOLECULE
NONAME
54 57 1 0 0 
SMALL
USER_CHARGES


@<TRIPOS>ATOM
  1 O       -2.4110     0.2110    -1.6910 O.2   1 <1>  -0.5700 
  2 C       -2.3650     0.7910    -0.6220 C.2   1 <1>   0.7160 
  3 N       -2.5030     0.0530     0.5140 N.am  1 <1>  -0.7300 
  4 C       -2.1920     2.2210    -0.5170 C.2   1 <1>  -0.0860 
  5 C       -2.7520    -1.4030     0.5560 C.3   1 <1>   0.2200 
  6 C       -2.0870     3.1580    -1.5540 C.2   1 <1>   0.1080 
  7 C       -2.0920     2.9960     0.6010 C.2   1 <1>  -0.3020 
  8 C       -4.2510    -1.6500     0.5420 C.3   1 <1>  -0.0800 
  9 C       -2.3580    -1.9570     1.9200 C.3   1 <1>   0.1200 
 10 N       -1.9420     4.3700    -1.1240 N.2   1 <1>  -0.7070 
 11 C       -2.1320     2.8520    -3.0360 C.3   1 <1>  -0.0590 
 12 N       -1.9450     4.2710     0.2120 N.pl3 1 <1>   0.3140 
 13 C       -4.6200    -1.5270     2.0240 C.3   1 <1>   0.1200 
 14 C       -4.5850    -3.0400    -0.0350 C.3   1 <1>  -0.0170 
 15 O       -3.4450    -1.7150     2.7610 O.3   1 <1>  -0.5600 
 16 C       -1.8000     5.4560     1.0790 C.3   1 <1>   0.0960 
 17 C       -6.0910    -3.2520    -0.1520 C.ar  1 <1>  -0.1440 
 18 C       -3.1710     5.9660     1.5450 C.3   1 <1>  -0.1600 
 19 C       -6.8640    -2.6430    -1.1690 C.ar  1 <1>   0.0000 
 20 C       -6.7410    -4.0520     0.7410 C.ar  1 <1>  -0.1500 
 21 C       -3.0320     7.1950     2.4500 C.3   1 <1>  -0.2400 
 22 C       -8.2580    -2.8950    -1.1740 C.ar  1 <1>   0.3100 
 23 C       -6.3400    -1.8030    -2.1800 C.ar  1 <1>  -0.1500 
 24 C       -8.1250    -4.2400     0.6430 C.ar  1 <1>   0.1600 
 25 N       -8.8710    -3.6920    -0.2630 N.ar  1 <1>  -0.6200 
 26 C       -9.0530    -2.2980    -2.1650 C.ar  1 <1>  -0.1500 
 27 C       -7.1430    -1.2380    -3.1330 C.ar  1 <1>  -0.1500 
 28 C       -8.5180    -1.4860    -3.1270 C.ar  1 <1>  -0.1500 
 29 H       -2.5990     0.5380     1.4060 H     1 <1>   0.3700 
 30 H       -2.2300    -1.8910    -0.2500 H     1 <1>   0.0800 
 31 H       -2.1180     2.7070     1.6350 H     1 <1>   0.1500 
 32 H       -4.7610    -0.8990    -0.0350 H     1 <1>   0.0800 
 33 H       -1.4770    -1.4890     2.3210 H     1 <1>   0.0800 
 34 H       -2.2150    -3.0220     1.8710 H     1 <1>   0.0800 
 35 H       -3.0640     2.3790    -3.2830 H     1 <1>   0.0800 
 36 H       -1.3220     2.1960    -3.2970 H     1 <1>   0.0800 
 37 H       -2.0410     3.7610    -3.6030 H     1 <1>   0.0800 
 38 H       -5.3490    -2.2520     2.3380 H     1 <1>   0.0800 
 39 H       -4.9850    -0.5380     2.2430 H     1 <1>   0.0800 
 40 H       -4.1610    -3.8050     0.5920 H     1 <1>   0.0800 
 41 H       -4.1390    -3.1510    -1.0080 H     1 <1>   0.0800 
 42 H       -1.1920     5.1880     1.9230 H     1 <1>   0.0800 
 43 H       -1.2930     6.2200     0.5180 H     1 <1>   0.0800 
 44 H       -3.7600     6.2270     0.6810 H     1 <1>   0.0800 
 45 H       -3.6830     5.1860     2.0820 H     1 <1>   0.0800 
 46 H       -6.2190    -4.5530     1.5360 H     1 <1>   0.1500 
 47 H       -2.5410     7.9960     1.9240 H     1 <1>   0.0800 
 48 H       -2.4610     6.9550     3.3300 H     1 <1>   0.0800 
 49 H       -4.0050     7.5360     2.7570 H     1 <1>   0.0800 
 50 H       -5.2850    -1.5990    -2.2100 H     1 <1>   0.1500 
 51 H       -8.5990    -4.8780     1.3690 H     1 <1>   0.1500 
 52 H      -10.1070    -2.5050    -2.1420 H     1 <1>   0.1500 
 53 H       -6.7290    -0.5990    -3.8940 H     1 <1>   0.1500 
 54 H       -9.1400    -1.0350    -3.8810 H     1 <1>   0.1500 
@<TRIPOS>BOND
  1   1   2  2   
  2   2   3  am  
  3   2   4  1   
  4   3   5  1   
  5   3  29  1   
  6   4   6  1   
  7   4   7  2   
  8   5   8  1   
  9   5   9  1   
 10   5  30  1   
 11   6  10  2   
 12   6  11  1   
 13   7  12  1   
 14   7  31  1   
 15   8  13  1   
 16   8  14  1   
 17   8  32  1   
 18   9  15  1   
 19   9  33  1   
 20   9  34  1   
 21  10  12  1   
 22  11  35  1   
 23  11  36  1   
 24  11  37  1   
 25  12  16  1   
 26  13  15  1   
 27  13  38  1   
 28  13  39  1   
 29  14  17  1   
 30  14  40  1   
 31  14  41  1   
 32  16  18  1   
 33  16  42  1   
 34  16  43  1   
 35  17  19  ar  
 36  17  20  ar  
 37  18  21  1   
 38  18  44  1   
 39  18  45  1   
 40  19  22  ar  
 41  19  23  ar  
 42  20  24  ar  
 43  20  46  1   
 44  21  47  1   
 45  21  48  1   
 46  21  49  1   
 47  22  25  ar  
 48  22  26  ar  
 49  23  27  ar  
 50  23  50  1   
 51  24  25  ar  
 52  24  51  1   
 53  26  28  ar  
 54  26  52  1   
 55  27  28  ar  
 56  27  53  1   
 57  28  54  1   
@<TRIPOS>SUBSTRUCTURE
  1 ****   8 GROUP 4 **** **** 0

# MOE 2024.06 (io_trps.svl 2023.06)
