@<TRIPOS>MOLECULE
NONAME
44 46 1 0 0 
SMALL
USER_CHARGES


@<TRIPOS>ATOM
  1 S        0.5880     0.3730    -0.7680 S.3   1 <1>  -0.0800 
  2 C       -0.7760     1.3290    -0.2230 C.2   1 <1>   0.1980 
  3 C       -0.3150    -1.0680    -0.4010 C.2   1 <1>  -0.1100 
  4 N       -1.7680     0.6470     0.1830 N.2   1 <1>  -0.5650 
  5 C       -0.6390     2.8340    -0.2760 C.3   1 <1>   0.0200 
  6 C       -1.5140    -0.7130     0.0820 C.2   1 <1>   0.0770 
  7 C        0.1210     3.3230     0.9550 C.3   1 <1>   0.2090 
  8 N        0.3770     4.7830     0.8490 N.pl3 1 <1>  -0.8690 
  9 C        1.4900     5.4450     0.4950 C.ar  1 <1>   0.4100 
 10 N        1.4150     6.7490     0.6190 N.ar  1 <1>  -0.6200 
 11 C        2.6480     4.8030     0.0220 C.ar  1 <1>  -0.1500 
 12 C        2.4780     7.4730     0.2950 C.ar  1 <1>   0.7710 
 13 C        3.7270     5.5550    -0.3010 C.ar  1 <1>   0.2180 
 14 N        3.6100     6.8960    -0.1490 N.ar  1 <1>  -0.1790 
 15 N        2.4280     8.8280     0.4190 N.pl3 1 <1>  -0.8380 
 16 C        5.0390     4.9750    -0.8170 C.3   1 <1>  -0.0170 
 17 C        1.2480     9.5260     1.0570 C.3   1 <1>   0.2090 
 18 C        3.4560     9.8320    -0.0340 C.3   1 <1>   0.2090 
 19 C        6.2060     5.2430     0.1430 C.3   1 <1>  -0.2400 
 20 C        0.7280    10.6710     0.1710 C.3   1 <1>   0.1200 
 21 C        2.8100    10.9550    -0.8670 C.3   1 <1>   0.1200 
 22 O        1.7650    11.5490    -0.1570 O.3   1 <1>  -0.5600 
 23 H        0.1470    -2.0210    -0.5870 H     1 <1>   0.1500 
 24 H       -1.6200     3.2720    -0.2910 H     1 <1>   0.0800 
 25 H       -0.1180     3.1110    -1.1730 H     1 <1>   0.0800 
 26 H       -2.2910    -1.3910     0.3950 H     1 <1>   0.1500 
 27 H        1.0480     2.7870     1.0530 H     1 <1>   0.0800 
 28 H       -0.4640     3.1260     1.8380 H     1 <1>   0.0800 
 29 H       -0.4080     5.3710     1.1530 H     1 <1>   0.4000 
 30 H        2.6540     3.7340    -0.0740 H     1 <1>   0.1500 
 31 H        4.3830     7.5200    -0.3350 H     1 <1>   0.4570 
 32 H        5.2630     5.3880    -1.7860 H     1 <1>   0.0800 
 33 H        4.9330     3.9100    -0.9410 H     1 <1>   0.0800 
 34 H        1.5510     9.9360     2.0050 H     1 <1>   0.0800 
 35 H        0.4330     8.8510     1.2480 H     1 <1>   0.0800 
 36 H        4.2250     9.3750    -0.6280 H     1 <1>   0.0800 
 37 H        3.9230    10.2760     0.8310 H     1 <1>   0.0800 
 38 H        6.4050     6.2950     0.2430 H     1 <1>   0.0800 
 39 H        7.0990     4.7700    -0.2300 H     1 <1>   0.0800 
 40 H        5.9950     4.8330     1.1160 H     1 <1>   0.0800 
 41 H       -0.0230    11.2340     0.6970 H     1 <1>   0.0800 
 42 H        0.2970    10.2860    -0.7370 H     1 <1>   0.0800 
 43 H        2.4220    10.5750    -1.7960 H     1 <1>   0.0800 
 44 H        3.5320    11.7230    -1.0830 H     1 <1>   0.0800 
@<TRIPOS>BOND
  1   1   2  1   
  2   1   3  1   
  3   2   4  2   
  4   2   5  1   
  5   3   6  2   
  6   3  23  1   
  7   4   6  1   
  8   5   7  1   
  9   5  24  1   
 10   5  25  1   
 11   6  26  1   
 12   7   8  1   
 13   7  27  1   
 14   7  28  1   
 15   8   9  1   
 16   8  29  1   
 17   9  10  ar  
 18   9  11  ar  
 19  10  12  ar  
 20  11  13  ar  
 21  11  30  1   
 22  12  14  ar  
 23  12  15  1   
 24  13  14  ar  
 25  13  16  1   
 26  14  31  1   
 27  15  17  1   
 28  15  18  1   
 29  16  19  1   
 30  16  32  1   
 31  16  33  1   
 32  17  20  1   
 33  17  34  1   
 34  17  35  1   
 35  18  21  1   
 36  18  36  1   
 37  18  37  1   
 38  19  38  1   
 39  19  39  1   
 40  19  40  1   
 41  20  22  1   
 42  20  41  1   
 43  20  42  1   
 44  21  22  1   
 45  21  43  1   
 46  21  44  1   
@<TRIPOS>SUBSTRUCTURE
  1 ****   9 GROUP 4 **** **** 0

# MOE 2024.06 (io_trps.svl 2023.06)
