@<TRIPOS>MOLECULE
NONAME
65 69 1 0 0 
SMALL
USER_CHARGES


@<TRIPOS>ATOM
  1 O       -1.2520    -1.2200     2.0140 O.2   1 <1>  -0.5700 
  2 C       -1.4960    -1.2690     0.8210 C.2   1 <1>   0.5440 
  3 N       -0.6810    -2.0460     0.0390 N.am  1 <1>  -0.7300 
  4 C       -2.6170    -0.5380     0.2360 C.ar  1 <1>   0.3960 
  5 C        0.5100    -2.7790     0.5130 C.3   1 <1>   0.1400 
  6 N       -2.8650    -0.6560    -1.0820 N.ar  1 <1>  -0.6200 
  7 C       -3.4130     0.2730     1.0550 C.ar  1 <1>   0.1600 
  8 C        0.0910    -4.1540     1.0520 C.3   1 <1>  -0.0800 
  9 C       -3.9040     0.0560    -1.4800 C.ar  1 <1>   0.1600 
 10 N       -4.4540     0.9870     0.6530 N.ar  1 <1>  -0.6200 
 11 C       -0.2850    -5.1100    -0.0900 C.3   1 <1>   0.2000 
 12 C        1.2080    -4.9690     1.7470 C.3   1 <1>  -0.0800 
 13 C       -4.6730     0.8520    -0.6420 C.ar  1 <1>   0.1600 
 14 O        0.9480    -5.6630    -0.3650 O.3   1 <1>  -0.5600 
 15 C       -1.0500    -6.3340     0.4350 C.3   1 <1>  -0.1600 
 16 C        1.2560    -6.2090     0.8670 C.3   1 <1>   0.2800 
 17 C        2.6560    -4.4410     1.7360 C.3   1 <1>   0.3430 
 18 C        0.0690    -7.1420     1.1020 C.3   1 <1>  -0.1600 
 19 C        2.6970    -6.7010     0.9290 C.3   1 <1>   0.3430 
 20 N        3.5140    -5.4550     1.0440 N.4   1 <1>  -0.9590 
 21 C        3.9510    -5.0020    -0.2980 C.3   1 <1>   0.4810 
 22 C        5.3570    -4.4440    -0.1370 C.2   1 <1>  -0.2760 
 23 C        6.4060    -5.2000     0.2480 C.2   1 <1>  -0.2760 
 24 C        5.4910    -2.9530    -0.5180 C.3   1 <1>   0.1380 
 25 C        7.8270    -4.6570     0.3850 C.3   1 <1>  -0.0220 
 26 C        6.3820    -6.6930     0.5780 C.3   1 <1>  -0.1020 
 27 C        6.8560    -2.3900    -0.0650 C.3   1 <1>  -0.1600 
 28 C        5.3610    -2.8350    -2.0450 C.3   1 <1>  -0.2400 
 29 C        4.4180    -2.0620     0.1270 C.3   1 <1>  -0.2400 
 30 C        8.0200    -3.3360    -0.3590 C.3   1 <1>  -0.1600 
 31 H       -0.8980    -2.0730    -0.9640 H     1 <1>   0.3700 
 32 H        1.2060    -2.8840    -0.3000 H     1 <1>   0.0800 
 33 H        0.9730    -2.2040     1.2970 H     1 <1>   0.0800 
 34 H       -3.1650     0.3280     2.1010 H     1 <1>   0.1500 
 35 H       -0.7400    -4.0200     1.7240 H     1 <1>   0.0800 
 36 H       -4.1630     0.0110    -2.5240 H     1 <1>   0.1500 
 37 H       -0.7200    -4.6470    -0.9600 H     1 <1>   0.0800 
 38 H        0.9310    -5.2190     2.7570 H     1 <1>   0.0800 
 39 H       -5.5020     1.3970    -1.0600 H     1 <1>   0.1500 
 40 H       -1.8310    -6.0540     1.1210 H     1 <1>   0.0800 
 41 H       -1.4810    -6.8770    -0.3880 H     1 <1>   0.0800 
 42 H        2.9940    -4.3060     2.7510 H     1 <1>   0.0800 
 43 H        2.7160    -3.4950     1.2340 H     1 <1>   0.0800 
 44 H        0.2170    -8.0800     0.5950 H     1 <1>   0.0800 
 45 H       -0.1150    -7.3190     2.1470 H     1 <1>   0.0800 
 46 H        2.9480    -7.2840     0.0580 H     1 <1>   0.0800 
 47 H        2.8250    -7.3020     1.8140 H     1 <1>   0.0800 
 48 H        4.4000    -5.6060     1.5490 H     1 <1>   0.4500 
 49 H        3.9920    -5.8380    -0.9760 H     1 <1>   0.0800 
 50 H        3.2660    -4.2770    -0.7050 H     1 <1>   0.0800 
 51 H        8.0490    -4.5180     1.4290 H     1 <1>   0.0800 
 52 H        8.5400    -5.3600    -0.0090 H     1 <1>   0.0800 
 53 H        7.1230    -7.2070    -0.0110 H     1 <1>   0.0800 
 54 H        5.4420    -7.1580     0.3600 H     1 <1>   0.0800 
 55 H        6.6180    -6.8470     1.6170 H     1 <1>   0.0800 
 56 H        7.0410    -1.4410    -0.5380 H     1 <1>   0.0800 
 57 H        6.8360    -2.2160     0.9980 H     1 <1>   0.0800 
 58 H        5.5380    -1.8230    -2.3620 H     1 <1>   0.0800 
 59 H        4.3810    -3.1210    -2.3770 H     1 <1>   0.0800 
 60 H        6.0760    -3.4710    -2.5350 H     1 <1>   0.0800 
 61 H        4.6280    -1.0270    -0.0840 H     1 <1>   0.0800 
 62 H        4.4200    -2.1850     1.1950 H     1 <1>   0.0800 
 63 H        3.4420    -2.2690    -0.2640 H     1 <1>   0.0800 
 64 H        8.0840    -3.5250    -1.4150 H     1 <1>   0.0800 
 65 H        8.9470    -2.8840    -0.0510 H     1 <1>   0.0800 
@<TRIPOS>BOND
  1   1   2  2   
  2   2   3  am  
  3   2   4  1   
  4   3   5  1   
  5   3  31  1   
  6   4   6  ar  
  7   4   7  ar  
  8   5   8  1   
  9   5  32  1   
 10   5  33  1   
 11   6   9  ar  
 12   7  10  ar  
 13   7  34  1   
 14   8  11  1   
 15   8  12  1   
 16   8  35  1   
 17   9  13  ar  
 18   9  36  1   
 19  10  13  ar  
 20  11  14  1   
 21  11  15  1   
 22  11  37  1   
 23  12  16  1   
 24  12  17  1   
 25  12  38  1   
 26  13  39  1   
 27  14  16  1   
 28  15  18  1   
 29  15  40  1   
 30  15  41  1   
 31  16  18  1   
 32  16  19  1   
 33  17  20  1   
 34  17  42  1   
 35  17  43  1   
 36  18  44  1   
 37  18  45  1   
 38  19  20  1   
 39  19  46  1   
 40  19  47  1   
 41  20  21  1   
 42  20  48  1   
 43  21  22  1   
 44  21  49  1   
 45  21  50  1   
 46  22  23  2   
 47  22  24  1   
 48  23  25  1   
 49  23  26  1   
 50  24  27  1   
 51  24  28  1   
 52  24  29  1   
 53  25  30  1   
 54  25  51  1   
 55  25  52  1   
 56  26  53  1   
 57  26  54  1   
 58  26  55  1   
 59  27  30  1   
 60  27  56  1   
 61  27  57  1   
 62  28  58  1   
 63  28  59  1   
 64  28  60  1   
 65  29  61  1   
 66  29  62  1   
 67  29  63  1   
 68  30  64  1   
 69  30  65  1   
@<TRIPOS>SUBSTRUCTURE
  1 ****   5 GROUP 4 **** **** 0

# MOE 2024.06 (io_trps.svl 2023.06)
