@<TRIPOS>MOLECULE
NONAME
54 56 1 0 0 
SMALL
USER_CHARGES


@<TRIPOS>ATOM
  1 O       -2.2080    -0.2900     0.6560 O.2   1 <1>  -0.5700 
  2 C       -1.3880    -1.1900     0.6920 C.2   1 <1>   0.6900 
  3 N       -0.1910    -1.0890     0.0280 N.am  1 <1>  -0.6600 
  4 N       -1.6700    -2.3230     1.3750 N.am  1 <1>  -0.7300 
  5 C        0.0980     0.0540    -0.8820 C.3   1 <1>   0.0600 
  6 C        0.9350    -2.0460     0.2030 C.3   1 <1>   0.0600 
  7 C       -3.0070    -2.6650     1.9420 C.3   1 <1>   0.2010 
  8 C       -3.6530    -3.8470     1.2050 C.2   1 <1>   0.5690 
  9 O       -2.9390    -4.8050     0.9980 O.2   1 <1>  -0.5700 
 10 N       -4.9650    -3.8330     0.7850 N.am  1 <1>  -0.6600 
 11 C       -5.9690    -2.7500     1.0480 C.3   1 <1>   0.1400 
 12 C       -5.4990    -4.9040    -0.1040 C.3   1 <1>   0.1400 
 13 C       -6.4000    -2.0730    -0.2670 C.3   1 <1>   0.1430 
 14 C       -5.9320    -4.2890    -1.4430 C.3   1 <1>  -0.1600 
 15 C       -7.4320    -1.0110     0.0650 C.ar  1 <1>   0.1670 
 16 C       -6.9370    -3.1390    -1.2470 C.3   1 <1>  -0.1600 
 17 C       -5.2500    -1.2330    -0.8870 C.3   1 <1>  -0.1600 
 18 N       -8.6770    -1.2410     0.4040 N.ar  1 <1>  -0.6200 
 19 C       -6.9010     0.2400    -0.0080 C.ar  1 <1>  -0.1430 
 20 C       -5.4440     0.2130    -0.4020 C.3   1 <1>  -0.0170 
 21 C       -9.4070    -0.1520     0.6630 C.ar  1 <1>   0.7200 
 22 C       -7.7240     1.2990     0.2800 C.ar  1 <1>   0.1600 
 23 N       -8.9790     1.1140     0.6160 N.ar  1 <1>  -0.6200 
 24 N      -10.7270    -0.3560     1.0160 N.pl3 1 <1>  -0.8380 
 25 C      -11.5600     0.7250     1.6120 C.3   1 <1>   0.1290 
 26 C      -11.4280    -1.6450     0.7620 C.3   1 <1>   0.1290 
 27 H       -1.1260    -3.1480     1.1190 H     1 <1>   0.3700 
 28 H       -0.7980     0.6140    -1.0890 H     1 <1>   0.0800 
 29 H        0.4940    -0.3130    -1.8120 H     1 <1>   0.0800 
 30 H        0.8150     0.7090    -0.4210 H     1 <1>   0.0800 
 31 H        0.8810    -2.5260     1.1650 H     1 <1>   0.0800 
 32 H        1.8740    -1.5240     0.1430 H     1 <1>   0.0800 
 33 H        0.8980    -2.7930    -0.5700 H     1 <1>   0.0800 
 34 H       -3.6300    -1.7960     1.9080 H     1 <1>   0.0800 
 35 H       -2.8820    -2.9410     2.9730 H     1 <1>   0.0800 
 36 H       -5.6000    -2.0130     1.7340 H     1 <1>   0.0800 
 37 H       -6.8370    -3.1940     1.5050 H     1 <1>   0.0800 
 38 H       -6.3420    -5.3700     0.3760 H     1 <1>   0.0800 
 39 H       -4.7570    -5.6630    -0.2810 H     1 <1>   0.0800 
 40 H       -6.3770    -5.0550    -2.0530 H     1 <1>   0.0800 
 41 H       -5.0570    -3.9320    -1.9570 H     1 <1>   0.0800 
 42 H       -7.1750    -2.6860    -2.1940 H     1 <1>   0.0800 
 43 H       -7.8500    -3.5460    -0.8490 H     1 <1>   0.0800 
 44 H       -5.3440    -1.2370    -1.9580 H     1 <1>   0.0800 
 45 H       -4.2730    -1.6060    -0.6390 H     1 <1>   0.0800 
 46 H       -5.2210     0.9240    -1.1780 H     1 <1>   0.0800 
 47 H       -4.8290     0.4110     0.4600 H     1 <1>   0.0800 
 48 H       -7.3490     2.3070     0.2350 H     1 <1>   0.1500 
 49 H      -10.9460     1.4060     2.1770 H     1 <1>   0.0800 
 50 H      -12.2940     0.3030     2.2760 H     1 <1>   0.0800 
 51 H      -12.0560     1.2700     0.8290 H     1 <1>   0.0800 
 52 H      -10.9640    -2.1750    -0.0520 H     1 <1>   0.0800 
 53 H      -12.4550    -1.4610     0.5020 H     1 <1>   0.0800 
 54 H      -11.3880    -2.2560     1.6460 H     1 <1>   0.0800 
@<TRIPOS>BOND
  1   1   2  2   
  2   2   3  am  
  3   2   4  am  
  4   3   5  1   
  5   3   6  1   
  6   4   7  1   
  7   4  27  1   
  8   5  28  1   
  9   5  29  1   
 10   5  30  1   
 11   6  31  1   
 12   6  32  1   
 13   6  33  1   
 14   7   8  1   
 15   7  34  1   
 16   7  35  1   
 17   8   9  2   
 18   8  10  am  
 19  10  11  1   
 20  10  12  1   
 21  11  13  1   
 22  11  36  1   
 23  11  37  1   
 24  12  14  1   
 25  12  38  1   
 26  12  39  1   
 27  13  15  1   
 28  13  16  1   
 29  13  17  1   
 30  14  16  1   
 31  14  40  1   
 32  14  41  1   
 33  15  18  ar  
 34  15  19  ar  
 35  16  42  1   
 36  16  43  1   
 37  17  20  1   
 38  17  44  1   
 39  17  45  1   
 40  18  21  ar  
 41  19  20  1   
 42  19  22  ar  
 43  20  46  1   
 44  20  47  1   
 45  21  23  ar  
 46  21  24  1   
 47  22  23  ar  
 48  22  48  1   
 49  24  25  1   
 50  24  26  1   
 51  25  49  1   
 52  25  50  1   
 53  25  51  1   
 54  26  52  1   
 55  26  53  1   
 56  26  54  1   
@<TRIPOS>SUBSTRUCTURE
  1 ****  13 GROUP 4 **** **** 0

# MOE 2024.06 (io_trps.svl 2023.06)
