@<TRIPOS>MOLECULE
NONAME
50 53 1 0 0 
SMALL
USER_CHARGES


@<TRIPOS>ATOM
  1 O       -0.5730     0.4400     0.7890 O.2   1 <1>  -0.5700 
  2 C       -1.5930     0.9640     0.3750 C.2   1 <1>   0.6160 
  3 N       -2.7130     0.1750     0.1760 N.am  1 <1>  -0.6600 
  4 C       -1.6040     2.3880     0.2000 C.2   1 <1>   0.0290 
  5 C       -4.0610     0.7630    -0.0880 C.3   1 <1>   0.2200 
  6 C       -2.6000    -1.3120     0.2960 C.3   1 <1>   0.0600 
  7 C       -1.7290     2.9220    -1.1180 C.2   1 <1>   0.6160 
  8 C       -1.4990     3.2580     1.2570 C.2   1 <1>  -0.1500 
  9 C       -5.1460     0.2850     0.8730 C.3   1 <1>  -0.1600 
 10 C       -4.6120     0.4360    -1.4730 C.3   1 <1>  -0.1600 
 11 O       -1.8250     2.2560    -2.1370 O.2   1 <1>  -0.5700 
 12 N       -1.7680     4.2810    -1.2680 N.am  1 <1>  -0.5390 
 13 C       -1.5430     4.6560     1.0550 C.2   1 <1>  -0.1380 
 14 C       -6.4590     0.6120     0.1480 C.3   1 <1>  -0.0800 
 15 C       -6.1180     0.6990    -1.3520 C.3   1 <1>  -0.0800 
 16 C       -1.6720     5.1490    -0.2120 C.2   1 <1>  -0.0290 
 17 C       -1.4320     5.5650     2.2720 C.3   1 <1>  -0.0220 
 18 C       -7.0460     1.9760     0.5390 C.3   1 <1>  -0.1600 
 19 C       -6.5250     2.1070    -1.8100 C.3   1 <1>  -0.1600 
 20 C       -1.7230     6.6360    -0.5310 C.3   1 <1>  -0.0220 
 21 C       -1.8880     6.9990     1.9660 C.3   1 <1>  -0.1600 
 22 C       -7.5320     2.5760    -0.7710 C.3   1 <1>   0.2000 
 23 C       -1.2690     7.4990     0.6550 C.3   1 <1>  -0.1600 
 24 O       -7.5290     3.9500    -0.6930 O.3   1 <1>  -0.6800 
 25 H       -4.0190     1.8350    -0.0030 H     1 <1>   0.0800 
 26 H       -3.3380    -1.8080    -0.3060 H     1 <1>   0.0800 
 27 H       -2.7300    -1.5990     1.3250 H     1 <1>   0.0800 
 28 H       -1.6260    -1.6350    -0.0300 H     1 <1>   0.0800 
 29 H       -1.3810     2.8780     2.2580 H     1 <1>   0.1500 
 30 H       -5.0920    -0.7790     1.0060 H     1 <1>   0.0800 
 31 H       -5.0720     0.7670     1.8310 H     1 <1>   0.0800 
 32 H       -4.1500     1.0320    -2.2390 H     1 <1>   0.0800 
 33 H       -4.4600    -0.6010    -1.7040 H     1 <1>   0.0800 
 34 H       -1.8460     4.5980    -2.2340 H     1 <1>   0.3700 
 35 H       -7.1910    -0.1600     0.3190 H     1 <1>   0.0800 
 36 H       -6.6770    -0.0390    -1.9050 H     1 <1>   0.0800 
 37 H       -2.0260     5.1730     3.0780 H     1 <1>   0.0800 
 38 H       -0.4040     5.5790     2.5930 H     1 <1>   0.0800 
 39 H       -6.2810     2.6030     0.9630 H     1 <1>   0.0800 
 40 H       -7.8540     1.8690     1.2400 H     1 <1>   0.0800 
 41 H       -6.9600     2.0890    -2.7930 H     1 <1>   0.0800 
 42 H       -5.6700     2.7600    -1.8080 H     1 <1>   0.0800 
 43 H       -1.0950     6.8490    -1.3780 H     1 <1>   0.0800 
 44 H       -2.7350     6.8930    -0.7920 H     1 <1>   0.0800 
 45 H       -2.9610     7.0200     1.8830 H     1 <1>   0.0800 
 46 H       -1.6040     7.6470     2.7770 H     1 <1>   0.0800 
 47 H       -8.5270     2.2360    -1.0100 H     1 <1>   0.0800 
 48 H       -0.1960     7.4550     0.7330 H     1 <1>   0.0800 
 49 H       -1.5480     8.5240     0.4830 H     1 <1>   0.0800 
 50 H       -6.6280     4.2680    -0.5010 H     1 <1>   0.4000 
@<TRIPOS>BOND
  1   1   2  2   
  2   2   3  am  
  3   2   4  1   
  4   3   5  1   
  5   3   6  1   
  6   4   7  1   
  7   4   8  2   
  8   5   9  1   
  9   5  10  1   
 10   5  25  1   
 11   6  26  1   
 12   6  27  1   
 13   6  28  1   
 14   7  11  2   
 15   7  12  am  
 16   8  13  1   
 17   8  29  1   
 18   9  14  1   
 19   9  30  1   
 20   9  31  1   
 21  10  15  1   
 22  10  32  1   
 23  10  33  1   
 24  12  16  1   
 25  12  34  1   
 26  13  16  2   
 27  13  17  1   
 28  14  15  1   
 29  14  18  1   
 30  14  35  1   
 31  15  19  1   
 32  15  36  1   
 33  16  20  1   
 34  17  21  1   
 35  17  37  1   
 36  17  38  1   
 37  18  22  1   
 38  18  39  1   
 39  18  40  1   
 40  19  22  1   
 41  19  41  1   
 42  19  42  1   
 43  20  23  1   
 44  20  43  1   
 45  20  44  1   
 46  21  23  1   
 47  21  45  1   
 48  21  46  1   
 49  22  24  1   
 50  22  47  1   
 51  23  48  1   
 52  23  49  1   
 53  24  50  1   
@<TRIPOS>SUBSTRUCTURE
  1 ****   4 GROUP 4 **** **** 0

# MOE 2024.06 (io_trps.svl 2023.06)
