@<TRIPOS>MOLECULE
NONAME
45 47 1 0 0 
SMALL
USER_CHARGES


@<TRIPOS>ATOM
  1 CL       1.2400     0.8610     3.1290 Cl    1 <1>  -0.1770 
  2 C        2.2880     1.2200     1.7790 C.ar  1 <1>   0.1770 
  3 C        2.6160     0.2200     0.8810 C.ar  1 <1>  -0.1440 
  4 C        2.7620     2.5120     1.6340 C.ar  1 <1>  -0.1500 
  5 C        3.4490     0.5660    -0.1710 C.ar  1 <1>   0.1900 
  6 C        2.0960    -1.1920     1.0620 C.3   1 <1>   0.4860 
  7 C        3.5900     2.8260     0.5670 C.ar  1 <1>  -0.1500 
  8 F        3.7730    -0.3620    -1.0350 F     1 <1>  -0.1900 
  9 C        3.9450     1.8500    -0.3530 C.ar  1 <1>  -0.1440 
 10 N        1.3710    -1.6710    -0.1550 N.4   1 <1>  -0.9590 
 11 C        4.8580     2.1920    -1.5230 C.3   1 <1>  -0.0970 
 12 C       -0.0560    -1.2280    -0.2160 C.3   1 <1>   0.4230 
 13 C        1.5150    -3.1580    -0.2540 C.3   1 <1>   0.2630 
 14 C       -0.7870    -1.8190    -1.4220 C.3   1 <1>  -0.1600 
 15 C       -0.2050     0.2790    -0.4170 C.3   1 <1>  -0.1600 
 16 C       -1.9640    -0.8740    -1.6860 C.3   1 <1>  -0.0800 
 17 C       -1.5820     0.4750    -1.0610 C.3   1 <1>  -0.0800 
 18 C       -3.2720    -1.3100    -1.0100 C.3   1 <1>  -0.1600 
 19 C       -2.6930     0.8200    -0.0570 C.3   1 <1>  -0.1600 
 20 C       -3.8830    -0.0140    -0.5030 C.3   1 <1>   0.2000 
 21 O       -4.7200    -0.2620     0.5610 O.3   1 <1>  -0.6800 
 22 H        2.4870     3.2670     2.3500 H     1 <1>   0.1500 
 23 H        1.4490    -1.2540     1.9210 H     1 <1>   0.0800 
 24 H        2.9460    -1.8300     1.2470 H     1 <1>   0.0800 
 25 H        3.9570     3.8350     0.4610 H     1 <1>   0.1500 
 26 H        1.8620    -1.2480    -0.9590 H     1 <1>   0.4500 
 27 H        5.1550     3.2250    -1.4930 H     1 <1>   0.0800 
 28 H        4.3510     2.0110    -2.4540 H     1 <1>   0.0800 
 29 H        5.7450     1.5840    -1.4890 H     1 <1>   0.0800 
 30 H       -0.5810    -1.5170     0.6820 H     1 <1>   0.0800 
 31 H        0.9990    -3.6410     0.5600 H     1 <1>   0.0800 
 32 H        2.5570    -3.4370    -0.2170 H     1 <1>   0.0800 
 33 H        1.1050    -3.5170    -1.1830 H     1 <1>   0.0800 
 34 H       -0.1440    -1.8010    -2.2850 H     1 <1>   0.0800 
 35 H       -1.1240    -2.8250    -1.2460 H     1 <1>   0.0800 
 36 H       -0.1320     0.8250     0.5060 H     1 <1>   0.0800 
 37 H        0.5410     0.6350    -1.1050 H     1 <1>   0.0800 
 38 H       -2.1310    -0.7580    -2.7450 H     1 <1>   0.0800 
 39 H       -1.5400     1.2370    -1.8240 H     1 <1>   0.0800 
 40 H       -3.0710    -1.9650    -0.1800 H     1 <1>   0.0800 
 41 H       -3.9300    -1.8000    -1.7050 H     1 <1>   0.0800 
 42 H       -2.9290     1.8700    -0.0790 H     1 <1>   0.0800 
 43 H       -2.4050     0.5390     0.9410 H     1 <1>   0.0800 
 44 H       -4.4400     0.4840    -1.2800 H     1 <1>   0.0800 
 45 H       -4.2350    -0.6720     1.2990 H     1 <1>   0.4000 
@<TRIPOS>BOND
  1   1   2  1   
  2   2   3  ar  
  3   2   4  ar  
  4   3   5  ar  
  5   3   6  1   
  6   4   7  ar  
  7   4  22  1   
  8   5   8  1   
  9   5   9  ar  
 10   6  10  1   
 11   6  23  1   
 12   6  24  1   
 13   7   9  ar  
 14   7  25  1   
 15   9  11  1   
 16  10  12  1   
 17  10  13  1   
 18  10  26  1   
 19  11  27  1   
 20  11  28  1   
 21  11  29  1   
 22  12  14  1   
 23  12  15  1   
 24  12  30  1   
 25  13  31  1   
 26  13  32  1   
 27  13  33  1   
 28  14  16  1   
 29  14  34  1   
 30  14  35  1   
 31  15  17  1   
 32  15  36  1   
 33  15  37  1   
 34  16  17  1   
 35  16  18  1   
 36  16  38  1   
 37  17  19  1   
 38  17  39  1   
 39  18  20  1   
 40  18  40  1   
 41  18  41  1   
 42  19  20  1   
 43  19  42  1   
 44  19  43  1   
 45  20  21  1   
 46  20  44  1   
 47  21  45  1   
@<TRIPOS>SUBSTRUCTURE
  1 ****  15 GROUP 4 **** **** 0

# MOE 2024.06 (io_trps.svl 2023.06)
