@<TRIPOS>MOLECULE
NONAME
36 37 1 0 0 
SMALL
USER_CHARGES


@<TRIPOS>ATOM
  1 O       -0.3250     0.0820     0.8970 O.co2 1 <1>  -0.9000 
  2 C        0.7820    -0.3560     0.5530 C.2   1 <1>   0.9060 
  3 O        1.6940     0.3550     0.1340 O.co2 1 <1>  -0.9000 
  4 C        0.9790    -1.8800     0.5730 C.3   1 <1>   0.2370 
  5 N       -0.3170    -2.6760     0.5250 N.4   1 <1>  -0.9590 
  6 C       -1.1620    -2.3010    -0.6360 C.3   1 <1>   0.3430 
  7 C       -0.2210    -4.1580     0.5530 C.3   1 <1>   0.3430 
  8 C       -2.1360    -3.4720    -0.7730 C.3   1 <1>   0.2000 
  9 C       -1.2320    -4.6730    -0.4830 C.3   1 <1>  -0.0800 
 10 O       -3.1080    -3.4120     0.2350 O.3   1 <1>  -0.5600 
 11 C       -1.9720    -5.9470    -0.0320 C.3   1 <1>   0.0200 
 12 C       -4.1040    -2.4500     0.0550 C.3   1 <1>   0.0400 
 13 C       -1.0180    -7.1190     0.0970 C.2   1 <1>  -0.0400 
 14 O       -0.0480    -7.0830     0.9710 O.3   1 <1>  -0.0190 
 15 C       -0.9440    -8.2930    -0.5490 C.2   1 <1>  -0.1500 
 16 N        0.6780    -8.1600     0.9370 N.2   1 <1>  -0.4100 
 17 C        0.1590    -8.9120     0.0340 C.2   1 <1>   0.1080 
 18 C        0.6820   -10.2810    -0.3380 C.3   1 <1>  -0.0590 
 19 H        1.5200    -2.1180     1.4700 H     1 <1>   0.0800 
 20 H        1.5970    -2.1290    -0.2690 H     1 <1>   0.0800 
 21 H       -0.8730    -2.3430     1.3330 H     1 <1>   0.4500 
 22 H       -1.6650    -1.3610    -0.4730 H     1 <1>   0.0800 
 23 H       -0.5530    -2.2280    -1.5200 H     1 <1>   0.0800 
 24 H        0.7730    -4.4900     0.3030 H     1 <1>   0.0800 
 25 H       -0.4750    -4.5190     1.5370 H     1 <1>   0.0800 
 26 H       -2.6150    -3.5240    -1.7360 H     1 <1>   0.0800 
 27 H       -0.6830    -4.9010    -1.3800 H     1 <1>   0.0800 
 28 H       -2.7330    -6.1930    -0.7510 H     1 <1>   0.0800 
 29 H       -2.4570    -5.7870     0.9160 H     1 <1>   0.0800 
 30 H       -4.8190    -2.5580     0.8520 H     1 <1>   0.0800 
 31 H       -4.5930    -2.6090    -0.8900 H     1 <1>   0.0800 
 32 H       -3.6720    -1.4640     0.1010 H     1 <1>   0.0800 
 33 H       -1.5630    -8.6960    -1.3290 H     1 <1>   0.1500 
 34 H       -0.0820   -11.0190    -0.1780 H     1 <1>   0.0800 
 35 H        1.5350   -10.5270     0.2690 H     1 <1>   0.0800 
 36 H        0.9760   -10.2930    -1.3720 H     1 <1>   0.0800 
@<TRIPOS>BOND
  1   1   2  ar  
  2   2   3  ar  
  3   2   4  1   
  4   4   5  1   
  5   4  19  1   
  6   4  20  1   
  7   5   6  1   
  8   5   7  1   
  9   5  21  1   
 10   6   8  1   
 11   6  22  1   
 12   6  23  1   
 13   7   9  1   
 14   7  24  1   
 15   7  25  1   
 16   8   9  1   
 17   8  10  1   
 18   8  26  1   
 19   9  11  1   
 20   9  27  1   
 21  10  12  1   
 22  11  13  1   
 23  11  28  1   
 24  11  29  1   
 25  12  30  1   
 26  12  31  1   
 27  12  32  1   
 28  13  14  1   
 29  13  15  2   
 30  14  16  1   
 31  15  17  1   
 32  15  33  1   
 33  16  17  2   
 34  17  18  1   
 35  18  34  1   
 36  18  35  1   
 37  18  36  1   
@<TRIPOS>SUBSTRUCTURE
  1 ****   7 GROUP 4 **** **** 0

# MOE 2024.06 (io_trps.svl 2023.06)
