@<TRIPOS>MOLECULE
NONAME
51 54 1 0 0 
SMALL
USER_CHARGES


@<TRIPOS>ATOM
  1 O       -0.5140     0.9350    -1.4600 O.2   1 <1>  -0.5700 
  2 C       -0.8610     1.8080    -0.6670 C.2   1 <1>   0.6900 
  3 N       -2.1270     2.1050    -0.3230 N.am  1 <1>  -0.4200 
  4 N       -0.0570     2.6480     0.0380 N.am  1 <1>  -0.2980 
  5 C       -2.0210     3.1160     0.6030 C.2   1 <1>   0.4490 
  6 C       -3.3570     1.3550    -0.6520 C.3   1 <1>   0.1400 
  7 N       -0.8160     3.4680     0.8410 N.2   1 <1>  -0.5120 
  8 C        1.4150     2.7130     0.0150 C.3   1 <1>   0.0600 
  9 C       -3.2670     3.7180     1.2260 C.3   1 <1>  -0.0990 
 10 C       -4.6030     2.1990    -0.3190 C.3   1 <1>  -0.0190 
 11 C       -4.4890     2.7880     1.1060 C.3   1 <1>  -0.1600 
 12 C       -5.8850     1.3800    -0.4810 C.2   1 <1>   0.5690 
 13 O       -5.8050     0.1840    -0.3250 O.2   1 <1>  -0.5700 
 14 N       -7.0850     1.9820    -0.7810 N.am  1 <1>  -0.6600 
 15 C       -7.3410     3.4490    -0.8780 C.3   1 <1>   0.1400 
 16 C       -8.3100     1.1670    -1.0320 C.3   1 <1>   0.1400 
 17 C       -8.4020     3.8430     0.1520 C.3   1 <1>  -0.1600 
 18 C       -9.3900     1.5400    -0.0140 C.3   1 <1>  -0.1600 
 19 C       -9.6960     3.0400    -0.0370 C.3   1 <1>   0.4180 
 20 O      -10.2280     3.3140    -1.3110 O.3   1 <1>  -0.5600 
 21 C      -10.7130     3.3740     1.0510 C.2   1 <1>  -0.2880 
 22 C      -10.9870     4.4820    -1.4590 C.3   1 <1>   0.1200 
 23 C      -11.8770     3.9890     0.8260 C.2   1 <1>  -0.2760 
 24 C      -12.2430     4.4280    -0.5790 C.3   1 <1>  -0.0220 
 25 C      -12.9130     4.2890     1.8940 C.3   1 <1>  -0.1020 
 26 H       -3.3560     0.4460    -0.0750 H     1 <1>   0.0800 
 27 H       -3.3490     1.0910    -1.6960 H     1 <1>   0.0800 
 28 H        1.8020     1.9860    -0.6760 H     1 <1>   0.0800 
 29 H        1.7940     2.5100     1.0000 H     1 <1>   0.0800 
 30 H        1.7210     3.6970    -0.2910 H     1 <1>   0.0800 
 31 H       -3.4710     4.6440     0.7190 H     1 <1>   0.0800 
 32 H       -3.0720     3.9420     2.2600 H     1 <1>   0.0800 
 33 H       -4.6270     2.9970    -1.0380 H     1 <1>   0.0800 
 34 H       -5.3810     3.3330     1.3610 H     1 <1>   0.0800 
 35 H       -4.3910     1.9770     1.8090 H     1 <1>   0.0800 
 36 H       -7.6940     3.6780    -1.8700 H     1 <1>   0.0800 
 37 H       -6.4520     4.0230    -0.7010 H     1 <1>   0.0800 
 38 H       -8.0970     0.1140    -0.9580 H     1 <1>   0.0800 
 39 H       -8.6650     1.3620    -2.0300 H     1 <1>   0.0800 
 40 H       -8.6080     4.8940     0.0900 H     1 <1>   0.0800 
 41 H       -8.0140     3.6540     1.1360 H     1 <1>   0.0800 
 42 H       -9.0520     1.2520     0.9640 H     1 <1>   0.0800 
 43 H      -10.2920     0.9940    -0.2220 H     1 <1>   0.0800 
 44 H      -10.4000     3.0510     2.0270 H     1 <1>   0.1500 
 45 H      -11.2610     4.5660    -2.4960 H     1 <1>   0.0800 
 46 H      -10.3770     5.3260    -1.1930 H     1 <1>   0.0800 
 47 H      -12.9540     3.7420    -1.0030 H     1 <1>   0.0800 
 48 H      -12.6880     5.4060    -0.5610 H     1 <1>   0.0800 
 49 H      -13.8430     3.8050     1.6530 H     1 <1>   0.0800 
 50 H      -13.0790     5.3490     1.9660 H     1 <1>   0.0800 
 51 H      -12.5810     3.9300     2.8520 H     1 <1>   0.0800 
@<TRIPOS>BOND
  1   1   2  2   
  2   2   3  am  
  3   2   4  am  
  4   3   5  1   
  5   3   6  1   
  6   4   7  1   
  7   4   8  1   
  8   5   7  2   
  9   5   9  1   
 10   6  10  1   
 11   6  26  1   
 12   6  27  1   
 13   8  28  1   
 14   8  29  1   
 15   8  30  1   
 16   9  11  1   
 17   9  31  1   
 18   9  32  1   
 19  10  11  1   
 20  10  12  1   
 21  10  33  1   
 22  11  34  1   
 23  11  35  1   
 24  12  13  2   
 25  12  14  am  
 26  14  15  1   
 27  14  16  1   
 28  15  17  1   
 29  15  36  1   
 30  15  37  1   
 31  16  18  1   
 32  16  38  1   
 33  16  39  1   
 34  17  19  1   
 35  17  40  1   
 36  17  41  1   
 37  18  19  1   
 38  18  42  1   
 39  18  43  1   
 40  19  20  1   
 41  19  21  1   
 42  20  22  1   
 43  21  23  2   
 44  21  44  1   
 45  22  24  1   
 46  22  45  1   
 47  22  46  1   
 48  23  24  1   
 49  23  25  1   
 50  24  47  1   
 51  24  48  1   
 52  25  49  1   
 53  25  50  1   
 54  25  51  1   
@<TRIPOS>SUBSTRUCTURE
  1 ****  12 GROUP 4 **** **** 0

# MOE 2024.06 (io_trps.svl 2023.06)
