@<TRIPOS>MOLECULE
NONAME
44 46 1 0 0 
SMALL
USER_CHARGES


@<TRIPOS>ATOM
  1 O       -2.0280     0.7980     2.8950 O.2   1 <1>  -0.5700 
  2 C       -2.1160     1.1160     1.7240 C.2   1 <1>   0.5440 
  3 N       -2.6490     0.2030     0.8430 N.am  1 <1>  -0.6600 
  4 C       -1.7350     2.4510     1.3250 C.ar  1 <1>   0.0860 
  5 C       -3.0980     0.4920    -0.5380 C.3   1 <1>   0.1400 
  6 C       -3.0630    -1.1670     1.2430 C.3   1 <1>   0.1400 
  7 C       -0.7940     2.7030     0.3170 C.ar  1 <1>   0.3920 
  8 C       -2.3030     3.5510     1.9540 C.ar  1 <1>  -0.1500 
  9 C       -4.2400    -0.4940    -0.7690 C.3   1 <1>   0.2000 
 10 C       -3.8550    -1.7310     0.0490 C.3   1 <1>  -0.0800 
 11 O       -0.2050     1.6460    -0.2780 O.3   1 <1>  -0.3630 
 12 N       -0.4330     3.9170    -0.1010 N.ar  1 <1>  -0.6200 
 13 C       -1.9290     4.8090     1.5380 C.ar  1 <1>  -0.1500 
 14 O       -5.3920     0.0380    -0.2140 O.3   1 <1>  -0.6800 
 15 C       -3.0140    -2.7110    -0.7940 C.3   1 <1>  -0.0170 
 16 C        0.8090     1.7960    -1.2470 C.3   1 <1>   0.1200 
 17 C       -1.0050     4.9340     0.5170 C.ar  1 <1>   0.1600 
 18 C       -2.8080    -4.0400    -0.0820 C.ar  1 <1>   0.1670 
 19 C        1.2360     0.4040    -1.7010 C.3   1 <1>  -0.2400 
 20 N       -1.6890    -4.1790     0.6100 N.ar  1 <1>  -0.6200 
 21 C       -3.7760    -5.0390    -0.1830 C.ar  1 <1>   0.1600 
 22 C       -1.6050    -5.3640     1.1900 C.ar  1 <1>   0.1600 
 23 N       -3.6950    -6.2260     0.3960 N.ar  1 <1>  -0.6200 
 24 C       -2.5750    -6.3540     1.0870 C.ar  1 <1>   0.1600 
 25 H       -3.4210     1.5120    -0.6590 H     1 <1>   0.0800 
 26 H       -2.2900     0.2860    -1.2180 H     1 <1>   0.0800 
 27 H       -2.1950    -1.7580     1.4810 H     1 <1>   0.0800 
 28 H       -3.6900    -1.1060     2.1160 H     1 <1>   0.0800 
 29 H       -3.0150     3.4100     2.7500 H     1 <1>   0.1500 
 30 H       -4.4270    -0.6920    -1.8100 H     1 <1>   0.0800 
 31 H       -4.7360    -2.2470     0.3900 H     1 <1>   0.0800 
 32 H       -2.3470     5.6860     1.9990 H     1 <1>   0.1500 
 33 H       -5.1930     0.3190     0.7020 H     1 <1>   0.4000 
 34 H       -2.0560    -2.2770    -1.0250 H     1 <1>   0.0800 
 35 H       -3.5150    -2.9020    -1.7260 H     1 <1>   0.0800 
 36 H        0.4150     2.3670    -2.0700 H     1 <1>   0.0800 
 37 H        1.6320     2.3250    -0.7960 H     1 <1>   0.0800 
 38 H       -0.7200     5.9230     0.1960 H     1 <1>   0.1500 
 39 H        0.4040    -0.1160    -2.1400 H     1 <1>   0.0800 
 40 H        1.6090    -0.1590    -0.8630 H     1 <1>   0.0800 
 41 H        2.0170     0.4850    -2.4350 H     1 <1>   0.0800 
 42 H       -4.6590    -4.8470    -0.7670 H     1 <1>   0.1500 
 43 H       -0.7260    -5.5630     1.7770 H     1 <1>   0.1500 
 44 H       -2.4160    -7.2880     1.5960 H     1 <1>   0.1500 
@<TRIPOS>BOND
  1   1   2  2   
  2   2   3  am  
  3   2   4  1   
  4   3   5  1   
  5   3   6  1   
  6   4   7  ar  
  7   4   8  ar  
  8   5   9  1   
  9   5  25  1   
 10   5  26  1   
 11   6  10  1   
 12   6  27  1   
 13   6  28  1   
 14   7  11  1   
 15   7  12  ar  
 16   8  13  ar  
 17   8  29  1   
 18   9  10  1   
 19   9  14  1   
 20   9  30  1   
 21  10  15  1   
 22  10  31  1   
 23  11  16  1   
 24  12  17  ar  
 25  13  17  ar  
 26  13  32  1   
 27  14  33  1   
 28  15  18  1   
 29  15  34  1   
 30  15  35  1   
 31  16  19  1   
 32  16  36  1   
 33  16  37  1   
 34  17  38  1   
 35  18  20  ar  
 36  18  21  ar  
 37  19  39  1   
 38  19  40  1   
 39  19  41  1   
 40  20  22  ar  
 41  21  23  ar  
 42  21  42  1   
 43  22  24  ar  
 44  22  43  1   
 45  23  24  ar  
 46  24  44  1   
@<TRIPOS>SUBSTRUCTURE
  1 ****   3 GROUP 4 **** **** 0

# MOE 2024.06 (io_trps.svl 2023.06)
