@<TRIPOS>MOLECULE
NONAME
46 48 1 0 0 
SMALL
USER_CHARGES


@<TRIPOS>ATOM
  1 CL       0.8540    -1.4340     2.0480 Cl    1 <1>  -0.1770 
  2 C        0.1040    -2.7210     1.1410 C.ar  1 <1>   0.1770 
  3 C       -1.2250    -3.0170     1.3630 C.ar  1 <1>  -0.1500 
  4 C        0.8540    -3.4200     0.2150 C.ar  1 <1>  -0.1500 
  5 C       -1.8460    -4.0330     0.6400 C.ar  1 <1>   0.0860 
  6 C        0.2600    -4.4440    -0.5050 C.ar  1 <1>  -0.1440 
  7 C       -3.2460    -4.3540     0.8420 C.2   1 <1>   0.5440 
  8 C       -1.0760    -4.7390    -0.2840 C.ar  1 <1>  -0.1500 
  9 C        1.0690    -5.2310    -1.5210 C.3   1 <1>  -0.0960 
 10 O       -3.5420    -5.4710     1.2200 O.2   1 <1>  -0.5700 
 11 N       -4.2380    -3.4270     0.5930 N.am  1 <1>  -0.6600 
 12 C       -5.6790    -3.7320     0.8920 C.3   1 <1>   0.1400 
 13 C       -3.9810    -2.2160    -0.2440 C.3   1 <1>   0.1400 
 14 C       -6.5620    -3.5420    -0.3670 C.3   1 <1>   0.0000 
 15 C       -5.2240    -1.3260    -0.3570 C.3   1 <1>  -0.1600 
 16 C       -8.0230    -3.9390    -0.0820 C.3   1 <1>   0.2000 
 17 C       -6.4570    -2.0830    -0.8870 C.3   1 <1>  -0.1600 
 18 C       -6.1810    -4.5790    -1.4430 C.3   1 <1>  -0.1600 
 19 O       -8.4380    -3.4820     1.1710 O.3   1 <1>  -0.5600 
 20 C       -8.0690    -5.4690    -0.1640 C.3   1 <1>  -0.1600 
 21 C       -6.8580    -5.8830    -1.0120 C.3   1 <1>  -0.1600 
 22 C       -9.8120    -3.5270     1.3890 C.3   1 <1>   0.0400 
 23 H       -1.7820    -2.4630     2.0960 H     1 <1>   0.1500 
 24 H        1.8880    -3.1640     0.0660 H     1 <1>   0.1500 
 25 H       -1.5500    -5.5360    -0.8320 H     1 <1>   0.1500 
 26 H        0.6120    -6.1850    -1.7140 H     1 <1>   0.0800 
 27 H        2.0650    -5.4020    -1.1530 H     1 <1>   0.0800 
 28 H        1.1290    -4.6820    -2.4440 H     1 <1>   0.0800 
 29 H       -5.7850    -4.7340     1.2690 H     1 <1>   0.0800 
 30 H       -6.0130    -3.0690     1.6700 H     1 <1>   0.0800 
 31 H       -3.1810    -1.6400     0.1850 H     1 <1>   0.0800 
 32 H       -3.6800    -2.5330    -1.2280 H     1 <1>   0.0800 
 33 H       -5.4430    -0.9290     0.6200 H     1 <1>   0.0800 
 34 H       -5.0120    -0.4900    -0.9990 H     1 <1>   0.0800 
 35 H       -8.6580    -3.5130    -0.8400 H     1 <1>   0.0800 
 36 H       -6.4390    -2.0760    -1.9620 H     1 <1>   0.0800 
 37 H       -7.3290    -1.5300    -0.5840 H     1 <1>   0.0800 
 38 H       -6.5870    -4.2870    -2.3960 H     1 <1>   0.0800 
 39 H       -5.1180    -4.7050    -1.5510 H     1 <1>   0.0800 
 40 H       -7.9830    -5.9000     0.8180 H     1 <1>   0.0800 
 41 H       -8.9850    -5.7920    -0.6240 H     1 <1>   0.0800 
 42 H       -6.1760    -6.4590    -0.4070 H     1 <1>   0.0800 
 43 H       -7.1480    -6.4720    -1.8640 H     1 <1>   0.0800 
 44 H      -10.0070    -3.1330     2.3700 H     1 <1>   0.0800 
 45 H      -10.1510    -4.5470     1.3360 H     1 <1>   0.0800 
 46 H      -10.3090    -2.9230     0.6500 H     1 <1>   0.0800 
@<TRIPOS>BOND
  1   1   2  1   
  2   2   3  ar  
  3   2   4  ar  
  4   3   5  ar  
  5   3  23  1   
  6   4   6  ar  
  7   4  24  1   
  8   5   7  1   
  9   5   8  ar  
 10   6   8  ar  
 11   6   9  1   
 12   7  10  2   
 13   7  11  am  
 14   8  25  1   
 15   9  26  1   
 16   9  27  1   
 17   9  28  1   
 18  11  12  1   
 19  11  13  1   
 20  12  14  1   
 21  12  29  1   
 22  12  30  1   
 23  13  15  1   
 24  13  31  1   
 25  13  32  1   
 26  14  16  1   
 27  14  17  1   
 28  14  18  1   
 29  15  17  1   
 30  15  33  1   
 31  15  34  1   
 32  16  19  1   
 33  16  20  1   
 34  16  35  1   
 35  17  36  1   
 36  17  37  1   
 37  18  21  1   
 38  18  38  1   
 39  18  39  1   
 40  19  22  1   
 41  20  21  1   
 42  20  40  1   
 43  20  41  1   
 44  21  42  1   
 45  21  43  1   
 46  22  44  1   
 47  22  45  1   
 48  22  46  1   
@<TRIPOS>SUBSTRUCTURE
  1 ****  11 GROUP 4 **** **** 0

# MOE 2024.06 (io_trps.svl 2023.06)
