@<TRIPOS>MOLECULE
NONAME
48 50 1 0 0 
SMALL
USER_CHARGES


@<TRIPOS>ATOM
  1 S       -0.0140     0.3110    -0.3820 S.3   1 <1>  -0.3320 
  2 C        0.1970    -1.4770    -0.2860 C.ar  1 <1>   0.1020 
  3 C        1.6200     1.0570     0.0150 C.3   1 <1>   0.0700 
  4 C       -0.8870    -2.2540    -0.6520 C.ar  1 <1>  -0.1500 
  5 C        1.3840    -2.0620     0.1320 C.ar  1 <1>  -0.1500 
  6 C        1.4550     2.5720    -0.1320 C.3   1 <1>   0.3430 
  7 C       -0.7860    -3.6330    -0.6040 C.ar  1 <1>  -0.1500 
  8 C        1.4770    -3.4430     0.1770 C.ar  1 <1>  -0.1500 
  9 N        2.7300     3.3140     0.1350 N.4   1 <1>  -0.8520 
 10 C        0.3950    -4.2260    -0.1910 C.ar  1 <1>  -0.1500 
 11 C        2.5830     4.7800     0.3390 C.3   1 <1>   0.2960 
 12 C        3.7560     3.0770    -0.9130 C.3   1 <1>   0.5240 
 13 C        1.3900     5.3600     1.0210 C.3   1 <1>  -0.2000 
 14 C        1.5900     5.5610    -0.4550 C.3   1 <1>  -0.2000 
 15 C        5.0980     3.3510    -0.2800 C.2   1 <1>  -0.1810 
 16 C        5.7840     2.4880     0.5680 C.2   1 <1>   0.1080 
 17 C        5.8870     4.4470    -0.3770 C.2   1 <1>  -0.3320 
 18 N        6.8880     3.0060     0.9860 N.2   1 <1>  -0.7070 
 19 C        5.3730     1.0970     1.0030 C.3   1 <1>  -0.0590 
 20 N        6.9690     4.2090     0.4010 N.pl3 1 <1>   0.3140 
 21 C        5.6960     5.7300    -1.1750 C.3   1 <1>  -0.0600 
 22 C        8.1300     5.0840     0.6260 C.3   1 <1>   0.0160 
 23 H        2.3210     0.6450    -0.6870 H     1 <1>   0.0800 
 24 H        1.8570     0.7750     1.0260 H     1 <1>   0.0800 
 25 H       -1.8010    -1.7850    -0.9710 H     1 <1>   0.1500 
 26 H        2.2310    -1.4780     0.4260 H     1 <1>   0.1500 
 27 H        0.6990     2.8880     0.5650 H     1 <1>   0.0800 
 28 H        1.1040     2.7970    -1.1260 H     1 <1>   0.0800 
 29 H       -1.6260    -4.2450    -0.8880 H     1 <1>   0.1500 
 30 H        2.3900    -3.9150     0.4990 H     1 <1>   0.1500 
 31 H        3.1510     2.9650     1.0060 H     1 <1>   0.4500 
 32 H        0.4710    -5.3000    -0.1550 H     1 <1>   0.1500 
 33 H        3.5310     5.2530     0.5540 H     1 <1>   0.1000 
 34 H        3.5950     3.7330    -1.7530 H     1 <1>   0.0800 
 35 H        3.7310     2.0580    -1.2590 H     1 <1>   0.0800 
 36 H        1.5290     6.2140     1.6620 H     1 <1>   0.1000 
 37 H        0.5680     4.7490     1.3470 H     1 <1>   0.1000 
 38 H        0.9010     5.0790    -1.1260 H     1 <1>   0.1000 
 39 H        1.8520     6.5510    -0.7880 H     1 <1>   0.1000 
 40 H        4.8310     0.5930     0.2260 H     1 <1>   0.0800 
 41 H        4.7770     1.1520     1.8950 H     1 <1>   0.0800 
 42 H        6.2560     0.5220     1.2240 H     1 <1>   0.0800 
 43 H        4.7830     5.7050    -1.7400 H     1 <1>   0.0800 
 44 H        6.5130     5.8590    -1.8640 H     1 <1>   0.0800 
 45 H        5.6680     6.5790    -0.5140 H     1 <1>   0.0800 
 46 H        7.7980     6.0130     1.0480 H     1 <1>   0.0800 
 47 H        8.6280     5.2580    -0.3090 H     1 <1>   0.0800 
 48 H        8.8060     4.6010     1.3070 H     1 <1>   0.0800 
@<TRIPOS>BOND
  1   1   2  1   
  2   1   3  1   
  3   2   4  ar  
  4   2   5  ar  
  5   3   6  1   
  6   3  23  1   
  7   3  24  1   
  8   4   7  ar  
  9   4  25  1   
 10   5   8  ar  
 11   5  26  1   
 12   6   9  1   
 13   6  27  1   
 14   6  28  1   
 15   7  10  ar  
 16   7  29  1   
 17   8  10  ar  
 18   8  30  1   
 19   9  11  1   
 20   9  12  1   
 21   9  31  1   
 22  10  32  1   
 23  11  13  1   
 24  11  14  1   
 25  11  33  1   
 26  12  15  1   
 27  12  34  1   
 28  12  35  1   
 29  13  14  1   
 30  13  36  1   
 31  13  37  1   
 32  14  38  1   
 33  14  39  1   
 34  15  16  1   
 35  15  17  2   
 36  16  18  2   
 37  16  19  1   
 38  17  20  1   
 39  17  21  1   
 40  18  20  1   
 41  19  40  1   
 42  19  41  1   
 43  19  42  1   
 44  20  22  1   
 45  21  43  1   
 46  21  44  1   
 47  21  45  1   
 48  22  46  1   
 49  22  47  1   
 50  22  48  1   
@<TRIPOS>SUBSTRUCTURE
  1 ****   3 GROUP 4 **** **** 0

# MOE 2024.06 (io_trps.svl 2023.06)
