@<TRIPOS>MOLECULE
NONAME
54 57 1 0 0 
SMALL
USER_CHARGES


@<TRIPOS>ATOM
  1 O        0.7730    -0.1720    -0.8290 O.2   1 <1>  -0.5700 
  2 C        1.3740    -1.1470    -0.4480 C.2   1 <1>   0.5690 
  3 N        0.8120    -2.1280     0.3230 N.am  1 <1>  -0.6600 
  4 C        2.8290    -1.3100    -0.8350 C.3   1 <1>  -0.0990 
  5 C        1.6260    -3.2660     0.8110 C.3   1 <1>   0.1400 
  6 C       -0.6010    -2.0660     0.7850 C.3   1 <1>   0.0600 
  7 C        3.0970    -2.7570    -1.2870 C.3   1 <1>  -0.0800 
  8 C        2.5210    -3.8190    -0.3200 C.3   1 <1>  -0.0800 
  9 C        4.5930    -3.0610    -1.4490 C.3   1 <1>  -0.1600 
 10 C        3.7260    -4.6090     0.2050 C.3   1 <1>  -0.1600 
 11 C        4.7760    -4.4690    -0.8940 C.3   1 <1>   0.4230 
 12 N        6.1900    -4.7720    -0.5000 N.4   1 <1>  -0.9590 
 13 C        6.6520    -4.3750     0.8730 C.3   1 <1>   0.4860 
 14 C        6.4870    -6.2150    -0.7420 C.3   1 <1>   0.2630 
 15 C        6.8050    -2.8700     0.9520 C.ar  1 <1>  -0.1440 
 16 C        7.7810    -2.2080     0.1650 C.ar  1 <1>   0.0000 
 17 C        5.9640    -2.1600     1.7660 C.ar  1 <1>  -0.1500 
 18 C        7.7870    -0.7900     0.1470 C.ar  1 <1>   0.0000 
 19 C        8.7530    -2.8910    -0.6080 C.ar  1 <1>  -0.1500 
 20 C        6.0100    -0.7660     1.7850 C.ar  1 <1>  -0.1500 
 21 C        6.8870    -0.0880     0.9860 C.ar  1 <1>  -0.1440 
 22 C        8.7050    -0.1390    -0.7100 C.ar  1 <1>  -0.1500 
 23 C        9.6330    -2.2250    -1.4120 C.ar  1 <1>  -0.1500 
 24 C        6.8820     1.4360     1.0240 C.3   1 <1>  -0.0970 
 25 C        9.6000    -0.8320    -1.4730 C.ar  1 <1>  -0.1500 
 26 H        3.0650    -0.6240    -1.6290 H     1 <1>   0.0800 
 27 H        3.4270    -1.0560     0.0190 H     1 <1>   0.0800 
 28 H        2.2300    -2.9090     1.6290 H     1 <1>   0.0800 
 29 H        0.9850    -4.0470     1.1820 H     1 <1>   0.0800 
 30 H       -1.1350    -2.9360     0.4440 H     1 <1>   0.0800 
 31 H       -1.0900    -1.1900     0.3940 H     1 <1>   0.0800 
 32 H       -0.6330    -2.0250     1.8600 H     1 <1>   0.0800 
 33 H        2.6100    -2.8900    -2.2400 H     1 <1>   0.0800 
 34 H        1.9130    -4.4880    -0.9070 H     1 <1>   0.0800 
 35 H        5.1630    -2.3370    -0.9030 H     1 <1>   0.0800 
 36 H        4.8780    -3.0130    -2.4860 H     1 <1>   0.0800 
 37 H        3.4680    -5.6380     0.3820 H     1 <1>   0.0800 
 38 H        4.0540    -4.1560     1.1190 H     1 <1>   0.0800 
 39 H        4.4910    -5.1410    -1.6890 H     1 <1>   0.0800 
 40 H        6.7670    -4.2030    -1.1370 H     1 <1>   0.4500 
 41 H        5.9580    -4.7220     1.6200 H     1 <1>   0.0800 
 42 H        7.6100    -4.8230     1.0820 H     1 <1>   0.0800 
 43 H        5.8920    -6.8340    -0.0900 H     1 <1>   0.0800 
 44 H        7.5290    -6.4210    -0.5590 H     1 <1>   0.0800 
 45 H        6.2630    -6.4770    -1.7630 H     1 <1>   0.0800 
 46 H        5.2410    -2.6390     2.4030 H     1 <1>   0.1500 
 47 H        8.8290    -3.9590    -0.5630 H     1 <1>   0.1500 
 48 H        5.3320    -0.2400     2.4370 H     1 <1>   0.1500 
 49 H        8.7060     0.9340    -0.7630 H     1 <1>   0.1500 
 50 H       10.3660    -2.7510    -2.0010 H     1 <1>   0.1500 
 51 H        6.1550     1.8060     1.7250 H     1 <1>   0.0800 
 52 H        6.6400     1.8300     0.0530 H     1 <1>   0.0800 
 53 H        7.8490     1.8000     1.3220 H     1 <1>   0.0800 
 54 H       10.2940    -0.3180    -2.1170 H     1 <1>   0.1500 
@<TRIPOS>BOND
  1   1   2  2   
  2   2   3  am  
  3   2   4  1   
  4   3   5  1   
  5   3   6  1   
  6   4   7  1   
  7   4  26  1   
  8   4  27  1   
  9   5   8  1   
 10   5  28  1   
 11   5  29  1   
 12   6  30  1   
 13   6  31  1   
 14   6  32  1   
 15   7   8  1   
 16   7   9  1   
 17   7  33  1   
 18   8  10  1   
 19   8  34  1   
 20   9  11  1   
 21   9  35  1   
 22   9  36  1   
 23  10  11  1   
 24  10  37  1   
 25  10  38  1   
 26  11  12  1   
 27  11  39  1   
 28  12  13  1   
 29  12  14  1   
 30  12  40  1   
 31  13  15  1   
 32  13  41  1   
 33  13  42  1   
 34  14  43  1   
 35  14  44  1   
 36  14  45  1   
 37  15  16  ar  
 38  15  17  ar  
 39  16  18  ar  
 40  16  19  ar  
 41  17  20  ar  
 42  17  46  1   
 43  18  21  ar  
 44  18  22  ar  
 45  19  23  ar  
 46  19  47  1   
 47  20  21  ar  
 48  20  48  1   
 49  21  24  1   
 50  22  25  ar  
 51  22  49  1   
 52  23  25  ar  
 53  23  50  1   
 54  24  51  1   
 55  24  52  1   
 56  24  53  1   
 57  25  54  1   
@<TRIPOS>SUBSTRUCTURE
  1 ****   9 GROUP 4 **** **** 0

# MOE 2024.06 (io_trps.svl 2023.06)
