@<TRIPOS>MOLECULE
NONAME
44 46 1 0 0 
SMALL
USER_CHARGES


@<TRIPOS>ATOM
  1 O        0.8120    -0.0710     1.3970 O.2   1 <1>  -0.5700 
  2 C        1.6960    -0.6220     0.7640 C.2   1 <1>   0.5440 
  3 N        2.7050     0.1710     0.2470 N.am  1 <1>  -0.6600 
  4 C        1.6230    -2.0540     0.5410 C.ar  1 <1>   0.0860 
  5 C        2.9850     1.4990     0.8970 C.3   1 <1>   0.1400 
  6 C        3.3490    -0.1750    -1.0610 C.3   1 <1>   0.1400 
  7 C        0.4200    -2.6670     0.1740 C.ar  1 <1>   0.0830 
  8 C        2.7410    -2.8800     0.6760 C.ar  1 <1>  -0.1500 
  9 C        4.4710     1.8010     1.2210 C.3   1 <1>   0.4230 
 10 C        4.8190     0.2570    -1.2210 C.3   1 <1>  -0.0800 
 11 O       -0.7110    -1.9470     0.1030 O.3   1 <1>  -0.5330 
 12 C        0.3540    -4.0210    -0.1050 C.ar  1 <1>  -0.1500 
 13 C        2.6750    -4.2350     0.4080 C.ar  1 <1>  -0.1500 
 14 N        5.2430     2.3930     0.0670 N.4   1 <1>  -0.9590 
 15 C        5.2420     0.6040     1.8350 C.3   1 <1>   0.1200 
 16 C        5.8220    -0.4390    -0.2750 C.3   1 <1>   0.1200 
 17 C        4.9390     1.7810    -1.2580 C.3   1 <1>   0.3430 
 18 C        1.4820    -4.8130     0.0060 C.ar  1 <1>  -0.1430 
 19 C        5.0740     3.8790     0.0020 C.3   1 <1>   0.2630 
 20 O        5.3380    -0.5360     1.0260 O.3   1 <1>  -0.5600 
 21 C        1.4220    -6.3000    -0.2920 C.3   1 <1>  -0.0970 
 22 H        2.5670     2.2840     0.2930 H     1 <1>   0.0800 
 23 H        2.4660     1.5310     1.8400 H     1 <1>   0.0800 
 24 H        3.2980    -1.2370    -1.2250 H     1 <1>   0.0800 
 25 H        2.7630     0.2780    -1.8440 H     1 <1>   0.0800 
 26 H        3.6740    -2.4510     0.9950 H     1 <1>   0.1500 
 27 H        4.4510     2.5510     1.9930 H     1 <1>   0.0800 
 28 H        5.0930    -0.0600    -2.2120 H     1 <1>   0.0800 
 29 H       -0.6070    -1.0650     0.5320 H     1 <1>   0.4500 
 30 H       -0.5900    -4.4440    -0.3990 H     1 <1>   0.1500 
 31 H        3.5570    -4.8440     0.5160 H     1 <1>   0.1500 
 32 H        6.2320     2.1920     0.2670 H     1 <1>   0.4500 
 33 H        4.7350     0.2930     2.7330 H     1 <1>   0.0800 
 34 H        6.2380     0.9000     2.1120 H     1 <1>   0.0800 
 35 H        6.7810     0.0490    -0.2610 H     1 <1>   0.0800 
 36 H        5.9730    -1.4510    -0.6120 H     1 <1>   0.0800 
 37 H        4.0170     2.1870    -1.6430 H     1 <1>   0.0800 
 38 H        5.7230     2.0480    -1.9490 H     1 <1>   0.0800 
 39 H        4.0460     4.1320    -0.2030 H     1 <1>   0.0800 
 40 H        5.6920     4.2930    -0.7800 H     1 <1>   0.0800 
 41 H        5.3600     4.3320     0.9370 H     1 <1>   0.0800 
 42 H        2.2160    -6.5760    -0.9620 H     1 <1>   0.0800 
 43 H        0.4840    -6.5610    -0.7490 H     1 <1>   0.0800 
 44 H        1.5260    -6.8590     0.6210 H     1 <1>   0.0800 
@<TRIPOS>BOND
  1   1   2  2   
  2   2   3  am  
  3   2   4  1   
  4   3   5  1   
  5   3   6  1   
  6   4   7  ar  
  7   4   8  ar  
  8   5   9  1   
  9   5  22  1   
 10   5  23  1   
 11   6  10  1   
 12   6  24  1   
 13   6  25  1   
 14   7  11  1   
 15   7  12  ar  
 16   8  13  ar  
 17   8  26  1   
 18   9  14  1   
 19   9  15  1   
 20   9  27  1   
 21  10  16  1   
 22  10  17  1   
 23  10  28  1   
 24  11  29  1   
 25  12  18  ar  
 26  12  30  1   
 27  13  18  ar  
 28  13  31  1   
 29  14  17  1   
 30  14  19  1   
 31  14  32  1   
 32  15  20  1   
 33  15  33  1   
 34  15  34  1   
 35  16  20  1   
 36  16  35  1   
 37  16  36  1   
 38  17  37  1   
 39  17  38  1   
 40  18  21  1   
 41  19  39  1   
 42  19  40  1   
 43  19  41  1   
 44  21  42  1   
 45  21  43  1   
 46  21  44  1   
@<TRIPOS>SUBSTRUCTURE
  1 ****   3 GROUP 4 **** **** 0

# MOE 2024.06 (io_trps.svl 2023.06)
