@<TRIPOS>MOLECULE
NONAME
45 47 1 0 0 
SMALL
USER_CHARGES


@<TRIPOS>ATOM
  1 O       -1.7050    -0.3210     2.1130 O.2   1 <1>  -0.5700 
  2 C       -1.1340     0.5080     1.4460 C.2   1 <1>   0.5690 
  3 N       -1.0030     0.3890     0.1010 N.am  1 <1>  -0.7300 
  4 C       -0.5490     1.7480     2.1310 C.3   1 <1>   0.1710 
  5 C       -1.4810    -0.7500    -0.7270 C.3   1 <1>   0.1400 
  6 N        0.5400     2.4330     1.3660 N.3   1 <1>  -0.8100 
  7 C       -3.0140    -0.7880    -0.8180 C.3   1 <1>   0.2000 
  8 C        0.7630     3.8070     1.8920 C.3   1 <1>   0.2900 
  9 C        1.7740     1.6260     1.3850 C.3   1 <1>   0.0300 
 10 O       -3.3960    -1.7400    -1.7560 O.3   1 <1>  -0.5600 
 11 C       -3.6630     0.4980    -1.3180 C.3   1 <1>  -0.1600 
 12 C        1.6810     4.6770     1.0340 C.2   1 <1>   0.2980 
 13 C       -4.7020    -1.4980    -2.1660 C.3   1 <1>   0.1200 
 14 C       -4.9260     0.0040    -2.0060 C.3   1 <1>  -0.1600 
 15 O        2.9740     4.4950     1.1170 O.3   1 <1>  -0.0190 
 16 N        1.3150     5.6060     0.2480 N.2   1 <1>  -0.5650 
 17 N        3.4730     5.3730     0.3070 N.2   1 <1>  -0.4100 
 18 C        2.4960     6.0310    -0.2110 C.2   1 <1>   0.4620 
 19 C        2.6210     7.1100    -1.1720 C.ar  1 <1>   0.0540 
 20 C        3.8510     7.5560    -1.6380 C.ar  1 <1>  -0.1500 
 21 C        1.5270     7.7830    -1.7010 C.ar  1 <1>  -0.1500 
 22 C        3.9240     8.5900    -2.5520 C.ar  1 <1>   0.1600 
 23 C        1.7050     8.8070    -2.6120 C.ar  1 <1>   0.1600 
 24 N        2.8790     9.2280    -3.0510 N.ar  1 <1>  -0.6200 
 25 H       -0.4680     1.1270    -0.3690 H     1 <1>   0.3700 
 26 H       -0.1900     1.4630     3.1040 H     1 <1>   0.0800 
 27 H       -1.3690     2.4300     2.2710 H     1 <1>   0.0800 
 28 H       -1.1380    -1.6710    -0.2880 H     1 <1>   0.0800 
 29 H       -1.0690    -0.6620    -1.7170 H     1 <1>   0.0800 
 30 H       -3.4330    -1.0810     0.1300 H     1 <1>   0.0800 
 31 H        1.1630     3.7560     2.8900 H     1 <1>   0.0800 
 32 H       -0.1860     4.3130     1.9450 H     1 <1>   0.0800 
 33 H        1.5710     0.6190     1.0620 H     1 <1>   0.0800 
 34 H        2.1920     1.5910     2.3780 H     1 <1>   0.0800 
 35 H        2.5030     2.0410     0.7110 H     1 <1>   0.0800 
 36 H       -3.0160     0.9790    -2.0300 H     1 <1>   0.0800 
 37 H       -3.8670     1.1740    -0.5070 H     1 <1>   0.0800 
 38 H       -5.3620    -2.0620    -1.5290 H     1 <1>   0.0800 
 39 H       -4.8070    -1.8220    -3.1870 H     1 <1>   0.0800 
 40 H       -5.0640     0.4780    -2.9610 H     1 <1>   0.0800 
 41 H       -5.7960     0.1780    -1.3970 H     1 <1>   0.0800 
 42 H        4.7560     7.0950    -1.2870 H     1 <1>   0.1500 
 43 H        0.5320     7.5080    -1.4010 H     1 <1>   0.1500 
 44 H        4.8940     8.9110    -2.8930 H     1 <1>   0.1500 
 45 H        0.8350     9.3080    -3.0020 H     1 <1>   0.1500 
@<TRIPOS>BOND
  1   1   2  2   
  2   2   3  am  
  3   2   4  1   
  4   3   5  1   
  5   3  25  1   
  6   4   6  1   
  7   4  26  1   
  8   4  27  1   
  9   5   7  1   
 10   5  28  1   
 11   5  29  1   
 12   6   8  1   
 13   6   9  1   
 14   7  10  1   
 15   7  11  1   
 16   7  30  1   
 17   8  12  1   
 18   8  31  1   
 19   8  32  1   
 20   9  33  1   
 21   9  34  1   
 22   9  35  1   
 23  10  13  1   
 24  11  14  1   
 25  11  36  1   
 26  11  37  1   
 27  12  15  1   
 28  12  16  2   
 29  13  14  1   
 30  13  38  1   
 31  13  39  1   
 32  14  40  1   
 33  14  41  1   
 34  15  17  1   
 35  16  18  1   
 36  17  18  2   
 37  18  19  1   
 38  19  20  ar  
 39  19  21  ar  
 40  20  22  ar  
 41  20  42  1   
 42  21  23  ar  
 43  21  43  1   
 44  22  24  ar  
 45  22  44  1   
 46  23  24  ar  
 47  23  45  1   
@<TRIPOS>SUBSTRUCTURE
  1 ****   6 GROUP 4 **** **** 0

# MOE 2024.06 (io_trps.svl 2023.06)
