@<TRIPOS>MOLECULE
NONAME
52 54 1 0 0 
SMALL
USER_CHARGES


@<TRIPOS>ATOM
  1 O        1.5310    -0.3600    -1.7350 O.co2 1 <1>  -0.9000 
  2 C        1.4620    -1.5790    -1.9590 C.2   1 <1>   0.9790 
  3 O        0.9830    -1.9810    -3.0330 O.co2 1 <1>  -0.9000 
  4 C        1.9250    -2.5380    -0.9660 C.ar  1 <1>  -0.1790 
  5 C        2.0470    -3.8830    -1.2630 C.ar  1 <1>  -0.1500 
  6 C        2.2630    -2.1280     0.3350 C.ar  1 <1>  -0.1500 
  7 C        2.4030    -4.8520    -0.3140 C.ar  1 <1>   0.0000 
  8 C        2.7480    -3.0210     1.2510 C.ar  1 <1>  -0.1500 
  9 C        2.3460    -6.2740    -0.4780 C.ar  1 <1>   0.1000 
 10 C        2.8900    -4.3720     0.9110 C.ar  1 <1>   0.3610 
 11 N        1.2410    -6.9140    -0.9850 N.pl3 1 <1>  -0.8380 
 12 C        3.3910    -6.9840     0.1430 C.ar  1 <1>  -0.1440 
 13 N        3.5900    -5.2350     1.7140 N.ar  1 <1>  -0.1790 
 14 C        0.8020    -8.2860    -0.5130 C.3   1 <1>   0.2090 
 15 C        0.0920    -6.2700    -1.7100 C.3   1 <1>   0.2090 
 16 C        3.9390    -6.4700     1.3050 C.ar  1 <1>   0.2180 
 17 C        3.9020    -8.2870    -0.4930 C.3   1 <1>  -0.0170 
 18 C       -0.6320    -8.2790     0.0820 C.3   1 <1>  -0.0800 
 19 C       -1.0150    -5.9080    -0.7080 C.3   1 <1>  -0.1600 
 20 C        4.9390    -7.2030     2.1940 C.3   1 <1>  -0.0970 
 21 C        5.3180    -8.1140    -1.0610 C.3   1 <1>  -0.1600 
 22 C       -1.0620    -6.8590     0.4980 C.3   1 <1>   0.2000 
 23 C       -0.7450    -9.2530     1.2630 C.3   1 <1>   0.1200 
 24 C        5.8170    -9.4080    -1.7120 C.3   1 <1>  -0.2400 
 25 O       -0.1360    -6.3930     1.4060 O.3   1 <1>  -0.6800 
 26 O       -0.3570   -10.5200     0.8540 O.3   1 <1>  -0.6800 
 27 H        1.8710    -4.1790    -2.2810 H     1 <1>   0.1500 
 28 H        2.1450    -1.0810     0.5780 H     1 <1>   0.1500 
 29 H        3.0330    -2.6690     2.2250 H     1 <1>   0.1500 
 30 H        3.9420    -4.8620     2.5950 H     1 <1>   0.4570 
 31 H        0.8510    -8.9840    -1.3310 H     1 <1>   0.0800 
 32 H        1.4660    -8.6370     0.2550 H     1 <1>   0.0800 
 33 H        0.3670    -5.4180    -2.2910 H     1 <1>   0.0800 
 34 H       -0.2970    -6.9840    -2.4160 H     1 <1>   0.0800 
 35 H        3.8700    -9.0960     0.2150 H     1 <1>   0.0800 
 36 H        3.2740    -8.5640    -1.3210 H     1 <1>   0.0800 
 37 H       -1.3160    -8.6120    -0.6770 H     1 <1>   0.0800 
 38 H       -1.9540    -5.9500    -1.2280 H     1 <1>   0.0800 
 39 H       -0.8910    -4.8910    -0.3760 H     1 <1>   0.0800 
 40 H        5.0360    -8.2390     1.9280 H     1 <1>   0.0800 
 41 H        4.6230    -7.1670     3.2210 H     1 <1>   0.0800 
 42 H        5.9090    -6.7450     2.1120 H     1 <1>   0.0800 
 43 H        5.3060    -7.3310    -1.8010 H     1 <1>   0.0800 
 44 H        6.0090    -7.8270    -0.2890 H     1 <1>   0.0800 
 45 H       -2.0300    -6.8470     0.9700 H     1 <1>   0.0800 
 46 H       -1.7530    -9.3060     1.6370 H     1 <1>   0.0800 
 47 H       -0.0920    -8.9520     2.0660 H     1 <1>   0.0800 
 48 H        5.1670    -9.6990    -2.5190 H     1 <1>   0.0800 
 49 H        5.8550   -10.2070    -0.9930 H     1 <1>   0.0800 
 50 H        6.8060    -9.2610    -2.1110 H     1 <1>   0.0800 
 51 H        0.6890    -6.3210     0.8720 H     1 <1>   0.4000 
 52 H       -1.0720   -10.9600     0.3520 H     1 <1>   0.4000 
@<TRIPOS>BOND
  1   1   2  ar  
  2   2   3  ar  
  3   2   4  1   
  4   4   5  ar  
  5   4   6  ar  
  6   5   7  ar  
  7   5  27  1   
  8   6   8  ar  
  9   6  28  1   
 10   7   9  ar  
 11   7  10  ar  
 12   8  10  ar  
 13   8  29  1   
 14   9  11  1   
 15   9  12  ar  
 16  10  13  ar  
 17  11  14  1   
 18  11  15  1   
 19  12  16  ar  
 20  12  17  1   
 21  13  16  ar  
 22  13  30  1   
 23  14  18  1   
 24  14  31  1   
 25  14  32  1   
 26  15  19  1   
 27  15  33  1   
 28  15  34  1   
 29  16  20  1   
 30  17  21  1   
 31  17  35  1   
 32  17  36  1   
 33  18  22  1   
 34  18  23  1   
 35  18  37  1   
 36  19  22  1   
 37  19  38  1   
 38  19  39  1   
 39  20  40  1   
 40  20  41  1   
 41  20  42  1   
 42  21  24  1   
 43  21  43  1   
 44  21  44  1   
 45  22  25  1   
 46  22  45  1   
 47  23  26  1   
 48  23  46  1   
 49  23  47  1   
 50  24  48  1   
 51  24  49  1   
 52  24  50  1   
 53  25  51  1   
 54  26  52  1   
@<TRIPOS>SUBSTRUCTURE
  1 ****   9 GROUP 4 **** **** 0

# MOE 2024.06 (io_trps.svl 2023.06)
