@<TRIPOS>MOLECULE
NONAME
55 58 1 0 0 
SMALL
USER_CHARGES


@<TRIPOS>ATOM
  1 O        1.6500    -0.0410    -0.9000 O.2   1 <1>  -0.5700 
  2 C        2.0660    -0.6540     0.0520 C.2   1 <1>   0.5690 
  3 N        2.7860    -0.0160     1.0290 N.am  1 <1>  -0.6600 
  4 C        1.8330    -2.1550     0.1180 C.3   1 <1>  -0.0990 
  5 C        3.9900    -0.6220     1.6630 C.3   1 <1>   0.1400 
  6 C        2.5950     1.4420     1.2600 C.3   1 <1>   0.1400 
  7 C        0.4880    -2.5740    -0.4950 C.3   1 <1>  -0.0160 
  8 C        5.1690    -0.6450     0.6660 C.3   1 <1>   0.3430 
  9 C        3.7980     2.2620     0.7810 C.3   1 <1>  -0.1600 
 10 C        0.2920    -4.0750    -0.3540 C.ar  1 <1>  -0.1440 
 11 N        5.6500     0.7080     0.2080 N.4   1 <1>  -0.9590 
 12 C        4.5850     1.6040    -0.3530 C.3   1 <1>   0.3430 
 13 C       -0.3430    -4.6090     0.7600 C.ar  1 <1>   0.1600 
 14 C        0.7460    -4.9360    -1.3330 C.ar  1 <1>  -0.1500 
 15 C        6.7620     0.5560    -0.7700 C.3   1 <1>   0.4860 
 16 N       -0.5450    -5.9000     0.9740 N.ar  1 <1>  -0.6200 
 17 C        0.5400    -6.2840    -1.1290 C.ar  1 <1>  -0.1500 
 18 C        7.4890     1.8820    -0.8720 C.ar  1 <1>  -0.1440 
 19 C       -0.1010    -6.7050     0.0240 C.ar  1 <1>   0.1600 
 20 C        8.3200     2.3020     0.1630 C.ar  1 <1>  -0.1500 
 21 C        7.3230     2.6820    -2.0020 C.ar  1 <1>  -0.1500 
 22 C        8.9550     3.5240     0.0540 C.ar  1 <1>  -0.1440 
 23 C        7.9660     3.9050    -2.0980 C.ar  1 <1>  -0.1500 
 24 C        8.7750     4.3070    -1.0540 C.ar  1 <1>   0.0820 
 25 C        9.8950     4.2320     0.9880 C.3   1 <1>  -0.0170 
 26 O        9.4600     5.4590    -1.0020 O.3   1 <1>  -0.3620 
 27 C       10.2100     5.5200     0.2030 C.3   1 <1>   0.1200 
 28 H        1.8450    -2.4710     1.1440 H     1 <1>   0.0800 
 29 H        2.6280    -2.6520    -0.4040 H     1 <1>   0.0800 
 30 H        3.7680    -1.6290     1.9700 H     1 <1>   0.0800 
 31 H        4.2610    -0.0710     2.5470 H     1 <1>   0.0800 
 32 H        2.4180     1.6200     2.3070 H     1 <1>   0.0800 
 33 H        1.7140     1.7710     0.7320 H     1 <1>   0.0800 
 34 H        0.4560    -2.3030    -1.5370 H     1 <1>   0.0800 
 35 H       -0.3150    -2.0530    -0.0020 H     1 <1>   0.0800 
 36 H        4.8650    -1.2220    -0.1920 H     1 <1>   0.0800 
 37 H        5.9890    -1.1690     1.1300 H     1 <1>   0.0800 
 38 H        4.4450     2.4960     1.6070 H     1 <1>   0.0800 
 39 H        3.4140     3.2000     0.4210 H     1 <1>   0.0800 
 40 H        6.0550     1.2160     1.0040 H     1 <1>   0.4500 
 41 H        5.0450     2.3900    -0.9300 H     1 <1>   0.0800 
 42 H        3.9210     1.0580    -1.0050 H     1 <1>   0.0800 
 43 H       -0.7040    -3.9390     1.5210 H     1 <1>   0.1500 
 44 H        1.2390    -4.5780    -2.2210 H     1 <1>   0.1500 
 45 H        6.3780     0.2650    -1.7340 H     1 <1>   0.0800 
 46 H        7.4560    -0.1970    -0.4340 H     1 <1>   0.0800 
 47 H        0.8690    -7.0040    -1.8560 H     1 <1>   0.1500 
 48 H       -0.2560    -7.7600     0.1720 H     1 <1>   0.1500 
 49 H        8.4850     1.7010     1.0410 H     1 <1>   0.1500 
 50 H        6.6960     2.3660    -2.8190 H     1 <1>   0.1500 
 51 H        7.8530     4.5410    -2.9580 H     1 <1>   0.1500 
 52 H       10.7880     3.6590     1.1570 H     1 <1>   0.0800 
 53 H        9.4210     4.4620     1.9250 H     1 <1>   0.0800 
 54 H       11.2520     5.5800    -0.0550 H     1 <1>   0.0800 
 55 H        9.9080     6.4000     0.7430 H     1 <1>   0.0800 
@<TRIPOS>BOND
  1   1   2  2   
  2   2   3  am  
  3   2   4  1   
  4   3   5  1   
  5   3   6  1   
  6   4   7  1   
  7   4  28  1   
  8   4  29  1   
  9   5   8  1   
 10   5  30  1   
 11   5  31  1   
 12   6   9  1   
 13   6  32  1   
 14   6  33  1   
 15   7  10  1   
 16   7  34  1   
 17   7  35  1   
 18   8  11  1   
 19   8  36  1   
 20   8  37  1   
 21   9  12  1   
 22   9  38  1   
 23   9  39  1   
 24  10  13  ar  
 25  10  14  ar  
 26  11  12  1   
 27  11  15  1   
 28  11  40  1   
 29  12  41  1   
 30  12  42  1   
 31  13  16  ar  
 32  13  43  1   
 33  14  17  ar  
 34  14  44  1   
 35  15  18  1   
 36  15  45  1   
 37  15  46  1   
 38  16  19  ar  
 39  17  19  ar  
 40  17  47  1   
 41  18  20  ar  
 42  18  21  ar  
 43  19  48  1   
 44  20  22  ar  
 45  20  49  1   
 46  21  23  ar  
 47  21  50  1   
 48  22  24  ar  
 49  22  25  1   
 50  23  24  ar  
 51  23  51  1   
 52  24  26  1   
 53  25  27  1   
 54  25  52  1   
 55  25  53  1   
 56  26  27  1   
 57  27  54  1   
 58  27  55  1   
@<TRIPOS>SUBSTRUCTURE
  1 ****   8 GROUP 4 **** **** 0

# MOE 2024.06 (io_trps.svl 2023.06)
