@<TRIPOS>MOLECULE
NONAME
60 62 1 0 0 
SMALL
USER_CHARGES


@<TRIPOS>ATOM
  1 O       -0.5220     2.3140     2.8880 O.2   1 <1>  -0.5700 
  2 C       -0.0920     3.0170     2.0020 C.2   1 <1>   0.5690 
  3 N       -0.9460     3.5900     1.0820 N.am  1 <1>  -0.6600 
  4 C        1.4330     3.1980     1.9940 C.3   1 <1>  -0.0190 
  5 C       -2.4130     3.2940     1.1290 C.3   1 <1>   0.1400 
  6 C       -0.5900     4.4960    -0.0450 C.3   1 <1>   0.1400 
  7 C        1.8910     4.6390     2.3060 C.3   1 <1>  -0.1600 
  8 C        2.1210     2.6060     0.7450 C.3   1 <1>  -0.1600 
  9 C       -2.8970     2.6130    -0.1740 C.3   1 <1>   0.0000 
 10 C       -1.0140     3.8610    -1.3730 C.3   1 <1>  -0.1600 
 11 C        3.4170     4.7520     2.3130 C.3   1 <1>   0.1400 
 12 C        3.6400     2.7820     0.8020 C.3   1 <1>   0.1400 
 13 C       -4.4140     2.3560    -0.0650 C.3   1 <1>   0.2000 
 14 C       -2.5090     3.5020    -1.3800 C.3   1 <1>  -0.1600 
 15 C       -2.3220     1.1900    -0.2890 C.3   1 <1>  -0.1600 
 16 N        3.9600     4.2170     1.0350 N.am  1 <1>  -0.6600 
 17 O       -4.9500     2.1410    -1.3400 O.3   1 <1>  -0.5600 
 18 C       -4.5430     1.0570     0.7440 C.3   1 <1>  -0.1600 
 19 C       -3.2150     0.3040     0.5840 C.3   1 <1>  -0.1600 
 20 C        4.7540     4.9890     0.2140 C.2   1 <1>   0.5690 
 21 C       -6.3140     2.3910    -1.4590 C.3   1 <1>   0.0400 
 22 O        4.9430     6.1630     0.4470 O.2   1 <1>  -0.5700 
 23 C        5.4000     4.4320    -1.0600 C.3   1 <1>   0.1810 
 24 O        6.2170     3.3130    -0.8150 O.3   1 <1>  -0.5600 
 25 C        6.8950     2.8510    -1.9330 C.3   1 <1>   0.1200 
 26 C        7.6640     1.6050    -1.5150 C.3   1 <1>  -0.2400 
 27 H        1.7920     2.6050     2.8190 H     1 <1>   0.0800 
 28 H       -2.6480     2.6720     1.9740 H     1 <1>   0.0800 
 29 H       -2.9400     4.2220     1.2630 H     1 <1>   0.0800 
 30 H       -1.1050     5.4320     0.0880 H     1 <1>   0.0800 
 31 H        0.4590     4.7060    -0.0770 H     1 <1>   0.0800 
 32 H        1.5150     4.9270     3.2720 H     1 <1>   0.0800 
 33 H        1.5080     5.3440     1.5960 H     1 <1>   0.0800 
 34 H        1.7650     3.0630    -0.1560 H     1 <1>   0.0800 
 35 H        1.8920     1.5570     0.6810 H     1 <1>   0.0800 
 36 H       -0.8090     4.5480    -2.1750 H     1 <1>   0.0800 
 37 H       -0.4260     2.9770    -1.5440 H     1 <1>   0.0800 
 38 H        3.8250     4.1830     3.1300 H     1 <1>   0.0800 
 39 H        3.7020     5.7810     2.4520 H     1 <1>   0.0800 
 40 H        4.0700     2.4240    -0.1150 H     1 <1>   0.0800 
 41 H        4.0500     2.1990     1.6090 H     1 <1>   0.0800 
 42 H       -4.9250     3.1850     0.3950 H     1 <1>   0.0800 
 43 H       -2.7490     3.0020    -2.3030 H     1 <1>   0.0800 
 44 H       -3.0880     4.4080    -1.3460 H     1 <1>   0.0800 
 45 H       -2.4070     0.8560    -1.3090 H     1 <1>   0.0800 
 46 H       -1.2900     1.1280     0.0070 H     1 <1>   0.0800 
 47 H       -4.6840     1.2990     1.7820 H     1 <1>   0.0800 
 48 H       -5.3740     0.4590     0.4150 H     1 <1>   0.0800 
 49 H       -2.7580     0.1610     1.5490 H     1 <1>   0.0800 
 50 H       -3.3640    -0.6560     0.1210 H     1 <1>   0.0800 
 51 H       -6.6080     2.1600    -2.4680 H     1 <1>   0.0800 
 52 H       -6.5010     3.4320    -1.2570 H     1 <1>   0.0800 
 53 H       -6.8580     1.7680    -0.7720 H     1 <1>   0.0800 
 54 H        6.0070     5.2020    -1.5020 H     1 <1>   0.0800 
 55 H        4.6280     4.1480    -1.7510 H     1 <1>   0.0800 
 56 H        6.1810     2.6150    -2.7040 H     1 <1>   0.0800 
 57 H        7.5690     3.6190    -2.2730 H     1 <1>   0.0800 
 58 H        6.9840     0.8520    -1.1600 H     1 <1>   0.0800 
 59 H        8.3660     1.8490    -0.7380 H     1 <1>   0.0800 
 60 H        8.2060     1.2110    -2.3560 H     1 <1>   0.0800 
@<TRIPOS>BOND
  1   1   2  2   
  2   2   3  am  
  3   2   4  1   
  4   3   5  1   
  5   3   6  1   
  6   4   7  1   
  7   4   8  1   
  8   4  27  1   
  9   5   9  1   
 10   5  28  1   
 11   5  29  1   
 12   6  10  1   
 13   6  30  1   
 14   6  31  1   
 15   7  11  1   
 16   7  32  1   
 17   7  33  1   
 18   8  12  1   
 19   8  34  1   
 20   8  35  1   
 21   9  13  1   
 22   9  14  1   
 23   9  15  1   
 24  10  14  1   
 25  10  36  1   
 26  10  37  1   
 27  11  16  1   
 28  11  38  1   
 29  11  39  1   
 30  12  16  1   
 31  12  40  1   
 32  12  41  1   
 33  13  17  1   
 34  13  18  1   
 35  13  42  1   
 36  14  43  1   
 37  14  44  1   
 38  15  19  1   
 39  15  45  1   
 40  15  46  1   
 41  16  20  am  
 42  17  21  1   
 43  18  19  1   
 44  18  47  1   
 45  18  48  1   
 46  19  49  1   
 47  19  50  1   
 48  20  22  2   
 49  20  23  1   
 50  21  51  1   
 51  21  52  1   
 52  21  53  1   
 53  23  24  1   
 54  23  54  1   
 55  23  55  1   
 56  24  25  1   
 57  25  26  1   
 58  25  56  1   
 59  25  57  1   
 60  26  58  1   
 61  26  59  1   
 62  26  60  1   
@<TRIPOS>SUBSTRUCTURE
  1 ****   8 GROUP 4 **** **** 0

# MOE 2024.06 (io_trps.svl 2023.06)
