@<TRIPOS>MOLECULE
NONAME
47 48 1 0 0 
SMALL
USER_CHARGES


@<TRIPOS>ATOM
  1 O        0.1850    -0.4110     0.4210 O.2   1 <1>  -0.5700 
  2 C        1.3170    -0.8130     0.3150 C.2   1 <1>   0.5690 
  3 N        2.4130    -0.0030     0.2170 N.am  1 <1>  -0.4940 
  4 C        1.5270    -2.3110     0.2780 C.3   1 <1>  -0.0990 
  5 C        2.5160     1.4070     0.1230 C.2   1 <1>  -0.0880 
  6 C        0.2260    -2.9900    -0.1610 C.3   1 <1>   0.3430 
  7 N        1.7390     2.3530     0.7270 N.pl3 1 <1>   0.3140 
  8 C        3.4530     2.0850    -0.5850 C.2   1 <1>  -0.1810 
  9 N        0.3710    -4.4740    -0.2660 N.4   1 <1>  -0.9590 
 10 N        2.1580     3.5990     0.4230 N.2   1 <1>  -0.7070 
 11 C        0.6370     2.1820     1.6820 C.3   1 <1>   0.0160 
 12 C        3.1750     3.4310    -0.3600 C.2   1 <1>   0.1080 
 13 C        4.5770     1.5420    -1.4510 C.3   1 <1>  -0.0590 
 14 C       -0.7880    -5.0390    -1.0210 C.3   1 <1>   0.3430 
 15 C        0.5050    -5.1290     1.0720 C.3   1 <1>   0.3430 
 16 C        3.9420     4.6090    -0.9330 C.3   1 <1>   0.0210 
 17 C       -0.5720    -6.5360    -1.2540 C.3   1 <1>  -0.1600 
 18 C        0.7500    -6.6280     0.8900 C.3   1 <1>  -0.1600 
 19 C        5.1110     5.0050    -0.0240 C.3   1 <1>  -0.2400 
 20 C       -0.3600    -7.2900     0.0650 C.3   1 <1>  -0.1600 
 21 H        3.3110    -0.4700     0.0970 H     1 <1>   0.3700 
 22 H        1.8090    -2.6280     1.2630 H     1 <1>   0.0800 
 23 H        2.3120    -2.5390    -0.4190 H     1 <1>   0.0800 
 24 H       -0.0590    -2.5850    -1.1200 H     1 <1>   0.0800 
 25 H       -0.5590    -2.7450     0.5380 H     1 <1>   0.0800 
 26 H        1.2140    -4.6950    -0.8110 H     1 <1>   0.4500 
 27 H        0.8370     1.3370     2.3130 H     1 <1>   0.0800 
 28 H       -0.2750     2.0290     1.1380 H     1 <1>   0.0800 
 29 H        0.5520     3.0680     2.2830 H     1 <1>   0.0800 
 30 H        4.5570     0.4690    -1.4820 H     1 <1>   0.0800 
 31 H        5.5260     1.8600    -1.0590 H     1 <1>   0.0800 
 32 H        4.4730     1.9130    -2.4550 H     1 <1>   0.0800 
 33 H       -0.8900    -4.5410    -1.9730 H     1 <1>   0.0800 
 34 H       -1.6970    -4.8900    -0.4610 H     1 <1>   0.0800 
 35 H       -0.3980    -4.9800     1.6430 H     1 <1>   0.0800 
 36 H        1.3280    -4.7000     1.6190 H     1 <1>   0.0800 
 37 H        3.2680     5.4420    -1.0320 H     1 <1>   0.0800 
 38 H        4.3060     4.3630    -1.9140 H     1 <1>   0.0800 
 39 H        0.2750    -6.6800    -1.9010 H     1 <1>   0.0800 
 40 H       -1.4330    -6.9400    -1.7590 H     1 <1>   0.0800 
 41 H        0.7990    -7.0960     1.8590 H     1 <1>   0.0800 
 42 H        1.7030    -6.7810     0.4130 H     1 <1>   0.0800 
 43 H        4.7370     5.2650     0.9510 H     1 <1>   0.0800 
 44 H        5.6310     5.8520    -0.4350 H     1 <1>   0.0800 
 45 H        5.7990     4.1860     0.0780 H     1 <1>   0.0800 
 46 H       -0.1050    -8.3180    -0.1370 H     1 <1>   0.0800 
 47 H       -1.2780    -7.2870     0.6310 H     1 <1>   0.0800 
@<TRIPOS>BOND
  1   1   2  2   
  2   2   3  am  
  3   2   4  1   
  4   3   5  1   
  5   3  21  1   
  6   4   6  1   
  7   4  22  1   
  8   4  23  1   
  9   5   7  1   
 10   5   8  2   
 11   6   9  1   
 12   6  24  1   
 13   6  25  1   
 14   7  10  1   
 15   7  11  1   
 16   8  12  1   
 17   8  13  1   
 18   9  14  1   
 19   9  15  1   
 20   9  26  1   
 21  10  12  2   
 22  11  27  1   
 23  11  28  1   
 24  11  29  1   
 25  12  16  1   
 26  13  30  1   
 27  13  31  1   
 28  13  32  1   
 29  14  17  1   
 30  14  33  1   
 31  14  34  1   
 32  15  18  1   
 33  15  35  1   
 34  15  36  1   
 35  16  19  1   
 36  16  37  1   
 37  16  38  1   
 38  17  20  1   
 39  17  39  1   
 40  17  40  1   
 41  18  20  1   
 42  18  41  1   
 43  18  42  1   
 44  19  43  1   
 45  19  44  1   
 46  19  45  1   
 47  20  46  1   
 48  20  47  1   
@<TRIPOS>SUBSTRUCTURE
  1 ****   2 GROUP 4 **** **** 0

# MOE 2024.06 (io_trps.svl 2023.06)
