@<TRIPOS>MOLECULE
NONAME
50 53 1 0 0 
SMALL
USER_CHARGES


@<TRIPOS>ATOM
  1 O       -0.2450    -1.6480    -2.1700 O.2   1 <1>  -0.5700 
  2 C        0.5680    -2.0910    -1.3940 C.2   1 <1>   0.5690 
  3 N        0.2680    -2.4400    -0.1060 N.am  1 <1>  -0.6600 
  4 C        2.0020    -2.2720    -1.8520 C.3   1 <1>  -0.0990 
  5 C        1.3200    -2.9890     0.7850 C.3   1 <1>   0.1400 
  6 C       -1.0900    -2.2720     0.4760 C.3   1 <1>   0.0600 
  7 C        2.5460    -3.6450    -1.4120 C.3   1 <1>  -0.0800 
  8 C        2.1460    -4.0450     0.0280 C.3   1 <1>  -0.0800 
  9 C        4.0760    -3.7370    -1.4700 C.3   1 <1>  -0.1600 
 10 C        3.4530    -4.4080     0.7470 C.3   1 <1>  -0.1600 
 11 C        4.4290    -4.7420    -0.3750 C.3   1 <1>   0.2200 
 12 N        5.8430    -4.7500     0.1030 N.am  1 <1>  -0.6600 
 13 C        6.8340    -3.9450    -0.4180 C.2   1 <1>   0.5440 
 14 C        6.2470    -6.0450     0.7180 C.3   1 <1>   0.0600 
 15 O        7.7620    -4.4810    -0.9960 O.2   1 <1>  -0.5700 
 16 C        6.8120    -2.5000    -0.2710 C.ar  1 <1>   0.0860 
 17 C        7.3280    -1.6640    -1.2600 C.ar  1 <1>  -0.1500 
 18 C        6.2780    -1.8810     0.8590 C.ar  1 <1>  -0.1500 
 19 C        7.2940    -0.2890    -1.1360 C.ar  1 <1>  -0.1500 
 20 C        6.2430    -0.5050     0.9830 C.ar  1 <1>  -0.1500 
 21 C        6.7480     0.3310    -0.0120 C.ar  1 <1>   0.0530 
 22 C        6.7110     1.7700     0.1170 C.2   1 <1>   0.0870 
 23 O        7.2050     2.5430    -0.8440 O.3   1 <1>  -0.2800 
 24 C        6.2340     2.5730     1.1090 C.2   1 <1>  -0.1500 
 25 C        7.0580     3.8020    -0.4960 C.2   1 <1>  -0.0100 
 26 C        6.4600     3.8910     0.7090 C.2   1 <1>  -0.1500 
 27 H        2.0540    -2.1790    -2.9210 H     1 <1>   0.0800 
 28 H        2.5810    -1.4770    -1.4180 H     1 <1>   0.0800 
 29 H        1.9530    -2.1770     1.1010 H     1 <1>   0.0800 
 30 H        0.8750    -3.4330     1.6590 H     1 <1>   0.0800 
 31 H       -1.0430    -1.6180     1.3290 H     1 <1>   0.0800 
 32 H       -1.4770    -3.2290     0.7790 H     1 <1>   0.0800 
 33 H       -1.7610    -1.8440    -0.2490 H     1 <1>   0.0800 
 34 H        2.1360    -4.3890    -2.0760 H     1 <1>   0.0800 
 35 H        1.5430    -4.9360    -0.0390 H     1 <1>   0.0800 
 36 H        4.4810    -2.7700    -1.2450 H     1 <1>   0.0800 
 37 H        4.4220    -4.0620    -2.4350 H     1 <1>   0.0800 
 38 H        3.3170    -5.2390     1.4150 H     1 <1>   0.0800 
 39 H        3.8210    -3.5600     1.2940 H     1 <1>   0.0800 
 40 H        4.1900    -5.7240    -0.7520 H     1 <1>   0.0800 
 41 H        5.6130    -6.2720     1.5570 H     1 <1>   0.0800 
 42 H        7.2660    -5.9880     1.0610 H     1 <1>   0.0800 
 43 H        6.1760    -6.8330    -0.0120 H     1 <1>   0.0800 
 44 H        7.7610    -2.1110    -2.1390 H     1 <1>   0.1500 
 45 H        5.8910    -2.4970     1.6510 H     1 <1>   0.1500 
 46 H        7.7010     0.3200    -1.9240 H     1 <1>   0.1500 
 47 H        5.8210    -0.0710     1.8710 H     1 <1>   0.1500 
 48 H        5.7690     2.2840     2.0330 H     1 <1>   0.1500 
 49 H        7.4060     4.5720    -1.1630 H     1 <1>   0.1500 
 50 H        6.2010     4.7740     1.2670 H     1 <1>   0.1500 
@<TRIPOS>BOND
  1   1   2  2   
  2   2   3  am  
  3   2   4  1   
  4   3   5  1   
  5   3   6  1   
  6   4   7  1   
  7   4  27  1   
  8   4  28  1   
  9   5   8  1   
 10   5  29  1   
 11   5  30  1   
 12   6  31  1   
 13   6  32  1   
 14   6  33  1   
 15   7   8  1   
 16   7   9  1   
 17   7  34  1   
 18   8  10  1   
 19   8  35  1   
 20   9  11  1   
 21   9  36  1   
 22   9  37  1   
 23  10  11  1   
 24  10  38  1   
 25  10  39  1   
 26  11  12  1   
 27  11  40  1   
 28  12  13  am  
 29  12  14  1   
 30  13  15  2   
 31  13  16  1   
 32  14  41  1   
 33  14  42  1   
 34  14  43  1   
 35  16  17  ar  
 36  16  18  ar  
 37  17  19  ar  
 38  17  44  1   
 39  18  20  ar  
 40  18  45  1   
 41  19  21  ar  
 42  19  46  1   
 43  20  21  ar  
 44  20  47  1   
 45  21  22  1   
 46  22  23  1   
 47  22  24  2   
 48  23  25  1   
 49  24  26  1   
 50  24  48  1   
 51  25  26  2   
 52  25  49  1   
 53  26  50  1   
@<TRIPOS>SUBSTRUCTURE
  1 ****  18 GROUP 4 **** **** 0

# MOE 2024.06 (io_trps.svl 2023.06)
