@<TRIPOS>MOLECULE
NONAME
51 53 1 0 0 
SMALL
USER_CHARGES


@<TRIPOS>ATOM
  1 S        0.1630    -0.0090     2.2920 S.o2  1 <1>   1.4470 
  2 O       -0.4180    -0.9690     3.2060 O.2   1 <1>  -0.6500 
  3 O        0.4780     1.3230     2.7620 O.2   1 <1>  -0.6500 
  4 N       -0.9130     0.1640     0.9950 N.am  1 <1>  -0.8490 
  5 C        1.6180    -0.7600     1.5050 C.ar  1 <1>  -0.0090 
  6 C       -2.2840     0.4220     1.4660 C.3   1 <1>   0.1960 
  7 C       -0.4960     1.2200     0.0670 C.3   1 <1>   0.1960 
  8 C        2.8750    -0.1740     1.5880 C.ar  1 <1>  -0.1500 
  9 C        1.5100    -1.9430     0.7860 C.ar  1 <1>  -0.1500 
 10 C       -3.2960     0.3640     0.3060 C.3   1 <1>   0.0000 
 11 C       -1.3950     1.2250    -1.1730 C.3   1 <1>  -0.1600 
 12 C        3.9750    -0.7490     0.9770 C.ar  1 <1>  -0.1500 
 13 C        2.6090    -2.5190     0.1740 C.ar  1 <1>  -0.1500 
 14 C       -4.7240     0.6030     0.8290 C.3   1 <1>   0.2000 
 15 C       -2.8760     1.3790    -0.7920 C.3   1 <1>  -0.1600 
 16 C       -3.4270    -1.0530    -0.2830 C.3   1 <1>  -0.1600 
 17 C        3.8750    -1.9380     0.2570 C.ar  1 <1>   0.0860 
 18 O       -4.9880     1.9610     1.0160 O.3   1 <1>  -0.5600 
 19 C       -5.6510    -0.0170    -0.2180 C.3   1 <1>  -0.1600 
 20 C       -4.8300    -1.1200    -0.9000 C.3   1 <1>  -0.1600 
 21 C        5.0420    -2.5300    -0.3760 C.2   1 <1>   0.5440 
 22 C       -6.1350     2.2420     1.7550 C.3   1 <1>   0.0400 
 23 O        5.9550    -1.8280    -0.7630 O.2   1 <1>  -0.5700 
 24 N        5.1400    -3.8870    -0.5340 N.am  1 <1>  -0.7300 
 25 C        6.2750    -4.6010    -1.1750 C.3   1 <1>   0.0600 
 26 H       -2.5600    -0.3150     2.2010 H     1 <1>   0.0800 
 27 H       -2.3310     1.3900     1.9390 H     1 <1>   0.0800 
 28 H       -0.5470     2.1800     0.5560 H     1 <1>   0.0800 
 29 H        0.5230     1.0550    -0.2430 H     1 <1>   0.0800 
 30 H        2.9940     0.7460     2.1380 H     1 <1>   0.1500 
 31 H        0.5430    -2.4140     0.7050 H     1 <1>   0.1500 
 32 H       -1.1060     2.0380    -1.8140 H     1 <1>   0.0800 
 33 H       -1.2390     0.3140    -1.7210 H     1 <1>   0.0800 
 34 H        4.9380    -0.2700     1.0530 H     1 <1>   0.1500 
 35 H        2.4790    -3.4290    -0.3850 H     1 <1>   0.1500 
 36 H       -4.8460     0.0910     1.7700 H     1 <1>   0.0800 
 37 H       -3.4920     1.2740    -1.6670 H     1 <1>   0.0800 
 38 H       -3.0160     2.3790    -0.4210 H     1 <1>   0.0800 
 39 H       -2.6620    -1.2880    -0.9990 H     1 <1>   0.0800 
 40 H       -3.3670    -1.7760     0.5140 H     1 <1>   0.0800 
 41 H       -6.5340    -0.4220     0.2430 H     1 <1>   0.0800 
 42 H       -5.9290     0.7260    -0.9470 H     1 <1>   0.0800 
 43 H       -5.2680    -2.0910    -0.7450 H     1 <1>   0.0800 
 44 H       -4.7760    -0.9290    -1.9580 H     1 <1>   0.0800 
 45 H       -6.2150     3.3110     1.8510 H     1 <1>   0.0800 
 46 H       -6.0480     1.7970     2.7310 H     1 <1>   0.0800 
 47 H       -6.9980     1.8620     1.2390 H     1 <1>   0.0800 
 48 H        4.4300    -4.4820    -0.1040 H     1 <1>   0.3700 
 49 H        6.9610    -3.8990    -1.6180 H     1 <1>   0.0800 
 50 H        5.9060    -5.2550    -1.9460 H     1 <1>   0.0800 
 51 H        6.8020    -5.1810    -0.4380 H     1 <1>   0.0800 
@<TRIPOS>BOND
  1   1   2  2   
  2   1   3  2   
  3   1   4  am  
  4   1   5  1   
  5   4   6  1   
  6   4   7  1   
  7   5   8  ar  
  8   5   9  ar  
  9   6  10  1   
 10   6  26  1   
 11   6  27  1   
 12   7  11  1   
 13   7  28  1   
 14   7  29  1   
 15   8  12  ar  
 16   8  30  1   
 17   9  13  ar  
 18   9  31  1   
 19  10  14  1   
 20  10  15  1   
 21  10  16  1   
 22  11  15  1   
 23  11  32  1   
 24  11  33  1   
 25  12  17  ar  
 26  12  34  1   
 27  13  17  ar  
 28  13  35  1   
 29  14  18  1   
 30  14  19  1   
 31  14  36  1   
 32  15  37  1   
 33  15  38  1   
 34  16  20  1   
 35  16  39  1   
 36  16  40  1   
 37  17  21  1   
 38  18  22  1   
 39  19  20  1   
 40  19  41  1   
 41  19  42  1   
 42  20  43  1   
 43  20  44  1   
 44  21  23  2   
 45  21  24  am  
 46  22  45  1   
 47  22  46  1   
 48  22  47  1   
 49  24  25  1   
 50  24  48  1   
 51  25  49  1   
 52  25  50  1   
 53  25  51  1   
@<TRIPOS>SUBSTRUCTURE
  1 ****   4 GROUP 4 **** **** 0

# MOE 2024.06 (io_trps.svl 2023.06)
