@<TRIPOS>MOLECULE
NONAME
48 49 1 0 0 
SMALL
USER_CHARGES


@<TRIPOS>ATOM
  1 CL       1.0720    -0.3590     0.6050 Cl    1 <1>  -0.1770 
  2 C        0.5770    -1.9460     0.0810 C.ar  1 <1>   0.1770 
  3 C        1.2940    -3.0520     0.4930 C.ar  1 <1>  -0.1500 
  4 C       -0.5250    -2.0750    -0.7400 C.ar  1 <1>  -0.1500 
  5 C        0.9100    -4.3210     0.0860 C.ar  1 <1>  -0.1440 
  6 C       -0.9160    -3.3380    -1.1470 C.ar  1 <1>  -0.1500 
  7 C       -0.2120    -4.4640    -0.7310 C.ar  1 <1>  -0.1430 
  8 C        1.7500    -5.5070     0.5490 C.3   1 <1>  -0.0960 
  9 C       -0.6980    -5.8280    -1.1870 C.3   1 <1>   0.4870 
 10 N       -1.4320    -6.4750    -0.0630 N.4   1 <1>  -0.9590 
 11 C       -1.7190    -7.9260    -0.3600 C.3   1 <1>   0.3430 
 12 C       -2.6380    -5.6740     0.3320 C.3   1 <1>   0.3430 
 13 C       -3.1760    -8.1510    -0.7940 C.3   1 <1>   0.2000 
 14 C       -3.6100    -6.5390     1.1380 C.3   1 <1>  -0.1600 
 15 O       -3.3150    -9.4810    -1.1540 O.3   1 <1>  -0.6800 
 16 C       -4.1840    -7.7390     0.3260 C.3   1 <1>   0.0000 
 17 C       -4.4140    -8.9300     1.3040 C.3   1 <1>   0.1200 
 18 C       -5.5550    -7.3720    -0.3170 C.3   1 <1>  -0.1600 
 19 O       -5.2290    -8.5640     2.3680 O.3   1 <1>  -0.6800 
 20 C       -5.5940    -6.1220    -1.2190 C.3   1 <1>  -0.1600 
 21 C       -6.9990    -5.9220    -1.7930 C.3   1 <1>  -0.2400 
 22 H        2.1510    -2.9010     1.1260 H     1 <1>   0.1500 
 23 H       -1.0590    -1.1950    -1.0530 H     1 <1>   0.1500 
 24 H       -1.7740    -3.4250    -1.7930 H     1 <1>   0.1500 
 25 H        2.6920    -5.1680     0.9440 H     1 <1>   0.0800 
 26 H        1.9670    -6.1680    -0.2700 H     1 <1>   0.0800 
 27 H        1.2440    -6.0490     1.3270 H     1 <1>   0.0800 
 28 H        0.1480    -6.4300    -1.4760 H     1 <1>   0.0800 
 29 H       -1.3450    -5.7220    -2.0430 H     1 <1>   0.0800 
 30 H       -0.7820    -6.4370     0.7330 H     1 <1>   0.4500 
 31 H       -1.0590    -8.2880    -1.1310 H     1 <1>   0.0800 
 32 H       -1.5490    -8.5100     0.5300 H     1 <1>   0.0800 
 33 H       -2.3330    -4.8180     0.9160 H     1 <1>   0.0800 
 34 H       -3.1410    -5.3120    -0.5490 H     1 <1>   0.0800 
 35 H       -3.3380    -7.5810    -1.6890 H     1 <1>   0.0800 
 36 H       -3.0830    -6.8880     2.0090 H     1 <1>   0.0800 
 37 H       -4.4170    -5.9250     1.4990 H     1 <1>   0.0800 
 38 H       -4.2120    -9.6600    -1.5080 H     1 <1>   0.4000 
 39 H       -3.4860    -9.2980     1.7070 H     1 <1>   0.0800 
 40 H       -4.9080    -9.7430     0.8000 H     1 <1>   0.0800 
 41 H       -5.9080    -8.2160    -0.8840 H     1 <1>   0.0800 
 42 H       -6.2770    -7.2190     0.4690 H     1 <1>   0.0800 
 43 H       -4.7410    -8.0760     3.0570 H     1 <1>   0.4000 
 44 H       -5.3420    -5.2430    -0.6530 H     1 <1>   0.0800 
 45 H       -4.9100    -6.2080    -2.0420 H     1 <1>   0.0800 
 46 H       -7.7180    -5.8000    -1.0010 H     1 <1>   0.0800 
 47 H       -7.2900    -6.7680    -2.3920 H     1 <1>   0.0800 
 48 H       -7.0270    -5.0430    -2.4130 H     1 <1>   0.0800 
@<TRIPOS>BOND
  1   1   2  1   
  2   2   3  ar  
  3   2   4  ar  
  4   3   5  ar  
  5   3  22  1   
  6   4   6  ar  
  7   4  23  1   
  8   5   7  ar  
  9   5   8  1   
 10   6   7  ar  
 11   6  24  1   
 12   7   9  1   
 13   8  25  1   
 14   8  26  1   
 15   8  27  1   
 16   9  10  1   
 17   9  28  1   
 18   9  29  1   
 19  10  11  1   
 20  10  12  1   
 21  10  30  1   
 22  11  13  1   
 23  11  31  1   
 24  11  32  1   
 25  12  14  1   
 26  12  33  1   
 27  12  34  1   
 28  13  15  1   
 29  13  16  1   
 30  13  35  1   
 31  14  16  1   
 32  14  36  1   
 33  14  37  1   
 34  15  38  1   
 35  16  17  1   
 36  16  18  1   
 37  17  19  1   
 38  17  39  1   
 39  17  40  1   
 40  18  20  1   
 41  18  41  1   
 42  18  42  1   
 43  19  43  1   
 44  20  21  1   
 45  20  44  1   
 46  20  45  1   
 47  21  46  1   
 48  21  47  1   
 49  21  48  1   
@<TRIPOS>SUBSTRUCTURE
  1 ****  12 GROUP 4 **** **** 0

# MOE 2024.06 (io_trps.svl 2023.06)
