@<TRIPOS>MOLECULE
NONAME
47 49 1 0 0 
SMALL
USER_CHARGES


@<TRIPOS>ATOM
  1 S        0.6480    -0.2130    -1.4460 S.o2  1 <1>   1.5010 
  2 O        0.1950     0.2650    -2.7290 O.2   1 <1>  -0.6500 
  3 O        1.7700    -1.1290    -1.3870 O.2   1 <1>  -0.6500 
  4 N        1.2240     1.1510    -0.6140 N.am  1 <1>  -0.8490 
  5 C       -0.7360    -0.7550    -0.4350 C.2   1 <1>  -0.0630 
  6 C        1.6670     0.9040     0.7880 C.3   1 <1>   0.2760 
  7 C        1.9860     2.0730    -1.4770 C.3   1 <1>   0.1960 
  8 C       -1.1240    -1.9600     0.0640 C.2   1 <1>  -0.3320 
  9 C       -1.7050     0.1240     0.0260 C.2   1 <1>   0.1390 
 10 C        1.6400     2.1940     1.6250 C.3   1 <1>   0.1200 
 11 C        3.0430     0.1980     0.9420 C.3   1 <1>   0.3430 
 12 C        3.2540     2.6920    -0.8690 C.3   1 <1>  -0.0800 
 13 N       -2.2520    -1.7490     0.7820 N.pl3 1 <1>   0.3140 
 14 C       -0.4770    -3.3280    -0.1170 C.3   1 <1>  -0.0600 
 15 N       -2.5960    -0.4520     0.7670 N.2   1 <1>  -0.7070 
 16 O        2.8350     2.9010     1.4910 O.3   1 <1>  -0.5600 
 17 N        3.9320     0.2920    -0.2660 N.4   1 <1>  -0.9590 
 18 C        2.9640     3.6250     0.3150 C.3   1 <1>   0.1200 
 19 C        4.3840     1.6870    -0.5720 C.3   1 <1>   0.3430 
 20 C       -3.0740    -2.7430     1.5080 C.3   1 <1>   0.0960 
 21 C        5.0910    -0.6370    -0.1430 C.3   1 <1>   0.2630 
 22 C       -4.1430    -3.3540     0.5930 C.3   1 <1>  -0.2400 
 23 H        0.9380     0.2650     1.2550 H     1 <1>   0.0800 
 24 H        2.2780     1.5670    -2.3830 H     1 <1>   0.0800 
 25 H        1.3190     2.8660    -1.7780 H     1 <1>   0.0800 
 26 H       -1.7210     1.1790    -0.1990 H     1 <1>   0.1500 
 27 H        1.5530     1.9380     2.6670 H     1 <1>   0.0800 
 28 H        0.8050     2.8210     1.3640 H     1 <1>   0.0800 
 29 H        2.8490    -0.8430     1.1440 H     1 <1>   0.0800 
 30 H        3.5500     0.6010     1.8030 H     1 <1>   0.0800 
 31 H        3.6430     3.3430    -1.6320 H     1 <1>   0.0800 
 32 H        0.3810    -3.2680    -0.7610 H     1 <1>   0.0800 
 33 H       -1.1770    -4.0130    -0.5620 H     1 <1>   0.0800 
 34 H       -0.1630    -3.7230     0.8330 H     1 <1>   0.0800 
 35 H        3.3360    -0.0550    -1.0450 H     1 <1>   0.4500 
 36 H        2.0750     4.2150     0.1560 H     1 <1>   0.0800 
 37 H        3.7910     4.3010     0.4570 H     1 <1>   0.0800 
 38 H        4.9720     2.0630     0.2510 H     1 <1>   0.0800 
 39 H        5.0280     1.6500    -1.4360 H     1 <1>   0.0800 
 40 H       -2.4320    -3.5100     1.8980 H     1 <1>   0.0800 
 41 H       -3.5470    -2.2440     2.3350 H     1 <1>   0.0800 
 42 H        5.7160    -0.3500     0.6880 H     1 <1>   0.0800 
 43 H        5.6810    -0.6180    -1.0440 H     1 <1>   0.0800 
 44 H        4.7440    -1.6450     0.0150 H     1 <1>   0.0800 
 45 H       -3.6870    -3.8610    -0.2380 H     1 <1>   0.0800 
 46 H       -4.7940    -2.5810     0.2220 H     1 <1>   0.0800 
 47 H       -4.7350    -4.0620     1.1450 H     1 <1>   0.0800 
@<TRIPOS>BOND
  1   1   2  2   
  2   1   3  2   
  3   1   4  am  
  4   1   5  1   
  5   4   6  1   
  6   4   7  1   
  7   5   8  2   
  8   5   9  1   
  9   6  10  1   
 10   6  11  1   
 11   6  23  1   
 12   7  12  1   
 13   7  24  1   
 14   7  25  1   
 15   8  13  1   
 16   8  14  1   
 17   9  15  2   
 18   9  26  1   
 19  10  16  1   
 20  10  27  1   
 21  10  28  1   
 22  11  17  1   
 23  11  29  1   
 24  11  30  1   
 25  12  18  1   
 26  12  19  1   
 27  12  31  1   
 28  13  15  1   
 29  13  20  1   
 30  14  32  1   
 31  14  33  1   
 32  14  34  1   
 33  16  18  1   
 34  17  19  1   
 35  17  21  1   
 36  17  35  1   
 37  18  36  1   
 38  18  37  1   
 39  19  38  1   
 40  19  39  1   
 41  20  22  1   
 42  20  40  1   
 43  20  41  1   
 44  21  42  1   
 45  21  43  1   
 46  21  44  1   
 47  22  45  1   
 48  22  46  1   
 49  22  47  1   
@<TRIPOS>SUBSTRUCTURE
  1 ****   4 GROUP 4 **** **** 0

# MOE 2024.06 (io_trps.svl 2023.06)
