@<TRIPOS>MOLECULE
NONAME
53 56 1 0 0 
SMALL
USER_CHARGES


@<TRIPOS>ATOM
  1 O       -3.0460    -0.9370    -0.8730 O.2   1 <1>  -0.5700 
  2 C       -3.1580     0.1030    -0.2320 C.2   1 <1>   0.6160 
  3 N       -2.7800     1.3140    -0.8030 N.am  1 <1>  -0.4770 
  4 C       -3.6960     0.1000     1.0960 C.2   1 <1>   0.0290 
  5 C       -2.9670     2.5320    -0.1190 C.ar  1 <1>   0.1170 
  6 C       -2.1330     1.3160    -2.1520 C.3   1 <1>   0.0600 
  7 C       -4.0490    -1.1790     1.6360 C.2   1 <1>   0.6160 
  8 C       -3.8420     1.2700     1.7770 C.2   1 <1>  -0.1780 
  9 C       -3.4940     2.5150     1.1870 C.ar  1 <1>   0.0280 
 10 C       -2.6530     3.7740    -0.6860 C.ar  1 <1>  -0.1500 
 11 O       -3.2670    -1.7580     2.3670 O.2   1 <1>  -0.5700 
 12 N       -5.2410    -1.7900     1.3180 N.am  1 <1>  -0.6600 
 13 C       -3.6710     3.7180     1.8770 C.ar  1 <1>  -0.1500 
 14 C       -2.8380     4.9500     0.0080 C.ar  1 <1>  -0.1500 
 15 C       -5.2880    -3.2700     1.1750 C.3   1 <1>   0.1400 
 16 C       -6.3880    -1.0990     0.6600 C.3   1 <1>   0.1400 
 17 C       -3.3480     4.9220     1.2970 C.ar  1 <1>  -0.1500 
 18 C       -5.1970    -3.6030    -0.3340 C.3   1 <1>   0.4230 
 19 C       -6.4220    -1.4610    -0.8330 C.3   1 <1>  -0.1600 
 20 N       -5.0700    -5.0680    -0.6410 N.4   1 <1>  -0.9590 
 21 C       -6.4100    -2.9990    -1.0770 C.3   1 <1>  -0.1060 
 22 C       -4.8510    -5.3040    -2.0890 C.3   1 <1>   0.3430 
 23 C       -4.1000    -5.8090     0.2080 C.3   1 <1>   0.2630 
 24 C       -7.6930    -3.6520    -0.5270 C.2   1 <1>   0.9060 
 25 C       -6.2670    -3.2520    -2.5980 C.3   1 <1>  -0.1600 
 26 C       -6.0150    -4.7360    -2.9040 C.3   1 <1>  -0.1600 
 27 O       -7.6560    -4.8440    -0.1780 O.co2 1 <1>  -0.9000 
 28 O       -8.7210    -2.9850    -0.4240 O.co2 1 <1>  -0.9000 
 29 H       -1.1960     1.8420    -2.1020 H     1 <1>   0.0800 
 30 H       -2.7810     1.8020    -2.8600 H     1 <1>   0.0800 
 31 H       -1.9340     0.3190    -2.5010 H     1 <1>   0.0800 
 32 H       -4.2290     1.2750     2.7810 H     1 <1>   0.1500 
 33 H       -2.2590     3.8360    -1.6820 H     1 <1>   0.1500 
 34 H       -4.0670     3.6980     2.8770 H     1 <1>   0.1500 
 35 H       -2.5890     5.8940    -0.4450 H     1 <1>   0.1500 
 36 H       -4.4640    -3.7070     1.7070 H     1 <1>   0.0800 
 37 H       -6.2030    -3.6420     1.6050 H     1 <1>   0.0800 
 38 H       -7.3060    -1.4160     1.1300 H     1 <1>   0.0800 
 39 H       -6.3130    -0.0330     0.7800 H     1 <1>   0.0800 
 40 H       -3.4880     5.8440     1.8360 H     1 <1>   0.1500 
 41 H       -4.3090    -3.1140    -0.7000 H     1 <1>   0.0800 
 42 H       -7.3130    -1.0370    -1.2660 H     1 <1>   0.0800 
 43 H       -5.5870    -0.9970    -1.3230 H     1 <1>   0.0800 
 44 H       -6.0510    -5.3990    -0.4300 H     1 <1>   0.4500 
 45 H       -3.9320    -4.8320    -2.3950 H     1 <1>   0.0800 
 46 H       -4.7730    -6.3620    -2.2780 H     1 <1>   0.0800 
 47 H       -3.1120    -5.3940     0.0940 H     1 <1>   0.0800 
 48 H       -4.0800    -6.8480    -0.0750 H     1 <1>   0.0800 
 49 H       -4.3880    -5.7460     1.2440 H     1 <1>   0.0800 
 50 H       -7.1640    -2.9290    -3.0990 H     1 <1>   0.0800 
 51 H       -5.4450    -2.6730    -2.9850 H     1 <1>   0.0800 
 52 H       -5.8030    -4.8530    -3.9510 H     1 <1>   0.0800 
 53 H       -6.9030    -5.3080    -2.6930 H     1 <1>   0.0800 
@<TRIPOS>BOND
  1   1   2  2   
  2   2   3  am  
  3   2   4  1   
  4   3   5  1   
  5   3   6  1   
  6   4   7  1   
  7   4   8  2   
  8   5   9  ar  
  9   5  10  ar  
 10   6  29  1   
 11   6  30  1   
 12   6  31  1   
 13   7  11  2   
 14   7  12  am  
 15   8   9  1   
 16   8  32  1   
 17   9  13  ar  
 18  10  14  ar  
 19  10  33  1   
 20  12  15  1   
 21  12  16  1   
 22  13  17  ar  
 23  13  34  1   
 24  14  17  ar  
 25  14  35  1   
 26  15  18  1   
 27  15  36  1   
 28  15  37  1   
 29  16  19  1   
 30  16  38  1   
 31  16  39  1   
 32  17  40  1   
 33  18  20  1   
 34  18  21  1   
 35  18  41  1   
 36  19  21  1   
 37  19  42  1   
 38  19  43  1   
 39  20  22  1   
 40  20  23  1   
 41  20  44  1   
 42  21  24  1   
 43  21  25  1   
 44  22  26  1   
 45  22  45  1   
 46  22  46  1   
 47  23  47  1   
 48  23  48  1   
 49  23  49  1   
 50  24  27  ar  
 51  24  28  ar  
 52  25  26  1   
 53  25  50  1   
 54  25  51  1   
 55  26  52  1   
 56  26  53  1   
@<TRIPOS>SUBSTRUCTURE
  1 ****  12 GROUP 4 **** **** 0

# MOE 2024.06 (io_trps.svl 2023.06)
