@<TRIPOS>MOLECULE
NONAME
42 44 1 0 0 
SMALL
USER_CHARGES


@<TRIPOS>ATOM
  1 O       -0.0490    -0.4910     0.3870 O.3   1 <1>  -0.3630 
  2 C       -0.0800    -1.8050     0.1730 C.ar  1 <1>   0.3920 
  3 C        1.1500     0.2590     0.4450 C.3   1 <1>   0.0400 
  4 N        1.0660    -2.4600     0.0040 N.ar  1 <1>  -0.6200 
  5 C       -1.3150    -2.4190     0.1390 C.ar  1 <1>  -0.1500 
  6 C        0.9640    -3.7490    -0.2020 C.ar  1 <1>   0.7710 
  7 C       -1.3860    -3.7780    -0.0780 C.ar  1 <1>   0.4610 
  8 N       -0.2110    -4.4050    -0.2460 N.ar  1 <1>  -0.1790 
  9 N        2.1060    -4.4170    -0.3770 N.pl3 1 <1>  -0.9000 
 10 N       -2.5400    -4.5020    -0.1370 N.pl3 1 <1>  -0.8380 
 11 C       -3.9110    -3.9010    -0.0890 C.3   1 <1>   0.2090 
 12 C       -2.6610    -5.9830    -0.2750 C.3   1 <1>   0.2090 
 13 C       -4.8800    -5.0630    -0.3300 C.3   1 <1>   0.2000 
 14 C       -4.1120    -6.3200     0.0630 C.3   1 <1>  -0.0800 
 15 O       -6.0300    -4.9460     0.4350 O.3   1 <1>  -0.6800 
 16 C       -4.6260    -7.5880    -0.6420 C.3   1 <1>  -0.0170 
 17 C       -3.8470    -8.8290    -0.2300 C.ar  1 <1>   0.1670 
 18 N       -2.6110    -8.9440    -0.7010 N.ar  1 <1>  -0.6200 
 19 C       -4.4520    -9.7660     0.5960 C.ar  1 <1>  -0.1500 
 20 C       -1.9670   -10.0480    -0.3490 C.ar  1 <1>   0.1600 
 21 C       -3.7620   -10.9010     0.9640 C.ar  1 <1>  -0.1500 
 22 C       -2.4850   -11.0370     0.4690 C.ar  1 <1>  -0.1500 
 23 H        0.8970     1.2880     0.6270 H     1 <1>   0.0800 
 24 H        1.6660     0.1680    -0.4940 H     1 <1>   0.0800 
 25 H        1.7590    -0.1180     1.2480 H     1 <1>   0.0800 
 26 H       -2.1970    -1.8270     0.2850 H     1 <1>   0.1500 
 27 H       -0.2120    -5.3970    -0.4240 H     1 <1>   0.4570 
 28 H        2.2410    -5.4140    -0.5490 H     1 <1>   0.4000 
 29 H        2.9790    -3.8800    -0.3370 H     1 <1>   0.4000 
 30 H       -4.0800    -3.4660     0.8820 H     1 <1>   0.0800 
 31 H       -4.0280    -3.1530    -0.8550 H     1 <1>   0.0800 
 32 H       -2.4480    -6.2650    -1.2940 H     1 <1>   0.0800 
 33 H       -1.9940    -6.5030     0.3930 H     1 <1>   0.0800 
 34 H       -5.1670    -5.0860    -1.3680 H     1 <1>   0.0800 
 35 H       -4.1690    -6.4600     1.1290 H     1 <1>   0.0800 
 36 H       -5.8300    -5.0040     1.3900 H     1 <1>   0.4000 
 37 H       -4.5510    -7.4750    -1.7100 H     1 <1>   0.0800 
 38 H       -5.6680    -7.7200    -0.4090 H     1 <1>   0.0800 
 39 H       -5.4570    -9.6180     0.9490 H     1 <1>   0.1500 
 40 H       -0.9700   -10.1760    -0.7330 H     1 <1>   0.1500 
 41 H       -4.2030   -11.6470     1.6020 H     1 <1>   0.1500 
 42 H       -1.8950   -11.9030     0.7100 H     1 <1>   0.1500 
@<TRIPOS>BOND
  1   1   2  1   
  2   1   3  1   
  3   2   4  ar  
  4   2   5  ar  
  5   3  23  1   
  6   3  24  1   
  7   3  25  1   
  8   4   6  ar  
  9   5   7  ar  
 10   5  26  1   
 11   6   8  ar  
 12   6   9  1   
 13   7   8  ar  
 14   7  10  1   
 15   8  27  1   
 16   9  28  1   
 17   9  29  1   
 18  10  11  1   
 19  10  12  1   
 20  11  13  1   
 21  11  30  1   
 22  11  31  1   
 23  12  14  1   
 24  12  32  1   
 25  12  33  1   
 26  13  14  1   
 27  13  15  1   
 28  13  34  1   
 29  14  16  1   
 30  14  35  1   
 31  15  36  1   
 32  16  17  1   
 33  16  37  1   
 34  16  38  1   
 35  17  18  ar  
 36  17  19  ar  
 37  18  20  ar  
 38  19  21  ar  
 39  19  39  1   
 40  20  22  ar  
 41  20  40  1   
 42  21  22  ar  
 43  21  41  1   
 44  22  42  1   
@<TRIPOS>SUBSTRUCTURE
  1 ****  12 GROUP 4 **** **** 0

# MOE 2024.06 (io_trps.svl 2023.06)
