@<TRIPOS>MOLECULE
NONAME
55 57 1 0 0 
SMALL
USER_CHARGES


@<TRIPOS>ATOM
  1 O       -0.3670     0.3050    -0.9490 O.2   1 <1>  -0.5700 
  2 C       -1.4100     0.9010    -0.7470 C.2   1 <1>   0.6160 
  3 N       -2.5990     0.2200    -0.9230 N.am  1 <1>  -0.6600 
  4 C       -1.3420     2.2920    -0.3990 C.2   1 <1>   0.0290 
  5 C       -3.9600     0.8370    -0.8550 C.3   1 <1>   0.1400 
  6 C       -2.6530    -1.2720    -1.0070 C.3   1 <1>   0.1400 
  7 C       -1.8910     2.7280     0.8470 C.2   1 <1>   0.6160 
  8 C       -0.7430     3.2240    -1.2100 C.2   1 <1>  -0.1500 
  9 C       -4.8080     0.1540     0.2340 C.3   1 <1>   0.2950 
 10 C       -3.5970    -1.8520     0.0710 C.3   1 <1>   0.2000 
 11 O       -2.4570     2.0020     1.6520 O.2   1 <1>  -0.5700 
 12 N       -1.8070     4.0550     1.1680 N.am  1 <1>  -0.5390 
 13 C       -0.6880     4.5820    -0.8310 C.2   1 <1>  -0.1500 
 14 O       -4.8480    -1.2260     0.0070 O.3   1 <1>  -0.5600 
 15 C       -6.2490     0.6710     0.2290 C.3   1 <1>  -0.1950 
 16 C       -3.8490    -3.3560    -0.0930 C.3   1 <1>  -0.1600 
 17 C       -1.2200     4.9930     0.3580 C.2   1 <1>  -0.0290 
 18 C       -6.6170     1.9140     0.9780 C.3   1 <1>  -0.2000 
 19 C       -7.1110     0.5750     1.4480 C.3   1 <1>  -0.2000 
 20 C       -2.5820    -4.2050     0.1050 C.3   1 <1>  -0.1600 
 21 C       -1.2200     6.4340     0.8780 C.3   1 <1>   0.0580 
 22 C       -2.9060    -5.7010     0.0230 C.3   1 <1>  -0.1600 
 23 C       -2.6280     7.0320     0.7700 C.3   1 <1>  -0.2400 
 24 C       -0.2140     7.3440     0.1610 C.3   1 <1>  -0.2400 
 25 C       -1.6460    -6.5490     0.2160 C.3   1 <1>  -0.2400 
 26 H       -3.9040     1.8900    -0.6540 H     1 <1>   0.0800 
 27 H       -4.4480     0.7120    -1.8060 H     1 <1>   0.0800 
 28 H       -3.0040    -1.5580    -1.9820 H     1 <1>   0.0800 
 29 H       -1.6700    -1.6890    -0.8760 H     1 <1>   0.0800 
 30 H       -0.3010     2.9280    -2.1460 H     1 <1>   0.1500 
 31 H       -4.3680     0.3240     1.2020 H     1 <1>   0.0800 
 32 H       -3.1830    -1.6660     1.0480 H     1 <1>   0.0800 
 33 H       -2.2120     4.2990     2.0720 H     1 <1>   0.3700 
 34 H       -0.2140     5.2670    -1.5120 H     1 <1>   0.1500 
 35 H       -6.7290     0.5120    -0.7210 H     1 <1>   0.1000 
 36 H       -4.5810    -3.6530     0.6380 H     1 <1>   0.0800 
 37 H       -4.2580    -3.5410    -1.0710 H     1 <1>   0.0800 
 38 H       -5.8690     2.4160     1.5690 H     1 <1>   0.1000 
 39 H       -7.3220     2.5970     0.5370 H     1 <1>   0.1000 
 40 H       -8.1500     0.3240     1.3200 H     1 <1>   0.1000 
 41 H       -6.6910     0.1440     2.3400 H     1 <1>   0.1000 
 42 H       -1.8550    -3.9640    -0.6520 H     1 <1>   0.0800 
 43 H       -2.1510    -3.9860     1.0670 H     1 <1>   0.0800 
 44 H       -0.9400     6.4070     1.9180 H     1 <1>   0.0800 
 45 H       -3.6250    -5.9580     0.7830 H     1 <1>   0.0800 
 46 H       -3.3410    -5.9260    -0.9360 H     1 <1>   0.0800 
 47 H       -2.9440     7.0580    -0.2580 H     1 <1>   0.0800 
 48 H       -2.6410     8.0330     1.1620 H     1 <1>   0.0800 
 49 H       -3.3320     6.4400     1.3280 H     1 <1>   0.0800 
 50 H       -0.4870     7.4820    -0.8700 H     1 <1>   0.0800 
 51 H        0.7720     6.9180     0.2100 H     1 <1>   0.0800 
 52 H       -0.1880     8.3090     0.6350 H     1 <1>   0.0800 
 53 H       -1.2070    -6.3560     1.1790 H     1 <1>   0.0800 
 54 H       -0.9220    -6.3250    -0.5470 H     1 <1>   0.0800 
 55 H       -1.8940    -7.5950     0.1570 H     1 <1>   0.0800 
@<TRIPOS>BOND
  1   1   2  2   
  2   2   3  am  
  3   2   4  1   
  4   3   5  1   
  5   3   6  1   
  6   4   7  1   
  7   4   8  2   
  8   5   9  1   
  9   5  26  1   
 10   5  27  1   
 11   6  10  1   
 12   6  28  1   
 13   6  29  1   
 14   7  11  2   
 15   7  12  am  
 16   8  13  1   
 17   8  30  1   
 18   9  14  1   
 19   9  15  1   
 20   9  31  1   
 21  10  14  1   
 22  10  16  1   
 23  10  32  1   
 24  12  17  1   
 25  12  33  1   
 26  13  17  2   
 27  13  34  1   
 28  15  18  1   
 29  15  19  1   
 30  15  35  1   
 31  16  20  1   
 32  16  36  1   
 33  16  37  1   
 34  17  21  1   
 35  18  19  1   
 36  18  38  1   
 37  18  39  1   
 38  19  40  1   
 39  19  41  1   
 40  20  22  1   
 41  20  42  1   
 42  20  43  1   
 43  21  23  1   
 44  21  24  1   
 45  21  44  1   
 46  22  25  1   
 47  22  45  1   
 48  22  46  1   
 49  23  47  1   
 50  23  48  1   
 51  23  49  1   
 52  24  50  1   
 53  24  51  1   
 54  24  52  1   
 55  25  53  1   
 56  25  54  1   
 57  25  55  1   
@<TRIPOS>SUBSTRUCTURE
  1 ****   3 GROUP 4 **** **** 0

# MOE 2024.06 (io_trps.svl 2023.06)
