@<TRIPOS>MOLECULE
NONAME
44 46 1 0 0 
SMALL
USER_CHARGES


@<TRIPOS>ATOM
  1 S       -0.5310     0.3260     0.7080 S.o2  1 <1>   1.0900 
  2 O        0.8340    -0.1320     0.5880 O.2   1 <1>  -0.6500 
  3 O       -0.8900     1.4460     1.5440 O.2   1 <1>  -0.6500 
  4 C       -1.5320    -1.0840     1.0820 C.3   1 <1>  -0.0550 
  5 C       -1.1870     0.5330    -0.9410 C.3   1 <1>  -0.0550 
  6 C       -1.6580    -1.8160    -0.2520 C.3   1 <1>   0.1760 
  7 C       -1.9440    -0.7500    -1.3310 C.3   1 <1>  -0.1600 
  8 N       -2.7180    -2.8540    -0.2020 N.pl3 1 <1>   0.3140 
  9 N       -3.9630    -2.5510     0.2070 N.2   1 <1>  -0.7070 
 10 C       -2.6090    -4.1680    -0.5280 C.2   1 <1>  -0.3320 
 11 C       -4.6190    -3.6670     0.1500 C.2   1 <1>   0.1080 
 12 C       -3.8220    -4.7220    -0.3060 C.2   1 <1>   0.0630 
 13 C       -1.3310    -4.8290    -1.0260 C.3   1 <1>  -0.0600 
 14 C       -6.0800    -3.7450     0.5330 C.3   1 <1>  -0.0590 
 15 N       -4.1650    -6.0790    -0.5300 N.am  1 <1>  -0.4930 
 16 C       -4.8570    -6.9450     0.2720 C.2   1 <1>   0.7150 
 17 O       -5.2720    -6.5710     1.3540 O.2   1 <1>  -0.5700 
 18 C       -5.0660    -8.2950    -0.1840 C.2   1 <1>  -0.0450 
 19 S       -5.8050    -9.4630     0.9100 S.3   1 <1>  -0.0800 
 20 C       -4.8020    -8.9260    -1.3590 C.2   1 <1>  -0.1500 
 21 C       -5.7280   -10.7790    -0.2610 C.2   1 <1>  -0.0450 
 22 C       -5.1660   -10.2950    -1.3990 C.2   1 <1>  -0.1500 
 23 C       -6.2140   -12.0860     0.0740 C.2   1 <1>   0.5940 
 24 O       -6.1730   -13.0080    -0.7010 O.2   1 <1>  -0.5700 
 25 C       -6.8070   -12.3560     1.4420 C.3   1 <1>  -0.1790 
 26 H       -2.5010    -0.7600     1.4150 H     1 <1>   0.0800 
 27 H       -1.0790    -1.7040     1.8310 H     1 <1>   0.0800 
 28 H       -0.3860     0.7230    -1.6310 H     1 <1>   0.0800 
 29 H       -1.8620     1.3690    -0.9680 H     1 <1>   0.0800 
 30 H       -0.7160    -2.2870    -0.4680 H     1 <1>   0.0800 
 31 H       -1.6410    -1.0980    -2.3030 H     1 <1>   0.0800 
 32 H       -2.9990    -0.5310    -1.3530 H     1 <1>   0.0800 
 33 H       -1.0110    -4.3760    -1.9480 H     1 <1>   0.0800 
 34 H       -1.4860    -5.8790    -1.1990 H     1 <1>   0.0800 
 35 H       -0.5500    -4.7250    -0.2930 H     1 <1>   0.0800 
 36 H       -6.5520    -2.7940     0.3700 H     1 <1>   0.0800 
 37 H       -6.1630    -4.0010     1.5730 H     1 <1>   0.0800 
 38 H       -6.5830    -4.4890    -0.0540 H     1 <1>   0.0800 
 39 H       -3.7250    -6.4950    -1.3440 H     1 <1>   0.3700 
 40 H       -4.3560    -8.4640    -2.2220 H     1 <1>   0.1500 
 41 H       -5.0020   -10.8950    -2.2790 H     1 <1>   0.1500 
 42 H       -7.6630   -11.7280     1.6000 H     1 <1>   0.0800 
 43 H       -6.0740   -12.1640     2.2030 H     1 <1>   0.0800 
 44 H       -7.1150   -13.3840     1.5100 H     1 <1>   0.0800 
@<TRIPOS>BOND
  1   1   2  2   
  2   1   3  2   
  3   1   4  1   
  4   1   5  1   
  5   4   6  1   
  6   4  26  1   
  7   4  27  1   
  8   5   7  1   
  9   5  28  1   
 10   5  29  1   
 11   6   7  1   
 12   6   8  1   
 13   6  30  1   
 14   7  31  1   
 15   7  32  1   
 16   8   9  1   
 17   8  10  1   
 18   9  11  2   
 19  10  12  2   
 20  10  13  1   
 21  11  12  1   
 22  11  14  1   
 23  12  15  1   
 24  13  33  1   
 25  13  34  1   
 26  13  35  1   
 27  14  36  1   
 28  14  37  1   
 29  14  38  1   
 30  15  16  am  
 31  15  39  1   
 32  16  17  2   
 33  16  18  1   
 34  18  19  1   
 35  18  20  2   
 36  19  21  1   
 37  20  22  1   
 38  20  40  1   
 39  21  22  2   
 40  21  23  1   
 41  22  41  1   
 42  23  24  2   
 43  23  25  1   
 44  25  42  1   
 45  25  43  1   
 46  25  44  1   
@<TRIPOS>SUBSTRUCTURE
  1 ****  12 GROUP 4 **** **** 0

# MOE 2024.06 (io_trps.svl 2023.06)
