@<TRIPOS>MOLECULE
NONAME
54 57 1 0 0 
SMALL
USER_CHARGES


@<TRIPOS>ATOM
  1 F        0.1360     0.1910    -0.1750 F     1 <1>  -0.3400 
  2 C        0.3590    -1.1150    -0.0380 C.3   1 <1>   1.1640 
  3 F        1.1560    -1.4450    -1.0520 F     1 <1>  -0.3400 
  4 F        1.1020    -1.2380     1.0600 F     1 <1>  -0.3400 
  5 C       -0.9310    -1.9850     0.0180 C.ar  1 <1>   0.1660 
  6 N       -2.0980    -1.3630     0.0840 N.ar  1 <1>  -0.6200 
  7 C       -0.8770    -3.3750    -0.0010 C.ar  1 <1>  -0.1440 
  8 C       -3.1950    -2.1040     0.1240 C.ar  1 <1>   0.7200 
  9 C       -2.0850    -4.0510     0.0340 C.ar  1 <1>   0.1660 
 10 C        0.4450    -4.1530    -0.0760 C.3   1 <1>  -0.0170 
 11 N       -3.2320    -3.4280     0.0980 N.ar  1 <1>  -0.6200 
 12 N       -4.4010    -1.4420     0.1960 N.pl3 1 <1>  -0.8380 
 13 C       -2.1810    -5.5710     0.0160 C.3   1 <1>  -0.0170 
 14 C        0.3060    -5.6280     0.3130 C.3   1 <1>  -0.1600 
 15 C       -5.6500    -2.1690     0.5610 C.3   1 <1>   0.2090 
 16 C       -4.5180     0.0140    -0.1050 C.3   1 <1>   0.2090 
 17 C       -0.8810    -6.2590    -0.4120 C.3   1 <1>  -0.1600 
 18 C       -6.6900    -1.2000     1.1240 C.3   1 <1>  -0.1600 
 19 C       -5.8590     0.2680    -0.7870 C.3   1 <1>  -0.1600 
 20 C       -7.0480    -0.0580     0.1440 C.3   1 <1>   0.2800 
 21 O       -7.2950     1.0560     0.9670 O.3   1 <1>  -0.5600 
 22 C       -8.3180    -0.4050    -0.6760 C.3   1 <1>  -0.1600 
 23 C       -8.0290     2.1250     0.4390 C.3   1 <1>   0.1200 
 24 C       -9.6030     0.1660    -0.0650 C.3   1 <1>   0.2800 
 25 C       -9.4570     1.6870     0.0770 C.3   1 <1>  -0.1600 
 26 O       -9.7290    -0.3380     1.2160 O.3   1 <1>  -0.6800 
 27 C      -10.8600    -0.2370    -0.8670 C.3   1 <1>   0.1200 
 28 O      -12.0080     0.1550    -0.1920 O.3   1 <1>  -0.6800 
 29 H        1.1840    -3.7150     0.5700 H     1 <1>   0.0800 
 30 H        0.8140    -4.1000    -1.0860 H     1 <1>   0.0800 
 31 H       -2.9740    -5.8680    -0.6480 H     1 <1>   0.0800 
 32 H       -2.4470    -5.8950     1.0060 H     1 <1>   0.0800 
 33 H        0.1610    -5.7080     1.3780 H     1 <1>   0.0800 
 34 H        1.2110    -6.1540     0.0610 H     1 <1>   0.0800 
 35 H       -5.4300    -2.9190     1.3020 H     1 <1>   0.0800 
 36 H       -6.0370    -2.6630    -0.3140 H     1 <1>   0.0800 
 37 H       -3.7230     0.3270    -0.7610 H     1 <1>   0.0800 
 38 H       -4.4490     0.5780     0.8100 H     1 <1>   0.0800 
 39 H       -0.7530    -6.1520    -1.4760 H     1 <1>   0.0800 
 40 H       -0.9390    -7.3100    -0.1860 H     1 <1>   0.0800 
 41 H       -6.2780    -0.7870     2.0290 H     1 <1>   0.0800 
 42 H       -7.5630    -1.7610     1.3970 H     1 <1>   0.0800 
 43 H       -5.8910    -0.3630    -1.6580 H     1 <1>   0.0800 
 44 H       -5.8990     1.2820    -1.1310 H     1 <1>   0.0800 
 45 H       -8.4050    -1.4690    -0.8040 H     1 <1>   0.0800 
 46 H       -8.2210     0.0060    -1.6650 H     1 <1>   0.0800 
 47 H       -7.5180     2.5040    -0.4270 H     1 <1>   0.0800 
 48 H       -8.0550     2.9030     1.1830 H     1 <1>   0.0800 
 49 H       -9.7140     2.1580    -0.8540 H     1 <1>   0.0800 
 50 H      -10.1550     2.0570     0.8080 H     1 <1>   0.0800 
 51 H       -8.9490    -0.0100     1.7180 H     1 <1>   0.4000 
 52 H      -10.8940    -1.3050    -0.9880 H     1 <1>   0.0800 
 53 H      -10.8670     0.2250    -1.8380 H     1 <1>   0.0800 
 54 H      -11.8750    -0.0650     0.7560 H     1 <1>   0.4000 
@<TRIPOS>BOND
  1   1   2  1   
  2   2   3  1   
  3   2   4  1   
  4   2   5  1   
  5   5   6  ar  
  6   5   7  ar  
  7   6   8  ar  
  8   7   9  ar  
  9   7  10  1   
 10   8  11  ar  
 11   8  12  1   
 12   9  11  ar  
 13   9  13  1   
 14  10  14  1   
 15  10  29  1   
 16  10  30  1   
 17  12  15  1   
 18  12  16  1   
 19  13  17  1   
 20  13  31  1   
 21  13  32  1   
 22  14  17  1   
 23  14  33  1   
 24  14  34  1   
 25  15  18  1   
 26  15  35  1   
 27  15  36  1   
 28  16  19  1   
 29  16  37  1   
 30  16  38  1   
 31  17  39  1   
 32  17  40  1   
 33  18  20  1   
 34  18  41  1   
 35  18  42  1   
 36  19  20  1   
 37  19  43  1   
 38  19  44  1   
 39  20  21  1   
 40  20  22  1   
 41  21  23  1   
 42  22  24  1   
 43  22  45  1   
 44  22  46  1   
 45  23  25  1   
 46  23  47  1   
 47  23  48  1   
 48  24  25  1   
 49  24  26  1   
 50  24  27  1   
 51  25  49  1   
 52  25  50  1   
 53  26  51  1   
 54  27  28  1   
 55  27  52  1   
 56  27  53  1   
 57  28  54  1   
@<TRIPOS>SUBSTRUCTURE
  1 ****  12 GROUP 4 **** **** 0

# MOE 2024.06 (io_trps.svl 2023.06)
