@<TRIPOS>MOLECULE
NONAME
50 54 1 0 0 
SMALL
USER_CHARGES


@<TRIPOS>ATOM
  1 S       -0.4330    -0.9290    -0.7320 S.3   1 <1>  -0.0800 
  2 C       -0.0640     0.7580    -0.4390 C.ar  1 <1>   0.0400 
  3 C       -2.0380    -0.6740    -0.0630 C.2   1 <1>   0.1980 
  4 C       -1.1770     1.3500     0.1320 C.ar  1 <1>   0.2270 
  5 C        1.1090     1.4400    -0.7060 C.ar  1 <1>  -0.1500 
  6 N       -2.2770     0.5130     0.3310 N.2   1 <1>  -0.5650 
  7 C       -2.9700    -1.8780    -0.0190 C.3   1 <1>   0.5230 
  8 C       -1.1120     2.6980     0.4550 C.ar  1 <1>  -0.1500 
  9 C        1.1550     2.7840    -0.3780 C.ar  1 <1>  -0.1500 
 10 N       -4.3510    -1.4240     0.3450 N.4   1 <1>  -0.9590 
 11 C        0.0510     3.4070     0.1980 C.ar  1 <1>  -0.1500 
 12 C       -5.1210    -2.5250     1.0200 C.3   1 <1>   0.3430 
 13 C       -5.0150    -0.7920    -0.8370 C.3   1 <1>   0.3430 
 14 C       -6.5730    -2.1620     1.3950 C.3   1 <1>   0.1400 
 15 C       -6.1220     0.1600    -0.3800 C.3   1 <1>  -0.1600 
 16 N       -7.4110    -1.9220     0.1800 N.am  1 <1>  -0.6600 
 17 C       -7.4990    -0.5060    -0.2780 C.3   1 <1>   0.1400 
 18 C       -8.2770    -2.8780    -0.3400 C.2   1 <1>   0.7150 
 19 O       -9.2100    -2.4950    -1.0200 O.2   1 <1>  -0.5700 
 20 C       -8.1130    -4.2970    -0.1290 C.2   1 <1>   0.0550 
 21 O       -6.9650    -4.8200     0.2370 O.3   1 <1>  -0.0190 
 22 C       -8.9650    -5.3380    -0.2610 C.2   1 <1>  -0.1500 
 23 N       -7.0030    -6.1060     0.3700 N.2   1 <1>  -0.4100 
 24 C       -8.2070    -6.4510     0.0680 C.2   1 <1>   0.2030 
 25 C       -8.7140    -7.8820     0.0780 C.3   1 <1>  -0.0140 
 26 C       -8.1600    -8.8760    -0.8960 C.3   1 <1>  -0.2000 
 27 C       -9.5710    -8.3990    -1.0390 C.3   1 <1>  -0.2000 
 28 H        1.9510     0.9390    -1.1520 H     1 <1>   0.1500 
 29 H       -2.5970    -2.5660     0.7210 H     1 <1>   0.0800 
 30 H       -2.9770    -2.3740    -0.9760 H     1 <1>   0.0800 
 31 H       -1.9640     3.1770     0.9010 H     1 <1>   0.1500 
 32 H        2.0490     3.3540    -0.5690 H     1 <1>   0.1500 
 33 H       -4.1830    -0.6520     1.0120 H     1 <1>   0.4500 
 34 H        0.1050     4.4540     0.4470 H     1 <1>   0.1500 
 35 H       -4.6050    -2.8110     1.9230 H     1 <1>   0.0800 
 36 H       -5.1440    -3.3900     0.3790 H     1 <1>   0.0800 
 37 H       -5.4150    -1.5420    -1.5010 H     1 <1>   0.0800 
 38 H       -4.2860    -0.2120    -1.3810 H     1 <1>   0.0800 
 39 H       -6.5840    -1.2930     2.0300 H     1 <1>   0.0800 
 40 H       -6.9980    -2.9680     1.9690 H     1 <1>   0.0800 
 41 H       -6.2080     0.9490    -1.1070 H     1 <1>   0.0800 
 42 H       -5.8610     0.6320     0.5500 H     1 <1>   0.0800 
 43 H       -7.9610    -0.4750    -1.2530 H     1 <1>   0.0800 
 44 H       -8.1330     0.0510     0.3930 H     1 <1>   0.0800 
 45 H       -9.9990    -5.3270    -0.5570 H     1 <1>   0.1500 
 46 H       -8.9190    -8.2340     1.0740 H     1 <1>   0.1000 
 47 H       -7.9780    -9.8810    -0.5560 H     1 <1>   0.1000 
 48 H       -7.4210    -8.5410    -1.6040 H     1 <1>   0.1000 
 49 H       -9.8070    -7.7520    -1.8660 H     1 <1>   0.1000 
 50 H      -10.3730    -9.0770    -0.8030 H     1 <1>   0.1000 
@<TRIPOS>BOND
  1   1   2  1   
  2   1   3  1   
  3   2   4  ar  
  4   2   5  ar  
  5   3   6  2   
  6   3   7  1   
  7   4   6  1   
  8   4   8  ar  
  9   5   9  ar  
 10   5  28  1   
 11   7  10  1   
 12   7  29  1   
 13   7  30  1   
 14   8  11  ar  
 15   8  31  1   
 16   9  11  ar  
 17   9  32  1   
 18  10  12  1   
 19  10  13  1   
 20  10  33  1   
 21  11  34  1   
 22  12  14  1   
 23  12  35  1   
 24  12  36  1   
 25  13  15  1   
 26  13  37  1   
 27  13  38  1   
 28  14  16  1   
 29  14  39  1   
 30  14  40  1   
 31  15  17  1   
 32  15  41  1   
 33  15  42  1   
 34  16  17  1   
 35  16  18  am  
 36  17  43  1   
 37  17  44  1   
 38  18  19  2   
 39  18  20  1   
 40  20  21  1   
 41  20  22  2   
 42  21  23  1   
 43  22  24  1   
 44  22  45  1   
 45  23  24  2   
 46  24  25  1   
 47  25  26  1   
 48  25  27  1   
 49  25  46  1   
 50  26  27  1   
 51  26  47  1   
 52  26  48  1   
 53  27  49  1   
 54  27  50  1   
@<TRIPOS>SUBSTRUCTURE
  1 ****  10 GROUP 4 **** **** 0

# MOE 2024.06 (io_trps.svl 2023.06)
