@<TRIPOS>MOLECULE
NONAME
46 49 1 0 0 
SMALL
USER_CHARGES


@<TRIPOS>ATOM
  1 S        0.3420    -0.0540     1.5790 S.3   1 <1>  -0.0800 
  2 C        1.1930    -0.8770     0.2680 C.2   1 <1>   0.2930 
  3 C        0.7790     1.4710     0.8920 C.2   1 <1>  -0.1400 
  4 N        1.7300    -0.0500    -0.5730 N.2   1 <1>  -0.5650 
  5 C        1.1700    -2.3300     0.2850 C.2   1 <1>   0.7150 
  6 C        1.5010     1.2580    -0.2100 C.2   1 <1>   0.0460 
  7 C        0.3750     2.7930     1.5050 C.3   1 <1>   0.0200 
  8 O        2.2020    -2.9760     0.3750 O.2   1 <1>  -0.5700 
  9 N       -0.0190    -3.0290     0.2020 N.am  1 <1>  -0.6600 
 10 C        2.0550     2.3980    -1.0420 C.3   1 <1>   0.0210 
 11 C        0.6390     3.9140     0.4810 C.3   1 <1>  -0.1600 
 12 C       -1.3020    -2.4440    -0.2620 C.3   1 <1>   0.1400 
 13 C       -0.0780    -4.5120     0.1740 C.3   1 <1>   0.1400 
 14 C        1.9830     3.7300    -0.2610 C.3   1 <1>  -0.1600 
 15 C       -2.0780    -3.6250    -0.8420 C.3   1 <1>   0.2000 
 16 C       -1.5410    -4.8530    -0.1120 C.3   1 <1>  -0.0800 
 17 O       -3.4410    -3.4960    -0.6290 O.3   1 <1>  -0.6800 
 18 C       -1.7250    -6.1560    -0.9050 C.3   1 <1>   0.0210 
 19 C       -1.1040    -7.3290    -0.1720 C.2   1 <1>   0.1080 
 20 N       -1.5270    -7.7390     0.9830 N.2   1 <1>  -0.7070 
 21 C       -0.0290    -8.0800    -0.6360 C.2   1 <1>  -0.1500 
 22 N       -0.7270    -8.7780     1.2900 N.pl3 1 <1>   0.3000 
 23 C        0.1910    -9.0020     0.3250 C.2   1 <1>  -0.3320 
 24 C        1.2370   -10.1000     0.3820 C.3   1 <1>  -0.0600 
 25 H       -0.6670     2.7770     1.7740 H     1 <1>   0.0800 
 26 H        0.9580     2.9560     2.3940 H     1 <1>   0.0800 
 27 H        3.0760     2.1860    -1.3050 H     1 <1>   0.0800 
 28 H        1.4810     2.4680    -1.9480 H     1 <1>   0.0800 
 29 H       -0.1560     3.9130    -0.2460 H     1 <1>   0.0800 
 30 H        0.6240     4.8660     0.9820 H     1 <1>   0.0800 
 31 H       -1.8230    -2.0230     0.5800 H     1 <1>   0.0800 
 32 H       -1.1340    -1.6910    -1.0130 H     1 <1>   0.0800 
 33 H        0.5660    -4.8750    -0.6090 H     1 <1>   0.0800 
 34 H        0.2440    -4.9260     1.1160 H     1 <1>   0.0800 
 35 H        2.7800     3.7460     0.4630 H     1 <1>   0.0800 
 36 H        2.1410     4.5490    -0.9400 H     1 <1>   0.0800 
 37 H       -1.9040    -3.6870    -1.9030 H     1 <1>   0.0800 
 38 H       -2.0330    -4.9520     0.8400 H     1 <1>   0.0800 
 39 H       -3.6490    -3.6100     0.3190 H     1 <1>   0.4000 
 40 H       -1.2770    -6.0650    -1.8780 H     1 <1>   0.0800 
 41 H       -2.7740    -6.3500    -1.0370 H     1 <1>   0.0800 
 42 H        0.4960    -7.9350    -1.5630 H     1 <1>   0.1500 
 43 H       -0.8320    -9.3110     2.1610 H     1 <1>   0.2700 
 44 H        1.8490   -10.0740    -0.5020 H     1 <1>   0.0800 
 45 H        0.7620   -11.0630     0.4420 H     1 <1>   0.0800 
 46 H        1.8710    -9.9660     1.2410 H     1 <1>   0.0800 
@<TRIPOS>BOND
  1   1   2  1   
  2   1   3  1   
  3   2   4  2   
  4   2   5  1   
  5   3   6  2   
  6   3   7  1   
  7   4   6  1   
  8   5   8  2   
  9   5   9  am  
 10   6  10  1   
 11   7  11  1   
 12   7  25  1   
 13   7  26  1   
 14   9  12  1   
 15   9  13  1   
 16  10  14  1   
 17  10  27  1   
 18  10  28  1   
 19  11  14  1   
 20  11  29  1   
 21  11  30  1   
 22  12  15  1   
 23  12  31  1   
 24  12  32  1   
 25  13  16  1   
 26  13  33  1   
 27  13  34  1   
 28  14  35  1   
 29  14  36  1   
 30  15  16  1   
 31  15  17  1   
 32  15  37  1   
 33  16  18  1   
 34  16  38  1   
 35  17  39  1   
 36  18  19  1   
 37  18  40  1   
 38  18  41  1   
 39  19  20  2   
 40  19  21  1   
 41  20  22  1   
 42  21  23  2   
 43  21  42  1   
 44  22  23  1   
 45  22  43  1   
 46  23  24  1   
 47  24  44  1   
 48  24  45  1   
 49  24  46  1   
@<TRIPOS>SUBSTRUCTURE
  1 ****   9 GROUP 4 **** **** 0

# MOE 2024.06 (io_trps.svl 2023.06)
