@<TRIPOS>MOLECULE
NONAME
58 61 1 0 0 
SMALL
USER_CHARGES


@<TRIPOS>ATOM
  1 S       -0.8720    -0.1320    -1.1750 S.3   1 <1>  -0.0800 
  2 C       -2.1960    -0.2410    -0.0290 C.2   1 <1>  -0.1400 
  3 C       -0.6260     1.5680    -0.8170 C.2   1 <1>  -0.1400 
  4 C       -2.4000     0.9540     0.5630 C.2   1 <1>  -0.1500 
  5 C       -2.8340    -1.6110     0.0760 C.3   1 <1>   0.5230 
  6 C       -1.5090     1.9780     0.1130 C.2   1 <1>  -0.1500 
  7 C        0.4890     2.2650    -1.5770 C.3   1 <1>   0.0200 
  8 N       -4.0900    -1.5280     0.8700 N.4   1 <1>  -0.9590 
  9 C        0.6200     3.7410    -1.1920 C.3   1 <1>  -0.2400 
 10 C       -4.4750    -2.8940     1.3710 C.3   1 <1>   0.3430 
 11 C       -5.1410    -0.8210     0.0680 C.3   1 <1>   0.3430 
 12 C       -5.7970    -2.9550     2.1710 C.3   1 <1>   0.1400 
 13 C       -6.1760    -0.1950     1.0030 C.3   1 <1>  -0.1600 
 14 N       -6.9570    -2.5660     1.3160 N.am  1 <1>  -0.6600 
 15 C       -7.3410    -1.1250     1.3580 C.3   1 <1>   0.1400 
 16 C       -7.4550    -3.3700     0.3250 C.2   1 <1>   0.5690 
 17 O       -7.6740    -2.9170    -0.7710 O.2   1 <1>  -0.5700 
 18 C       -7.7130    -4.8510     0.5580 C.3   1 <1>   0.0690 
 19 C       -9.0260    -5.3370    -0.0510 C.2   1 <1>   0.1820 
 20 N       -9.4370    -6.6560     0.0660 N.pl3 1 <1>  -0.6290 
 21 C       -9.9710    -4.6740    -0.7560 C.2   1 <1>   0.2000 
 22 C      -10.6280    -6.7620    -0.5790 C.cat 1 <1>   0.7910 
 23 C       -8.8860    -7.7690     0.6660 C.2   1 <1>   0.2290 
 24 N      -10.9590    -5.5620    -1.0770 N.pl3 1 <1>  -0.7000 
 25 C      -11.3200    -7.9920    -0.6500 C.2   1 <1>  -0.1290 
 26 C       -9.5320    -8.9690     0.6140 C.2   1 <1>  -0.1500 
 27 C      -10.7680    -9.0920    -0.0510 C.2   1 <1>  -0.1500 
 28 C      -12.6560    -8.0890    -1.3790 C.3   1 <1>  -0.1020 
 29 H       -3.1350     1.1950     1.3100 H     1 <1>   0.1500 
 30 H       -2.1330    -2.2780     0.5500 H     1 <1>   0.0800 
 31 H       -3.0450    -1.9870    -0.9130 H     1 <1>   0.0800 
 32 H       -1.5720     2.9770     0.5110 H     1 <1>   0.1500 
 33 H        0.2950     2.1890    -2.6330 H     1 <1>   0.0800 
 34 H        1.4190     1.7610    -1.3740 H     1 <1>   0.0800 
 35 H       -3.8630    -0.9290     1.6720 H     1 <1>   0.4500 
 36 H       -0.2940     4.2650    -1.4100 H     1 <1>   0.0800 
 37 H        1.4180     4.1960    -1.7500 H     1 <1>   0.0800 
 38 H        0.8370     3.8350    -0.1430 H     1 <1>   0.0800 
 39 H       -3.6850    -3.2680     2.0020 H     1 <1>   0.0800 
 40 H       -4.5610    -3.5660     0.5330 H     1 <1>   0.0800 
 41 H       -5.6180    -1.4940    -0.6270 H     1 <1>   0.0800 
 42 H       -4.6820    -0.0280    -0.5010 H     1 <1>   0.0800 
 43 H       -5.7370    -2.3090     3.0310 H     1 <1>   0.0800 
 44 H       -5.9370    -3.9570     2.5360 H     1 <1>   0.0800 
 45 H       -6.5980     0.6620     0.5070 H     1 <1>   0.0800 
 46 H       -5.7080     0.1740     1.8980 H     1 <1>   0.0800 
 47 H       -8.1460    -0.9540     0.6610 H     1 <1>   0.0800 
 48 H       -7.7190    -0.8820     2.3380 H     1 <1>   0.0800 
 49 H       -7.7430    -5.0450     1.6130 H     1 <1>   0.0800 
 50 H       -6.9030    -5.4080     0.1260 H     1 <1>   0.0800 
 51 H      -10.0070    -3.6360    -1.0520 H     1 <1>   0.1500 
 52 H       -7.9400    -7.6670     1.1730 H     1 <1>   0.1500 
 53 H      -11.8050    -5.3670    -1.6150 H     1 <1>   0.4500 
 54 H       -9.1100    -9.8440     1.0800 H     1 <1>   0.1500 
 55 H      -11.2500   -10.0570    -0.0720 H     1 <1>   0.1500 
 56 H      -13.3800    -7.4350    -0.9250 H     1 <1>   0.0800 
 57 H      -13.0420    -9.0930    -1.3390 H     1 <1>   0.0800 
 58 H      -12.5380    -7.8190    -2.4140 H     1 <1>   0.0800 
@<TRIPOS>BOND
  1   1   2  1   
  2   1   3  1   
  3   2   4  2   
  4   2   5  1   
  5   3   6  2   
  6   3   7  1   
  7   4   6  1   
  8   4  29  1   
  9   5   8  1   
 10   5  30  1   
 11   5  31  1   
 12   6  32  1   
 13   7   9  1   
 14   7  33  1   
 15   7  34  1   
 16   8  10  1   
 17   8  11  1   
 18   8  35  1   
 19   9  36  1   
 20   9  37  1   
 21   9  38  1   
 22  10  12  1   
 23  10  39  1   
 24  10  40  1   
 25  11  13  1   
 26  11  41  1   
 27  11  42  1   
 28  12  14  1   
 29  12  43  1   
 30  12  44  1   
 31  13  15  1   
 32  13  45  1   
 33  13  46  1   
 34  14  15  1   
 35  14  16  am  
 36  15  47  1   
 37  15  48  1   
 38  16  17  2   
 39  16  18  1   
 40  18  19  1   
 41  18  49  1   
 42  18  50  1   
 43  19  20  1   
 44  19  21  2   
 45  20  22  ar  
 46  20  23  1   
 47  21  24  1   
 48  21  51  1   
 49  22  24  ar  
 50  22  25  1   
 51  23  26  2   
 52  23  52  1   
 53  24  53  1   
 54  25  27  2   
 55  25  28  1   
 56  26  27  1   
 57  26  54  1   
 58  27  55  1   
 59  28  56  1   
 60  28  57  1   
 61  28  58  1   
@<TRIPOS>SUBSTRUCTURE
  1 ****  16 GROUP 4 **** **** 0

# MOE 2024.06 (io_trps.svl 2023.06)
