@<TRIPOS>MOLECULE
NONAME
47 49 1 0 0 
SMALL
USER_CHARGES


@<TRIPOS>ATOM
  1 O       -0.7830     1.3850    -2.3400 O.2   1 <1>  -0.5700 
  2 C       -1.6670     1.7150    -1.5720 C.2   1 <1>   0.5440 
  3 N       -2.0650     3.0380    -1.5260 N.am  1 <1>  -0.6600 
  4 C       -2.2840     0.7120    -0.7250 C.ar  1 <1>   0.0860 
  5 C       -3.1220     3.5480    -0.6100 C.3   1 <1>   0.1400 
  6 C       -1.4150     4.0810    -2.3650 C.3   1 <1>   0.1400 
  7 C       -1.7380     0.3390     0.5090 C.ar  1 <1>  -0.1440 
  8 C       -3.4680     0.1000    -1.1320 C.ar  1 <1>  -0.1500 
  9 C       -2.5300     4.6200     0.3080 C.3   1 <1>  -0.1600 
 10 C       -0.8020     5.1510    -1.4590 C.3   1 <1>  -0.1600 
 11 C       -2.3770    -0.6020     1.2990 C.ar  1 <1>  -0.1500 
 12 C       -0.4340     0.9620     0.9900 C.3   1 <1>  -0.0970 
 13 C       -4.1020    -0.8400    -0.3410 C.ar  1 <1>  -0.1500 
 14 C       -1.8430     5.7450    -0.4920 C.3   1 <1>  -0.0190 
 15 C       -3.5560    -1.1900     0.8790 C.ar  1 <1>  -0.1500 
 16 C       -1.1940     6.7920     0.4100 C.2   1 <1>   0.5690 
 17 O       -0.6510     6.4610     1.4390 O.2   1 <1>  -0.5700 
 18 N       -1.1890     8.0860     0.0040 N.am  1 <1>  -0.7300 
 19 C       -0.4810     9.1740     0.7190 C.3   1 <1>   0.3200 
 20 C        1.0120     9.0560     0.4820 C.2   1 <1>   0.0060 
 21 N        1.7650     9.9230    -0.0980 N.2   1 <1>  -0.3380 
 22 N        1.7130     7.9830     0.8620 N.pl3 1 <1>   0.0330 
 23 N        3.0080     9.4150    -0.1160 N.2   1 <1>  -0.3380 
 24 C        2.9510     8.2590     0.4590 C.2   1 <1>   0.2700 
 25 N        4.0370     7.4280     0.6250 N.pl3 1 <1>  -0.8840 
 26 H       -3.5360     2.7560    -0.0120 H     1 <1>   0.0800 
 27 H       -3.9190     3.9690    -1.1990 H     1 <1>   0.0800 
 28 H       -2.1550     4.5200    -3.0130 H     1 <1>   0.0800 
 29 H       -0.6460     3.6530    -2.9850 H     1 <1>   0.0800 
 30 H       -3.8890     0.3700    -2.0840 H     1 <1>   0.1500 
 31 H       -1.8180     4.1520     0.9660 H     1 <1>   0.0800 
 32 H       -3.3100     5.0350     0.9200 H     1 <1>   0.0800 
 33 H       -0.3810     5.9300    -2.0700 H     1 <1>   0.0800 
 34 H        0.0030     4.7060    -0.8990 H     1 <1>   0.0800 
 35 H       -1.9580    -0.8880     2.2490 H     1 <1>   0.1500 
 36 H        0.3510     0.7530     0.2840 H     1 <1>   0.0800 
 37 H       -0.1430     0.5680     1.9460 H     1 <1>   0.0800 
 38 H       -0.5400     2.0280     1.0770 H     1 <1>   0.0800 
 39 H       -5.0160    -1.3000    -0.6750 H     1 <1>   0.1500 
 40 H       -2.6000     6.2380    -1.0760 H     1 <1>   0.0800 
 41 H       -4.0450    -1.9220     1.4990 H     1 <1>   0.1500 
 42 H       -1.5060     8.3290    -0.9350 H     1 <1>   0.3700 
 43 H       -0.6830     9.1060     1.7740 H     1 <1>   0.0800 
 44 H       -0.8300    10.1280     0.3640 H     1 <1>   0.0800 
 45 H        1.3440     7.1280     1.2900 H     1 <1>   0.2700 
 46 H        4.8810     7.8520     0.2310 H     1 <1>   0.4000 
 47 H        4.2090     7.1360     1.5890 H     1 <1>   0.4000 
@<TRIPOS>BOND
  1   1   2  2   
  2   2   3  am  
  3   2   4  1   
  4   3   5  1   
  5   3   6  1   
  6   4   7  ar  
  7   4   8  ar  
  8   5   9  1   
  9   5  26  1   
 10   5  27  1   
 11   6  10  1   
 12   6  28  1   
 13   6  29  1   
 14   7  11  ar  
 15   7  12  1   
 16   8  13  ar  
 17   8  30  1   
 18   9  14  1   
 19   9  31  1   
 20   9  32  1   
 21  10  14  1   
 22  10  33  1   
 23  10  34  1   
 24  11  15  ar  
 25  11  35  1   
 26  12  36  1   
 27  12  37  1   
 28  12  38  1   
 29  13  15  ar  
 30  13  39  1   
 31  14  16  1   
 32  14  40  1   
 33  15  41  1   
 34  16  17  2   
 35  16  18  am  
 36  18  19  1   
 37  18  42  1   
 38  19  20  1   
 39  19  43  1   
 40  19  44  1   
 41  20  21  2   
 42  20  22  1   
 43  21  23  1   
 44  22  24  1   
 45  22  45  1   
 46  23  24  2   
 47  24  25  1   
 48  25  46  1   
 49  25  47  1   
@<TRIPOS>SUBSTRUCTURE
  1 ****  10 GROUP 4 **** **** 0

# MOE 2024.06 (io_trps.svl 2023.06)
