@<TRIPOS>MOLECULE
NONAME
54 58 1 0 0 
SMALL
USER_CHARGES


@<TRIPOS>ATOM
  1 O       -4.3600     0.7100    -2.2120 O.2   1 <1>  -0.5700 
  2 C       -3.9040    -0.0250    -1.3800 C.2   1 <1>   0.5690 
  3 N       -3.4030     0.4720    -0.2360 N.am  1 <1>  -0.7300 
  4 C       -3.9310    -1.5120    -1.6010 C.3   1 <1>  -0.0190 
  5 C       -2.8360    -0.3240     0.8770 C.3   1 <1>   0.2200 
  6 C       -2.5100    -2.1160    -1.6120 C.3   1 <1>   0.1200 
  7 C       -4.9350    -2.1300    -0.6190 C.3   1 <1>   0.3430 
  8 C       -1.6150    -1.1420     0.3880 C.3   1 <1>   0.1200 
  9 C       -3.9430    -1.1900     1.5430 C.3   1 <1>   0.3430 
 10 O       -1.9770    -2.2980    -0.3260 O.3   1 <1>  -0.5600 
 11 N       -4.3800    -2.3970     0.7540 N.4   1 <1>  -0.9590 
 12 C       -5.2510    -3.3030     1.5460 C.3   1 <1>   0.5240 
 13 C       -5.2730    -4.6540     0.8660 C.2   1 <1>  -0.1810 
 14 C       -6.2720    -5.1350     0.0110 C.2   1 <1>   0.2880 
 15 C       -4.3520    -5.6360     0.9310 C.2   1 <1>  -0.3020 
 16 N       -5.9610    -6.3280    -0.4190 N.2   1 <1>  -0.7070 
 17 C       -7.4760    -4.4420    -0.3950 C.2   1 <1>   0.1410 
 18 N       -4.7800    -6.6600     0.1530 N.pl3 1 <1>   0.5930 
 19 O       -7.6940    -3.1730    -0.0590 O.3   1 <1>  -0.2800 
 20 C       -8.5220    -4.8780    -1.1450 C.2   1 <1>  -0.1500 
 21 C       -4.0900    -7.8800    -0.1020 C.ar  1 <1>  -0.0230 
 22 C       -8.8460    -2.7930    -0.5730 C.2   1 <1>  -0.0400 
 23 C       -9.4100    -3.8070    -1.2600 C.2   1 <1>  -0.1500 
 24 C       -3.3300    -8.4980     0.8890 C.ar  1 <1>  -0.1500 
 25 C       -4.1560    -8.4800    -1.3570 C.ar  1 <1>  -0.1500 
 26 C       -9.3330    -1.3800    -0.3360 C.3   1 <1>  -0.0600 
 27 C       -2.6470    -9.6730     0.6280 C.ar  1 <1>  -0.1500 
 28 C       -3.4750    -9.6550    -1.6190 C.ar  1 <1>  -0.1500 
 29 C       -2.7180   -10.2520    -0.6270 C.ar  1 <1>  -0.1500 
 30 H       -3.3630     1.4960    -0.1710 H     1 <1>   0.3700 
 31 H       -4.3360    -1.6530    -2.5880 H     1 <1>   0.0800 
 32 H       -2.4820     0.3790     1.6120 H     1 <1>   0.0800 
 33 H       -1.8340    -1.5010    -2.1850 H     1 <1>   0.0800 
 34 H       -2.5410    -3.0890    -2.0730 H     1 <1>   0.0800 
 35 H       -5.2590    -3.0640    -1.0480 H     1 <1>   0.0800 
 36 H       -5.8030    -1.4950    -0.5480 H     1 <1>   0.0800 
 37 H       -1.0490    -1.4750     1.2410 H     1 <1>   0.0800 
 38 H       -0.9640    -0.5390    -0.2230 H     1 <1>   0.0800 
 39 H       -4.7940    -0.5610     1.7460 H     1 <1>   0.0800 
 40 H       -3.5580    -1.5280     2.4910 H     1 <1>   0.0800 
 41 H       -3.5020    -2.9180     0.5580 H     1 <1>   0.4500 
 42 H       -4.8450    -3.4240     2.5370 H     1 <1>   0.0800 
 43 H       -6.2450    -2.8980     1.6350 H     1 <1>   0.0800 
 44 H       -3.4200    -5.6890     1.4640 H     1 <1>   0.1500 
 45 H       -8.6510    -5.8560    -1.5740 H     1 <1>   0.1500 
 46 H      -10.3450    -3.8250    -1.7940 H     1 <1>   0.1500 
 47 H       -3.2690    -8.0710     1.8740 H     1 <1>   0.1500 
 48 H       -4.7470    -8.0270    -2.1350 H     1 <1>   0.1500 
 49 H      -10.2840    -1.2320    -0.8150 H     1 <1>   0.0800 
 50 H       -8.6300    -0.6740    -0.7390 H     1 <1>   0.0800 
 51 H       -9.4470    -1.2030     0.7180 H     1 <1>   0.0800 
 52 H       -2.0620   -10.1420     1.4000 H     1 <1>   0.1500 
 53 H       -3.5350   -10.1060    -2.5940 H     1 <1>   0.1500 
 54 H       -2.1870   -11.1670    -0.8300 H     1 <1>   0.1500 
@<TRIPOS>BOND
  1   1   2  2   
  2   2   3  am  
  3   2   4  1   
  4   3   5  1   
  5   3  30  1   
  6   4   6  1   
  7   4   7  1   
  8   4  31  1   
  9   5   8  1   
 10   5   9  1   
 11   5  32  1   
 12   6  10  1   
 13   6  33  1   
 14   6  34  1   
 15   7  11  1   
 16   7  35  1   
 17   7  36  1   
 18   8  10  1   
 19   8  37  1   
 20   8  38  1   
 21   9  11  1   
 22   9  39  1   
 23   9  40  1   
 24  11  12  1   
 25  11  41  1   
 26  12  13  1   
 27  12  42  1   
 28  12  43  1   
 29  13  14  1   
 30  13  15  2   
 31  14  16  2   
 32  14  17  1   
 33  15  18  1   
 34  15  44  1   
 35  16  18  1   
 36  17  19  1   
 37  17  20  2   
 38  18  21  1   
 39  19  22  1   
 40  20  23  1   
 41  20  45  1   
 42  21  24  ar  
 43  21  25  ar  
 44  22  23  2   
 45  22  26  1   
 46  23  46  1   
 47  24  27  ar  
 48  24  47  1   
 49  25  28  ar  
 50  25  48  1   
 51  26  49  1   
 52  26  50  1   
 53  26  51  1   
 54  27  29  ar  
 55  27  52  1   
 56  28  29  ar  
 57  28  53  1   
 58  29  54  1   
@<TRIPOS>SUBSTRUCTURE
  1 ****  13 GROUP 4 **** **** 0

# MOE 2024.06 (io_trps.svl 2023.06)
