@<TRIPOS>MOLECULE
NONAME
48 50 1 0 0 
SMALL
USER_CHARGES


@<TRIPOS>ATOM
  1 O       -0.5740     0.3030     0.6760 O.2   1 <1>  -0.5700 
  2 C       -1.6320     0.9010     0.5700 C.2   1 <1>   0.5440 
  3 N       -2.7930     0.1830     0.8140 N.am  1 <1>  -0.6600 
  4 C       -1.6110     2.3220     0.2090 C.ar  1 <1>   0.3960 
  5 C       -2.8390    -1.3080     0.7100 C.3   1 <1>   0.1400 
  6 C       -4.1620     0.7710     0.8880 C.3   1 <1>   0.1400 
  7 N       -2.4770     2.8110    -0.7000 N.ar  1 <1>  -0.6200 
  8 C       -0.6630     3.1480     0.8180 C.ar  1 <1>  -0.1500 
  9 C       -3.7700    -1.7380    -0.4410 C.3   1 <1>   0.3440 
 10 C       -5.0020     0.2850    -0.3150 C.3   1 <1>   0.2000 
 11 C       -2.3910     4.0980    -0.9820 C.ar  1 <1>   0.1600 
 12 C       -0.5860     4.4900     0.5180 C.ar  1 <1>  -0.1500 
 13 O       -5.0270    -1.1230    -0.3130 O.3   1 <1>  -0.5600 
 14 C       -3.9430    -3.2550    -0.4550 C.ar  1 <1>  -0.1430 
 15 C       -6.4620     0.8290    -0.3550 C.3   1 <1>   0.0000 
 16 C       -1.4810     4.9700    -0.4110 C.ar  1 <1>  -0.1500 
 17 C       -3.0860    -4.0360    -1.2160 C.ar  1 <1>  -0.1500 
 18 C       -4.9360    -3.8760     0.2910 C.ar  1 <1>  -0.1500 
 19 C       -7.2800     0.3880     0.8730 C.3   1 <1>  -0.2400 
 20 C       -7.1690     0.3070    -1.6200 C.3   1 <1>  -0.2400 
 21 C       -6.4680     2.3680    -0.4220 C.3   1 <1>  -0.2400 
 22 C       -3.2160    -5.4140    -1.2320 C.ar  1 <1>  -0.1500 
 23 C       -5.0680    -5.2540     0.2770 C.ar  1 <1>  -0.1500 
 24 C       -4.2080    -6.0250    -0.4840 C.ar  1 <1>  -0.1500 
 25 H       -1.8570    -1.7110     0.5340 H     1 <1>   0.0800 
 26 H       -3.2020    -1.7200     1.6340 H     1 <1>   0.0800 
 27 H       -4.6280     0.4500     1.8020 H     1 <1>   0.0800 
 28 H       -4.1160     1.8420     0.9100 H     1 <1>   0.0800 
 29 H        0.0170     2.7170     1.5300 H     1 <1>   0.1500 
 30 H       -3.3470    -1.4220    -1.3780 H     1 <1>   0.0800 
 31 H       -4.5070     0.6000    -1.2180 H     1 <1>   0.0800 
 32 H       -3.0830     4.4860    -1.7110 H     1 <1>   0.1500 
 33 H        0.1420     5.1310     0.9850 H     1 <1>   0.1500 
 34 H       -1.4740     6.0070    -0.6940 H     1 <1>   0.1500 
 35 H       -2.3090    -3.5750    -1.8020 H     1 <1>   0.1500 
 36 H       -5.6120    -3.2840     0.8840 H     1 <1>   0.1500 
 37 H       -8.2980     0.7250     0.7870 H     1 <1>   0.0800 
 38 H       -6.8720     0.7930     1.7800 H     1 <1>   0.0800 
 39 H       -7.2870    -0.6850     0.9510 H     1 <1>   0.0800 
 40 H       -8.1690     0.6970    -1.6900 H     1 <1>   0.0800 
 41 H       -7.2300    -0.7670    -1.6020 H     1 <1>   0.0800 
 42 H       -6.6270     0.5980    -2.5030 H     1 <1>   0.0800 
 43 H       -7.4700     2.7340    -0.5620 H     1 <1>   0.0800 
 44 H       -5.8650     2.7110    -1.2440 H     1 <1>   0.0800 
 45 H       -6.0860     2.8000     0.4850 H     1 <1>   0.0800 
 46 H       -2.5470    -6.0120    -1.8250 H     1 <1>   0.1500 
 47 H       -5.8420    -5.7250     0.8580 H     1 <1>   0.1500 
 48 H       -4.3110    -7.0950    -0.4960 H     1 <1>   0.1500 
@<TRIPOS>BOND
  1   1   2  2   
  2   2   3  am  
  3   2   4  1   
  4   3   5  1   
  5   3   6  1   
  6   4   7  ar  
  7   4   8  ar  
  8   5   9  1   
  9   5  25  1   
 10   5  26  1   
 11   6  10  1   
 12   6  27  1   
 13   6  28  1   
 14   7  11  ar  
 15   8  12  ar  
 16   8  29  1   
 17   9  13  1   
 18   9  14  1   
 19   9  30  1   
 20  10  13  1   
 21  10  15  1   
 22  10  31  1   
 23  11  16  ar  
 24  11  32  1   
 25  12  16  ar  
 26  12  33  1   
 27  14  17  ar  
 28  14  18  ar  
 29  15  19  1   
 30  15  20  1   
 31  15  21  1   
 32  16  34  1   
 33  17  22  ar  
 34  17  35  1   
 35  18  23  ar  
 36  18  36  1   
 37  19  37  1   
 38  19  38  1   
 39  19  39  1   
 40  20  40  1   
 41  20  41  1   
 42  20  42  1   
 43  21  43  1   
 44  21  44  1   
 45  21  45  1   
 46  22  24  ar  
 47  22  46  1   
 48  23  24  ar  
 49  23  47  1   
 50  24  48  1   
@<TRIPOS>SUBSTRUCTURE
  1 ****   3 GROUP 4 **** **** 0

# MOE 2024.06 (io_trps.svl 2023.06)
