@<TRIPOS>MOLECULE
NONAME
44 46 1 0 0 
SMALL
USER_CHARGES


@<TRIPOS>ATOM
  1 O        0.4810     0.2520     0.8990 O.3   1 <1>  -0.6800 
  2 C        1.1900    -0.0910    -0.2480 C.3   1 <1>   0.2000 
  3 C        1.9970    -1.3530     0.0540 C.3   1 <1>  -0.0800 
  4 C        2.2710     0.9650    -0.4840 C.3   1 <1>   0.3430 
  5 C        3.2370    -0.8340     0.7980 C.3   1 <1>   0.3430 
  6 C        2.3850    -2.1070    -1.2330 C.3   1 <1>  -0.0170 
  7 N        3.3690     0.6130     0.4620 N.4   1 <1>  -0.9590 
  8 C        3.2930    -3.2850    -0.9170 C.ar  1 <1>  -0.1440 
  9 C        3.2990     1.4900     1.6650 C.3   1 <1>   0.5240 
 10 C        2.8270    -4.4030    -0.2530 C.ar  1 <1>  -0.1500 
 11 C        4.6270    -3.3010    -1.2750 C.ar  1 <1>  -0.1500 
 12 C        3.9300     2.8270     1.2920 C.2   1 <1>   0.1080 
 13 C        3.6960    -5.4450     0.0270 C.ar  1 <1>   0.1600 
 14 C        5.4110    -4.3950    -0.9470 C.ar  1 <1>   0.1600 
 15 N        4.8050     2.9490     0.3330 N.2   1 <1>  -0.7070 
 16 C        3.6530     4.0430     1.9050 C.2   1 <1>  -0.1500 
 17 N        4.9770    -5.4610    -0.2970 N.ar  1 <1>  -0.6200 
 18 N        5.1170     4.2630     0.3140 N.pl3 1 <1>   0.3140 
 19 C        4.4280     4.9360     1.2560 C.2   1 <1>  -0.3020 
 20 C        6.0960     4.8360    -0.6340 C.3   1 <1>   0.0960 
 21 C        5.3960     5.3940    -1.8800 C.3   1 <1>  -0.2400 
 22 H       -0.3410    -0.2780     0.9800 H     1 <1>   0.4000 
 23 H        0.5020    -0.1820    -1.0730 H     1 <1>   0.0800 
 24 H        1.4420    -2.0250     0.6850 H     1 <1>   0.0800 
 25 H        1.8950     1.9630    -0.3240 H     1 <1>   0.0800 
 26 H        2.6340     0.8850    -1.4950 H     1 <1>   0.0800 
 27 H        4.1210    -1.3810     0.5110 H     1 <1>   0.0800 
 28 H        3.0890    -0.9520     1.8600 H     1 <1>   0.0800 
 29 H        2.8820    -1.4500    -1.9250 H     1 <1>   0.0800 
 30 H        1.4970    -2.4760    -1.7190 H     1 <1>   0.0800 
 31 H        4.2770     0.8830     0.0400 H     1 <1>   0.4500 
 32 H        2.2780     1.6240     1.9810 H     1 <1>   0.0800 
 33 H        3.8650     1.0570     2.4720 H     1 <1>   0.0800 
 34 H        1.7990    -4.4840     0.0480 H     1 <1>   0.1500 
 35 H        5.0720    -2.4820    -1.8110 H     1 <1>   0.1500 
 36 H        3.3180    -6.3110     0.5450 H     1 <1>   0.1500 
 37 H        6.4490    -4.3950    -1.2350 H     1 <1>   0.1500 
 38 H        2.9700     4.2230     2.7190 H     1 <1>   0.1500 
 39 H        4.5260     5.9960     1.4090 H     1 <1>   0.1500 
 40 H        6.6400     5.6160    -0.1340 H     1 <1>   0.0800 
 41 H        6.7880     4.0640    -0.9150 H     1 <1>   0.0800 
 42 H        4.7130     6.1790    -1.6090 H     1 <1>   0.0800 
 43 H        4.8580     4.6110    -2.3860 H     1 <1>   0.0800 
 44 H        6.1270     5.7970    -2.5580 H     1 <1>   0.0800 
@<TRIPOS>BOND
  1   1   2  1   
  2   1  22  1   
  3   2   3  1   
  4   2   4  1   
  5   2  23  1   
  6   3   5  1   
  7   3   6  1   
  8   3  24  1   
  9   4   7  1   
 10   4  25  1   
 11   4  26  1   
 12   5   7  1   
 13   5  27  1   
 14   5  28  1   
 15   6   8  1   
 16   6  29  1   
 17   6  30  1   
 18   7   9  1   
 19   7  31  1   
 20   8  10  ar  
 21   8  11  ar  
 22   9  12  1   
 23   9  32  1   
 24   9  33  1   
 25  10  13  ar  
 26  10  34  1   
 27  11  14  ar  
 28  11  35  1   
 29  12  15  2   
 30  12  16  1   
 31  13  17  ar  
 32  13  36  1   
 33  14  17  ar  
 34  14  37  1   
 35  15  18  1   
 36  16  19  2   
 37  16  38  1   
 38  18  19  1   
 39  18  20  1   
 40  19  39  1   
 41  20  21  1   
 42  20  40  1   
 43  20  41  1   
 44  21  42  1   
 45  21  43  1   
 46  21  44  1   
@<TRIPOS>SUBSTRUCTURE
  1 ****   7 GROUP 4 **** **** 0

# MOE 2024.06 (io_trps.svl 2023.06)
