@<TRIPOS>MOLECULE
NONAME
47 49 1 0 0 
SMALL
USER_CHARGES


@<TRIPOS>ATOM
  1 CL      -0.8320    -1.3590     2.3760 Cl    1 <1>  -0.1770 
  2 C       -1.5390    -2.8500     1.7960 C.ar  1 <1>   0.1770 
  3 C       -1.4540    -3.1700     0.4200 C.ar  1 <1>   0.0000 
  4 C       -2.1580    -3.6600     2.7050 C.ar  1 <1>  -0.1500 
  5 C       -2.0570    -4.3740    -0.0210 C.ar  1 <1>   0.0000 
  6 C       -0.7990    -2.3540    -0.5260 C.ar  1 <1>  -0.1500 
  7 C       -2.7260    -4.8590     2.2720 C.ar  1 <1>  -0.1500 
  8 C       -2.0360    -4.7020    -1.4080 C.ar  1 <1>   0.0860 
  9 C       -2.6610    -5.2030     0.9510 C.ar  1 <1>  -0.1500 
 10 C       -0.7500    -2.6980    -1.8470 C.ar  1 <1>  -0.1500 
 11 C       -2.7010    -5.8810    -1.9250 C.2   1 <1>   0.5440 
 12 C       -1.3680    -3.8700    -2.2800 C.ar  1 <1>  -0.1500 
 13 O       -2.0430    -6.7070    -2.5330 O.2   1 <1>  -0.5700 
 14 N       -4.0620    -6.0820    -1.8020 N.am  1 <1>  -0.6600 
 15 C       -4.6010    -7.4820    -1.9270 C.3   1 <1>   0.1400 
 16 C       -5.0190    -4.9830    -1.4740 C.3   1 <1>   0.1400 
 17 C       -6.1000    -7.6060    -1.5830 C.3   1 <1>   0.2000 
 18 C       -6.0510    -5.3500    -0.3920 C.3   1 <1>  -0.1600 
 19 O       -6.8100    -7.0730    -2.6590 O.3   1 <1>  -0.6800 
 20 C       -6.4270    -6.8650    -0.2570 C.3   1 <1>  -0.1060 
 21 C       -5.5880    -7.5450     0.8550 C.2   1 <1>   0.9060 
 22 C       -7.9090    -7.0290     0.2110 C.3   1 <1>  -0.1600 
 23 O       -5.2660    -6.9110     1.8690 O.co2 1 <1>  -0.9000 
 24 O       -5.2910    -8.7420     0.7470 O.co2 1 <1>  -0.9000 
 25 C       -9.0460    -6.6000    -0.7360 C.3   1 <1>  -0.1600 
 26 C      -10.4000    -6.6570    -0.0230 C.3   1 <1>  -0.2400 
 27 H       -2.2130    -3.3920     3.7440 H     1 <1>   0.1500 
 28 H       -0.3250    -1.4460    -0.1980 H     1 <1>   0.1500 
 29 H       -3.2240    -5.5150     2.9710 H     1 <1>   0.1500 
 30 H       -3.1010    -6.1420     0.6580 H     1 <1>   0.1500 
 31 H       -0.2400    -2.0760    -2.5620 H     1 <1>   0.1500 
 32 H       -1.3230    -4.1280    -3.3250 H     1 <1>   0.1500 
 33 H       -4.4330    -7.8450    -2.9260 H     1 <1>   0.0800 
 34 H       -4.0350    -8.1160    -1.2670 H     1 <1>   0.0800 
 35 H       -4.4950    -4.0970    -1.1620 H     1 <1>   0.0800 
 36 H       -5.5430    -4.7270    -2.3780 H     1 <1>   0.0800 
 37 H       -6.3700    -8.6460    -1.5050 H     1 <1>   0.0800 
 38 H       -5.6910    -4.9740     0.5490 H     1 <1>   0.0800 
 39 H       -6.9290    -4.7710    -0.5980 H     1 <1>   0.0800 
 40 H       -6.4410    -6.1920    -2.8380 H     1 <1>   0.4000 
 41 H       -8.0620    -8.0680     0.4510 H     1 <1>   0.0800 
 42 H       -8.0100    -6.4870     1.1360 H     1 <1>   0.0800 
 43 H       -8.8870    -5.6030    -1.1030 H     1 <1>   0.0800 
 44 H       -9.0800    -7.2650    -1.5810 H     1 <1>   0.0800 
 45 H      -10.4120    -5.9820     0.8140 H     1 <1>   0.0800 
 46 H      -10.5910    -7.6550     0.3330 H     1 <1>   0.0800 
 47 H      -11.1860    -6.3780    -0.7020 H     1 <1>   0.0800 
@<TRIPOS>BOND
  1   1   2  1   
  2   2   3  ar  
  3   2   4  ar  
  4   3   5  ar  
  5   3   6  ar  
  6   4   7  ar  
  7   4  27  1   
  8   5   8  ar  
  9   5   9  ar  
 10   6  10  ar  
 11   6  28  1   
 12   7   9  ar  
 13   7  29  1   
 14   8  11  1   
 15   8  12  ar  
 16   9  30  1   
 17  10  12  ar  
 18  10  31  1   
 19  11  13  2   
 20  11  14  am  
 21  12  32  1   
 22  14  15  1   
 23  14  16  1   
 24  15  17  1   
 25  15  33  1   
 26  15  34  1   
 27  16  18  1   
 28  16  35  1   
 29  16  36  1   
 30  17  19  1   
 31  17  20  1   
 32  17  37  1   
 33  18  20  1   
 34  18  38  1   
 35  18  39  1   
 36  19  40  1   
 37  20  21  1   
 38  20  22  1   
 39  21  23  ar  
 40  21  24  ar  
 41  22  25  1   
 42  22  41  1   
 43  22  42  1   
 44  25  26  1   
 45  25  43  1   
 46  25  44  1   
 47  26  45  1   
 48  26  46  1   
 49  26  47  1   
@<TRIPOS>SUBSTRUCTURE
  1 ****  16 GROUP 4 **** **** 0

# MOE 2024.06 (io_trps.svl 2023.06)
