@<TRIPOS>MOLECULE
NONAME
48 50 1 0 0 
SMALL
USER_CHARGES


@<TRIPOS>ATOM
  1 O        0.7010     1.2320     0.6910 O.2   1 <1>  -0.5700 
  2 C        0.4990     2.3850     0.4060 C.2   1 <1>   0.5690 
  3 N       -0.4520     3.0970     1.0490 N.am  1 <1>  -0.7300 
  4 C        1.3010     3.0530    -0.7150 C.3   1 <1>   0.1810 
  5 C       -0.7900     4.5040     0.7220 C.3   1 <1>   0.3640 
  6 O        1.2470     4.4610    -0.6560 O.3   1 <1>  -0.5600 
  7 C       -2.3040     4.6320     0.5990 C.ar  1 <1>  -0.1440 
  8 C       -0.0690     4.9930    -0.5590 C.3   1 <1>   0.2610 
  9 C       -3.0520     3.7030    -0.1150 C.ar  1 <1>  -0.1500 
 10 C       -2.9560     5.6990     1.2020 C.ar  1 <1>  -0.1500 
 11 C       -0.0900     6.5290    -0.6090 C.2   1 <1>   0.5690 
 12 C       -4.4260     3.8370    -0.2180 C.ar  1 <1>  -0.1500 
 13 C       -4.3290     5.8340     1.0980 C.ar  1 <1>  -0.1500 
 14 O       -0.9240     7.0300    -1.3270 O.2   1 <1>  -0.5700 
 15 N        0.7560     7.3210     0.1390 N.am  1 <1>  -0.6600 
 16 C       -5.0650     4.9030     0.3890 C.ar  1 <1>  -0.1500 
 17 C        0.7310     8.8180    -0.0350 C.3   1 <1>   0.3210 
 18 C        1.8370     6.8160     1.0390 C.3   1 <1>   0.0600 
 19 C        2.0970     9.4210    -0.3670 C.2   1 <1>   0.3350 
 20 N        2.5270     9.6560    -1.5430 N.2   1 <1>  -0.4100 
 21 N        2.9570     9.7700     0.5870 N.2   1 <1>  -0.5650 
 22 O        3.7130    10.1710    -1.4230 O.3   1 <1>  -0.0190 
 23 C        3.9130    10.2140    -0.1290 C.2   1 <1>   0.2980 
 24 C        5.2300    10.7740     0.4000 C.3   1 <1>   0.1000 
 25 C        5.4190    12.2400    -0.0170 C.3   1 <1>  -0.2400 
 26 C        6.4210     9.9270    -0.0720 C.3   1 <1>  -0.2400 
 27 H       -1.0180     2.6360     1.7630 H     1 <1>   0.3700 
 28 H        0.9190     2.7370    -1.6690 H     1 <1>   0.0800 
 29 H        2.3320     2.7610    -0.6400 H     1 <1>   0.0800 
 30 H       -0.4680     5.1130     1.5470 H     1 <1>   0.0800 
 31 H       -0.6130     4.6400    -1.4170 H     1 <1>   0.0800 
 32 H       -2.5730     2.8670    -0.5950 H     1 <1>   0.1500 
 33 H       -2.4010     6.4380     1.7530 H     1 <1>   0.1500 
 34 H       -4.9980     3.1130    -0.7720 H     1 <1>   0.1500 
 35 H       -4.8250     6.6660     1.5670 H     1 <1>   0.1500 
 36 H       -6.1330     5.0090     0.3070 H     1 <1>   0.1500 
 37 H        0.0540     9.0980    -0.8220 H     1 <1>   0.0800 
 38 H        0.3720     9.2660     0.8730 H     1 <1>   0.0800 
 39 H        1.9420     7.4670     1.8900 H     1 <1>   0.0800 
 40 H        2.7690     6.7940     0.5010 H     1 <1>   0.0800 
 41 H        1.6260     5.8260     1.3970 H     1 <1>   0.0800 
 42 H        5.1940    10.7330     1.4750 H     1 <1>   0.0800 
 43 H        5.4740    12.3250    -1.0880 H     1 <1>   0.0800 
 44 H        6.3220    12.6380     0.4100 H     1 <1>   0.0800 
 45 H        4.5880    12.8290     0.3310 H     1 <1>   0.0800 
 46 H        6.5010     9.9520    -1.1440 H     1 <1>   0.0800 
 47 H        6.2890     8.9060     0.2380 H     1 <1>   0.0800 
 48 H        7.3360    10.2980     0.3530 H     1 <1>   0.0800 
@<TRIPOS>BOND
  1   1   2  2   
  2   2   3  am  
  3   2   4  1   
  4   3   5  1   
  5   3  27  1   
  6   4   6  1   
  7   4  28  1   
  8   4  29  1   
  9   5   7  1   
 10   5   8  1   
 11   5  30  1   
 12   6   8  1   
 13   7   9  ar  
 14   7  10  ar  
 15   8  11  1   
 16   8  31  1   
 17   9  12  ar  
 18   9  32  1   
 19  10  13  ar  
 20  10  33  1   
 21  11  14  2   
 22  11  15  am  
 23  12  16  ar  
 24  12  34  1   
 25  13  16  ar  
 26  13  35  1   
 27  15  17  1   
 28  15  18  1   
 29  16  36  1   
 30  17  19  1   
 31  17  37  1   
 32  17  38  1   
 33  18  39  1   
 34  18  40  1   
 35  18  41  1   
 36  19  20  2   
 37  19  21  1   
 38  20  22  1   
 39  21  23  2   
 40  22  23  1   
 41  23  24  1   
 42  24  25  1   
 43  24  26  1   
 44  24  42  1   
 45  25  43  1   
 46  25  44  1   
 47  25  45  1   
 48  26  46  1   
 49  26  47  1   
 50  26  48  1   
@<TRIPOS>SUBSTRUCTURE
  1 ****  15 GROUP 4 **** **** 0

# MOE 2024.06 (io_trps.svl 2023.06)
