@<TRIPOS>MOLECULE
NONAME
53 56 1 0 0 
SMALL
USER_CHARGES


@<TRIPOS>ATOM
  1 O       -1.5660    -5.7970    -0.9840 O.2   1 <1>  -0.5700 
  2 C       -0.4010    -5.5100    -1.0830 C.2   1 <1>   0.5690 
  3 N        0.3240    -5.8580    -2.1660 N.am  1 <1>  -0.7300 
  4 C        0.3110    -4.7550     0.0190 C.3   1 <1>  -0.0990 
  5 C        1.7560    -5.5300    -2.3210 C.3   1 <1>   0.1400 
  6 C        1.2240    -3.6590    -0.5680 C.3   1 <1>  -0.0800 
  7 C        2.0150    -4.0930    -1.8290 C.3   1 <1>  -0.0800 
  8 C        2.2570    -3.1300     0.4370 C.3   1 <1>  -0.1600 
  9 C        3.4940    -3.8290    -1.5170 C.3   1 <1>  -0.1600 
 10 C        3.4690    -2.7700    -0.4210 C.3   1 <1>   0.2200 
 11 N        4.7650    -2.6880     0.3220 N.am  1 <1>  -0.6600 
 12 C        5.6460    -1.6630     0.0280 C.2   1 <1>   0.5690 
 13 C        5.0910    -3.7930     1.2780 C.3   1 <1>   0.0600 
 14 O        5.4550    -0.9470    -0.9310 O.2   1 <1>  -0.5700 
 15 C        6.8960    -1.4180     0.8990 C.3   1 <1>   0.2680 
 16 C        7.3310     0.0530     0.9640 C.ar  1 <1>  -0.1440 
 17 C        8.0790    -2.3210     0.5210 C.ar  1 <1>  -0.1440 
 18 C        8.0250     0.6400    -0.0860 C.ar  1 <1>  -0.1500 
 19 C        7.0380     0.8220     2.0830 C.ar  1 <1>  -0.1500 
 20 C        8.9970    -2.6810     1.4990 C.ar  1 <1>  -0.1500 
 21 C        8.2580    -2.7940    -0.7730 C.ar  1 <1>  -0.1500 
 22 C        8.4240     1.9630    -0.0180 C.ar  1 <1>  -0.1500 
 23 C        7.4350     2.1460     2.1530 C.ar  1 <1>  -0.1500 
 24 C       10.0640    -3.5080     1.1940 C.ar  1 <1>  -0.1500 
 25 C        9.3250    -3.6210    -1.0790 C.ar  1 <1>  -0.1500 
 26 C        8.1300     2.7180     1.1030 C.ar  1 <1>  -0.1500 
 27 C       10.2280    -3.9810    -0.0960 C.ar  1 <1>  -0.1500 
 28 H       -0.1460    -6.3950    -2.8980 H     1 <1>   0.3700 
 29 H       -0.4150    -4.3180     0.6810 H     1 <1>   0.0800 
 30 H        0.8880    -5.4700     0.5760 H     1 <1>   0.0800 
 31 H        2.3290    -6.2340    -1.7410 H     1 <1>   0.0800 
 32 H        2.0440    -5.6230    -3.3550 H     1 <1>   0.0800 
 33 H        0.5920    -2.8370    -0.8630 H     1 <1>   0.0800 
 34 H        1.7290    -3.4270    -2.6270 H     1 <1>   0.0800 
 35 H        2.4980    -3.9040     1.1400 H     1 <1>   0.0800 
 36 H        1.8870    -2.2700     0.9650 H     1 <1>   0.0800 
 37 H        4.0260    -3.4730    -2.3820 H     1 <1>   0.0800 
 38 H        3.9620    -4.7250    -1.1530 H     1 <1>   0.0800 
 39 H        3.2560    -1.8200    -0.8860 H     1 <1>   0.0800 
 40 H        4.6370    -4.7150     0.9620 H     1 <1>   0.0800 
 41 H        4.7250    -3.5440     2.2590 H     1 <1>   0.0800 
 42 H        6.1530    -3.9580     1.3280 H     1 <1>   0.0800 
 43 H        6.6130    -1.6860     1.8980 H     1 <1>   0.0800 
 44 H        8.2550     0.0650    -0.9660 H     1 <1>   0.1500 
 45 H        6.4960     0.3990     2.9110 H     1 <1>   0.1500 
 46 H        8.8900    -2.3140     2.5040 H     1 <1>   0.1500 
 47 H        7.5730    -2.5200    -1.5580 H     1 <1>   0.1500 
 48 H        8.9600     2.4030    -0.8400 H     1 <1>   0.1500 
 49 H        7.2030     2.7330     3.0250 H     1 <1>   0.1500 
 50 H       10.7700    -3.7810     1.9590 H     1 <1>   0.1500 
 51 H        9.4530    -3.9810    -2.0850 H     1 <1>   0.1500 
 52 H        8.4390     3.7470     1.1560 H     1 <1>   0.1500 
 53 H       11.0580    -4.6230    -0.3340 H     1 <1>   0.1500 
@<TRIPOS>BOND
  1   1   2  2   
  2   2   3  am  
  3   2   4  1   
  4   3   5  1   
  5   3  28  1   
  6   4   6  1   
  7   4  29  1   
  8   4  30  1   
  9   5   7  1   
 10   5  31  1   
 11   5  32  1   
 12   6   7  1   
 13   6   8  1   
 14   6  33  1   
 15   7   9  1   
 16   7  34  1   
 17   8  10  1   
 18   8  35  1   
 19   8  36  1   
 20   9  10  1   
 21   9  37  1   
 22   9  38  1   
 23  10  11  1   
 24  10  39  1   
 25  11  12  am  
 26  11  13  1   
 27  12  14  2   
 28  12  15  1   
 29  13  40  1   
 30  13  41  1   
 31  13  42  1   
 32  15  16  1   
 33  15  17  1   
 34  15  43  1   
 35  16  18  ar  
 36  16  19  ar  
 37  17  20  ar  
 38  17  21  ar  
 39  18  22  ar  
 40  18  44  1   
 41  19  23  ar  
 42  19  45  1   
 43  20  24  ar  
 44  20  46  1   
 45  21  25  ar  
 46  21  47  1   
 47  22  26  ar  
 48  22  48  1   
 49  23  26  ar  
 50  23  49  1   
 51  24  27  ar  
 52  24  50  1   
 53  25  27  ar  
 54  25  51  1   
 55  26  52  1   
 56  27  53  1   
@<TRIPOS>SUBSTRUCTURE
  1 ****  11 GROUP 4 **** **** 0

# MOE 2024.06 (io_trps.svl 2023.06)
