@<TRIPOS>MOLECULE
NONAME
58 61 1 0 0 
SMALL
USER_CHARGES


@<TRIPOS>ATOM
  1 O        1.6500    -0.7230    -4.1830 O.2   1 <1>  -0.5700 
  2 C        1.4930    -1.0950    -3.0430 C.2   1 <1>   0.5690 
  3 N        1.7080    -0.2550    -1.9910 N.am  1 <1>  -0.5100 
  4 C        1.0590    -2.5510    -2.8090 C.3   1 <1>   0.1710 
  5 C        2.4650     1.0330    -1.9510 C.3   1 <1>   0.2250 
  6 C        2.0410    -0.5490    -0.5620 C.3   1 <1>   0.2250 
  7 N        0.1120    -2.7790    -1.6820 N.3   1 <1>  -0.8100 
  8 C        3.1360     0.5420    -0.6430 C.3   1 <1>   0.2580 
  9 C       -0.1350    -4.2260    -1.4860 C.3   1 <1>   0.1100 
 10 C       -1.1800    -2.0880    -1.9220 C.3   1 <1>   0.1100 
 11 O        3.0100     1.4730     0.4150 O.3   1 <1>  -0.3400 
 12 C       -1.1150    -4.4970    -0.3280 C.3   1 <1>   0.2090 
 13 C       -2.1850    -2.3180    -0.7770 C.3   1 <1>   0.2090 
 14 C        3.7750     2.5930     0.4630 C.ar  1 <1>   0.0820 
 15 N       -2.4030    -3.7740    -0.5380 N.pl3 1 <1>  -0.8380 
 16 C        3.4640     3.5170     1.4450 C.ar  1 <1>  -0.1500 
 17 C        4.8310     2.8490    -0.4090 C.ar  1 <1>  -0.1500 
 18 C       -3.4320    -4.0990     0.3380 C.ar  1 <1>   0.1000 
 19 C        4.1850     4.6920     1.5690 C.ar  1 <1>   0.0820 
 20 C        5.5560     4.0220    -0.2900 C.ar  1 <1>  -0.1500 
 21 C       -3.3650    -3.7900     1.6930 C.ar  1 <1>  -0.1500 
 22 C       -4.5600    -4.7470    -0.1440 C.ar  1 <1>  -0.1500 
 23 O        3.8080     5.5390     2.5590 O.3   1 <1>  -0.3630 
 24 C        5.2380     4.9440     0.6930 C.ar  1 <1>  -0.1500 
 25 C       -4.4000    -4.1200     2.5520 C.ar  1 <1>  -0.1440 
 26 C       -5.5980    -5.0810     0.7050 C.ar  1 <1>  -0.1500 
 27 C        4.4810     6.7590     2.7760 C.3   1 <1>   0.0400 
 28 C       -5.5190    -4.7680     2.0520 C.ar  1 <1>  -0.1500 
 29 C       -4.3220    -3.7820     4.0290 C.3   1 <1>  -0.0970 
 30 H        1.9530    -3.1210    -2.6300 H     1 <1>   0.0800 
 31 H        0.6190    -2.9160    -3.7210 H     1 <1>   0.0800 
 32 H        1.8000     1.8680    -1.8200 H     1 <1>   0.0000 
 33 H        3.1430     1.1220    -2.7820 H     1 <1>   0.0000 
 34 H        2.4290    -1.5450    -0.4400 H     1 <1>   0.0000 
 35 H        1.2170    -0.3030     0.0850 H     1 <1>   0.0000 
 36 H        4.1380     0.1590    -0.7360 H     1 <1>   0.0000 
 37 H        0.7960    -4.7200    -1.2700 H     1 <1>   0.0800 
 38 H       -0.5430    -4.6540    -2.3850 H     1 <1>   0.0800 
 39 H       -1.6200    -2.4410    -2.8390 H     1 <1>   0.0800 
 40 H       -1.0130    -1.0300    -2.0180 H     1 <1>   0.0800 
 41 H       -0.6680    -4.1780     0.5960 H     1 <1>   0.0800 
 42 H       -1.3110    -5.5520    -0.2620 H     1 <1>   0.0800 
 43 H       -3.1240    -1.8570    -1.0260 H     1 <1>   0.0800 
 44 H       -1.8100    -1.8560     0.1190 H     1 <1>   0.0800 
 45 H        2.6520     3.3240     2.1210 H     1 <1>   0.1500 
 46 H        5.1070     2.1540    -1.1790 H     1 <1>   0.1500 
 47 H        6.3720     4.2190    -0.9640 H     1 <1>   0.1500 
 48 H       -2.4920    -3.2890     2.0640 H     1 <1>   0.1500 
 49 H       -4.6090    -4.9830    -1.1900 H     1 <1>   0.1500 
 50 H        5.8170     5.8450     0.7620 H     1 <1>   0.1500 
 51 H       -6.4670    -5.5840     0.3200 H     1 <1>   0.1500 
 52 H        4.0120     7.2550     3.6070 H     1 <1>   0.0800 
 53 H        4.3960     7.3670     1.8930 H     1 <1>   0.0800 
 54 H        5.5110     6.5530     3.0080 H     1 <1>   0.0800 
 55 H       -6.3290    -5.0310     2.7080 H     1 <1>   0.1500 
 56 H       -3.4610    -3.1730     4.2390 H     1 <1>   0.0800 
 57 H       -4.2530    -4.6860     4.6060 H     1 <1>   0.0800 
 58 H       -5.2030    -3.2420     4.3290 H     1 <1>   0.0800 
@<TRIPOS>BOND
  1   1   2  2   
  2   2   3  am  
  3   2   4  1   
  4   3   5  1   
  5   3   6  1   
  6   4   7  1   
  7   4  30  1   
  8   4  31  1   
  9   5   8  1   
 10   5  32  1   
 11   5  33  1   
 12   6   8  1   
 13   6  34  1   
 14   6  35  1   
 15   7   9  1   
 16   7  10  1   
 17   8  11  1   
 18   8  36  1   
 19   9  12  1   
 20   9  37  1   
 21   9  38  1   
 22  10  13  1   
 23  10  39  1   
 24  10  40  1   
 25  11  14  1   
 26  12  15  1   
 27  12  41  1   
 28  12  42  1   
 29  13  15  1   
 30  13  43  1   
 31  13  44  1   
 32  14  16  ar  
 33  14  17  ar  
 34  15  18  1   
 35  16  19  ar  
 36  16  45  1   
 37  17  20  ar  
 38  17  46  1   
 39  18  21  ar  
 40  18  22  ar  
 41  19  23  1   
 42  19  24  ar  
 43  20  24  ar  
 44  20  47  1   
 45  21  25  ar  
 46  21  48  1   
 47  22  26  ar  
 48  22  49  1   
 49  23  27  1   
 50  24  50  1   
 51  25  28  ar  
 52  25  29  1   
 53  26  28  ar  
 54  26  51  1   
 55  27  52  1   
 56  27  53  1   
 57  27  54  1   
 58  28  55  1   
 59  29  56  1   
 60  29  57  1   
 61  29  58  1   
@<TRIPOS>SUBSTRUCTURE
  1 ****   6 GROUP 4 **** **** 0

# MOE 2024.06 (io_trps.svl 2023.06)
