@<TRIPOS>MOLECULE
NONAME
41 42 1 0 0 
SMALL
USER_CHARGES


@<TRIPOS>ATOM
  1 S        0.0220     0.0540     0.5230 S.o2  1 <1>   1.3330 
  2 O        0.3770    -0.9600     1.4910 O.2   1 <1>  -0.6500 
  3 O       -0.5610     1.2980     0.9720 O.2   1 <1>  -0.6500 
  4 N       -1.0270    -0.6510    -0.6100 N.am  1 <1>  -0.8490 
  5 C        1.4580     0.4510    -0.4730 C.3   1 <1>  -0.0550 
  6 C       -2.4380    -0.4180    -0.2850 C.3   1 <1>   0.1160 
  7 C       -0.7920    -2.0850    -0.8110 C.3   1 <1>   0.1160 
  8 C        2.5290     1.2470     0.2960 C.3   1 <1>  -0.0800 
  9 C        3.6530     1.6970    -0.6270 C.3   1 <1>   0.2200 
 10 C        3.2500     0.3990     1.3570 C.3   1 <1>   0.1200 
 11 N        4.1380     3.0150    -0.1660 N.am  1 <1>  -0.7300 
 12 C        4.7220     0.6470    -0.3640 C.3   1 <1>   0.1200 
 13 O        4.5960     0.3540     0.9890 O.3   1 <1>  -0.5600 
 14 C        4.0690     4.1760    -0.8790 C.2   1 <1>   0.5440 
 15 O        3.6670     4.1310    -2.0230 O.2   1 <1>  -0.5700 
 16 C        4.4700     5.4350    -0.2910 C.ar  1 <1>   0.0860 
 17 C        4.3040     5.6860     1.0690 C.ar  1 <1>   0.1600 
 18 C        5.0300     6.4560    -1.0460 C.ar  1 <1>  -0.1500 
 19 N        4.6470     6.7950     1.7020 N.ar  1 <1>  -0.6200 
 20 C        5.3900     7.6210    -0.4060 C.ar  1 <1>  -0.1500 
 21 C        5.1920     7.7650     0.9640 C.ar  1 <1>   0.3830 
 22 C        5.5850     8.9960     1.6020 C.1   1 <1>   0.4840 
 23 N        5.9150     9.9890     2.0610 N.1   1 <1>  -0.5570 
 24 H        1.8870    -0.4510    -0.8630 H     1 <1>   0.0800 
 25 H        1.1290     1.0440    -1.3050 H     1 <1>   0.0800 
 26 H       -3.0720    -0.8640    -1.0320 H     1 <1>   0.0800 
 27 H       -2.6420     0.6400    -0.2620 H     1 <1>   0.0800 
 28 H       -2.6750    -0.8370     0.6790 H     1 <1>   0.0800 
 29 H       -1.4200    -2.4550    -1.6030 H     1 <1>   0.0800 
 30 H       -1.0080    -2.6320     0.0920 H     1 <1>   0.0800 
 31 H        0.2350    -2.2590    -1.0820 H     1 <1>   0.0800 
 32 H        2.0500     2.0960     0.7560 H     1 <1>   0.0800 
 33 H        3.3690     1.7340    -1.6660 H     1 <1>   0.0800 
 34 H        2.8860    -0.6140     1.3970 H     1 <1>   0.0800 
 35 H        3.1830     0.8410     2.3360 H     1 <1>   0.0800 
 36 H        4.6270     2.9690     0.7320 H     1 <1>   0.3700 
 37 H        5.7160     1.0010    -0.5710 H     1 <1>   0.0800 
 38 H        4.5260    -0.2530    -0.9200 H     1 <1>   0.0800 
 39 H        3.8490     4.9170     1.6720 H     1 <1>   0.1500 
 40 H        5.1730     6.3290    -2.1080 H     1 <1>   0.1500 
 41 H        5.8270     8.4280    -0.9690 H     1 <1>   0.1500 
@<TRIPOS>BOND
  1   1   2  2   
  2   1   3  2   
  3   1   4  am  
  4   1   5  1   
  5   4   6  1   
  6   4   7  1   
  7   5   8  1   
  8   5  24  1   
  9   5  25  1   
 10   6  26  1   
 11   6  27  1   
 12   6  28  1   
 13   7  29  1   
 14   7  30  1   
 15   7  31  1   
 16   8   9  1   
 17   8  10  1   
 18   8  32  1   
 19   9  11  1   
 20   9  12  1   
 21   9  33  1   
 22  10  13  1   
 23  10  34  1   
 24  10  35  1   
 25  11  14  am  
 26  11  36  1   
 27  12  13  1   
 28  12  37  1   
 29  12  38  1   
 30  14  15  2   
 31  14  16  1   
 32  16  17  ar  
 33  16  18  ar  
 34  17  19  ar  
 35  17  39  1   
 36  18  20  ar  
 37  18  40  1   
 38  19  21  ar  
 39  20  21  ar  
 40  20  41  1   
 41  21  22  1   
 42  22  23  3   
@<TRIPOS>SUBSTRUCTURE
  1 ****  11 GROUP 4 **** **** 0

# MOE 2024.06 (io_trps.svl 2023.06)
