@<TRIPOS>MOLECULE
NONAME
49 51 1 0 0 
SMALL
USER_CHARGES


@<TRIPOS>ATOM
  1 O       -2.3300     3.3700    -1.9300 O.2   1 <1>  -0.5700 
  2 C       -2.1510     2.8840    -0.8280 C.2   1 <1>   0.5440 
  3 N       -3.1050     2.0270    -0.3110 N.am  1 <1>  -0.6600 
  4 C       -0.9360     3.2120    -0.1020 C.ar  1 <1>   0.0860 
  5 C       -4.4850     2.0310    -0.8880 C.3   1 <1>   0.2200 
  6 C       -2.6830     0.8260     0.4730 C.3   1 <1>   0.0600 
  7 C        0.2800     3.3480    -0.7700 C.ar  1 <1>  -0.1500 
  8 C       -0.9370     3.4160     1.2780 C.ar  1 <1>  -0.1500 
  9 C       -5.1400     3.4080    -0.7570 C.3   1 <1>  -0.1600 
 10 C       -5.4850     1.1100    -0.1820 C.3   1 <1>  -0.1600 
 11 C        1.4600     3.6600    -0.1080 C.ar  1 <1>   0.0730 
 12 C        0.2250     3.7260     1.9590 C.ar  1 <1>  -0.1500 
 13 C       -6.6440     3.1470    -0.8960 C.3   1 <1>  -0.0800 
 14 C       -6.8620     1.6700    -0.5590 C.3   1 <1>  -0.0800 
 15 C        2.6960     3.7880    -0.8280 C.1   1 <1>   0.4840 
 16 C        1.4170     3.8460     1.2680 C.ar  1 <1>  -0.1500 
 17 C       -7.5400     3.9340     0.0690 C.3   1 <1>  -0.1600 
 18 C       -7.9150     1.6450     0.5600 C.3   1 <1>  -0.1600 
 19 N        3.6820     3.8860    -1.3920 N.1   1 <1>  -0.5570 
 20 C       -8.6730     2.9720     0.4380 C.3   1 <1>   0.4230 
 21 N       -9.6890     2.9020    -0.6630 N.4   1 <1>  -0.9590 
 22 C      -10.3520     4.2200    -0.9250 C.3   1 <1>   0.2630 
 23 C      -10.7520     1.8780    -0.4050 C.3   1 <1>   0.2630 
 24 H       -4.4310     1.7640    -1.9320 H     1 <1>   0.0800 
 25 H       -3.1060     0.8650     1.4620 H     1 <1>   0.0800 
 26 H       -1.6120     0.7780     0.5590 H     1 <1>   0.0800 
 27 H       -3.0130    -0.0710    -0.0210 H     1 <1>   0.0800 
 28 H        0.2930     3.2080    -1.8380 H     1 <1>   0.1500 
 29 H       -1.8650     3.3350     1.8180 H     1 <1>   0.1500 
 30 H       -4.9060     3.8140     0.2110 H     1 <1>   0.0800 
 31 H       -4.7920     4.0830    -1.5180 H     1 <1>   0.0800 
 32 H       -5.3780     0.0890    -0.5020 H     1 <1>   0.0800 
 33 H       -5.3410     1.1780     0.8810 H     1 <1>   0.0800 
 34 H        0.2020     3.8780     3.0250 H     1 <1>   0.1500 
 35 H       -6.9440     3.3220    -1.9170 H     1 <1>   0.0800 
 36 H       -7.2290     1.1620    -1.4360 H     1 <1>   0.0800 
 37 H        2.3210     4.0880     1.8030 H     1 <1>   0.1500 
 38 H       -7.8530     4.8770    -0.3380 H     1 <1>   0.0800 
 39 H       -6.9930     4.1440     0.9730 H     1 <1>   0.0800 
 40 H       -7.4220     1.6500     1.5170 H     1 <1>   0.0800 
 41 H       -8.5290     0.7660     0.5250 H     1 <1>   0.0800 
 42 H       -9.1420     3.2490     1.3690 H     1 <1>   0.0800 
 43 H       -9.1680     2.6270    -1.5080 H     1 <1>   0.4500 
 44 H      -10.8240     4.5870    -0.0280 H     1 <1>   0.0800 
 45 H      -11.1030     4.1140    -1.6910 H     1 <1>   0.0800 
 46 H       -9.6340     4.9490    -1.2610 H     1 <1>   0.0800 
 47 H      -11.2540     2.0860     0.5250 H     1 <1>   0.0800 
 48 H      -10.3280     0.8890    -0.3570 H     1 <1>   0.0800 
 49 H      -11.4810     1.8900    -1.2000 H     1 <1>   0.0800 
@<TRIPOS>BOND
  1   1   2  2   
  2   2   3  am  
  3   2   4  1   
  4   3   5  1   
  5   3   6  1   
  6   4   7  ar  
  7   4   8  ar  
  8   5   9  1   
  9   5  10  1   
 10   5  24  1   
 11   6  25  1   
 12   6  26  1   
 13   6  27  1   
 14   7  11  ar  
 15   7  28  1   
 16   8  12  ar  
 17   8  29  1   
 18   9  13  1   
 19   9  30  1   
 20   9  31  1   
 21  10  14  1   
 22  10  32  1   
 23  10  33  1   
 24  11  15  1   
 25  11  16  ar  
 26  12  16  ar  
 27  12  34  1   
 28  13  14  1   
 29  13  17  1   
 30  13  35  1   
 31  14  18  1   
 32  14  36  1   
 33  15  19  3   
 34  16  37  1   
 35  17  20  1   
 36  17  38  1   
 37  17  39  1   
 38  18  20  1   
 39  18  40  1   
 40  18  41  1   
 41  20  21  1   
 42  20  42  1   
 43  21  22  1   
 44  21  23  1   
 45  21  43  1   
 46  22  44  1   
 47  22  45  1   
 48  22  46  1   
 49  23  47  1   
 50  23  48  1   
 51  23  49  1   
@<TRIPOS>SUBSTRUCTURE
  1 ****   3 GROUP 4 **** **** 0

# MOE 2024.06 (io_trps.svl 2023.06)
