@<TRIPOS>MOLECULE
NONAME
45 46 1 0 0 
SMALL
USER_CHARGES


@<TRIPOS>ATOM
  1 S       -0.2520     0.3430    -0.9370 S.o2  1 <1>   1.4470 
  2 O        0.5380    -0.3770    -1.9120 O.2   1 <1>  -0.6500 
  3 O       -1.2240     1.3130    -1.4000 O.2   1 <1>  -0.6500 
  4 N       -1.0980    -0.7900     0.0010 N.am  1 <1>  -0.8490 
  5 C        0.8960     1.0990     0.2650 C.ar  1 <1>  -0.0090 
  6 C       -1.7050    -1.8770    -0.7870 C.3   1 <1>   0.1960 
  7 C       -2.1210    -0.1770     0.8640 C.3   1 <1>   0.1960 
  8 C        1.4030     2.3960     0.1280 C.ar  1 <1>  -0.1440 
  9 C        1.3240     0.3540     1.3630 C.ar  1 <1>  -0.1500 
 10 C       -2.1010    -3.0760     0.1160 C.3   1 <1>  -0.1060 
 11 C       -2.8930    -1.2260     1.6800 C.3   1 <1>  -0.1600 
 12 C        2.2700     2.9160     1.0780 C.ar  1 <1>  -0.1500 
 13 C        1.0340     3.2780    -1.0590 C.3   1 <1>  -0.0970 
 14 C        2.1900     0.8730     2.3070 C.ar  1 <1>  -0.1500 
 15 C       -3.4380    -3.5840    -0.4500 C.2   1 <1>   0.9060 
 16 C       -2.2210    -2.5940     1.5920 C.3   1 <1>   0.2000 
 17 C       -1.0540    -4.2250     0.0030 C.3   1 <1>  -0.1600 
 18 C        2.6610     2.1620     2.1670 C.ar  1 <1>  -0.1500 
 19 O       -4.3920    -3.8400     0.3010 O.co2 1 <1>  -0.9000 
 20 O       -3.5440    -3.7290    -1.6740 O.co2 1 <1>  -0.9000 
 21 O       -2.9320    -3.4860     2.3660 O.3   1 <1>  -0.6800 
 22 C        0.4010    -3.8570     0.3560 C.3   1 <1>  -0.1600 
 23 C        1.3350    -5.0450     0.1140 C.3   1 <1>  -0.2400 
 24 H       -2.5710    -1.4840    -1.2970 H     1 <1>   0.0800 
 25 H       -1.0310    -2.2240    -1.5520 H     1 <1>   0.0800 
 26 H       -1.6410     0.5110     1.5390 H     1 <1>   0.0800 
 27 H       -2.8230     0.3810     0.2650 H     1 <1>   0.0800 
 28 H        0.9770    -0.6580     1.4850 H     1 <1>   0.1500 
 29 H       -3.8960    -1.2980     1.2960 H     1 <1>   0.0800 
 30 H       -2.9490    -0.9110     2.7060 H     1 <1>   0.0800 
 31 H        2.6510     3.9180     0.9750 H     1 <1>   0.1500 
 32 H        1.6690     4.1430    -1.1120 H     1 <1>   0.0800 
 33 H        0.0150     3.6110    -0.9690 H     1 <1>   0.0800 
 34 H        1.1420     2.7340    -1.9810 H     1 <1>   0.0800 
 35 H        2.4960     0.2720     3.1470 H     1 <1>   0.1500 
 36 H       -1.2480    -2.5060     2.0390 H     1 <1>   0.0800 
 37 H       -1.3750    -5.0360     0.6350 H     1 <1>   0.0800 
 38 H       -1.0750    -4.5930    -1.0090 H     1 <1>   0.0800 
 39 H        3.3340     2.5750     2.8980 H     1 <1>   0.1500 
 40 H       -3.6980    -3.7790     1.7800 H     1 <1>   0.4000 
 41 H        0.7310    -3.0280    -0.2470 H     1 <1>   0.0800 
 42 H        0.4730    -3.5700     1.3890 H     1 <1>   0.0800 
 43 H        1.3060    -5.3360    -0.9210 H     1 <1>   0.0800 
 44 H        1.0370    -5.8830     0.7190 H     1 <1>   0.0800 
 45 H        2.3450    -4.7760     0.3670 H     1 <1>   0.0800 
@<TRIPOS>BOND
  1   1   2  2   
  2   1   3  2   
  3   1   4  am  
  4   1   5  1   
  5   4   6  1   
  6   4   7  1   
  7   5   8  ar  
  8   5   9  ar  
  9   6  10  1   
 10   6  24  1   
 11   6  25  1   
 12   7  11  1   
 13   7  26  1   
 14   7  27  1   
 15   8  12  ar  
 16   8  13  1   
 17   9  14  ar  
 18   9  28  1   
 19  10  15  1   
 20  10  16  1   
 21  10  17  1   
 22  11  16  1   
 23  11  29  1   
 24  11  30  1   
 25  12  18  ar  
 26  12  31  1   
 27  13  32  1   
 28  13  33  1   
 29  13  34  1   
 30  14  18  ar  
 31  14  35  1   
 32  15  19  ar  
 33  15  20  ar  
 34  16  21  1   
 35  16  36  1   
 36  17  22  1   
 37  17  37  1   
 38  17  38  1   
 39  18  39  1   
 40  21  40  1   
 41  22  23  1   
 42  22  41  1   
 43  22  42  1   
 44  23  43  1   
 45  23  44  1   
 46  23  45  1   
@<TRIPOS>SUBSTRUCTURE
  1 ****   4 GROUP 4 **** **** 0

# MOE 2024.06 (io_trps.svl 2023.06)
