@<TRIPOS>MOLECULE
NONAME
55 57 1 0 0 
SMALL
USER_CHARGES


@<TRIPOS>ATOM
  1 O        1.7300     0.4800     1.0470 O.2   1 <1>  -0.5700 
  2 C        1.1120    -0.5630     1.1370 C.2   1 <1>   0.7800 
  3 O       -0.0570    -0.5730     1.7860 O.3   1 <1>  -0.4300 
  4 N        1.5740    -1.7580     0.6540 N.am  1 <1>  -0.6600 
  5 C       -0.6160     0.6180     2.3000 C.3   1 <1>   0.0400 
  6 C        2.6590    -1.8140    -0.4000 C.3   1 <1>   0.2810 
  7 C        1.3290    -3.0050     1.4340 C.3   1 <1>   0.1400 
  8 C        2.7210    -0.5920    -1.3610 C.2   1 <1>   0.5690 
  9 C        2.5200    -3.0940    -1.2500 C.3   1 <1>  -0.1600 
 10 C        1.1670    -4.2180     0.5180 C.3   1 <1>  -0.1600 
 11 O        1.7520    -0.3690    -2.0570 O.2   1 <1>  -0.5700 
 12 N        3.8500     0.1970    -1.4580 N.am  1 <1>  -0.6600 
 13 C        2.3700    -4.3670    -0.4130 C.3   1 <1>  -0.1600 
 14 C        5.1830    -0.2390    -0.9270 C.3   1 <1>   0.1400 
 15 C        3.7220     1.5640    -2.0510 C.3   1 <1>   0.1400 
 16 C        6.3880     0.4280    -1.6030 C.3   1 <1>   0.1400 
 17 C        4.3480     2.6510    -1.1710 C.3   1 <1>  -0.1600 
 18 N        6.6780     1.7580    -0.9950 N.am  1 <1>  -0.6600 
 19 C        5.8340     2.8930    -1.4530 C.3   1 <1>   0.1400 
 20 C        7.5900     1.8620     0.0370 C.2   1 <1>   0.5440 
 21 O        7.9070     0.8500     0.6340 O.2   1 <1>  -0.5700 
 22 C        8.1880     3.1290     0.4180 C.ar  1 <1>   0.0860 
 23 C        8.2100     3.5470     1.7470 C.ar  1 <1>  -0.1500 
 24 C        8.7770     3.9670    -0.5320 C.ar  1 <1>  -0.1500 
 25 C        8.7840     4.7540     2.1040 C.ar  1 <1>   0.0820 
 26 C        9.3500     5.1760    -0.1770 C.ar  1 <1>  -0.1500 
 27 O        8.7870     5.1240     3.3930 O.3   1 <1>  -0.5330 
 28 C        9.3550     5.5760     1.1470 C.ar  1 <1>  -0.1500 
 29 H       -1.5550     0.3800     2.7660 H     1 <1>   0.0800 
 30 H       -0.7680     1.3070     1.4870 H     1 <1>   0.0800 
 31 H        0.0630     1.0380     3.0220 H     1 <1>   0.0800 
 32 H        3.5840    -1.8790     0.1370 H     1 <1>   0.0800 
 33 H        0.4450    -2.9040     2.0390 H     1 <1>   0.0800 
 34 H        2.1640    -3.1650     2.0950 H     1 <1>   0.0800 
 35 H        3.3790    -3.1850    -1.8900 H     1 <1>   0.0800 
 36 H        1.6580    -2.9910    -1.8880 H     1 <1>   0.0800 
 37 H        0.2650    -4.1020    -0.0590 H     1 <1>   0.0800 
 38 H        1.0610    -5.1040     1.1190 H     1 <1>   0.0800 
 39 H        3.2630    -4.5350     0.1640 H     1 <1>   0.0800 
 40 H        2.2240    -5.2140    -1.0630 H     1 <1>   0.0800 
 41 H        5.2820    -1.2970    -1.0850 H     1 <1>   0.0800 
 42 H        5.2280    -0.0550     0.1330 H     1 <1>   0.0800 
 43 H        2.6780     1.8020    -2.1610 H     1 <1>   0.0800 
 44 H        4.1560     1.5720    -3.0350 H     1 <1>   0.0800 
 45 H        6.2270     0.5200    -2.6630 H     1 <1>   0.0800 
 46 H        7.2460    -0.2070    -1.4650 H     1 <1>   0.0800 
 47 H        4.1810     2.4380    -0.1290 H     1 <1>   0.0800 
 48 H        3.8340     3.5690    -1.3890 H     1 <1>   0.0800 
 49 H        6.1240     3.7960    -0.9450 H     1 <1>   0.0800 
 50 H        5.9890     3.0470    -2.5070 H     1 <1>   0.0800 
 51 H        7.7790     2.9200     2.5060 H     1 <1>   0.1500 
 52 H        8.7860     3.6560    -1.5620 H     1 <1>   0.1500 
 53 H        9.7960     5.8030    -0.9300 H     1 <1>   0.1500 
 54 H        9.2390     5.9710     3.5520 H     1 <1>   0.4500 
 55 H        9.8000     6.5140     1.4240 H     1 <1>   0.1500 
@<TRIPOS>BOND
  1   1   2  2   
  2   2   3  1   
  3   2   4  am  
  4   3   5  1   
  5   4   6  1   
  6   4   7  1   
  7   5  29  1   
  8   5  30  1   
  9   5  31  1   
 10   6   8  1   
 11   6   9  1   
 12   6  32  1   
 13   7  10  1   
 14   7  33  1   
 15   7  34  1   
 16   8  11  2   
 17   8  12  am  
 18   9  13  1   
 19   9  35  1   
 20   9  36  1   
 21  10  13  1   
 22  10  37  1   
 23  10  38  1   
 24  12  14  1   
 25  12  15  1   
 26  13  39  1   
 27  13  40  1   
 28  14  16  1   
 29  14  41  1   
 30  14  42  1   
 31  15  17  1   
 32  15  43  1   
 33  15  44  1   
 34  16  18  1   
 35  16  45  1   
 36  16  46  1   
 37  17  19  1   
 38  17  47  1   
 39  17  48  1   
 40  18  19  1   
 41  18  20  am  
 42  19  49  1   
 43  19  50  1   
 44  20  21  2   
 45  20  22  1   
 46  22  23  ar  
 47  22  24  ar  
 48  23  25  ar  
 49  23  51  1   
 50  24  26  ar  
 51  24  52  1   
 52  25  27  1   
 53  25  28  ar  
 54  26  28  ar  
 55  26  53  1   
 56  27  54  1   
 57  28  55  1   
@<TRIPOS>SUBSTRUCTURE
  1 ****  14 GROUP 4 **** **** 0

# MOE 2024.06 (io_trps.svl 2023.06)
