@<TRIPOS>MOLECULE
NONAME
29 29 1 0 0 
SMALL
USER_CHARGES


@<TRIPOS>ATOM
  1 O        5.0680    -0.6550    -0.0220 O.co2 1 <1>  -0.9000 
  2 C        5.2860     0.4540     0.4610 C.2   1 <1>   0.9060 
  3 O        4.7140     0.9200     1.4400 O.co2 1 <1>  -0.9000 
  4 C        6.4570     1.1920    -0.0760 C.3   1 <1>  -0.2660 
  5 C        7.6080     0.3750     0.4350 C.3   1 <1>   0.3430 
  6 N        8.8580     0.9820    -0.0660 N.4   1 <1>  -0.9060 
  7 C       10.0670     0.2760     0.3850 C.3   1 <1>   0.4230 
  8 C       11.2770     1.1710     0.0970 C.3   1 <1>  -0.1600 
  9 C       10.1930    -1.0730    -0.3390 C.3   1 <1>  -0.1600 
 10 C       12.5910     0.4670     0.4700 C.3   1 <1>  -0.1600 
 11 C       11.5060    -1.7800     0.0270 C.3   1 <1>  -0.1600 
 12 C       12.7190    -0.8820    -0.2480 C.3   1 <1>  -0.1600 
 13 H        6.4520     2.1900     0.3170 H     1 <1>   0.0800 
 14 H        6.3950     1.1890    -1.1470 H     1 <1>   0.0800 
 15 H        7.5040    -0.6400     0.0830 H     1 <1>   0.0800 
 16 H        7.5890     0.3650     1.5150 H     1 <1>   0.0800 
 17 H        8.8800     1.9550     0.2520 H     1 <1>   0.4500 
 18 H        8.8210     0.9900    -1.0890 H     1 <1>   0.4500 
 19 H       10.0120     0.1010     1.4480 H     1 <1>   0.0800 
 20 H       11.2020     2.0810     0.6650 H     1 <1>   0.0800 
 21 H       11.3090     1.4190    -0.9500 H     1 <1>   0.0800 
 22 H       10.1700    -0.9200    -1.4050 H     1 <1>   0.0800 
 23 H        9.3750    -1.7180    -0.0700 H     1 <1>   0.0800 
 24 H       12.6290     0.3090     1.5350 H     1 <1>   0.0800 
 25 H       13.4260     1.0940     0.2040 H     1 <1>   0.0800 
 26 H       11.5980    -2.6900    -0.5430 H     1 <1>   0.0800 
 27 H       11.4930    -2.0510     1.0700 H     1 <1>   0.0800 
 28 H       13.6160    -1.3800     0.0790 H     1 <1>   0.0800 
 29 H       12.8100    -0.7180    -1.3090 H     1 <1>   0.0800 
@<TRIPOS>BOND
  1   1   2  ar  
  2   2   3  ar  
  3   2   4  1   
  4   4   5  1   
  5   4  13  1   
  6   4  14  1   
  7   5   6  1   
  8   5  15  1   
  9   5  16  1   
 10   6   7  1   
 11   6  17  1   
 12   6  18  1   
 13   7   8  1   
 14   7   9  1   
 15   7  19  1   
 16   8  10  1   
 17   8  20  1   
 18   8  21  1   
 19   9  11  1   
 20   9  22  1   
 21   9  23  1   
 22  10  12  1   
 23  10  24  1   
 24  10  25  1   
 25  11  12  1   
 26  11  26  1   
 27  11  27  1   
 28  12  28  1   
 29  12  29  1   
@<TRIPOS>SUBSTRUCTURE
  1 ****   6 GROUP 4 **** **** 0

# MOE 2024.06 (io_trps.svl 2023.06)
