@<TRIPOS>MOLECULE
NONAME
52 54 1 0 0 
SMALL
USER_CHARGES


@<TRIPOS>ATOM
  1 O        1.6740     2.1050    -1.5490 O.2   1 <1>  -0.5700 
  2 C        1.8980     1.2270    -0.7510 C.2   1 <1>   0.5690 
  3 N        1.2800     1.0960     0.4610 N.am  1 <1>  -0.5470 
  4 C        2.9470     0.1660    -1.0940 C.3   1 <1>   0.1710 
  5 C        0.2960     1.8430     1.1260 C.ar  1 <1>   0.1170 
  6 N        2.6800    -1.1800    -0.4880 N.3   1 <1>  -0.8100 
  7 C       -0.1890     3.0610     0.6580 C.ar  1 <1>  -0.1500 
  8 C       -0.2210     1.3420     2.3160 C.ar  1 <1>  -0.1500 
  9 C        3.8070    -2.1570    -0.6250 C.3   1 <1>   0.1900 
 10 C        1.4620    -1.7530    -1.1060 C.3   1 <1>   0.1100 
 11 C       -1.1620     3.7540     1.3550 C.ar  1 <1>  -0.1500 
 12 C       -1.1940     2.0320     3.0170 C.ar  1 <1>  -0.1500 
 13 C        3.5030    -3.4440     0.2000 C.3   1 <1>   0.0000 
 14 C        5.2140    -1.6150    -0.2890 C.3   1 <1>   0.1400 
 15 C        1.0560    -3.0620    -0.4230 C.3   1 <1>  -0.1600 
 16 C       -1.6680     3.2400     2.5360 C.ar  1 <1>  -0.1500 
 17 C        4.6530    -4.4730     0.0160 C.3   1 <1>  -0.1600 
 18 C        2.2170    -4.0690    -0.3920 C.3   1 <1>  -0.1600 
 19 C        3.2140    -3.1410     1.7040 C.3   1 <1>   0.1200 
 20 N        6.2380    -2.6630    -0.5940 N.am  1 <1>  -0.6600 
 21 C        6.0730    -3.9110     0.1950 C.3   1 <1>   0.1400 
 22 O        4.3430    -2.8650     2.4610 O.3   1 <1>  -0.6800 
 23 C        7.2510    -2.5410    -1.5130 C.2   1 <1>   0.5690 
 24 O        8.0380    -3.4310    -1.7270 O.2   1 <1>  -0.5700 
 25 C        7.4220    -1.2700    -2.3110 C.3   1 <1>  -0.1790 
 26 H        1.5740     0.2340     0.9280 H     1 <1>   0.3700 
 27 H        3.8720     0.5620    -0.7240 H     1 <1>   0.0800 
 28 H        3.0210     0.0810    -2.1640 H     1 <1>   0.0800 
 29 H        0.1920     3.4790    -0.2550 H     1 <1>   0.1500 
 30 H        0.1390     0.4060     2.6990 H     1 <1>   0.1500 
 31 H        3.8570    -2.4400    -1.6640 H     1 <1>   0.0800 
 32 H        0.6380    -1.0630    -1.0300 H     1 <1>   0.0800 
 33 H        1.6400    -1.9360    -2.1530 H     1 <1>   0.0800 
 34 H       -1.5250     4.6930     0.9770 H     1 <1>   0.1500 
 35 H       -1.5850     1.6310     3.9360 H     1 <1>   0.1500 
 36 H        5.2740    -1.3440     0.7490 H     1 <1>   0.0800 
 37 H        5.4200    -0.7420    -0.8730 H     1 <1>   0.0800 
 38 H        0.7110    -2.8470     0.5720 H     1 <1>   0.0800 
 39 H        0.2270    -3.4920    -0.9580 H     1 <1>   0.0800 
 40 H       -2.4250     3.7790     3.0790 H     1 <1>   0.1500 
 41 H        4.6130    -4.8740    -0.9810 H     1 <1>   0.0800 
 42 H        4.5150    -5.3010     0.6880 H     1 <1>   0.0800 
 43 H        2.4050    -4.3890    -1.4030 H     1 <1>   0.0800 
 44 H        1.9260    -4.9390     0.1710 H     1 <1>   0.0800 
 45 H        2.7300    -3.9850     2.1640 H     1 <1>   0.0800 
 46 H        2.5600    -2.2930     1.8010 H     1 <1>   0.0800 
 47 H        6.7840    -4.6560    -0.1220 H     1 <1>   0.0800 
 48 H        6.2840    -3.6950     1.2260 H     1 <1>   0.0800 
 49 H        4.8880    -3.6670     2.5630 H     1 <1>   0.4000 
 50 H        6.5440    -1.0850    -2.8990 H     1 <1>   0.0800 
 51 H        8.2630    -1.3690    -2.9730 H     1 <1>   0.0800 
 52 H        7.6040    -0.4450    -1.6490 H     1 <1>   0.0800 
@<TRIPOS>BOND
  1   1   2  2   
  2   2   3  am  
  3   2   4  1   
  4   3   5  1   
  5   3  26  1   
  6   4   6  1   
  7   4  27  1   
  8   4  28  1   
  9   5   7  ar  
 10   5   8  ar  
 11   6   9  1   
 12   6  10  1   
 13   7  11  ar  
 14   7  29  1   
 15   8  12  ar  
 16   8  30  1   
 17   9  13  1   
 18   9  14  1   
 19   9  31  1   
 20  10  15  1   
 21  10  32  1   
 22  10  33  1   
 23  11  16  ar  
 24  11  34  1   
 25  12  16  ar  
 26  12  35  1   
 27  13  17  1   
 28  13  18  1   
 29  13  19  1   
 30  14  20  1   
 31  14  36  1   
 32  14  37  1   
 33  15  18  1   
 34  15  38  1   
 35  15  39  1   
 36  16  40  1   
 37  17  21  1   
 38  17  41  1   
 39  17  42  1   
 40  18  43  1   
 41  18  44  1   
 42  19  22  1   
 43  19  45  1   
 44  19  46  1   
 45  20  21  1   
 46  20  23  am  
 47  21  47  1   
 48  21  48  1   
 49  22  49  1   
 50  23  24  2   
 51  23  25  1   
 52  25  50  1   
 53  25  51  1   
 54  25  52  1   
@<TRIPOS>SUBSTRUCTURE
  1 ****   6 GROUP 4 **** **** 0

# MOE 2024.06 (io_trps.svl 2023.06)
