@<TRIPOS>MOLECULE
NONAME
53 56 1 0 0 
SMALL
USER_CHARGES


@<TRIPOS>ATOM
  1 O       -0.2750    -1.8030    -1.6170 O.2   1 <1>  -0.5700 
  2 C        0.6060    -2.1570    -0.8730 C.2   1 <1>   0.6300 
  3 N        0.3960    -2.8450     0.2880 N.am  1 <1>  -0.5470 
  4 C        2.0470    -1.8350    -1.2350 C.3   1 <1>  -0.1000 
  5 C       -0.7960    -3.2820     0.8800 C.ar  1 <1>   0.1170 
  6 C        2.6580    -2.3860    -2.4900 C.3   1 <1>  -0.2000 
  7 C        3.1360    -2.8690    -1.1580 C.3   1 <1>  -0.2000 
  8 C       -2.0050    -2.6190     0.7040 C.ar  1 <1>  -0.1500 
  9 C       -0.7750    -4.4150     1.6820 C.ar  1 <1>  -0.1500 
 10 C       -3.1640    -3.0880     1.2950 C.ar  1 <1>  -0.1500 
 11 C       -1.9320    -4.8890     2.2730 C.ar  1 <1>  -0.1500 
 12 C       -3.1370    -4.2340     2.0750 C.ar  1 <1>  -0.1430 
 13 C       -4.4190    -4.7880     2.6890 C.3   1 <1>   0.0440 
 14 C       -4.6830    -6.2370     2.2990 C.2   1 <1>   0.5690 
 15 O       -4.7750    -7.0530     3.1860 O.2   1 <1>  -0.5700 
 16 N       -4.8190    -6.6070     0.9860 N.am  1 <1>  -0.6600 
 17 C       -4.6100    -5.7430    -0.2070 C.3   1 <1>   0.1400 
 18 C       -4.9920    -8.0200     0.5710 C.3   1 <1>   0.1400 
 19 C       -5.0740    -6.5990    -1.3830 C.3   1 <1>   0.2000 
 20 C       -4.7360    -8.0270    -0.9410 C.3   1 <1>  -0.0800 
 21 O       -6.4500    -6.4620    -1.4970 O.3   1 <1>  -0.6800 
 22 C       -5.4910    -9.1360    -1.6990 C.3   1 <1>   0.0200 
 23 C       -5.0230   -10.5340    -1.3300 C.2   1 <1>  -0.0400 
 24 O       -5.6800   -11.5590    -1.8030 O.3   1 <1>  -0.0190 
 25 C       -4.0160   -11.0090    -0.5780 C.2   1 <1>  -0.1500 
 26 N       -5.1720   -12.6900    -1.4080 N.2   1 <1>  -0.4100 
 27 C       -4.1680   -12.3890    -0.6670 C.2   1 <1>   0.1080 
 28 C       -3.2770   -13.4060     0.0120 C.3   1 <1>  -0.0590 
 29 H        1.2490    -3.1310     0.7630 H     1 <1>   0.3700 
 30 H        2.2940    -0.8190    -0.9860 H     1 <1>   0.1000 
 31 H        2.0550    -3.0360    -3.1030 H     1 <1>   0.1000 
 32 H        3.2920    -1.7420    -3.0760 H     1 <1>   0.1000 
 33 H        4.1160    -2.5690    -0.8260 H     1 <1>   0.1000 
 34 H        2.9030    -3.8850    -0.8870 H     1 <1>   0.1000 
 35 H       -2.0450    -1.7300     0.1010 H     1 <1>   0.1500 
 36 H        0.1500    -4.9390     1.8430 H     1 <1>   0.1500 
 37 H       -4.0850    -2.5530     1.1380 H     1 <1>   0.1500 
 38 H       -1.8940    -5.7750     2.8850 H     1 <1>   0.1500 
 39 H       -5.2660    -4.2000     2.3900 H     1 <1>   0.0800 
 40 H       -4.3440    -4.7260     3.7590 H     1 <1>   0.0800 
 41 H       -5.1590    -4.8200    -0.1430 H     1 <1>   0.0800 
 42 H       -3.5590    -5.5320    -0.3080 H     1 <1>   0.0800 
 43 H       -4.3020    -8.6560     1.0980 H     1 <1>   0.0800 
 44 H       -5.9990    -8.3290     0.7960 H     1 <1>   0.0800 
 45 H       -4.6210    -6.3160    -2.3180 H     1 <1>   0.0800 
 46 H       -3.6810    -8.1680    -1.0940 H     1 <1>   0.0800 
 47 H       -6.8510    -6.5680    -0.6110 H     1 <1>   0.4000 
 48 H       -5.3540    -9.0010    -2.7570 H     1 <1>   0.0800 
 49 H       -6.5450    -9.0680    -1.4970 H     1 <1>   0.0800 
 50 H       -3.2530   -10.4940    -0.0250 H     1 <1>   0.1500 
 51 H       -3.2960   -13.2540     1.0760 H     1 <1>   0.0800 
 52 H       -2.2690   -13.3040    -0.3440 H     1 <1>   0.0800 
 53 H       -3.6250   -14.4000    -0.2040 H     1 <1>   0.0800 
@<TRIPOS>BOND
  1   1   2  2   
  2   2   3  am  
  3   2   4  1   
  4   3   5  1   
  5   3  29  1   
  6   4   6  1   
  7   4   7  1   
  8   4  30  1   
  9   5   8  ar  
 10   5   9  ar  
 11   6   7  1   
 12   6  31  1   
 13   6  32  1   
 14   7  33  1   
 15   7  34  1   
 16   8  10  ar  
 17   8  35  1   
 18   9  11  ar  
 19   9  36  1   
 20  10  12  ar  
 21  10  37  1   
 22  11  12  ar  
 23  11  38  1   
 24  12  13  1   
 25  13  14  1   
 26  13  39  1   
 27  13  40  1   
 28  14  15  2   
 29  14  16  am  
 30  16  17  1   
 31  16  18  1   
 32  17  19  1   
 33  17  41  1   
 34  17  42  1   
 35  18  20  1   
 36  18  43  1   
 37  18  44  1   
 38  19  20  1   
 39  19  21  1   
 40  19  45  1   
 41  20  22  1   
 42  20  46  1   
 43  21  47  1   
 44  22  23  1   
 45  22  48  1   
 46  22  49  1   
 47  23  24  1   
 48  23  25  2   
 49  24  26  1   
 50  25  27  1   
 51  25  50  1   
 52  26  27  2   
 53  27  28  1   
 54  28  51  1   
 55  28  52  1   
 56  28  53  1   
@<TRIPOS>SUBSTRUCTURE
  1 ****  17 GROUP 4 **** **** 0

# MOE 2024.06 (io_trps.svl 2023.06)
