@<TRIPOS>MOLECULE
NONAME
42 44 1 0 0 
SMALL
USER_CHARGES


@<TRIPOS>ATOM
  1 O        2.8000    -1.0040     2.3010 O.2   1 <1>  -0.5700 
  2 C        2.4590    -1.1420     1.1400 C.2   1 <1>   0.5440 
  3 N        2.4630    -0.0430     0.3220 N.am  1 <1>  -0.4930 
  4 C        2.0820    -2.4610     0.6540 C.ar  1 <1>   0.0860 
  5 C        2.8350     1.3010     0.5740 C.2   1 <1>   0.0630 
  6 C        1.4030    -2.6990    -0.5630 C.ar  1 <1>   0.3920 
  7 C        2.4030    -3.5800     1.4210 C.ar  1 <1>  -0.1500 
  8 C        2.7520     2.3260    -0.3020 C.2   1 <1>  -0.3320 
  9 C        3.3560     1.8710     1.7370 C.2   1 <1>   0.1390 
 10 O        1.0600    -1.6450    -1.3390 O.3   1 <1>  -0.3630 
 11 N        1.0570    -3.9010    -1.0290 N.ar  1 <1>  -0.6200 
 12 C        2.0430    -4.8160     0.9410 C.ar  1 <1>  -0.1430 
 13 N        3.2130     3.4280     0.3450 N.pl3 1 <1>   0.3140 
 14 C        2.2520     2.3220    -1.7410 C.3   1 <1>  -0.0600 
 15 N        3.5840     3.1440     1.6060 N.2   1 <1>  -0.7070 
 16 C        0.3350    -1.8000    -2.5470 C.3   1 <1>   0.0400 
 17 C        1.3890    -4.9130    -0.2570 C.ar  1 <1>   0.1660 
 18 C        2.2730    -6.1710     1.5640 C.3   1 <1>  -0.0170 
 19 C        3.3270     4.8050    -0.1820 C.3   1 <1>   0.0960 
 20 C        1.0860    -6.3480    -0.5990 C.3   1 <1>  -0.0170 
 21 C        1.4230    -7.1150     0.6950 C.3   1 <1>  -0.1600 
 22 C        4.6700     5.0170    -0.8950 C.3   1 <1>  -0.2400 
 23 H        2.0870    -0.2090    -0.6130 H     1 <1>   0.3700 
 24 H        2.9180    -3.4810     2.3610 H     1 <1>   0.1500 
 25 H        3.5490     1.3220     2.6420 H     1 <1>   0.1500 
 26 H        1.9440     1.3350    -2.0340 H     1 <1>   0.0800 
 27 H        3.0340     2.6430    -2.4060 H     1 <1>   0.0800 
 28 H        1.4100     2.9830    -1.8420 H     1 <1>   0.0800 
 29 H        0.1660    -0.8270    -2.9730 H     1 <1>   0.0800 
 30 H       -0.6060    -2.2760    -2.3300 H     1 <1>   0.0800 
 31 H        0.9110    -2.4060    -3.2250 H     1 <1>   0.0800 
 32 H        1.9590    -6.1910     2.5930 H     1 <1>   0.0800 
 33 H        3.3160    -6.4270     1.4960 H     1 <1>   0.0800 
 34 H        3.2450     5.4850     0.6460 H     1 <1>   0.0800 
 35 H        2.5110     4.9890    -0.8550 H     1 <1>   0.0800 
 36 H        1.7190    -6.6600    -1.4110 H     1 <1>   0.0800 
 37 H        0.0540    -6.4680    -0.8750 H     1 <1>   0.0800 
 38 H        0.5070    -7.3370     1.2150 H     1 <1>   0.0800 
 39 H        1.9370    -8.0370     0.4870 H     1 <1>   0.0800 
 40 H        5.4790     4.8460    -0.2060 H     1 <1>   0.0800 
 41 H        4.7360     6.0270    -1.2560 H     1 <1>   0.0800 
 42 H        4.7660     4.3440    -1.7280 H     1 <1>   0.0800 
@<TRIPOS>BOND
  1   1   2  2   
  2   2   3  am  
  3   2   4  1   
  4   3   5  1   
  5   3  23  1   
  6   4   6  ar  
  7   4   7  ar  
  8   5   8  2   
  9   5   9  1   
 10   6  10  1   
 11   6  11  ar  
 12   7  12  ar  
 13   7  24  1   
 14   8  13  1   
 15   8  14  1   
 16   9  15  2   
 17   9  25  1   
 18  10  16  1   
 19  11  17  ar  
 20  12  17  ar  
 21  12  18  1   
 22  13  15  1   
 23  13  19  1   
 24  14  26  1   
 25  14  27  1   
 26  14  28  1   
 27  16  29  1   
 28  16  30  1   
 29  16  31  1   
 30  17  20  1   
 31  18  21  1   
 32  18  32  1   
 33  18  33  1   
 34  19  22  1   
 35  19  34  1   
 36  19  35  1   
 37  20  21  1   
 38  20  36  1   
 39  20  37  1   
 40  21  38  1   
 41  21  39  1   
 42  22  40  1   
 43  22  41  1   
 44  22  42  1   
@<TRIPOS>SUBSTRUCTURE
  1 ****   2 GROUP 4 **** **** 0

# MOE 2024.06 (io_trps.svl 2023.06)
