@<TRIPOS>MOLECULE
NONAME
50 53 1 0 0 
SMALL
USER_CHARGES


@<TRIPOS>ATOM
  1 O       -0.3780     0.1660     0.5760 O.2   1 <1>  -0.5700 
  2 C       -1.4190     0.7770     0.5470 C.2   1 <1>   0.5690 
  3 N       -2.6270     0.1340     0.5100 N.am  1 <1>  -0.6600 
  4 C       -1.3600     2.2940     0.5440 C.3   1 <1>  -0.0990 
  5 C       -2.7240    -1.3590     0.6070 C.3   1 <1>   0.1400 
  6 C       -3.9630     0.7810     0.3120 C.3   1 <1>   0.1400 
  7 C        0.0440     2.8270     0.8580 C.3   1 <1>   0.0960 
  8 C       -3.5880    -1.9430    -0.5260 C.3   1 <1>   0.3440 
  9 C       -4.7550     0.0860    -0.8200 C.3   1 <1>   0.2950 
 10 N        0.0370     4.3030     0.8290 N.pl3 1 <1>   0.0480 
 11 O       -4.8290    -1.2870    -0.5760 O.3   1 <1>  -0.5600 
 12 C       -3.8080    -3.4380    -0.3170 C.ar  1 <1>  -0.1440 
 13 C       -6.2010     0.5850    -0.9940 C.3   1 <1>  -0.1950 
 14 C        0.3070     5.1380    -0.2050 C.2   1 <1>   0.0060 
 15 C       -0.2930     5.1170     1.8490 C.2   1 <1>  -0.3020 
 16 C       -2.9190    -4.3460    -0.8750 C.ar  1 <1>  -0.1500 
 17 C       -4.8730    -3.9160     0.4350 C.ar  1 <1>  -0.1500 
 18 C       -6.6380     1.9910    -0.7110 C.3   1 <1>  -0.2000 
 19 C       -7.1320     0.8580     0.1460 C.3   1 <1>  -0.2000 
 20 N        0.1700     6.3890     0.0890 N.2   1 <1>  -0.5650 
 21 C        0.7300     4.6640    -1.5810 C.3   1 <1>  -0.0600 
 22 C       -0.2050     6.3800     1.3810 C.2   1 <1>   0.0770 
 23 C       -3.0900    -5.7070    -0.6850 C.ar  1 <1>  -0.1500 
 24 C       -5.0460    -5.2760     0.6260 C.ar  1 <1>  -0.1500 
 25 C       -4.1540    -6.1730     0.0660 C.ar  1 <1>  -0.1500 
 26 H       -1.6630     2.6420    -0.4250 H     1 <1>   0.0800 
 27 H       -2.0430     2.6650     1.2850 H     1 <1>   0.0800 
 28 H       -1.7480    -1.8090     0.5660 H     1 <1>   0.0800 
 29 H       -3.1640    -1.6240     1.5530 H     1 <1>   0.0800 
 30 H       -4.5190     0.7140     1.2290 H     1 <1>   0.0800 
 31 H       -3.8520     1.8200     0.0650 H     1 <1>   0.0800 
 32 H        0.7540     2.4640     0.1360 H     1 <1>   0.0800 
 33 H        0.3560     2.4990     1.8330 H     1 <1>   0.0800 
 34 H       -3.0950    -1.7880    -1.4700 H     1 <1>   0.0800 
 35 H       -4.2340     0.2320    -1.7510 H     1 <1>   0.0800 
 36 H       -6.6430     0.1240    -1.8620 H     1 <1>   0.1000 
 37 H       -0.5640     4.7660     2.8270 H     1 <1>   0.1500 
 38 H       -2.0850    -4.0010    -1.4620 H     1 <1>   0.1500 
 39 H       -5.5750    -3.2270     0.8720 H     1 <1>   0.1500 
 40 H       -5.9710     2.7050    -0.2600 H     1 <1>   0.1000 
 41 H       -7.3310     2.4590    -1.3890 H     1 <1>   0.1000 
 42 H       -8.1560     0.5390     0.0490 H     1 <1>   0.1000 
 43 H       -6.7770     0.7700     1.1570 H     1 <1>   0.1000 
 44 H        0.8710     5.5120    -2.2280 H     1 <1>   0.0800 
 45 H       -0.0250     4.0300    -2.0050 H     1 <1>   0.0800 
 46 H        1.6580     4.1250    -1.5160 H     1 <1>   0.0800 
 47 H       -0.3940     7.2970     1.9120 H     1 <1>   0.1500 
 48 H       -2.3960    -6.4030    -1.1220 H     1 <1>   0.1500 
 49 H       -5.8770    -5.6340     1.2090 H     1 <1>   0.1500 
 50 H       -4.2890    -7.2300     0.2140 H     1 <1>   0.1500 
@<TRIPOS>BOND
  1   1   2  2   
  2   2   3  am  
  3   2   4  1   
  4   3   5  1   
  5   3   6  1   
  6   4   7  1   
  7   4  26  1   
  8   4  27  1   
  9   5   8  1   
 10   5  28  1   
 11   5  29  1   
 12   6   9  1   
 13   6  30  1   
 14   6  31  1   
 15   7  10  1   
 16   7  32  1   
 17   7  33  1   
 18   8  11  1   
 19   8  12  1   
 20   8  34  1   
 21   9  11  1   
 22   9  13  1   
 23   9  35  1   
 24  10  14  1   
 25  10  15  1   
 26  12  16  ar  
 27  12  17  ar  
 28  13  18  1   
 29  13  19  1   
 30  13  36  1   
 31  14  20  2   
 32  14  21  1   
 33  15  22  2   
 34  15  37  1   
 35  16  23  ar  
 36  16  38  1   
 37  17  24  ar  
 38  17  39  1   
 39  18  19  1   
 40  18  40  1   
 41  18  41  1   
 42  19  42  1   
 43  19  43  1   
 44  20  22  1   
 45  21  44  1   
 46  21  45  1   
 47  21  46  1   
 48  22  47  1   
 49  23  25  ar  
 50  23  48  1   
 51  24  25  ar  
 52  24  49  1   
 53  25  50  1   
@<TRIPOS>SUBSTRUCTURE
  1 ****   3 GROUP 4 **** **** 0

# MOE 2024.06 (io_trps.svl 2023.06)
