@<TRIPOS>MOLECULE
NONAME
42 43 1 0 0 
SMALL
USER_CHARGES


@<TRIPOS>ATOM
  1 F       -0.3880     0.5510    -0.1250 F     1 <1>  -0.3400 
  2 C       -0.4330     1.2430     1.0070 C.3   1 <1>   0.8800 
  3 F       -1.5740     0.9080     1.5920 F     1 <1>  -0.3400 
  4 O       -0.4920     2.6140     0.6950 O.3   1 <1>  -0.3630 
  5 C        0.6380     3.3060     0.4110 C.ar  1 <1>   0.0830 
  6 C        0.5640     4.6830     0.5210 C.ar  1 <1>  -0.1500 
  7 C        1.8350     2.7110     0.0240 C.ar  1 <1>  -0.1500 
  8 C        1.6600     5.5010     0.2560 C.ar  1 <1>   0.0860 
  9 C        2.9400     3.5020    -0.2310 C.ar  1 <1>  -0.1500 
 10 C        1.5500     6.9410     0.3630 C.2   1 <1>   0.5440 
 11 C        2.8540     4.8770    -0.1120 C.ar  1 <1>  -0.1500 
 12 O        0.9240     7.4410     1.2760 O.2   1 <1>  -0.5700 
 13 N        2.1590     7.7340    -0.5810 N.am  1 <1>  -0.4940 
 14 C        2.1810     9.1460    -0.6800 C.2   1 <1>  -0.0880 
 15 N        3.3030     9.8900    -0.8820 N.pl3 1 <1>   0.3140 
 16 C        1.1530    10.0260    -0.6100 C.2   1 <1>  -0.1810 
 17 N        3.0170    11.2090    -0.9660 N.2   1 <1>  -0.7070 
 18 C        4.6950     9.4030    -0.9870 C.3   1 <1>   0.0960 
 19 C        1.7340    11.2760    -0.7910 C.2   1 <1>   0.1390 
 20 C       -0.3250     9.7630    -0.3890 C.3   1 <1>  -0.0590 
 21 C        5.2480     8.8990     0.3620 C.3   1 <1>  -0.0800 
 22 C        5.3180    10.0230     1.4060 C.3   1 <1>  -0.2400 
 23 C        6.6440     8.2940     0.1650 C.3   1 <1>  -0.2400 
 24 H        0.3950     0.9850     1.6420 H     1 <1>   0.0800 
 25 H       -0.3660     5.1360     0.8200 H     1 <1>   0.1500 
 26 H        1.9290     1.6460    -0.0930 H     1 <1>   0.1500 
 27 H        3.8700     3.0430    -0.5230 H     1 <1>   0.1500 
 28 H        3.7300     5.4730    -0.3000 H     1 <1>   0.1500 
 29 H        2.6180     7.2310    -1.3380 H     1 <1>   0.3700 
 30 H        5.3030    10.2110    -1.3510 H     1 <1>   0.0800 
 31 H        4.7160     8.6140    -1.7140 H     1 <1>   0.0800 
 32 H        1.1880    12.2040    -0.7910 H     1 <1>   0.1500 
 33 H       -0.5660     8.7480    -0.6460 H     1 <1>   0.0800 
 34 H       -0.9170    10.4230    -0.9960 H     1 <1>   0.0800 
 35 H       -0.5670     9.9210     0.6470 H     1 <1>   0.0800 
 36 H        4.6000     8.1260     0.7380 H     1 <1>   0.0800 
 37 H        5.9360    10.8310     1.0570 H     1 <1>   0.0800 
 38 H        5.7230     9.6530     2.3320 H     1 <1>   0.0800 
 39 H        4.3340    10.4120     1.6070 H     1 <1>   0.0800 
 40 H        7.3320     9.0370    -0.2000 H     1 <1>   0.0800 
 41 H        6.6090     7.4820    -0.5390 H     1 <1>   0.0800 
 42 H        7.0190     7.9130     1.0990 H     1 <1>   0.0800 
@<TRIPOS>BOND
  1   1   2  1   
  2   2   3  1   
  3   2   4  1   
  4   2  24  1   
  5   4   5  1   
  6   5   6  ar  
  7   5   7  ar  
  8   6   8  ar  
  9   6  25  1   
 10   7   9  ar  
 11   7  26  1   
 12   8  10  1   
 13   8  11  ar  
 14   9  11  ar  
 15   9  27  1   
 16  10  12  2   
 17  10  13  am  
 18  11  28  1   
 19  13  14  1   
 20  13  29  1   
 21  14  15  1   
 22  14  16  2   
 23  15  17  1   
 24  15  18  1   
 25  16  19  1   
 26  16  20  1   
 27  17  19  2   
 28  18  21  1   
 29  18  30  1   
 30  18  31  1   
 31  19  32  1   
 32  20  33  1   
 33  20  34  1   
 34  20  35  1   
 35  21  22  1   
 36  21  23  1   
 37  21  36  1   
 38  22  37  1   
 39  22  38  1   
 40  22  39  1   
 41  23  40  1   
 42  23  41  1   
 43  23  42  1   
@<TRIPOS>SUBSTRUCTURE
  1 ****  10 GROUP 4 **** **** 0

# MOE 2024.06 (io_trps.svl 2023.06)
