@<TRIPOS>MOLECULE
NONAME
49 52 1 0 0 
SMALL
USER_CHARGES


@<TRIPOS>ATOM
  1 O       -0.8710    -0.1520     0.3970 O.3   1 <1>  -0.2800 
  2 C       -1.1590     1.1160     0.3310 C.2   1 <1>   0.4780 
  3 C       -1.9990    -0.7390     0.6300 C.2   1 <1>   0.2980 
  4 N       -2.4250     1.3010     0.5180 N.2   1 <1>  -0.3380 
  5 C       -0.1170     2.0780     0.0770 C.2   1 <1>  -0.1520 
  6 N       -2.9630     0.1000     0.7120 N.2   1 <1>  -0.3380 
  7 C       -2.0080    -2.2640     0.7640 C.3   1 <1>   0.2900 
  8 N       -0.2860     3.4420     0.0040 N.pl3 1 <1>   0.0480 
  9 C        1.2110     1.8150    -0.1360 C.2   1 <1>  -0.1500 
 10 N       -3.3500    -2.8940     0.8470 N.3   1 <1>  -0.8100 
 11 C        0.9300     4.0040    -0.2530 C.2   1 <1>  -0.3320 
 12 C       -1.5620     4.1720     0.1770 C.3   1 <1>   0.0160 
 13 C        1.8660     3.0240    -0.3430 C.2   1 <1>  -0.1500 
 14 C       -4.1720    -2.6710    -0.3520 C.3   1 <1>   0.1100 
 15 C       -3.2740    -4.3520     1.0470 C.3   1 <1>   0.1100 
 16 C        1.1760     5.4950    -0.4090 C.3   1 <1>  -0.0600 
 17 C       -5.1830    -3.8100    -0.3330 C.3   1 <1>   0.2000 
 18 C       -4.3540    -4.9940     0.1560 C.3   1 <1>  -0.0800 
 19 O       -6.1220    -3.5190     0.6380 O.3   1 <1>  -0.6800 
 20 C       -3.7500    -5.7670    -1.0320 C.3   1 <1>  -0.0170 
 21 C       -2.9320    -6.9670    -0.5820 C.ar  1 <1>   0.1670 
 22 N       -1.6170    -6.8080    -0.5440 N.ar  1 <1>  -0.6200 
 23 C       -3.5810    -8.1450    -0.2440 C.ar  1 <1>  -0.1500 
 24 C       -0.9240    -7.8660    -0.1540 C.ar  1 <1>   0.1600 
 25 C       -2.8460    -9.2380     0.1620 C.ar  1 <1>  -0.1500 
 26 C       -1.4780    -9.0830     0.2050 C.ar  1 <1>  -0.1500 
 27 H       -1.4590    -2.5140     1.6540 H     1 <1>   0.0800 
 28 H       -1.4770    -2.6790    -0.0750 H     1 <1>   0.0800 
 29 H        1.6850     0.8490    -0.1460 H     1 <1>   0.1500 
 30 H       -1.4070     5.2290     0.0820 H     1 <1>   0.0800 
 31 H       -1.9620     3.9590     1.1510 H     1 <1>   0.0800 
 32 H       -2.2590     3.8480    -0.5740 H     1 <1>   0.0800 
 33 H        2.9200     3.1330    -0.5370 H     1 <1>   0.1500 
 34 H       -4.6570    -1.7090    -0.3310 H     1 <1>   0.0800 
 35 H       -3.5650    -2.7440    -1.2390 H     1 <1>   0.0800 
 36 H       -2.2950    -4.7260     0.8020 H     1 <1>   0.0800 
 37 H       -3.4700    -4.5730     2.0820 H     1 <1>   0.0800 
 38 H        2.2160     5.6800    -0.6080 H     1 <1>   0.0800 
 39 H        0.9050     6.0130     0.4930 H     1 <1>   0.0800 
 40 H        0.5980     5.8830    -1.2290 H     1 <1>   0.0800 
 41 H       -5.6890    -3.9690    -1.2700 H     1 <1>   0.0800 
 42 H       -4.9620    -5.6720     0.7290 H     1 <1>   0.0800 
 43 H       -5.6280    -3.1200     1.3870 H     1 <1>   0.4000 
 44 H       -3.1260    -5.1180    -1.6210 H     1 <1>   0.0800 
 45 H       -4.5430    -6.1150    -1.6700 H     1 <1>   0.0800 
 46 H       -4.6530    -8.2090    -0.2970 H     1 <1>   0.1500 
 47 H        0.1470    -7.7590    -0.1190 H     1 <1>   0.1500 
 48 H       -3.3180   -10.1670     0.4330 H     1 <1>   0.1500 
 49 H       -0.8440    -9.8960     0.5110 H     1 <1>   0.1500 
@<TRIPOS>BOND
  1   1   2  1   
  2   1   3  1   
  3   2   4  2   
  4   2   5  1   
  5   3   6  2   
  6   3   7  1   
  7   4   6  1   
  8   5   8  1   
  9   5   9  2   
 10   7  10  1   
 11   7  27  1   
 12   7  28  1   
 13   8  11  1   
 14   8  12  1   
 15   9  13  1   
 16   9  29  1   
 17  10  14  1   
 18  10  15  1   
 19  11  13  2   
 20  11  16  1   
 21  12  30  1   
 22  12  31  1   
 23  12  32  1   
 24  13  33  1   
 25  14  17  1   
 26  14  34  1   
 27  14  35  1   
 28  15  18  1   
 29  15  36  1   
 30  15  37  1   
 31  16  38  1   
 32  16  39  1   
 33  16  40  1   
 34  17  18  1   
 35  17  19  1   
 36  17  41  1   
 37  18  20  1   
 38  18  42  1   
 39  19  43  1   
 40  20  21  1   
 41  20  44  1   
 42  20  45  1   
 43  21  22  ar  
 44  21  23  ar  
 45  22  24  ar  
 46  23  25  ar  
 47  23  46  1   
 48  24  26  ar  
 49  24  47  1   
 50  25  26  ar  
 51  25  48  1   
 52  26  49  1   
@<TRIPOS>SUBSTRUCTURE
  1 ****   7 GROUP 4 **** **** 0

# MOE 2024.06 (io_trps.svl 2023.06)
