@<TRIPOS>MOLECULE
NONAME
54 57 1 0 0 
SMALL
USER_CHARGES


@<TRIPOS>ATOM
  1 O        0.7160    -0.5440     0.9500 O.3   1 <1>  -0.5600 
  2 C        1.8330    -1.0400     0.2420 C.3   1 <1>   0.4240 
  3 C       -0.5500    -0.8460     0.4640 C.3   1 <1>   0.1200 
  4 C        1.5820    -2.4810    -0.2900 C.ar  1 <1>  -0.1440 
  5 C        2.1230    -0.0320    -0.8840 C.3   1 <1>  -0.1600 
  6 C        2.9690    -1.0080     1.2750 C.3   1 <1>  -0.1600 
  7 C       -0.7690    -2.3410     0.6210 C.3   1 <1>  -0.0160 
  8 C        2.5650    -3.2080    -0.9780 C.ar  1 <1>   0.0830 
  9 C        0.3420    -3.0870    -0.0880 C.ar  1 <1>  -0.1440 
 10 C        2.3920     1.3720    -0.3430 C.3   1 <1>   0.2090 
 11 C        3.2250     0.4080     1.7880 C.3   1 <1>   0.2090 
 12 O        3.7740    -2.6290    -1.2090 O.3   1 <1>  -0.3630 
 13 C        2.2980    -4.5020    -1.4210 C.ar  1 <1>  -0.1500 
 14 C        0.0900    -4.3750    -0.5310 C.ar  1 <1>  -0.1500 
 15 N        3.5150     1.3250     0.6400 N.pl3 1 <1>  -0.8380 
 16 C        4.8340    -3.3080    -1.8450 C.3   1 <1>   0.0400 
 17 C        1.0670    -5.0840    -1.1970 C.ar  1 <1>  -0.1500 
 18 C        4.7450     1.8470     0.4240 C.ar  1 <1>   0.4100 
 19 N        5.7670     1.0520     0.7700 N.ar  1 <1>  -0.6200 
 20 C        4.9930     3.1210    -0.1420 C.ar  1 <1>  -0.1430 
 21 C        6.9710     1.4180     0.4820 C.ar  1 <1>   0.5280 
 22 C        6.2890     3.4550    -0.4500 C.ar  1 <1>   0.2180 
 23 C        3.8570     4.1310    -0.3440 C.3   1 <1>  -0.0970 
 24 N        7.2610     2.5780    -0.1320 N.ar  1 <1>  -0.1790 
 25 C        8.1100     0.4910     0.8540 C.3   1 <1>  -0.0970 
 26 C        6.7290     4.7560    -1.1110 C.3   1 <1>  -0.0970 
 27 H       -0.6190    -0.5460    -0.5670 H     1 <1>   0.0800 
 28 H       -1.2680    -0.2950     1.0450 H     1 <1>   0.0800 
 29 H        1.3050    -0.0110    -1.5770 H     1 <1>   0.0800 
 30 H        2.9900    -0.3360    -1.4360 H     1 <1>   0.0800 
 31 H        3.8850    -1.3700     0.8530 H     1 <1>   0.0800 
 32 H        2.7150    -1.6530     2.0940 H     1 <1>   0.0800 
 33 H       -1.7240    -2.6040     0.2030 H     1 <1>   0.0800 
 34 H       -0.7720    -2.5970     1.6660 H     1 <1>   0.0800 
 35 H        1.5110     1.7630     0.1380 H     1 <1>   0.0800 
 36 H        2.6390     2.0050    -1.1740 H     1 <1>   0.0800 
 37 H        4.0460     0.3990     2.4840 H     1 <1>   0.0800 
 38 H        2.3590     0.7700     2.3160 H     1 <1>   0.0800 
 39 H        3.0330    -5.0800    -1.9460 H     1 <1>   0.1500 
 40 H       -0.8690    -4.8310    -0.3600 H     1 <1>   0.1500 
 41 H        5.6790    -2.6450    -1.8820 H     1 <1>   0.0800 
 42 H        4.5320    -3.5700    -2.8440 H     1 <1>   0.0800 
 43 H        5.0820    -4.1840    -1.2720 H     1 <1>   0.0800 
 44 H        0.8700    -6.0840    -1.5400 H     1 <1>   0.1500 
 45 H        3.0470     3.9330     0.3360 H     1 <1>   0.0800 
 46 H        3.4860     4.0880    -1.3520 H     1 <1>   0.0800 
 47 H        4.1850     5.1340    -0.1380 H     1 <1>   0.0800 
 48 H        8.2350     2.7930    -0.3360 H     1 <1>   0.4570 
 49 H        7.7200    -0.3990     1.3180 H     1 <1>   0.0800 
 50 H        8.7700     0.9710     1.5520 H     1 <1>   0.0800 
 51 H        8.6590     0.2000    -0.0220 H     1 <1>   0.0800 
 52 H        5.9190     5.2270    -1.6370 H     1 <1>   0.0800 
 53 H        7.5080     4.5730    -1.8300 H     1 <1>   0.0800 
 54 H        7.0960     5.4430    -0.3690 H     1 <1>   0.0800 
@<TRIPOS>BOND
  1   1   2  1   
  2   1   3  1   
  3   2   4  1   
  4   2   5  1   
  5   2   6  1   
  6   3   7  1   
  7   3  27  1   
  8   3  28  1   
  9   4   8  ar  
 10   4   9  ar  
 11   5  10  1   
 12   5  29  1   
 13   5  30  1   
 14   6  11  1   
 15   6  31  1   
 16   6  32  1   
 17   7   9  1   
 18   7  33  1   
 19   7  34  1   
 20   8  12  1   
 21   8  13  ar  
 22   9  14  ar  
 23  10  15  1   
 24  10  35  1   
 25  10  36  1   
 26  11  15  1   
 27  11  37  1   
 28  11  38  1   
 29  12  16  1   
 30  13  17  ar  
 31  13  39  1   
 32  14  17  ar  
 33  14  40  1   
 34  15  18  1   
 35  16  41  1   
 36  16  42  1   
 37  16  43  1   
 38  17  44  1   
 39  18  19  ar  
 40  18  20  ar  
 41  19  21  ar  
 42  20  22  ar  
 43  20  23  1   
 44  21  24  ar  
 45  21  25  1   
 46  22  24  ar  
 47  22  26  1   
 48  23  45  1   
 49  23  46  1   
 50  23  47  1   
 51  24  48  1   
 52  25  49  1   
 53  25  50  1   
 54  25  51  1   
 55  26  52  1   
 56  26  53  1   
 57  26  54  1   
@<TRIPOS>SUBSTRUCTURE
  1 ****   5 GROUP 4 **** **** 0

# MOE 2024.06 (io_trps.svl 2023.06)
