@<TRIPOS>MOLECULE
NONAME
52 55 1 0 0 
SMALL
USER_CHARGES


@<TRIPOS>ATOM
  1 O       -0.0830     1.4440    -0.4760 O.2   1 <1>  -0.5700 
  2 C       -0.5230     2.5590    -0.6350 C.2   1 <1>   0.5690 
  3 N       -1.2440     3.2350     0.3090 N.am  1 <1>  -0.5090 
  4 C       -0.2620     3.2740    -1.9560 C.3   1 <1>   0.1810 
  5 C       -1.7540     4.6100     0.0120 C.3   1 <1>   0.3640 
  6 C       -1.4140     2.7390     1.6950 C.3   1 <1>   0.0490 
  7 O        0.0810     4.6160    -1.7250 O.3   1 <1>  -0.5600 
  8 C       -3.2100     4.5750    -0.4700 C.ar  1 <1>  -0.1440 
  9 C       -0.8890     5.3920    -1.0220 C.3   1 <1>   0.2610 
 10 C       -2.1160     1.4340     1.9020 C.3   1 <1>  -0.2000 
 11 C       -2.7740     2.7080     2.3230 C.3   1 <1>  -0.2000 
 12 C       -3.7920     3.4610    -1.0670 C.ar  1 <1>  -0.1500 
 13 C       -3.9810     5.7180    -0.3030 C.ar  1 <1>  -0.1500 
 14 C       -0.2130     6.5620    -0.3040 C.2   1 <1>   0.5690 
 15 C       -5.1100     3.4910    -1.4910 C.ar  1 <1>  -0.1500 
 16 C       -5.2970     5.7500    -0.7260 C.ar  1 <1>  -0.1500 
 17 O       -0.9020     7.4310     0.1780 O.2   1 <1>  -0.5700 
 18 N        1.1430     6.6030    -0.2140 N.am  1 <1>  -0.7300 
 19 C       -5.8720     4.6410    -1.3220 C.ar  1 <1>   0.0820 
 20 C        1.9260     7.6400     0.4950 C.3   1 <1>   0.1400 
 21 O       -7.1680     4.7540    -1.7060 O.3   1 <1>  -0.3630 
 22 C        2.1690     8.8360    -0.4230 C.3   1 <1>   0.0200 
 23 C       -7.8580     3.6720    -2.2890 C.3   1 <1>   0.0400 
 24 C        2.8440     9.9440     0.3570 C.2   1 <1>   0.0060 
 25 N        4.1190    10.0000     0.5610 N.2   1 <1>  -0.5650 
 26 N        2.1600    10.9650     0.9200 N.pl3 1 <1>   0.0330 
 27 C        4.2800    11.1190     1.2930 C.2   1 <1>   0.0770 
 28 C        3.0940    11.7220     1.5230 C.2   1 <1>  -0.3020 
 29 H       -1.1350     3.2380    -2.5820 H     1 <1>   0.0800 
 30 H        0.5600     2.8050    -2.4650 H     1 <1>   0.0800 
 31 H       -1.7510     5.1570     0.9390 H     1 <1>   0.0800 
 32 H       -0.5600     2.9540     2.3170 H     1 <1>   0.1000 
 33 H       -1.5380     5.8190    -1.7650 H     1 <1>   0.0800 
 34 H       -2.4850     0.9110     1.0370 H     1 <1>   0.1000 
 35 H       -1.7460     0.7680     2.6600 H     1 <1>   0.1000 
 36 H       -2.8630     2.9020     3.3770 H     1 <1>   0.1000 
 37 H       -3.6400     3.0290     1.7730 H     1 <1>   0.1000 
 38 H       -3.2360     2.5510    -1.2050 H     1 <1>   0.1500 
 39 H       -3.5620     6.5990     0.1580 H     1 <1>   0.1500 
 40 H       -5.5240     2.6110    -1.9450 H     1 <1>   0.1500 
 41 H       -5.8900     6.6380    -0.5950 H     1 <1>   0.1500 
 42 H        1.6700     5.8710    -0.7040 H     1 <1>   0.3700 
 43 H        1.3800     7.9620     1.3660 H     1 <1>   0.0800 
 44 H        2.8670     7.2310     0.8200 H     1 <1>   0.0800 
 45 H        1.2360     9.1910    -0.8220 H     1 <1>   0.0800 
 46 H        2.8070     8.5420    -1.2370 H     1 <1>   0.0800 
 47 H       -8.8640     3.9890    -2.4950 H     1 <1>   0.0800 
 48 H       -7.8690     2.8500    -1.5940 H     1 <1>   0.0800 
 49 H       -7.3670     3.3970    -3.2050 H     1 <1>   0.0800 
 50 H        1.1480    11.1210     0.8900 H     1 <1>   0.2700 
 51 H        5.2570    11.4350     1.6200 H     1 <1>   0.1500 
 52 H        2.8720    12.6220     2.0670 H     1 <1>   0.1500 
@<TRIPOS>BOND
  1   1   2  2   
  2   2   3  am  
  3   2   4  1   
  4   3   5  1   
  5   3   6  1   
  6   4   7  1   
  7   4  29  1   
  8   4  30  1   
  9   5   8  1   
 10   5   9  1   
 11   5  31  1   
 12   6  10  1   
 13   6  11  1   
 14   6  32  1   
 15   7   9  1   
 16   8  12  ar  
 17   8  13  ar  
 18   9  14  1   
 19   9  33  1   
 20  10  11  1   
 21  10  34  1   
 22  10  35  1   
 23  11  36  1   
 24  11  37  1   
 25  12  15  ar  
 26  12  38  1   
 27  13  16  ar  
 28  13  39  1   
 29  14  17  2   
 30  14  18  am  
 31  15  19  ar  
 32  15  40  1   
 33  16  19  ar  
 34  16  41  1   
 35  18  20  1   
 36  18  42  1   
 37  19  21  1   
 38  20  22  1   
 39  20  43  1   
 40  20  44  1   
 41  21  23  1   
 42  22  24  1   
 43  22  45  1   
 44  22  46  1   
 45  23  47  1   
 46  23  48  1   
 47  23  49  1   
 48  24  25  2   
 49  24  26  1   
 50  25  27  1   
 51  26  28  1   
 52  26  50  1   
 53  27  28  2   
 54  27  51  1   
 55  28  52  1   
@<TRIPOS>SUBSTRUCTURE
  1 ****   9 GROUP 4 **** **** 0

# MOE 2024.06 (io_trps.svl 2023.06)
