@<TRIPOS>MOLECULE
NONAME
46 49 1 0 0 
SMALL
USER_CHARGES


@<TRIPOS>ATOM
  1 O        0.2580     0.0350     0.2640 O.3   1 <1>  -0.0190 
  2 N       -0.3940    -0.9740     0.7280 N.2   1 <1>  -0.4100 
  3 C        1.3140    -0.3810    -0.3790 C.2   1 <1>   0.5620 
  4 C        0.2960    -1.9950     0.3470 C.2   1 <1>   0.4620 
  5 N        1.3940    -1.6550    -0.3640 N.2   1 <1>  -0.5650 
  6 N        2.2020     0.4980    -0.9810 N.pl3 1 <1>  -0.8220 
  7 C       -0.0390    -3.3820     0.6340 C.ar  1 <1>   0.0540 
  8 C        2.0640     1.9710    -0.8560 C.3   1 <1>   0.2090 
  9 C        3.4280     0.0080    -1.6620 C.3   1 <1>   0.2090 
 10 C       -1.1840    -3.7160     1.3600 C.ar  1 <1>  -0.1500 
 11 C        0.7650    -4.4380     0.1970 C.ar  1 <1>  -0.1500 
 12 C        3.2860     2.5250    -0.1240 C.3   1 <1>  -0.1600 
 13 C        4.6550     0.5560    -0.9330 C.3   1 <1>  -0.1600 
 14 C       -1.5110    -5.0310     1.6380 C.ar  1 <1>  -0.1500 
 15 C        0.4450    -5.7550     0.4710 C.ar  1 <1>  -0.1500 
 16 C        4.5950     2.0870    -0.8050 C.3   1 <1>   0.1000 
 17 C       -0.6960    -6.0550     1.1930 C.ar  1 <1>  -0.1500 
 18 C        5.8100     2.6260    -0.0630 C.2   1 <1>   0.2980 
 19 O        6.0150     2.2610     1.1780 O.3   1 <1>  -0.0190 
 20 N        6.6740     3.4230    -0.5490 N.2   1 <1>  -0.5650 
 21 N        7.1050     2.8810     1.5110 N.2   1 <1>  -0.4100 
 22 C        7.4820     3.5550     0.4960 C.2   1 <1>   0.3350 
 23 C        8.7210     4.4500     0.4190 C.3   1 <1>   0.1010 
 24 C        9.8430     3.9830     1.3590 C.3   1 <1>  -0.2400 
 25 C        8.3530     5.9090     0.7230 C.3   1 <1>  -0.2400 
 26 H        1.1690     2.2300    -0.3170 H     1 <1>   0.0800 
 27 H        1.9960     2.4010    -1.8410 H     1 <1>   0.0800 
 28 H        3.4210     0.3470    -2.6840 H     1 <1>   0.0800 
 29 H        3.4600    -1.0680    -1.6680 H     1 <1>   0.0800 
 30 H       -1.8310    -2.9320     1.7150 H     1 <1>   0.1500 
 31 H        1.6560    -4.2250    -0.3660 H     1 <1>   0.1500 
 32 H        3.2670     2.1730     0.8930 H     1 <1>   0.0800 
 33 H        3.2320     3.5980    -0.1020 H     1 <1>   0.0800 
 34 H        5.5430     0.2720    -1.4690 H     1 <1>   0.0800 
 35 H        4.7020     0.1060     0.0440 H     1 <1>   0.0800 
 36 H       -2.4000    -5.2580     2.2000 H     1 <1>   0.1500 
 37 H        1.0840    -6.5480     0.1220 H     1 <1>   0.1500 
 38 H        4.6120     2.5070    -1.7970 H     1 <1>   0.0800 
 39 H       -0.9470    -7.0790     1.4070 H     1 <1>   0.1500 
 40 H        9.0920     4.3980    -0.5900 H     1 <1>   0.0800 
 41 H        9.5230     4.0410     2.3850 H     1 <1>   0.0800 
 42 H       10.7180     4.5950     1.2340 H     1 <1>   0.0800 
 43 H       10.1030     2.9620     1.1410 H     1 <1>   0.0800 
 44 H        7.9650     5.9930     1.7230 H     1 <1>   0.0800 
 45 H        7.5980     6.2470     0.0350 H     1 <1>   0.0800 
 46 H        9.2150     6.5440     0.6270 H     1 <1>   0.0800 
@<TRIPOS>BOND
  1   1   2  1   
  2   1   3  1   
  3   2   4  2   
  4   3   5  2   
  5   3   6  1   
  6   4   5  1   
  7   4   7  1   
  8   6   8  1   
  9   6   9  1   
 10   7  10  ar  
 11   7  11  ar  
 12   8  12  1   
 13   8  26  1   
 14   8  27  1   
 15   9  13  1   
 16   9  28  1   
 17   9  29  1   
 18  10  14  ar  
 19  10  30  1   
 20  11  15  ar  
 21  11  31  1   
 22  12  16  1   
 23  12  32  1   
 24  12  33  1   
 25  13  16  1   
 26  13  34  1   
 27  13  35  1   
 28  14  17  ar  
 29  14  36  1   
 30  15  17  ar  
 31  15  37  1   
 32  16  18  1   
 33  16  38  1   
 34  17  39  1   
 35  18  19  1   
 36  18  20  2   
 37  19  21  1   
 38  20  22  1   
 39  21  22  2   
 40  22  23  1   
 41  23  24  1   
 42  23  25  1   
 43  23  40  1   
 44  24  41  1   
 45  24  42  1   
 46  24  43  1   
 47  25  44  1   
 48  25  45  1   
 49  25  46  1   
@<TRIPOS>SUBSTRUCTURE
  1 ****   6 GROUP 4 **** **** 0

# MOE 2024.06 (io_trps.svl 2023.06)
