@<TRIPOS>MOLECULE
NONAME
53 55 1 0 0 
SMALL
USER_CHARGES


@<TRIPOS>ATOM
  1 O        0.2970     1.2370    -1.0210 O.2   1 <1>  -0.5700 
  2 C        0.0720     2.3760    -0.6840 C.2   1 <1>   0.5690 
  3 N       -1.0470     2.7290     0.0250 N.am  1 <1>  -0.6600 
  4 C        1.0890     3.4410    -1.0930 C.3   1 <1>   0.1810 
  5 C       -1.3250     4.1860     0.3270 C.3   1 <1>   0.3640 
  6 C       -1.8720     1.6600     0.6730 C.3   1 <1>   0.2200 
  7 O        1.0200     4.5930    -0.2930 O.3   1 <1>  -0.5600 
  8 C       -2.6940     4.6000    -0.2180 C.ar  1 <1>  -0.1440 
  9 C       -0.2690     5.1700    -0.2510 C.3   1 <1>   0.2610 
 10 C       -3.1260     1.3600    -0.1470 C.3   1 <1>  -0.2400 
 11 C       -2.2240     1.9920     2.1250 C.3   1 <1>  -0.2400 
 12 C       -3.0520     4.3340    -1.5340 C.ar  1 <1>  -0.1500 
 13 C       -3.5910     5.2710     0.6000 C.ar  1 <1>  -0.1500 
 14 C       -0.2410     6.5140     0.5060 C.2   1 <1>   0.5690 
 15 C       -4.2860     4.7280    -2.0210 C.ar  1 <1>  -0.1500 
 16 C       -4.8260     5.6650     0.1150 C.ar  1 <1>  -0.1500 
 17 O       -0.8130     6.6000     1.5710 O.2   1 <1>  -0.5700 
 18 N        0.4210     7.6010    -0.0190 N.am  1 <1>  -0.6600 
 19 C       -5.1750     5.3940    -1.1960 C.ar  1 <1>  -0.1500 
 20 C        0.5220     8.8750     0.7490 C.3   1 <1>   0.3210 
 21 C        1.2450     7.5570    -1.2630 C.3   1 <1>   0.0600 
 22 C        1.9730     9.1650     1.0850 C.2   1 <1>  -0.1810 
 23 C        2.8200     8.3260     1.7990 C.2   1 <1>   0.1390 
 24 C        2.7340    10.2400     0.7850 C.2   1 <1>  -0.3020 
 25 N        4.0100     8.8290     1.9340 N.2   1 <1>  -0.7070 
 26 N        3.9560    10.0140     1.3080 N.pl3 1 <1>   0.3140 
 27 C        5.1240    10.8980     1.2470 C.3   1 <1>   0.0160 
 28 H        0.9300     3.7210    -2.1170 H     1 <1>   0.0800 
 29 H        2.0810     3.0380    -0.9940 H     1 <1>   0.0800 
 30 H       -1.3220     4.2970     1.3950 H     1 <1>   0.0800 
 31 H       -1.2880     0.7540     0.6980 H     1 <1>   0.0800 
 32 H       -0.5470     5.3890    -1.2640 H     1 <1>   0.0800 
 33 H       -3.8380     2.1600    -0.0800 H     1 <1>   0.0800 
 34 H       -3.5950     0.4690     0.2280 H     1 <1>   0.0800 
 35 H       -2.8620     1.1930    -1.1750 H     1 <1>   0.0800 
 36 H       -2.9180     2.8100     2.1810 H     1 <1>   0.0800 
 37 H       -1.3330     2.2270     2.6780 H     1 <1>   0.0800 
 38 H       -2.6870     1.1370     2.5830 H     1 <1>   0.0800 
 39 H       -2.3750     3.8070    -2.1840 H     1 <1>   0.1500 
 40 H       -3.3310     5.4970     1.6200 H     1 <1>   0.1500 
 41 H       -4.5570     4.5130    -3.0400 H     1 <1>   0.1500 
 42 H       -5.5150     6.1840     0.7580 H     1 <1>   0.1500 
 43 H       -6.1350     5.7000    -1.5720 H     1 <1>   0.1500 
 44 H        0.1200     9.6770     0.1560 H     1 <1>   0.0800 
 45 H       -0.0450     8.8260     1.6620 H     1 <1>   0.0800 
 46 H        1.3360     8.5440    -1.6830 H     1 <1>   0.0800 
 47 H        0.8000     6.9160    -2.0010 H     1 <1>   0.0800 
 48 H        2.2300     7.1900    -1.0250 H     1 <1>   0.0800 
 49 H        2.5290     7.3650     2.1930 H     1 <1>   0.1500 
 50 H        2.4830    11.1320     0.2430 H     1 <1>   0.1500 
 51 H        4.9140    11.7330     0.6050 H     1 <1>   0.0800 
 52 H        5.9590    10.3430     0.8630 H     1 <1>   0.0800 
 53 H        5.3480    11.2440     2.2380 H     1 <1>   0.0800 
@<TRIPOS>BOND
  1   1   2  2   
  2   2   3  am  
  3   2   4  1   
  4   3   5  1   
  5   3   6  1   
  6   4   7  1   
  7   4  28  1   
  8   4  29  1   
  9   5   8  1   
 10   5   9  1   
 11   5  30  1   
 12   6  10  1   
 13   6  11  1   
 14   6  31  1   
 15   7   9  1   
 16   8  12  ar  
 17   8  13  ar  
 18   9  14  1   
 19   9  32  1   
 20  10  33  1   
 21  10  34  1   
 22  10  35  1   
 23  11  36  1   
 24  11  37  1   
 25  11  38  1   
 26  12  15  ar  
 27  12  39  1   
 28  13  16  ar  
 29  13  40  1   
 30  14  17  2   
 31  14  18  am  
 32  15  19  ar  
 33  15  41  1   
 34  16  19  ar  
 35  16  42  1   
 36  18  20  1   
 37  18  21  1   
 38  19  43  1   
 39  20  22  1   
 40  20  44  1   
 41  20  45  1   
 42  21  46  1   
 43  21  47  1   
 44  21  48  1   
 45  22  23  1   
 46  22  24  2   
 47  23  25  2   
 48  23  49  1   
 49  24  26  1   
 50  24  50  1   
 51  25  26  1   
 52  26  27  1   
 53  27  51  1   
 54  27  52  1   
 55  27  53  1   
@<TRIPOS>SUBSTRUCTURE
  1 ****   9 GROUP 4 **** **** 0

# MOE 2024.06 (io_trps.svl 2023.06)
