@<TRIPOS>MOLECULE
NONAME
49 52 1 0 0 
SMALL
USER_CHARGES


@<TRIPOS>ATOM
  1 S       -0.5550     1.8410    -0.5830 S.3   1 <1>  -0.0800 
  2 C        1.1900     1.6530    -0.5900 C.2   1 <1>  -0.1100 
  3 C       -0.4430     3.2220     0.4930 C.2   1 <1>  -0.1100 
  4 C        1.7760     2.5910     0.1790 C.2   1 <1>  -0.1810 
  5 C        0.8410     3.4840     0.7970 C.2   1 <1>  -0.1500 
  6 C        3.2660     2.7440     0.4060 C.3   1 <1>   0.3210 
  7 N        3.6860     3.9960    -0.2450 N.am  1 <1>  -0.7300 
  8 C        4.5590     4.8890     0.2820 C.2   1 <1>   0.5690 
  9 O        5.1450     4.6510     1.3110 O.2   1 <1>  -0.5700 
 10 C        4.8610     6.2110    -0.4440 C.3   1 <1>   0.0610 
 11 C        5.0060     7.3630     0.5900 C.3   1 <1>   0.2890 
 12 C        3.6980     6.7580    -1.3290 C.3   1 <1>  -0.1600 
 13 C        6.1480     5.9520    -1.2870 C.3   1 <1>  -0.1600 
 14 N        4.6890     8.5400    -0.2290 N.pl3 1 <1>  -0.8380 
 15 C        3.8010     7.4390     1.5490 C.3   1 <1>  -0.1600 
 16 C        3.3740     8.1240    -0.7100 C.3   1 <1>   0.2890 
 17 C        6.8130     7.1380    -2.0060 C.3   1 <1>  -0.2400 
 18 C        5.2760     9.7350    -0.4350 C.ar  1 <1>   0.7710 
 19 C        2.6600     7.9100     0.6280 C.3   1 <1>  -0.1600 
 20 N        4.7130    10.5970    -1.2700 N.ar  1 <1>  -0.6200 
 21 N        6.4180    10.0110     0.2200 N.ar  1 <1>  -0.1790 
 22 C        5.3150    11.7480    -1.4500 C.ar  1 <1>   0.4100 
 23 C        7.0620    11.1930     0.0530 C.ar  1 <1>   0.2110 
 24 N        4.7250    12.5900    -2.2980 N.pl3 1 <1>  -0.9000 
 25 C        6.5100    12.0900    -0.7980 C.ar  1 <1>  -0.1500 
 26 H        1.5920     0.8480    -1.1790 H     1 <1>   0.1500 
 27 H       -1.3640     3.6930     0.7890 H     1 <1>   0.1500 
 28 H        1.1770     4.2780     1.4420 H     1 <1>   0.1500 
 29 H        3.7990     1.9180    -0.0330 H     1 <1>   0.0800 
 30 H        3.4820     2.7740     1.4610 H     1 <1>   0.0800 
 31 H        3.2050     4.1840    -1.1240 H     1 <1>   0.3700 
 32 H        5.9600     7.3790     1.0880 H     1 <1>   0.0800 
 33 H        2.8190     6.1410    -1.3280 H     1 <1>   0.0800 
 34 H        4.0000     6.8930    -2.3510 H     1 <1>   0.0800 
 35 H        6.8910     5.5060    -0.6460 H     1 <1>   0.0800 
 36 H        5.9090     5.2100    -2.0300 H     1 <1>   0.0800 
 37 H        3.5700     6.5120     2.0400 H     1 <1>   0.0800 
 38 H        3.9900     8.1760     2.3090 H     1 <1>   0.0800 
 39 H        2.8810     8.8150    -1.3770 H     1 <1>   0.0800 
 40 H        7.2620     7.8080    -1.3010 H     1 <1>   0.0800 
 41 H        6.1110     7.6780    -2.6160 H     1 <1>   0.0800 
 42 H        7.5940     6.7710    -2.6490 H     1 <1>   0.0800 
 43 H        2.2450     8.8400     0.9770 H     1 <1>   0.0800 
 44 H        1.8700     7.1840     0.5480 H     1 <1>   0.0800 
 45 H        6.7490     9.2790     0.8380 H     1 <1>   0.4570 
 46 H        7.9770    11.3790     0.5940 H     1 <1>   0.1500 
 47 H        3.8540    12.3170    -2.7630 H     1 <1>   0.4000 
 48 H        5.0630    13.5230    -2.5460 H     1 <1>   0.4000 
 49 H        6.9510    13.0510    -0.9910 H     1 <1>   0.1500 
@<TRIPOS>BOND
  1   1   2  1   
  2   1   3  1   
  3   2   4  2   
  4   2  26  1   
  5   3   5  2   
  6   3  27  1   
  7   4   5  1   
  8   4   6  1   
  9   5  28  1   
 10   6   7  1   
 11   6  29  1   
 12   6  30  1   
 13   7   8  am  
 14   7  31  1   
 15   8   9  2   
 16   8  10  1   
 17  10  11  1   
 18  10  12  1   
 19  10  13  1   
 20  11  14  1   
 21  11  15  1   
 22  11  32  1   
 23  12  16  1   
 24  12  33  1   
 25  12  34  1   
 26  13  17  1   
 27  13  35  1   
 28  13  36  1   
 29  14  16  1   
 30  14  18  1   
 31  15  19  1   
 32  15  37  1   
 33  15  38  1   
 34  16  19  1   
 35  16  39  1   
 36  17  40  1   
 37  17  41  1   
 38  17  42  1   
 39  18  20  ar  
 40  18  21  ar  
 41  19  43  1   
 42  19  44  1   
 43  20  22  ar  
 44  21  23  ar  
 45  21  45  1   
 46  22  24  1   
 47  22  25  ar  
 48  23  25  ar  
 49  23  46  1   
 50  24  47  1   
 51  24  48  1   
 52  25  49  1   
@<TRIPOS>SUBSTRUCTURE
  1 ****  10 GROUP 4 **** **** 0

# MOE 2024.06 (io_trps.svl 2023.06)
