@<TRIPOS>MOLECULE
NONAME
46 48 1 0 0 
SMALL
USER_CHARGES


@<TRIPOS>ATOM
  1 O        2.2960    -0.1180    -1.9620 O.2   1 <1>  -0.5700 
  2 C        2.0680    -0.5580    -0.8600 C.2   1 <1>   0.5690 
  3 N        2.2970     0.1840     0.2710 N.am  1 <1>  -0.4940 
  4 C        1.5110    -1.9770    -0.7350 C.3   1 <1>   0.2370 
  5 C        2.2330     1.5870     0.3470 C.2   1 <1>  -0.0880 
  6 N        0.6940    -2.0490     0.4930 N.pl3 1 <1>   0.3140 
  7 C        0.7010    -2.4460    -1.9640 C.3   1 <1>  -0.2400 
  8 N        3.2450     2.4560     0.6350 N.pl3 1 <1>   0.3140 
  9 C        1.1020     2.3210     0.1610 C.2   1 <1>  -0.0540 
 10 N        1.2130    -2.3700     1.6600 N.2   1 <1>  -0.4180 
 11 C       -0.5690    -1.7240     0.7010 C.2   1 <1>   0.0360 
 12 N        2.7700     3.7340     0.6560 N.2   1 <1>  -0.7070 
 13 C        4.7060     2.1300     0.8830 C.3   1 <1>   0.2560 
 14 C       -0.2160     1.8500    -0.1750 C.ar  1 <1>   0.0540 
 15 C        1.5120     3.6350     0.3710 C.2   1 <1>   0.1390 
 16 N        0.2680    -2.2560     2.5220 N.2   1 <1>   0.0000 
 17 N       -0.8540    -1.8500     1.9390 N.2   1 <1>  -0.3380 
 18 C        4.8450     1.1950     2.0980 C.3   1 <1>  -0.2400 
 19 C        5.5200     3.4080     1.1770 C.3   1 <1>  -0.2400 
 20 C        5.3140     1.4620    -0.3630 C.3   1 <1>  -0.2400 
 21 C       -1.1920     1.6860     0.8020 C.ar  1 <1>  -0.1500 
 22 C       -0.5400     1.5230    -1.4880 C.ar  1 <1>  -0.1500 
 23 C       -2.4500     1.2110     0.4800 C.ar  1 <1>  -0.1500 
 24 C       -1.7960     1.0490    -1.8170 C.ar  1 <1>  -0.1500 
 25 C       -2.7560     0.8920    -0.8320 C.ar  1 <1>  -0.1500 
 26 H        2.1520    -0.3000     1.1670 H     1 <1>   0.3700 
 27 H        2.3460    -2.6410    -0.6080 H     1 <1>   0.0800 
 28 H       -0.1030    -1.7620    -2.1750 H     1 <1>   0.0800 
 29 H        0.3050    -3.4340    -1.8030 H     1 <1>   0.0800 
 30 H        1.3420    -2.4770    -2.8280 H     1 <1>   0.0800 
 31 H       -1.2430    -1.3900    -0.0660 H     1 <1>   0.1500 
 32 H        0.8500     4.4820     0.3020 H     1 <1>   0.1500 
 33 H        5.8830     1.0240     2.3190 H     1 <1>   0.0800 
 34 H        4.3900     0.2410     1.9120 H     1 <1>   0.0800 
 35 H        4.3850     1.6420     2.9620 H     1 <1>   0.0800 
 36 H        6.5530     3.1710     1.3500 H     1 <1>   0.0800 
 37 H        5.1350     3.9040     2.0500 H     1 <1>   0.0800 
 38 H        5.4640     4.0860     0.3430 H     1 <1>   0.0800 
 39 H        6.3630     1.2800    -0.2190 H     1 <1>   0.0800 
 40 H        5.1950     2.1020    -1.2190 H     1 <1>   0.0800 
 41 H        4.8400     0.5210    -0.5710 H     1 <1>   0.0800 
 42 H       -0.9560     1.9270     1.8240 H     1 <1>   0.1500 
 43 H        0.2100     1.6430    -2.2520 H     1 <1>   0.1500 
 44 H       -3.1910     1.0880     1.2520 H     1 <1>   0.1500 
 45 H       -2.0290     0.8060    -2.8400 H     1 <1>   0.1500 
 46 H       -3.7370     0.5270    -1.0840 H     1 <1>   0.1500 
@<TRIPOS>BOND
  1   1   2  2   
  2   2   3  am  
  3   2   4  1   
  4   3   5  1   
  5   3  26  1   
  6   4   6  1   
  7   4   7  1   
  8   4  27  1   
  9   5   8  1   
 10   5   9  2   
 11   6  10  1   
 12   6  11  1   
 13   7  28  1   
 14   7  29  1   
 15   7  30  1   
 16   8  12  1   
 17   8  13  1   
 18   9  14  1   
 19   9  15  1   
 20  10  16  2   
 21  11  17  2   
 22  11  31  1   
 23  12  15  2   
 24  13  18  1   
 25  13  19  1   
 26  13  20  1   
 27  14  21  ar  
 28  14  22  ar  
 29  15  32  1   
 30  16  17  1   
 31  18  33  1   
 32  18  34  1   
 33  18  35  1   
 34  19  36  1   
 35  19  37  1   
 36  19  38  1   
 37  20  39  1   
 38  20  40  1   
 39  20  41  1   
 40  21  23  ar  
 41  21  42  1   
 42  22  24  ar  
 43  22  43  1   
 44  23  25  ar  
 45  23  44  1   
 46  24  25  ar  
 47  24  45  1   
 48  25  46  1   
@<TRIPOS>SUBSTRUCTURE
  1 ****   3 GROUP 4 **** **** 0

# MOE 2024.06 (io_trps.svl 2023.06)
