@<TRIPOS>MOLECULE
NONAME
53 55 1 0 0 
SMALL
USER_CHARGES


@<TRIPOS>ATOM
  1 O        0.0130     1.3130    -0.6510 O.2   1 <1>  -0.5700 
  2 C       -0.1840     2.4920    -0.4730 C.2   1 <1>   0.5690 
  3 N       -1.2810     2.9610     0.1960 N.am  1 <1>  -0.6600 
  4 C        0.8220     3.4850    -1.0520 C.3   1 <1>   0.1810 
  5 C       -1.5250     4.4330     0.3650 C.3   1 <1>   0.3640 
  6 C       -2.2680     2.0530     0.8500 C.3   1 <1>   0.0600 
  7 O        0.8180     4.7190    -0.3800 O.3   1 <1>  -0.5600 
  8 C       -2.9390     4.8040    -0.1220 C.ar  1 <1>  -0.1430 
  9 C       -0.4520     5.3470    -0.2940 C.3   1 <1>   0.2610 
 10 C       -3.4650     4.4820    -1.3790 C.ar  1 <1>  -0.1430 
 11 C       -3.7360     5.5120     0.7710 C.ar  1 <1>  -0.1500 
 12 C       -0.2980     6.6890     0.4410 C.2   1 <1>   0.5690 
 13 C       -4.7580     4.8740    -1.6980 C.ar  1 <1>  -0.1500 
 14 C       -2.7050     3.6980    -2.4430 C.3   1 <1>  -0.0960 
 15 C       -5.0210     5.8980     0.4410 C.ar  1 <1>  -0.1500 
 16 O       -1.0990     7.0460     1.2740 O.2   1 <1>  -0.5700 
 17 N        0.7680     7.4720     0.1390 N.am  1 <1>  -0.7300 
 18 C       -5.5350     5.5770    -0.7980 C.ar  1 <1>  -0.1500 
 19 C        1.0920     8.7410     0.8020 C.3   1 <1>   0.3210 
 20 C        2.5340     9.0760     0.4820 C.2   1 <1>  -0.1810 
 21 C        3.0630     9.9910    -0.3620 C.2   1 <1>  -0.3320 
 22 C        3.6310     8.4410     1.0500 C.2   1 <1>   0.1390 
 23 N        4.4100     9.8760    -0.2640 N.pl3 1 <1>   0.3140 
 24 C        2.3530    10.9840    -1.2710 C.3   1 <1>  -0.0600 
 25 N        4.7550     8.9110     0.6070 N.2   1 <1>  -0.7070 
 26 C        5.4440    10.6530    -0.9820 C.3   1 <1>   0.0960 
 27 C        5.8020    11.9370    -0.2230 C.3   1 <1>  -0.2400 
 28 H        0.6070     3.6580    -2.0900 H     1 <1>   0.0800 
 29 H        1.8110     3.0730    -0.9680 H     1 <1>   0.0800 
 30 H       -1.4790     4.6140     1.4240 H     1 <1>   0.0800 
 31 H       -2.3760     2.3160     1.8870 H     1 <1>   0.0800 
 32 H       -1.9440     1.0290     0.7870 H     1 <1>   0.0800 
 33 H       -3.2250     2.1400     0.3640 H     1 <1>   0.0800 
 34 H       -0.7580     5.5790    -1.2950 H     1 <1>   0.0800 
 35 H       -3.3580     5.7810     1.7430 H     1 <1>   0.1500 
 36 H       -5.1790     4.6300    -2.6580 H     1 <1>   0.1500 
 37 H       -3.2170     3.7360    -3.3880 H     1 <1>   0.0800 
 38 H       -2.6270     2.6650    -2.1540 H     1 <1>   0.0800 
 39 H       -1.7230     4.0970    -2.5940 H     1 <1>   0.0800 
 40 H       -5.6170     6.4480     1.1480 H     1 <1>   0.1500 
 41 H        1.5160     7.0980    -0.4520 H     1 <1>   0.3700 
 42 H       -6.5350     5.8740    -1.0620 H     1 <1>   0.1500 
 43 H        0.4330     9.5110     0.4430 H     1 <1>   0.0800 
 44 H        0.9590     8.6430     1.8660 H     1 <1>   0.0800 
 45 H        3.5680     7.6460     1.7740 H     1 <1>   0.1500 
 46 H        1.2870    10.8770    -1.1940 H     1 <1>   0.0800 
 47 H        2.6340    10.8160    -2.2950 H     1 <1>   0.0800 
 48 H        2.6140    11.9910    -0.9970 H     1 <1>   0.0800 
 49 H        6.3170    10.0320    -1.0780 H     1 <1>   0.0800 
 50 H        5.0840    10.8850    -1.9660 H     1 <1>   0.0800 
 51 H        6.1730    11.6900     0.7570 H     1 <1>   0.0800 
 52 H        4.9380    12.5700    -0.1240 H     1 <1>   0.0800 
 53 H        6.5660    12.4760    -0.7530 H     1 <1>   0.0800 
@<TRIPOS>BOND
  1   1   2  2   
  2   2   3  am  
  3   2   4  1   
  4   3   5  1   
  5   3   6  1   
  6   4   7  1   
  7   4  28  1   
  8   4  29  1   
  9   5   8  1   
 10   5   9  1   
 11   5  30  1   
 12   6  31  1   
 13   6  32  1   
 14   6  33  1   
 15   7   9  1   
 16   8  10  ar  
 17   8  11  ar  
 18   9  12  1   
 19   9  34  1   
 20  10  13  ar  
 21  10  14  1   
 22  11  15  ar  
 23  11  35  1   
 24  12  16  2   
 25  12  17  am  
 26  13  18  ar  
 27  13  36  1   
 28  14  37  1   
 29  14  38  1   
 30  14  39  1   
 31  15  18  ar  
 32  15  40  1   
 33  17  19  1   
 34  17  41  1   
 35  18  42  1   
 36  19  20  1   
 37  19  43  1   
 38  19  44  1   
 39  20  21  2   
 40  20  22  1   
 41  21  23  1   
 42  21  24  1   
 43  22  25  2   
 44  22  45  1   
 45  23  25  1   
 46  23  26  1   
 47  24  46  1   
 48  24  47  1   
 49  24  48  1   
 50  26  27  1   
 51  26  49  1   
 52  26  50  1   
 53  27  51  1   
 54  27  52  1   
 55  27  53  1   
@<TRIPOS>SUBSTRUCTURE
  1 ****  12 GROUP 4 **** **** 0

# MOE 2024.06 (io_trps.svl 2023.06)
