@<TRIPOS>MOLECULE
NONAME
48 50 1 0 0 
SMALL
USER_CHARGES


@<TRIPOS>ATOM
  1 F       -1.4630    -0.8540     0.5540 F     1 <1>  -0.1900 
  2 C       -2.1590     0.2070     0.2410 C.ar  1 <1>   0.1900 
  3 C       -3.2040     0.0810    -0.6580 C.ar  1 <1>  -0.1440 
  4 C       -1.8300     1.4110     0.8330 C.ar  1 <1>  -0.1500 
  5 C       -3.9420     1.2140    -0.9690 C.ar  1 <1>  -0.1500 
  6 C       -3.5280    -1.2640    -1.2750 C.3   1 <1>   0.4870 
  7 C       -2.5790     2.5300     0.5140 C.ar  1 <1>  -0.1500 
  8 C       -3.6350     2.4340    -0.3830 C.ar  1 <1>  -0.1440 
  9 N       -4.0960    -2.1470    -0.2260 N.4   1 <1>  -0.9590 
 10 C       -4.4450     3.6730    -0.7270 C.3   1 <1>  -0.0970 
 11 C       -5.3410    -1.5920     0.3720 C.3   1 <1>   0.3430 
 12 C       -4.4480    -3.4920    -0.7280 C.3   1 <1>   0.3430 
 13 C       -6.2160    -2.7780     0.7840 C.3   1 <1>  -0.0800 
 14 C       -5.4470    -4.0250     0.2890 C.3   1 <1>  -0.0800 
 15 C       -7.6570    -2.6620     0.2270 C.3   1 <1>   0.2800 
 16 C       -6.3190    -5.1420    -0.3090 C.3   1 <1>  -0.1600 
 17 O       -7.5470    -2.4580    -1.1370 O.3   1 <1>  -0.6800 
 18 C       -8.4490    -3.9750     0.4480 C.3   1 <1>  -0.1600 
 19 C       -8.4860    -1.4850     0.8040 C.3   1 <1>  -0.1600 
 20 C       -7.6190    -5.2730     0.4800 C.3   1 <1>  -0.1600 
 21 C       -8.0510    -0.0440     0.4730 C.3   1 <1>  -0.2400 
 22 H       -1.0090     1.4720     1.5250 H     1 <1>   0.1500 
 23 H       -4.7600     1.1590    -1.6690 H     1 <1>   0.1500 
 24 H       -2.6280    -1.6990    -1.6780 H     1 <1>   0.0800 
 25 H       -4.2380    -1.1370    -2.0760 H     1 <1>   0.0800 
 26 H       -2.3360     3.4780     0.9650 H     1 <1>   0.1500 
 27 H       -3.3940    -2.2350     0.5200 H     1 <1>   0.4500 
 28 H       -4.5040     4.3310     0.1220 H     1 <1>   0.0800 
 29 H       -5.4450     3.4070    -1.0170 H     1 <1>   0.0800 
 30 H       -3.9770     4.2000    -1.5390 H     1 <1>   0.0800 
 31 H       -5.1170    -0.9570     1.2130 H     1 <1>   0.0800 
 32 H       -5.8620    -1.0110    -0.3710 H     1 <1>   0.0800 
 33 H       -4.9370    -3.4050    -1.6850 H     1 <1>   0.0800 
 34 H       -3.5840    -4.1310    -0.8170 H     1 <1>   0.0800 
 35 H       -6.2790    -2.8130     1.8570 H     1 <1>   0.0800 
 36 H       -4.8950    -4.4320     1.1190 H     1 <1>   0.0800 
 37 H       -6.5640    -4.9270    -1.3360 H     1 <1>   0.0800 
 38 H       -5.7840    -6.0770    -0.2900 H     1 <1>   0.0800 
 39 H       -8.4430    -2.4400    -1.5290 H     1 <1>   0.4000 
 40 H       -8.9640    -3.9200     1.3920 H     1 <1>   0.0800 
 41 H       -9.2120    -4.0600    -0.3060 H     1 <1>   0.0800 
 42 H       -9.5010    -1.5980     0.4620 H     1 <1>   0.0800 
 43 H       -8.5220    -1.5850     1.8750 H     1 <1>   0.0800 
 44 H       -7.3790    -5.5160     1.5020 H     1 <1>   0.0800 
 45 H       -8.2070    -6.0860     0.0870 H     1 <1>   0.0800 
 46 H       -7.9060     0.0870    -0.5850 H     1 <1>   0.0800 
 47 H       -7.1550     0.2300     0.9970 H     1 <1>   0.0800 
 48 H       -8.8230     0.6380     0.7860 H     1 <1>   0.0800 
@<TRIPOS>BOND
  1   1   2  1   
  2   2   3  ar  
  3   2   4  ar  
  4   3   5  ar  
  5   3   6  1   
  6   4   7  ar  
  7   4  22  1   
  8   5   8  ar  
  9   5  23  1   
 10   6   9  1   
 11   6  24  1   
 12   6  25  1   
 13   7   8  ar  
 14   7  26  1   
 15   8  10  1   
 16   9  11  1   
 17   9  12  1   
 18   9  27  1   
 19  10  28  1   
 20  10  29  1   
 21  10  30  1   
 22  11  13  1   
 23  11  31  1   
 24  11  32  1   
 25  12  14  1   
 26  12  33  1   
 27  12  34  1   
 28  13  14  1   
 29  13  15  1   
 30  13  35  1   
 31  14  16  1   
 32  14  36  1   
 33  15  17  1   
 34  15  18  1   
 35  15  19  1   
 36  16  20  1   
 37  16  37  1   
 38  16  38  1   
 39  17  39  1   
 40  18  20  1   
 41  18  40  1   
 42  18  41  1   
 43  19  21  1   
 44  19  42  1   
 45  19  43  1   
 46  20  44  1   
 47  20  45  1   
 48  21  46  1   
 49  21  47  1   
 50  21  48  1   
@<TRIPOS>SUBSTRUCTURE
  1 ****  11 GROUP 4 **** **** 0

# MOE 2024.06 (io_trps.svl 2023.06)
