@<TRIPOS>MOLECULE
NONAME
34 35 1 0 0 
SMALL
USER_CHARGES


@<TRIPOS>ATOM
  1 S        0.8540    -0.0220     1.0600 S.3   1 <1>  -0.0800 
  2 C        2.2170     0.6820     0.2260 C.2   1 <1>   0.2280 
  3 C        0.1180     1.5460     1.1180 C.2   1 <1>  -0.1100 
  4 N        2.1220     1.9350     0.0220 N.2   1 <1>  -0.5650 
  5 C        0.9170     2.4620     0.5270 C.2   1 <1>   0.1410 
  6 C        0.6230     3.8800     0.3910 C.2   1 <1>   0.7160 
  7 O       -0.4010     4.3520     0.8530 O.2   1 <1>  -0.5700 
  8 N        1.5320     4.6660    -0.2590 N.am  1 <1>  -0.4930 
  9 C        1.5770     6.0660    -0.4730 C.2   1 <1>   0.0630 
 10 C        0.5610     6.9550    -0.8400 C.2   1 <1>   0.1080 
 11 C        2.6860     6.8320    -0.3810 C.2   1 <1>  -0.3320 
 12 N        0.9950     8.1700    -0.9630 N.2   1 <1>  -0.7070 
 13 C       -0.8890     6.6100    -1.0990 C.3   1 <1>  -0.0590 
 14 N        2.3060     8.1020    -0.6750 N.pl3 1 <1>   0.3140 
 15 C        4.1080     6.4250    -0.0170 C.3   1 <1>  -0.0600 
 16 C        3.1500     9.3140    -0.7000 C.3   1 <1>   0.0960 
 17 C        3.1940     9.9810     0.6830 C.3   1 <1>  -0.1600 
 18 C        4.0740    11.2360     0.6720 C.3   1 <1>  -0.2400 
 19 H        3.0180     0.0170    -0.0470 H     1 <1>   0.1500 
 20 H       -0.8440     1.6460     1.5880 H     1 <1>   0.1500 
 21 H        2.3710     4.1540    -0.5310 H     1 <1>   0.3700 
 22 H       -0.9670     5.6320    -1.5330 H     1 <1>   0.0800 
 23 H       -1.3180     7.3270    -1.7730 H     1 <1>   0.0800 
 24 H       -1.4320     6.6330    -0.1730 H     1 <1>   0.0800 
 25 H        4.1560     5.3770     0.2160 H     1 <1>   0.0800 
 26 H        4.4410     6.9750     0.8450 H     1 <1>   0.0800 
 27 H        4.7720     6.6230    -0.8390 H     1 <1>   0.0800 
 28 H        2.7310     9.9930    -1.4200 H     1 <1>   0.0800 
 29 H        4.1370     9.0430    -1.0200 H     1 <1>   0.0800 
 30 H        3.5780     9.2850     1.4080 H     1 <1>   0.0800 
 31 H        2.1920    10.2530     0.9720 H     1 <1>   0.0800 
 32 H        5.0860    10.9870     0.4020 H     1 <1>   0.0800 
 33 H        4.0830    11.6870     1.6490 H     1 <1>   0.0800 
 34 H        3.6930    11.9560    -0.0310 H     1 <1>   0.0800 
@<TRIPOS>BOND
  1   1   2  1   
  2   1   3  1   
  3   2   4  2   
  4   2  19  1   
  5   3   5  2   
  6   3  20  1   
  7   4   5  1   
  8   5   6  1   
  9   6   7  2   
 10   6   8  am  
 11   8   9  1   
 12   8  21  1   
 13   9  10  1   
 14   9  11  2   
 15  10  12  2   
 16  10  13  1   
 17  11  14  1   
 18  11  15  1   
 19  12  14  1   
 20  13  22  1   
 21  13  23  1   
 22  13  24  1   
 23  14  16  1   
 24  15  25  1   
 25  15  26  1   
 26  15  27  1   
 27  16  17  1   
 28  16  28  1   
 29  16  29  1   
 30  17  18  1   
 31  17  30  1   
 32  17  31  1   
 33  18  32  1   
 34  18  33  1   
 35  18  34  1   
@<TRIPOS>SUBSTRUCTURE
  1 ****   9 GROUP 4 **** **** 0

# MOE 2024.06 (io_trps.svl 2023.06)
