@<TRIPOS>MOLECULE
NONAME
40 41 1 0 0 
SMALL
USER_CHARGES


@<TRIPOS>ATOM
  1 N       -0.6220    -0.0180    -0.6590 N.2   1 <1>  -0.5650 
  2 C       -1.5120     0.5350     0.1010 C.2   1 <1>   0.0060 
  3 C        0.4220     0.8290    -0.6040 C.2   1 <1>   0.0770 
  4 N       -1.1050     1.7060     0.6530 N.pl3 1 <1>   0.0480 
  5 C       -2.8770    -0.0830     0.3380 C.3   1 <1>   0.0200 
  6 C        0.1440     1.8840     0.1900 C.2   1 <1>  -0.3020 
  7 C       -1.8270     2.6170     1.5620 C.3   1 <1>   0.0160 
  8 C       -2.9550    -1.4200    -0.4100 C.3   1 <1>   0.3430 
  9 N       -4.2450    -2.1480    -0.1910 N.4   1 <1>  -0.9590 
 10 C       -4.1240    -3.5480    -0.6850 C.3   1 <1>   0.4860 
 11 C       -5.4170    -1.4580    -0.8200 C.3   1 <1>   0.2630 
 12 C       -5.3260    -4.3330    -0.2000 C.ar  1 <1>  -0.1430 
 13 C       -5.4150    -4.7280     1.1270 C.ar  1 <1>  -0.1500 
 14 C       -6.3500    -4.6590    -1.0770 C.ar  1 <1>  -0.1500 
 15 C       -6.5240    -5.4260     1.5730 C.ar  1 <1>  -0.1500 
 16 C       -7.4570    -5.3570    -0.6270 C.ar  1 <1>  -0.1500 
 17 C       -7.5510    -5.7400     0.7000 C.ar  1 <1>  -0.1430 
 18 C       -8.7650    -6.5090     1.1910 C.3   1 <1>  -0.0970 
 19 H        1.3330     0.6360    -1.1470 H     1 <1>   0.1500 
 20 H       -3.6270     0.5960    -0.0230 H     1 <1>   0.0800 
 21 H       -3.0070    -0.2450     1.3920 H     1 <1>   0.0800 
 22 H        0.7590     2.7290     0.4410 H     1 <1>   0.1500 
 23 H       -2.7300     2.9560     1.0870 H     1 <1>   0.0800 
 24 H       -1.2060     3.4650     1.7870 H     1 <1>   0.0800 
 25 H       -2.0640     2.1000     2.4730 H     1 <1>   0.0800 
 26 H       -2.1320    -2.0310    -0.0750 H     1 <1>   0.0800 
 27 H       -2.8070    -1.2370    -1.4630 H     1 <1>   0.0800 
 28 H       -4.4250    -2.2300     0.8190 H     1 <1>   0.4500 
 29 H       -3.2260    -4.0040    -0.2980 H     1 <1>   0.0800 
 30 H       -4.0780    -3.5650    -1.7620 H     1 <1>   0.0800 
 31 H       -5.2800    -1.3820    -1.8860 H     1 <1>   0.0800 
 32 H       -5.5350    -0.4660    -0.4150 H     1 <1>   0.0800 
 33 H       -6.3230    -2.0110    -0.6280 H     1 <1>   0.0800 
 34 H       -4.6290    -4.5070     1.8290 H     1 <1>   0.1500 
 35 H       -6.3030    -4.3800    -2.1160 H     1 <1>   0.1500 
 36 H       -6.5850    -5.7300     2.6040 H     1 <1>   0.1500 
 37 H       -8.2470    -5.6080    -1.3150 H     1 <1>   0.1500 
 38 H       -8.9570    -6.2920     2.2260 H     1 <1>   0.0800 
 39 H       -8.5940    -7.5660     1.0850 H     1 <1>   0.0800 
 40 H       -9.6370    -6.2410     0.6220 H     1 <1>   0.0800 
@<TRIPOS>BOND
  1   1   2  2   
  2   1   3  1   
  3   2   4  1   
  4   2   5  1   
  5   3   6  2   
  6   3  19  1   
  7   4   6  1   
  8   4   7  1   
  9   5   8  1   
 10   5  20  1   
 11   5  21  1   
 12   6  22  1   
 13   7  23  1   
 14   7  24  1   
 15   7  25  1   
 16   8   9  1   
 17   8  26  1   
 18   8  27  1   
 19   9  10  1   
 20   9  11  1   
 21   9  28  1   
 22  10  12  1   
 23  10  29  1   
 24  10  30  1   
 25  11  31  1   
 26  11  32  1   
 27  11  33  1   
 28  12  13  ar  
 29  12  14  ar  
 30  13  15  ar  
 31  13  34  1   
 32  14  16  ar  
 33  14  35  1   
 34  15  17  ar  
 35  15  36  1   
 36  16  17  ar  
 37  16  37  1   
 38  17  18  1   
 39  18  38  1   
 40  18  39  1   
 41  18  40  1   
@<TRIPOS>SUBSTRUCTURE
  1 ****   9 GROUP 4 **** **** 0

# MOE 2024.06 (io_trps.svl 2023.06)
