@<TRIPOS>MOLECULE
NONAME
37 39 1 0 0 
SMALL
USER_CHARGES


@<TRIPOS>ATOM
  1 O        1.3220    -0.3590     1.7670 O.3   1 <1>  -0.0190 
  2 N        2.0870     0.6900     1.6170 N.2   1 <1>  -0.4100 
  3 C        1.6130    -1.1080     0.7340 C.2   1 <1>   0.3930 
  4 C        2.7610     0.5080     0.5460 C.2   1 <1>   0.5990 
  5 N        2.4860    -0.6400    -0.0580 N.2   1 <1>  -0.5650 
  6 C        0.8920    -2.4390     0.5870 C.3   1 <1>  -0.0150 
  7 N        3.7070     1.3900     0.0220 N.pl3 1 <1>  -0.8210 
  8 C        0.6500    -3.0580    -0.7570 C.3   1 <1>  -0.2000 
  9 C       -0.4970    -2.4910     0.0250 C.3   1 <1>  -0.2000 
 10 C        3.6020     2.8200     0.4670 C.3   1 <1>   0.3530 
 11 C        4.0480     1.2420    -1.4240 C.3   1 <1>   0.1290 
 12 C        4.9220     3.5780     0.3320 C.ar  1 <1>   0.1670 
 13 N        4.8830     4.7520    -0.2870 N.ar  1 <1>  -0.6200 
 14 C        6.0790     3.0190     0.8540 C.ar  1 <1>  -0.1500 
 15 C        6.0360     5.3900    -0.3880 C.ar  1 <1>   0.1670 
 16 C        7.2790     3.6890     0.7430 C.ar  1 <1>  -0.1430 
 17 C        7.2400     4.9090     0.1030 C.ar  1 <1>  -0.1500 
 18 C        5.9850     6.7290    -1.0930 C.3   1 <1>  -0.0970 
 19 C        8.5690     3.1150     1.2980 C.3   1 <1>  -0.0970 
 20 H        1.1240    -3.1070     1.3970 H     1 <1>   0.1000 
 21 H        0.7390    -4.1260    -0.8550 H     1 <1>   0.1000 
 22 H        0.9940    -2.5340    -1.6320 H     1 <1>   0.1000 
 23 H       -0.9510    -1.5770    -0.3190 H     1 <1>   0.1000 
 24 H       -1.2080    -3.1650     0.4690 H     1 <1>   0.1000 
 25 H        3.3030     2.8720     1.4990 H     1 <1>   0.0800 
 26 H        2.8470     3.3150    -0.1190 H     1 <1>   0.0800 
 27 H        4.3850     0.2390    -1.6200 H     1 <1>   0.0800 
 28 H        4.8360     1.9220    -1.7000 H     1 <1>   0.0800 
 29 H        3.1800     1.4450    -2.0280 H     1 <1>   0.0800 
 30 H        6.0300     2.0600     1.3390 H     1 <1>   0.1500 
 31 H        8.1390     5.4830    -0.0150 H     1 <1>   0.1500 
 32 H        5.3110     7.3820    -0.5700 H     1 <1>   0.0800 
 33 H        5.6240     6.5910    -2.0960 H     1 <1>   0.0800 
 34 H        6.9560     7.1860    -1.1310 H     1 <1>   0.0800 
 35 H        8.5150     2.0420     1.3420 H     1 <1>   0.0800 
 36 H        8.7390     3.4950     2.2900 H     1 <1>   0.0800 
 37 H        9.4000     3.3880     0.6720 H     1 <1>   0.0800 
@<TRIPOS>BOND
  1   1   2  1   
  2   1   3  1   
  3   2   4  2   
  4   3   5  2   
  5   3   6  1   
  6   4   5  1   
  7   4   7  1   
  8   6   8  1   
  9   6   9  1   
 10   6  20  1   
 11   7  10  1   
 12   7  11  1   
 13   8   9  1   
 14   8  21  1   
 15   8  22  1   
 16   9  23  1   
 17   9  24  1   
 18  10  12  1   
 19  10  25  1   
 20  10  26  1   
 21  11  27  1   
 22  11  28  1   
 23  11  29  1   
 24  12  13  ar  
 25  12  14  ar  
 26  13  15  ar  
 27  14  16  ar  
 28  14  30  1   
 29  15  17  ar  
 30  15  18  1   
 31  16  17  ar  
 32  16  19  1   
 33  17  31  1   
 34  18  32  1   
 35  18  33  1   
 36  18  34  1   
 37  19  35  1   
 38  19  36  1   
 39  19  37  1   
@<TRIPOS>SUBSTRUCTURE
  1 ****   7 GROUP 4 **** **** 0

# MOE 2024.06 (io_trps.svl 2023.06)
