@<TRIPOS>MOLECULE
NONAME
52 56 1 0 0 
SMALL
USER_CHARGES


@<TRIPOS>ATOM
  1 O       -2.1700     1.4600    -0.8500 O.3   1 <1>  -0.3630 
  2 C       -2.9730     1.1430     0.1940 C.ar  1 <1>   0.0830 
  3 C       -1.1300     2.3880    -0.5950 C.3   1 <1>   0.1200 
  4 C       -2.9980     1.9210     1.3520 C.ar  1 <1>   0.0830 
  5 C       -3.7780     0.0230     0.0950 C.ar  1 <1>  -0.1500 
  6 C       -1.6450     3.5400     0.2800 C.3   1 <1>   0.1200 
  7 O       -2.2350     3.0360     1.4650 O.3   1 <1>  -0.3630 
  8 C       -3.8160     1.5590     2.4060 C.ar  1 <1>  -0.1500 
  9 C       -4.6140    -0.3310     1.1460 C.ar  1 <1>  -0.1430 
 10 C       -4.6220     0.4360     2.3050 C.ar  1 <1>  -0.1500 
 11 C       -5.5250    -1.5350     1.0160 C.3   1 <1>   0.4860 
 12 N       -6.5890    -1.1890     0.0370 N.4   1 <1>  -0.9590 
 13 C       -7.4610    -0.0780     0.5550 C.3   1 <1>   0.3430 
 14 C       -7.3980    -2.3740    -0.3630 C.3   1 <1>   0.3430 
 15 C       -8.4670     0.3980    -0.5040 C.3   1 <1>   0.1440 
 16 C       -8.3830    -1.9720    -1.4650 C.3   1 <1>  -0.1600 
 17 C       -9.3800     1.4140     0.1360 C.ar  1 <1>   0.1670 
 18 C       -9.2840    -0.7970    -1.0410 C.3   1 <1>  -0.1600 
 19 C       -7.7990     1.2150    -1.6450 C.3   1 <1>  -0.1600 
 20 N       -9.9750     1.2520     1.2950 N.ar  1 <1>  -0.6200 
 21 C       -9.5050     2.5360    -0.6240 C.ar  1 <1>  -0.1430 
 22 C       -8.6970     2.4430    -1.8940 C.3   1 <1>  -0.0170 
 23 C      -10.7300     2.2810     1.6620 C.ar  1 <1>   0.4770 
 24 C      -10.3070     3.5420    -0.1450 C.ar  1 <1>   0.1600 
 25 N      -10.9280     3.4190     1.0100 N.ar  1 <1>  -0.6200 
 26 C      -11.4480     2.1480     2.9830 C.3   1 <1>  -0.0970 
 27 H       -0.7720     2.7550    -1.5400 H     1 <1>   0.0800 
 28 H       -0.3320     1.8680    -0.0950 H     1 <1>   0.0800 
 29 H       -3.7270    -0.5560    -0.8100 H     1 <1>   0.1500 
 30 H       -2.3890     4.1080    -0.2490 H     1 <1>   0.0800 
 31 H       -0.8390     4.1930     0.5630 H     1 <1>   0.0800 
 32 H       -3.8160     2.1600     3.2990 H     1 <1>   0.1500 
 33 H       -5.2510     0.1770     3.1400 H     1 <1>   0.1500 
 34 H       -5.9580    -1.7830     1.9710 H     1 <1>   0.0800 
 35 H       -4.9520    -2.3790     0.6650 H     1 <1>   0.0800 
 36 H       -6.1060    -0.8260    -0.7940 H     1 <1>   0.4500 
 37 H       -6.8590     0.7620     0.8610 H     1 <1>   0.0800 
 38 H       -8.0100    -0.4200     1.4180 H     1 <1>   0.0800 
 39 H       -7.9450    -2.7460     0.4890 H     1 <1>   0.0800 
 40 H       -6.7550    -3.1600    -0.7250 H     1 <1>   0.0800 
 41 H       -9.0040    -2.8200    -1.7010 H     1 <1>   0.0800 
 42 H       -7.8380    -1.7230    -2.3580 H     1 <1>   0.0800 
 43 H       -9.8990    -0.4820    -1.8680 H     1 <1>   0.0800 
 44 H       -9.9500    -1.1360    -0.2640 H     1 <1>   0.0800 
 45 H       -7.6650     0.6470    -2.5480 H     1 <1>   0.0800 
 46 H       -6.8360     1.5710    -1.3200 H     1 <1>   0.0800 
 47 H       -9.3550     2.2750    -2.7290 H     1 <1>   0.0800 
 48 H       -8.1160     3.3340    -2.0630 H     1 <1>   0.0800 
 49 H      -10.4420     4.4520    -0.7040 H     1 <1>   0.1500 
 50 H      -11.5620     1.1130     3.2460 H     1 <1>   0.0800 
 51 H      -12.4210     2.5990     2.9170 H     1 <1>   0.0800 
 52 H      -10.8820     2.6480     3.7460 H     1 <1>   0.0800 
@<TRIPOS>BOND
  1   1   2  1   
  2   1   3  1   
  3   2   4  ar  
  4   2   5  ar  
  5   3   6  1   
  6   3  27  1   
  7   3  28  1   
  8   4   7  1   
  9   4   8  ar  
 10   5   9  ar  
 11   5  29  1   
 12   6   7  1   
 13   6  30  1   
 14   6  31  1   
 15   8  10  ar  
 16   8  32  1   
 17   9  10  ar  
 18   9  11  1   
 19  10  33  1   
 20  11  12  1   
 21  11  34  1   
 22  11  35  1   
 23  12  13  1   
 24  12  14  1   
 25  12  36  1   
 26  13  15  1   
 27  13  37  1   
 28  13  38  1   
 29  14  16  1   
 30  14  39  1   
 31  14  40  1   
 32  15  17  1   
 33  15  18  1   
 34  15  19  1   
 35  16  18  1   
 36  16  41  1   
 37  16  42  1   
 38  17  20  ar  
 39  17  21  ar  
 40  18  43  1   
 41  18  44  1   
 42  19  22  1   
 43  19  45  1   
 44  19  46  1   
 45  20  23  ar  
 46  21  22  1   
 47  21  24  ar  
 48  22  47  1   
 49  22  48  1   
 50  23  25  ar  
 51  23  26  1   
 52  24  25  ar  
 53  24  49  1   
 54  26  50  1   
 55  26  51  1   
 56  26  52  1   
@<TRIPOS>SUBSTRUCTURE
  1 ****  13 GROUP 4 **** **** 0

# MOE 2024.06 (io_trps.svl 2023.06)
