@<TRIPOS>MOLECULE
NONAME
55 57 1 0 0 
SMALL
USER_CHARGES


@<TRIPOS>ATOM
  1 S       -0.2700    -2.6840     1.4510 S.3   1 <1>  -0.0800 
  2 C        0.3420    -2.6500    -0.1940 C.2   1 <1>  -0.1400 
  3 C        0.8290    -1.4050     1.9280 C.2   1 <1>  -0.1100 
  4 C        1.3110    -1.7220    -0.3150 C.2   1 <1>  -0.1500 
  5 C       -0.2840    -3.6150    -1.1750 C.3   1 <1>   0.5230 
  6 C        1.5950    -1.0040     0.8930 C.2   1 <1>   0.0190 
  7 N       -1.7280    -3.2880    -1.2930 N.4   1 <1>  -0.9590 
  8 C        2.5960     0.0180     0.9330 C.1   1 <1>  -0.0190 
  9 C       -2.5320    -4.3840    -1.9270 C.3   1 <1>   0.3430 
 10 C       -1.9750    -1.9410    -1.8780 C.3   1 <1>   0.3430 
 11 C        3.4280     0.8690     0.9700 C.1   1 <1>  -0.2000 
 12 C       -4.0530    -4.1540    -1.7880 C.3   1 <1>   0.1400 
 13 C       -2.9870    -1.1930    -1.0080 C.3   1 <1>  -0.1600 
 14 C        4.4660     1.9310     1.0320 C.3   1 <1>   0.3200 
 15 N       -4.3560    -3.2510    -0.6350 N.am  1 <1>  -0.6600 
 16 C       -4.3960    -1.8000    -0.9800 C.3   1 <1>   0.1400 
 17 O        3.8400     3.0960     1.4200 O.3   1 <1>  -0.6800 
 18 C       -4.4880    -3.6470     0.6750 C.2   1 <1>   0.5690 
 19 O       -4.3090    -2.8570     1.5670 O.2   1 <1>  -0.5700 
 20 C       -4.8020    -5.0820     1.0710 C.3   1 <1>  -0.0990 
 21 C       -6.3120    -5.3230     1.2640 C.3   1 <1>  -0.0800 
 22 C       -6.5620    -6.7190     1.8630 C.3   1 <1>   0.1200 
 23 C       -7.1040    -5.1610    -0.0460 C.3   1 <1>  -0.1600 
 24 O       -7.9310    -6.9290     2.0250 O.3   1 <1>  -0.5600 
 25 C       -8.5690    -5.5520     0.1800 C.3   1 <1>  -0.1600 
 26 C       -8.6730    -6.9290     0.8450 C.3   1 <1>   0.1200 
 27 H        0.7950    -1.0730     2.9510 H     1 <1>   0.1500 
 28 H        1.8650    -1.4910    -1.2100 H     1 <1>   0.1500 
 29 H       -0.1590    -4.6200    -0.8040 H     1 <1>   0.0800 
 30 H        0.2000    -3.5360    -2.1340 H     1 <1>   0.0800 
 31 H       -2.0850    -3.2010    -0.3240 H     1 <1>   0.4500 
 32 H       -2.2930    -5.3170    -1.4430 H     1 <1>   0.0800 
 33 H       -2.2770    -4.4850    -2.9690 H     1 <1>   0.0800 
 34 H       -2.3400    -2.0270    -2.8890 H     1 <1>   0.0800 
 35 H       -1.0580    -1.3740    -1.8970 H     1 <1>   0.0800 
 36 H       -4.5570    -5.0970    -1.6820 H     1 <1>   0.0800 
 37 H       -4.4260    -3.7100    -2.6950 H     1 <1>   0.0800 
 38 H       -3.0710    -0.1870    -1.3780 H     1 <1>   0.0800 
 39 H       -2.6140    -1.1150    -0.0010 H     1 <1>   0.0800 
 40 H        4.9130     2.0890     0.0650 H     1 <1>   0.0800 
 41 H        5.2280     1.6970     1.7550 H     1 <1>   0.0800 
 42 H       -4.8780    -1.6680    -1.9330 H     1 <1>   0.0800 
 43 H       -4.9910    -1.2750    -0.2490 H     1 <1>   0.0800 
 44 H        2.9790     3.1590     0.9660 H     1 <1>   0.4000 
 45 H       -4.3100    -5.2650     2.0100 H     1 <1>   0.0800 
 46 H       -4.3990    -5.7810     0.3680 H     1 <1>   0.0800 
 47 H       -6.6740    -4.6010     1.9780 H     1 <1>   0.0800 
 48 H       -6.1080    -6.7990     2.8360 H     1 <1>   0.0800 
 49 H       -6.1720    -7.4970     1.2300 H     1 <1>   0.0800 
 50 H       -6.6900    -5.8020    -0.8040 H     1 <1>   0.0800 
 51 H       -7.0580    -4.1430    -0.3920 H     1 <1>   0.0800 
 52 H       -9.0960    -5.5640    -0.7570 H     1 <1>   0.0800 
 53 H       -9.0470    -4.8270     0.8170 H     1 <1>   0.0800 
 54 H       -9.6950    -7.1480     1.1010 H     1 <1>   0.0800 
 55 H       -8.2980    -7.7060     0.2020 H     1 <1>   0.0800 
@<TRIPOS>BOND
  1   1   2  1   
  2   1   3  1   
  3   2   4  2   
  4   2   5  1   
  5   3   6  2   
  6   3  27  1   
  7   4   6  1   
  8   4  28  1   
  9   5   7  1   
 10   5  29  1   
 11   5  30  1   
 12   6   8  1   
 13   7   9  1   
 14   7  10  1   
 15   7  31  1   
 16   8  11  3   
 17   9  12  1   
 18   9  32  1   
 19   9  33  1   
 20  10  13  1   
 21  10  34  1   
 22  10  35  1   
 23  11  14  1   
 24  12  15  1   
 25  12  36  1   
 26  12  37  1   
 27  13  16  1   
 28  13  38  1   
 29  13  39  1   
 30  14  17  1   
 31  14  40  1   
 32  14  41  1   
 33  15  16  1   
 34  15  18  am  
 35  16  42  1   
 36  16  43  1   
 37  17  44  1   
 38  18  19  2   
 39  18  20  1   
 40  20  21  1   
 41  20  45  1   
 42  20  46  1   
 43  21  22  1   
 44  21  23  1   
 45  21  47  1   
 46  22  24  1   
 47  22  48  1   
 48  22  49  1   
 49  23  25  1   
 50  23  50  1   
 51  23  51  1   
 52  24  26  1   
 53  25  26  1   
 54  25  52  1   
 55  25  53  1   
 56  26  54  1   
 57  26  55  1   
@<TRIPOS>SUBSTRUCTURE
  1 ****   7 GROUP 4 **** **** 0

# MOE 2024.06 (io_trps.svl 2023.06)
