@<TRIPOS>MOLECULE
NONAME
43 45 1 0 0 
SMALL
USER_CHARGES


@<TRIPOS>ATOM
  1 CL       0.0490     0.4010     1.9430 Cl    1 <1>  -0.1230 
  2 C       -0.7670     1.7690     1.2130 C.2   1 <1>   0.1230 
  3 C       -2.0940     2.0340     1.2440 C.2   1 <1>  -0.3020 
  4 C       -0.1320     2.7690     0.4930 C.2   1 <1>  -0.1500 
  5 N       -2.3170     3.1830     0.5580 N.pl3 1 <1>   0.0480 
  6 C       -1.1050     3.6580     0.0970 C.2   1 <1>  -0.2370 
  7 C       -3.6480     3.7840     0.3380 C.3   1 <1>   0.0160 
  8 C       -0.9700     4.8680    -0.6720 C.2   1 <1>   0.7150 
  9 O       -1.7510     5.1000    -1.5740 O.2   1 <1>  -0.5700 
 10 N        0.0360     5.7800    -0.4320 N.am  1 <1>  -0.6600 
 11 C        0.7850     5.8230     0.8830 C.3   1 <1>   0.2200 
 12 C        0.2950     6.8490    -1.4520 C.3   1 <1>   0.1400 
 13 C        0.6710     7.1940     1.5700 C.3   1 <1>   0.1200 
 14 C        2.2640     5.4010     0.7120 C.3   1 <1>   0.3430 
 15 C        1.5860     7.6670    -1.2540 C.3   1 <1>  -0.0800 
 16 O        1.6610     8.0710     1.1300 O.3   1 <1>  -0.5600 
 17 N        2.7050     5.4410    -0.7260 N.4   1 <1>  -0.9590 
 18 C        1.4580     8.6740    -0.1020 C.3   1 <1>   0.1200 
 19 C        2.8960     6.8530    -1.1790 C.3   1 <1>   0.3430 
 20 C        4.0290     4.7000    -0.8530 C.3   1 <1>   0.2370 
 21 C        5.1550     5.2700     0.0130 C.2   1 <1>   0.9060 
 22 O        5.8420     6.1770    -0.4630 O.co2 1 <1>  -0.9000 
 23 O        5.2250     4.8900     1.1840 O.co2 1 <1>  -0.9000 
 24 H       -2.8730     1.4610     1.7120 H     1 <1>   0.1500 
 25 H        0.9240     2.7920     0.2970 H     1 <1>   0.1500 
 26 H       -4.3850     3.2590     0.9180 H     1 <1>   0.0800 
 27 H       -3.8990     3.7160    -0.7050 H     1 <1>   0.0800 
 28 H       -3.6300     4.8170     0.6330 H     1 <1>   0.0800 
 29 H        0.3300     5.1310     1.5670 H     1 <1>   0.0800 
 30 H        0.3300     6.3840    -2.4240 H     1 <1>   0.0800 
 31 H       -0.5490     7.5180    -1.4610 H     1 <1>   0.0800 
 32 H        0.8310     7.0670     2.6270 H     1 <1>   0.0800 
 33 H       -0.3020     7.6330     1.4270 H     1 <1>   0.0800 
 34 H        2.3800     4.3990     1.0900 H     1 <1>   0.0800 
 35 H        2.9020     6.0330     1.3110 H     1 <1>   0.0800 
 36 H        1.6770     8.2790    -2.1330 H     1 <1>   0.0800 
 37 H        1.9640     5.0050    -1.2870 H     1 <1>   0.4500 
 38 H        0.4980     9.1620    -0.1000 H     1 <1>   0.0800 
 39 H        2.2180     9.4320    -0.2000 H     1 <1>   0.0800 
 40 H        3.5930     7.3520    -0.5210 H     1 <1>   0.0800 
 41 H        3.3460     6.8380    -2.1580 H     1 <1>   0.0800 
 42 H        3.9010     3.6730    -0.5650 H     1 <1>   0.0800 
 43 H        4.3680     4.7280    -1.8720 H     1 <1>   0.0800 
@<TRIPOS>BOND
  1   1   2  1   
  2   2   3  2   
  3   2   4  1   
  4   3   5  1   
  5   3  24  1   
  6   4   6  2   
  7   4  25  1   
  8   5   6  1   
  9   5   7  1   
 10   6   8  1   
 11   7  26  1   
 12   7  27  1   
 13   7  28  1   
 14   8   9  2   
 15   8  10  am  
 16  10  11  1   
 17  10  12  1   
 18  11  13  1   
 19  11  14  1   
 20  11  29  1   
 21  12  15  1   
 22  12  30  1   
 23  12  31  1   
 24  13  16  1   
 25  13  32  1   
 26  13  33  1   
 27  14  17  1   
 28  14  34  1   
 29  14  35  1   
 30  15  18  1   
 31  15  19  1   
 32  15  36  1   
 33  16  18  1   
 34  17  19  1   
 35  17  20  1   
 36  17  37  1   
 37  18  38  1   
 38  18  39  1   
 39  19  40  1   
 40  19  41  1   
 41  20  21  1   
 42  20  42  1   
 43  20  43  1   
 44  21  22  ar  
 45  21  23  ar  
@<TRIPOS>SUBSTRUCTURE
  1 ****  11 GROUP 4 **** **** 0

# MOE 2024.06 (io_trps.svl 2023.06)
