@<TRIPOS>MOLECULE
NONAME
47 48 1 0 0 
SMALL
USER_CHARGES


@<TRIPOS>ATOM
  1 O        3.5230     2.1020     1.8590 O.co2 1 <1>  -0.9000 
  2 C        2.8040     1.1500     1.5180 C.2   1 <1>   0.9060 
  3 O        2.6300     0.1860     2.2610 O.co2 1 <1>  -0.9000 
  4 C        2.3860     1.0170     0.0410 C.3   1 <1>  -0.1060 
  5 C        3.2050    -0.1990    -0.4490 C.3   1 <1>   0.2000 
  6 C        2.8120     2.2620    -0.8080 C.3   1 <1>  -0.1600 
  7 C        0.8580     0.7620    -0.0850 C.3   1 <1>  -0.1600 
  8 O        2.9930    -0.3960    -1.8160 O.3   1 <1>  -0.6800 
  9 C        4.7190     0.0370    -0.2040 C.3   1 <1>   0.3430 
 10 C        4.2920     2.2590    -1.2380 C.3   1 <1>   0.3430 
 11 C       -0.0040     1.9050     0.4790 C.3   1 <1>  -0.1600 
 12 N        5.0910     1.4970    -0.2470 N.4   1 <1>  -0.9590 
 13 C       -1.4940     1.5820     0.3450 C.3   1 <1>  -0.2400 
 14 C        6.5440     1.7530    -0.2530 C.3   1 <1>   0.4860 
 15 C        6.8010     3.2450    -0.1340 C.ar  1 <1>  -0.1430 
 16 C        7.5200     3.9090    -1.1180 C.ar  1 <1>  -0.1500 
 17 C        6.3140     3.9600     0.9530 C.ar  1 <1>  -0.1500 
 18 C        7.7430     5.2700    -1.0170 C.ar  1 <1>  -0.1500 
 19 C        6.5370     5.3220     1.0530 C.ar  1 <1>  -0.1500 
 20 C        7.2550     5.9860     0.0640 C.ar  1 <1>   0.0830 
 21 O        7.5150     7.3160     0.0830 O.3   1 <1>  -0.3630 
 22 C        7.0710     8.1340     1.1440 C.3   1 <1>   0.0400 
 23 H        2.8990    -1.0990     0.0600 H     1 <1>   0.0800 
 24 H        2.6150     3.1630    -0.2530 H     1 <1>   0.0800 
 25 H        2.2200     2.3180    -1.7040 H     1 <1>   0.0800 
 26 H        0.5930     0.6070    -1.1150 H     1 <1>   0.0800 
 27 H        0.6170    -0.1390     0.4550 H     1 <1>   0.0800 
 28 H        2.0440    -0.5810    -1.9680 H     1 <1>   0.4000 
 29 H        5.2780    -0.5220    -0.9340 H     1 <1>   0.0800 
 30 H        4.9580    -0.3440     0.7760 H     1 <1>   0.0800 
 31 H        4.6430     3.2760    -1.3130 H     1 <1>   0.0800 
 32 H        4.3840     1.7880    -2.2040 H     1 <1>   0.0800 
 33 H        0.2280     2.0540     1.5210 H     1 <1>   0.0800 
 34 H        0.2030     2.8230    -0.0420 H     1 <1>   0.0800 
 35 H        4.7340     1.8800     0.6680 H     1 <1>   0.4500 
 36 H       -1.7320     0.6830     0.8870 H     1 <1>   0.0800 
 37 H       -1.7620     1.4490    -0.6880 H     1 <1>   0.0800 
 38 H       -2.0800     2.3880     0.7510 H     1 <1>   0.0800 
 39 H        7.0040     1.2480     0.5800 H     1 <1>   0.0800 
 40 H        6.9760     1.3780    -1.1650 H     1 <1>   0.0800 
 41 H        7.9110     3.3790    -1.9700 H     1 <1>   0.1500 
 42 H        5.7490     3.4670     1.7300 H     1 <1>   0.1500 
 43 H        8.2990     5.7920    -1.7750 H     1 <1>   0.1500 
 44 H        6.1420     5.8430     1.9050 H     1 <1>   0.1500 
 45 H        7.3900     9.1410     0.9450 H     1 <1>   0.0800 
 46 H        7.5100     7.7850     2.0610 H     1 <1>   0.0800 
 47 H        5.9970     8.0930     1.1900 H     1 <1>   0.0800 
@<TRIPOS>BOND
  1   1   2  ar  
  2   2   3  ar  
  3   2   4  1   
  4   4   5  1   
  5   4   6  1   
  6   4   7  1   
  7   5   8  1   
  8   5   9  1   
  9   5  23  1   
 10   6  10  1   
 11   6  24  1   
 12   6  25  1   
 13   7  11  1   
 14   7  26  1   
 15   7  27  1   
 16   8  28  1   
 17   9  12  1   
 18   9  29  1   
 19   9  30  1   
 20  10  12  1   
 21  10  31  1   
 22  10  32  1   
 23  11  13  1   
 24  11  33  1   
 25  11  34  1   
 26  12  14  1   
 27  12  35  1   
 28  13  36  1   
 29  13  37  1   
 30  13  38  1   
 31  14  15  1   
 32  14  39  1   
 33  14  40  1   
 34  15  16  ar  
 35  15  17  ar  
 36  16  18  ar  
 37  16  41  1   
 38  17  19  ar  
 39  17  42  1   
 40  18  20  ar  
 41  18  43  1   
 42  19  20  ar  
 43  19  44  1   
 44  20  21  1   
 45  21  22  1   
 46  22  45  1   
 47  22  46  1   
 48  22  47  1   
@<TRIPOS>SUBSTRUCTURE
  1 ****  12 GROUP 4 **** **** 0

# MOE 2024.06 (io_trps.svl 2023.06)
