@<TRIPOS>MOLECULE
NONAME
58 59 1 0 0 
SMALL
USER_CHARGES


@<TRIPOS>ATOM
  1 O       -0.0420     0.9660     0.5350 O.2   1 <1>  -0.5700 
  2 C       -0.1280     2.1710     0.5160 C.2   1 <1>   0.5690 
  3 N       -1.2900     2.8350     0.8220 N.am  1 <1>  -0.6600 
  4 C        1.1270     2.9530     0.1190 C.3   1 <1>   0.1810 
  5 C       -1.3570     4.3390     0.6980 C.3   1 <1>   0.3640 
  6 C       -2.4010     2.0880     1.4960 C.3   1 <1>   0.2200 
  7 O        1.0900     4.3010     0.5220 O.3   1 <1>  -0.5600 
  8 C       -2.5340     4.7810    -0.1720 C.ar  1 <1>  -0.1440 
  9 C       -0.0750     4.9710     0.0940 C.3   1 <1>   0.2610 
 10 C       -3.5060     1.7290     0.5050 C.3   1 <1>  -0.2400 
 11 C       -2.9590     2.8390     2.7060 C.3   1 <1>  -0.2400 
 12 C       -3.4170     5.7450     0.2950 C.ar  1 <1>  -0.1500 
 13 C       -2.7230     4.2530    -1.4430 C.ar  1 <1>  -0.1500 
 14 C        0.0340     6.4760     0.4060 C.2   1 <1>   0.5690 
 15 C       -4.4700     6.1740    -0.4940 C.ar  1 <1>  -0.1500 
 16 C       -3.7750     4.6830    -2.2330 C.ar  1 <1>  -0.1500 
 17 O       -0.5320     6.9160     1.3860 O.2   1 <1>  -0.5700 
 18 N        0.8020     7.3310    -0.3590 N.am  1 <1>  -0.6600 
 19 C       -4.6490     5.6450    -1.7590 C.ar  1 <1>  -0.1500 
 20 C        0.6980     8.8230    -0.1960 C.3   1 <1>   0.1400 
 21 C        1.7030     6.8750    -1.4600 C.3   1 <1>   0.1400 
 22 C        1.6540     9.3680     0.8850 C.3   1 <1>   0.3430 
 23 C        3.1260     6.7190    -0.9330 C.3   1 <1>  -0.2400 
 24 N        1.3710     8.7600     2.2200 N.4   1 <1>  -0.9590 
 25 C        0.4520     9.5940     3.0480 C.3   1 <1>   0.2630 
 26 C        2.6120     8.3850     2.9550 C.3   1 <1>   0.2630 
 27 H        1.2510     2.9140    -0.9470 H     1 <1>   0.0800 
 28 H        1.9830     2.4980     0.5830 H     1 <1>   0.0800 
 29 H       -1.4830     4.7350     1.6890 H     1 <1>   0.0800 
 30 H       -2.0020     1.1590     1.8700 H     1 <1>   0.0800 
 31 H       -0.1340     4.8600    -0.9720 H     1 <1>   0.0800 
 32 H       -4.0740     2.5950     0.2210 H     1 <1>   0.0800 
 33 H       -4.1810     1.0270     0.9590 H     1 <1>   0.0800 
 34 H       -3.0820     1.2700    -0.3690 H     1 <1>   0.0800 
 35 H       -3.4930     3.7220     2.4070 H     1 <1>   0.0800 
 36 H       -2.1650     3.0990     3.3820 H     1 <1>   0.0800 
 37 H       -3.6480     2.2020     3.2320 H     1 <1>   0.0800 
 38 H       -3.2890     6.1710     1.2750 H     1 <1>   0.1500 
 39 H       -2.0590     3.4950    -1.8210 H     1 <1>   0.1500 
 40 H       -5.1520     6.9200    -0.1230 H     1 <1>   0.1500 
 41 H       -3.9170     4.2670    -3.2150 H     1 <1>   0.1500 
 42 H       -5.4680     5.9780    -2.3720 H     1 <1>   0.1500 
 43 H        0.9180     9.3040    -1.1330 H     1 <1>   0.0800 
 44 H       -0.3140     9.0850     0.0610 H     1 <1>   0.0800 
 45 H        1.3740     5.9350    -1.8630 H     1 <1>   0.0800 
 46 H        1.6860     7.5850    -2.2700 H     1 <1>   0.0800 
 47 H        1.5620    10.4400     0.9440 H     1 <1>   0.0800 
 48 H        2.6630     9.1410     0.5880 H     1 <1>   0.0800 
 49 H        3.1460     6.0390    -0.1000 H     1 <1>   0.0800 
 50 H        3.5380     7.6650    -0.6410 H     1 <1>   0.0800 
 51 H        3.7490     6.3120    -1.7100 H     1 <1>   0.0800 
 52 H        0.8440     7.8820     2.0050 H     1 <1>   0.4500 
 53 H        0.9120    10.5400     3.2850 H     1 <1>   0.0800 
 54 H        0.2130     9.0830     3.9660 H     1 <1>   0.0800 
 55 H       -0.4670     9.7750     2.5130 H     1 <1>   0.0800 
 56 H        3.1920     9.2640     3.1850 H     1 <1>   0.0800 
 57 H        3.2110     7.7180     2.3550 H     1 <1>   0.0800 
 58 H        2.3620     7.8830     3.8750 H     1 <1>   0.0800 
@<TRIPOS>BOND
  1   1   2  2   
  2   2   3  am  
  3   2   4  1   
  4   3   5  1   
  5   3   6  1   
  6   4   7  1   
  7   4  27  1   
  8   4  28  1   
  9   5   8  1   
 10   5   9  1   
 11   5  29  1   
 12   6  10  1   
 13   6  11  1   
 14   6  30  1   
 15   7   9  1   
 16   8  12  ar  
 17   8  13  ar  
 18   9  14  1   
 19   9  31  1   
 20  10  32  1   
 21  10  33  1   
 22  10  34  1   
 23  11  35  1   
 24  11  36  1   
 25  11  37  1   
 26  12  15  ar  
 27  12  38  1   
 28  13  16  ar  
 29  13  39  1   
 30  14  17  2   
 31  14  18  am  
 32  15  19  ar  
 33  15  40  1   
 34  16  19  ar  
 35  16  41  1   
 36  18  20  1   
 37  18  21  1   
 38  19  42  1   
 39  20  22  1   
 40  20  43  1   
 41  20  44  1   
 42  21  23  1   
 43  21  45  1   
 44  21  46  1   
 45  22  24  1   
 46  22  47  1   
 47  22  48  1   
 48  23  49  1   
 49  23  50  1   
 50  23  51  1   
 51  24  25  1   
 52  24  26  1   
 53  24  52  1   
 54  25  53  1   
 55  25  54  1   
 56  25  55  1   
 57  26  56  1   
 58  26  57  1   
 59  26  58  1   
@<TRIPOS>SUBSTRUCTURE
  1 ****   9 GROUP 4 **** **** 0

# MOE 2024.06 (io_trps.svl 2023.06)
