@<TRIPOS>MOLECULE
NONAME
54 56 1 0 0 
SMALL
USER_CHARGES


@<TRIPOS>ATOM
  1 O        0.3050    -0.2100    -1.0520 O.3   1 <1>  -0.5600 
  2 C        1.5580    -0.8350    -1.1990 C.3   1 <1>   0.2000 
  3 C        0.3140     1.1820    -1.1710 C.3   1 <1>   0.1200 
  4 C        2.5950    -0.2620    -0.1940 C.3   1 <1>   0.5660 
  5 C        1.3780    -2.3470    -0.9810 C.3   1 <1>   0.1200 
  6 C        1.2000     1.7950    -0.0740 C.3   1 <1>   0.3430 
  7 N        2.5880     1.2320    -0.1090 N.4   1 <1>  -0.9590 
  8 C        4.0140    -0.6820    -0.5550 C.ar  1 <1>  -0.1430 
  9 O        1.2220    -2.6220     0.3760 O.3   1 <1>  -0.6800 
 10 C        3.3990     1.7130     1.0350 C.3   1 <1>   0.5240 
 11 C        4.7520    -1.4130     0.3640 C.ar  1 <1>  -0.1500 
 12 C        4.5930    -0.3390    -1.7720 C.ar  1 <1>  -0.1500 
 13 C        3.7460     3.1520     0.7440 C.2   1 <1>  -0.1810 
 14 C        6.0560    -1.7850     0.0900 C.ar  1 <1>   0.0830 
 15 C        5.9000    -0.7010    -2.0490 C.ar  1 <1>  -0.1500 
 16 C        4.8200     3.5950    -0.0210 C.2   1 <1>   0.1080 
 17 C        3.1150     4.2820     1.1370 C.2   1 <1>  -0.3020 
 18 O        6.6990    -2.5130     1.0350 O.3   1 <1>  -0.3630 
 19 C        6.6460    -1.4040    -1.1190 C.ar  1 <1>   0.0830 
 20 N        4.8390     4.8830    -0.1180 N.2   1 <1>  -0.7070 
 21 C        5.8850     2.7490    -0.6890 C.3   1 <1>  -0.0590 
 22 N        3.7970     5.3160     0.6070 N.pl3 1 <1>   0.3140 
 23 C        7.0820    -3.8240     0.6770 C.3   1 <1>   0.0400 
 24 O        7.9310    -1.6850    -1.4410 O.3   1 <1>  -0.3630 
 25 C        3.5180     6.7490     0.7610 C.3   1 <1>   0.0160 
 26 C        8.9350    -1.0900    -0.6470 C.3   1 <1>   0.0400 
 27 H        1.8790    -0.6710    -2.2120 H     1 <1>   0.0800 
 28 H        0.6600     1.4500    -2.1540 H     1 <1>   0.0800 
 29 H       -0.7010     1.5230    -1.0590 H     1 <1>   0.0800 
 30 H        2.3530    -0.6630     0.7760 H     1 <1>   0.0800 
 31 H        2.2440    -2.8860    -1.3270 H     1 <1>   0.0800 
 32 H        0.5090    -2.6980    -1.5100 H     1 <1>   0.0800 
 33 H        0.7450     1.5900     0.8810 H     1 <1>   0.0800 
 34 H        1.2360     2.8660    -0.2010 H     1 <1>   0.0800 
 35 H        3.0630     1.5870    -0.9440 H     1 <1>   0.4500 
 36 H        0.8680    -3.5270     0.5060 H     1 <1>   0.4000 
 37 H        2.8420     1.6370     1.9540 H     1 <1>   0.0800 
 38 H        4.3080     1.1420     1.1310 H     1 <1>   0.0800 
 39 H        4.3290    -1.7160     1.3070 H     1 <1>   0.1500 
 40 H        4.0500     0.2110    -2.5220 H     1 <1>   0.1500 
 41 H        6.3570    -0.4380    -2.9880 H     1 <1>   0.1500 
 42 H        2.2450     4.4220     1.7530 H     1 <1>   0.1500 
 43 H        6.0080     1.8070    -0.1890 H     1 <1>   0.0800 
 44 H        6.8230     3.2720    -0.6570 H     1 <1>   0.0800 
 45 H        5.6270     2.5820    -1.7180 H     1 <1>   0.0800 
 46 H        7.4740    -4.3100     1.5530 H     1 <1>   0.0800 
 47 H        7.8390    -3.7830    -0.0850 H     1 <1>   0.0800 
 48 H        6.2190    -4.3550     0.3180 H     1 <1>   0.0800 
 49 H        2.6450     6.8880     1.3690 H     1 <1>   0.0800 
 50 H        3.3610     7.1800    -0.2100 H     1 <1>   0.0800 
 51 H        4.3650     7.2190     1.2260 H     1 <1>   0.0800 
 52 H        9.8900    -1.3290    -1.0790 H     1 <1>   0.0800 
 53 H        8.8810    -1.4790     0.3530 H     1 <1>   0.0800 
 54 H        8.7900    -0.0240    -0.6440 H     1 <1>   0.0800 
@<TRIPOS>BOND
  1   1   2  1   
  2   1   3  1   
  3   2   4  1   
  4   2   5  1   
  5   2  27  1   
  6   3   6  1   
  7   3  28  1   
  8   3  29  1   
  9   4   7  1   
 10   4   8  1   
 11   4  30  1   
 12   5   9  1   
 13   5  31  1   
 14   5  32  1   
 15   6   7  1   
 16   6  33  1   
 17   6  34  1   
 18   7  10  1   
 19   7  35  1   
 20   8  11  ar  
 21   8  12  ar  
 22   9  36  1   
 23  10  13  1   
 24  10  37  1   
 25  10  38  1   
 26  11  14  ar  
 27  11  39  1   
 28  12  15  ar  
 29  12  40  1   
 30  13  16  1   
 31  13  17  2   
 32  14  18  1   
 33  14  19  ar  
 34  15  19  ar  
 35  15  41  1   
 36  16  20  2   
 37  16  21  1   
 38  17  22  1   
 39  17  42  1   
 40  18  23  1   
 41  19  24  1   
 42  20  22  1   
 43  21  43  1   
 44  21  44  1   
 45  21  45  1   
 46  22  25  1   
 47  23  46  1   
 48  23  47  1   
 49  23  48  1   
 50  24  26  1   
 51  25  49  1   
 52  25  50  1   
 53  25  51  1   
 54  26  52  1   
 55  26  53  1   
 56  26  54  1   
@<TRIPOS>SUBSTRUCTURE
  1 ****   8 GROUP 4 **** **** 0

# MOE 2024.06 (io_trps.svl 2023.06)
