@<TRIPOS>MOLECULE
NONAME
59 62 1 0 0 
SMALL
USER_CHARGES


@<TRIPOS>ATOM
  1 O       -2.1660     0.1970     1.6050 O.2   1 <1>  -0.5700 
  2 C       -2.3870     0.6080     0.4800 C.2   1 <1>   0.6160 
  3 N       -3.0910    -0.2140    -0.3690 N.am  1 <1>  -0.6600 
  4 C       -1.9780     1.9470     0.1360 C.2   1 <1>   0.0290 
  5 C       -2.9520    -1.7080    -0.2580 C.3   1 <1>   0.3640 
  6 C       -4.2620     0.3080    -1.1280 C.3   1 <1>   0.1400 
  7 C       -1.5660     2.2720    -1.2000 C.2   1 <1>   0.6160 
  8 C       -1.9510     2.9490     1.0780 C.2   1 <1>  -0.1500 
  9 C       -1.4600    -2.0690    -0.2670 C.ar  1 <1>  -0.1440 
 10 C       -3.6600    -2.5100    -1.3980 C.3   1 <1>   0.2000 
 11 C       -4.5530    -0.5590    -2.3500 C.3   1 <1>   0.1200 
 12 O       -1.5420     1.4980    -2.1470 O.2   1 <1>  -0.5700 
 13 N       -1.1790     3.5560    -1.4700 N.am  1 <1>  -0.5390 
 14 C       -1.5490     4.2630     0.7500 C.2   1 <1>  -0.1380 
 15 C       -0.9190    -2.8220     0.7670 C.ar  1 <1>  -0.1500 
 16 C       -0.6310    -1.6590    -1.3040 C.ar  1 <1>  -0.1500 
 17 O       -4.7900    -1.8620    -1.9240 O.3   1 <1>  -0.5600 
 18 C       -4.1420    -3.9020    -0.9550 C.3   1 <1>   0.1200 
 19 C       -1.1600     4.5470    -0.5270 C.2   1 <1>  -0.0290 
 20 C       -1.5560     5.3170     1.8500 C.3   1 <1>  -0.0220 
 21 C        0.4190    -3.1790     0.7610 C.ar  1 <1>   0.0830 
 22 C        0.7110    -1.9950    -1.3100 C.ar  1 <1>  -0.1500 
 23 O       -3.1290    -4.6540    -0.3700 O.3   1 <1>  -0.6800 
 24 C       -0.7040     5.9270    -0.9770 C.3   1 <1>  -0.0220 
 25 C       -1.4860     6.7430     1.2850 C.3   1 <1>  -0.1600 
 26 O        0.8670    -3.9540     1.7790 O.3   1 <1>  -0.3620 
 27 C        1.2480    -2.7440    -0.2770 C.ar  1 <1>   0.0830 
 28 C       -0.3970     6.8500     0.2110 C.3   1 <1>  -0.1600 
 29 C        1.2140    -5.2770     1.4410 C.3   1 <1>   0.0400 
 30 O        2.5750    -3.0180    -0.3230 O.3   1 <1>  -0.3630 
 31 C        3.3640    -2.4240     0.6840 C.3   1 <1>   0.0400 
 32 H       -3.3810    -2.0070     0.6830 H     1 <1>   0.0800 
 33 H       -5.1260     0.3100    -0.4860 H     1 <1>   0.0800 
 34 H       -4.0840     1.3180    -1.4490 H     1 <1>   0.0800 
 35 H       -2.2370     2.7390     2.0950 H     1 <1>   0.1500 
 36 H       -2.9760    -2.6360    -2.2180 H     1 <1>   0.0800 
 37 H       -3.7260    -0.5470    -3.0400 H     1 <1>   0.0800 
 38 H       -5.4370    -0.2090    -2.8520 H     1 <1>   0.0800 
 39 H       -0.8870     3.7170    -2.4340 H     1 <1>   0.3700 
 40 H       -1.5370    -3.1460     1.5860 H     1 <1>   0.1500 
 41 H       -1.0280    -1.0630    -2.1090 H     1 <1>   0.1500 
 42 H       -4.5100    -4.4490    -1.8060 H     1 <1>   0.0800 
 43 H       -4.9310    -3.8050    -0.2290 H     1 <1>   0.0800 
 44 H       -2.4470     5.2190     2.4450 H     1 <1>   0.0800 
 45 H       -0.7080     5.1450     2.4900 H     1 <1>   0.0800 
 46 H        1.3490    -1.6690    -2.1110 H     1 <1>   0.1500 
 47 H       -2.3150    -4.6390    -0.9150 H     1 <1>   0.4000 
 48 H        0.1770     5.8400    -1.5880 H     1 <1>   0.0800 
 49 H       -1.4850     6.3640    -1.5750 H     1 <1>   0.0800 
 50 H       -2.4380     7.0010     0.8530 H     1 <1>   0.0800 
 51 H       -1.2850     7.4350     2.0840 H     1 <1>   0.0800 
 52 H        0.5500     6.5710     0.6400 H     1 <1>   0.0800 
 53 H       -0.3180     7.8670    -0.1340 H     1 <1>   0.0800 
 54 H        1.4910    -5.7920     2.3430 H     1 <1>   0.0800 
 55 H        2.0410    -5.2640     0.7550 H     1 <1>   0.0800 
 56 H        0.3610    -5.7540     0.9920 H     1 <1>   0.0800 
 57 H        4.3970    -2.6160     0.4600 H     1 <1>   0.0800 
 58 H        3.1080    -2.8530     1.6360 H     1 <1>   0.0800 
 59 H        3.1770    -1.3640     0.6910 H     1 <1>   0.0800 
@<TRIPOS>BOND
  1   1   2  2   
  2   2   3  am  
  3   2   4  1   
  4   3   5  1   
  5   3   6  1   
  6   4   7  1   
  7   4   8  2   
  8   5   9  1   
  9   5  10  1   
 10   5  32  1   
 11   6  11  1   
 12   6  33  1   
 13   6  34  1   
 14   7  12  2   
 15   7  13  am  
 16   8  14  1   
 17   8  35  1   
 18   9  15  ar  
 19   9  16  ar  
 20  10  17  1   
 21  10  18  1   
 22  10  36  1   
 23  11  17  1   
 24  11  37  1   
 25  11  38  1   
 26  13  19  1   
 27  13  39  1   
 28  14  19  2   
 29  14  20  1   
 30  15  21  ar  
 31  15  40  1   
 32  16  22  ar  
 33  16  41  1   
 34  18  23  1   
 35  18  42  1   
 36  18  43  1   
 37  19  24  1   
 38  20  25  1   
 39  20  44  1   
 40  20  45  1   
 41  21  26  1   
 42  21  27  ar  
 43  22  27  ar  
 44  22  46  1   
 45  23  47  1   
 46  24  28  1   
 47  24  48  1   
 48  24  49  1   
 49  25  28  1   
 50  25  50  1   
 51  25  51  1   
 52  26  29  1   
 53  27  30  1   
 54  28  52  1   
 55  28  53  1   
 56  29  54  1   
 57  29  55  1   
 58  29  56  1   
 59  30  31  1   
 60  31  57  1   
 61  31  58  1   
 62  31  59  1   
@<TRIPOS>SUBSTRUCTURE
  1 ****   2 GROUP 4 **** **** 0

# MOE 2024.06 (io_trps.svl 2023.06)
