@<TRIPOS>MOLECULE
NONAME
47 49 1 0 0 
SMALL
USER_CHARGES


@<TRIPOS>ATOM
  1 O       -0.0310    -0.5570    -0.8530 O.2   1 <1>  -0.5700 
  2 C       -0.1530    -1.6650    -0.3670 C.2   1 <1>   0.5440 
  3 N       -1.4140    -2.0810    -0.0600 N.am  1 <1>  -0.7300 
  4 C        1.0050    -2.5090    -0.1120 C.ar  1 <1>   0.0860 
  5 C       -2.6510    -1.2710    -0.2510 C.3   1 <1>   0.2010 
  6 C        2.2890    -1.9630    -0.0550 C.ar  1 <1>  -0.1500 
  7 C        0.8930    -3.8880     0.0830 C.ar  1 <1>  -0.1500 
  8 C       -3.8800    -1.8700     0.4480 C.2   1 <1>   0.5690 
  9 C        3.4020    -2.7460     0.1910 C.ar  1 <1>  -0.1500 
 10 C        2.0010    -4.6780     0.3320 C.ar  1 <1>  -0.1500 
 11 O       -3.7850    -2.9910     0.9030 O.2   1 <1>  -0.5700 
 12 N       -5.0430    -1.1470     0.5440 N.am  1 <1>  -0.6600 
 13 C        3.2600    -4.1070     0.3870 C.ar  1 <1>  -0.1500 
 14 C       -6.2430    -1.7020     1.2370 C.3   1 <1>   0.1400 
 15 C       -5.2430     0.2000    -0.0770 C.3   1 <1>   0.1400 
 16 C       -7.3990    -1.9190     0.2340 C.3   1 <1>   0.0000 
 17 C       -6.7290     0.4860    -0.3590 C.3   1 <1>  -0.1600 
 18 C       -8.7230    -2.0940     1.0030 C.3   1 <1>   0.2000 
 19 C       -7.4530    -0.7830    -0.8370 C.3   1 <1>  -0.1600 
 20 C       -7.2970    -3.2800    -0.4750 C.3   1 <1>  -0.1600 
 21 O       -9.3020    -0.8860     1.3480 O.3   1 <1>  -0.6800 
 22 C       -9.6500    -2.8970     0.0880 C.3   1 <1>  -0.1600 
 23 C       -8.7280    -3.6150    -0.9090 C.3   1 <1>  -0.1600 
 24 H       -1.5840    -2.9560     0.4480 H     1 <1>   0.3700 
 25 H       -2.4770    -0.2820     0.1320 H     1 <1>   0.0800 
 26 H       -2.8530    -1.1980    -1.3040 H     1 <1>   0.0800 
 27 H        2.4100    -0.9040    -0.2080 H     1 <1>   0.1500 
 28 H       -0.0740    -4.3570     0.0350 H     1 <1>   0.1500 
 29 H        4.3790    -2.2960     0.2300 H     1 <1>   0.1500 
 30 H        1.8860    -5.7380     0.4800 H     1 <1>   0.1500 
 31 H        4.1240    -4.7190     0.5800 H     1 <1>   0.1500 
 32 H       -6.0070    -2.6230     1.7430 H     1 <1>   0.0800 
 33 H       -6.5520    -0.9980     1.9910 H     1 <1>   0.0800 
 34 H       -4.8450     0.9590     0.5750 H     1 <1>   0.0800 
 35 H       -4.7090     0.2400    -1.0100 H     1 <1>   0.0800 
 36 H       -7.1960     0.8580     0.5370 H     1 <1>   0.0800 
 37 H       -6.8040     1.2580    -1.1040 H     1 <1>   0.0800 
 38 H       -8.5530    -2.6490     1.9100 H     1 <1>   0.0800 
 39 H       -6.9550    -1.1080    -1.7340 H     1 <1>   0.0800 
 40 H       -8.4650    -0.5530    -1.1180 H     1 <1>   0.0800 
 41 H       -6.6060    -3.2770    -1.3000 H     1 <1>   0.0800 
 42 H       -6.9680    -4.0290     0.2260 H     1 <1>   0.0800 
 43 H       -9.4450    -0.3550     0.5430 H     1 <1>   0.4000 
 44 H      -10.2080    -3.6100     0.6700 H     1 <1>   0.0800 
 45 H      -10.3320    -2.2560    -0.4420 H     1 <1>   0.0800 
 46 H       -8.8950    -4.6790    -0.9110 H     1 <1>   0.0800 
 47 H       -8.9050    -3.2340    -1.9010 H     1 <1>   0.0800 
@<TRIPOS>BOND
  1   1   2  2   
  2   2   3  am  
  3   2   4  1   
  4   3   5  1   
  5   3  24  1   
  6   4   6  ar  
  7   4   7  ar  
  8   5   8  1   
  9   5  25  1   
 10   5  26  1   
 11   6   9  ar  
 12   6  27  1   
 13   7  10  ar  
 14   7  28  1   
 15   8  11  2   
 16   8  12  am  
 17   9  13  ar  
 18   9  29  1   
 19  10  13  ar  
 20  10  30  1   
 21  12  14  1   
 22  12  15  1   
 23  13  31  1   
 24  14  16  1   
 25  14  32  1   
 26  14  33  1   
 27  15  17  1   
 28  15  34  1   
 29  15  35  1   
 30  16  18  1   
 31  16  19  1   
 32  16  20  1   
 33  17  19  1   
 34  17  36  1   
 35  17  37  1   
 36  18  21  1   
 37  18  22  1   
 38  18  38  1   
 39  19  39  1   
 40  19  40  1   
 41  20  23  1   
 42  20  41  1   
 43  20  42  1   
 44  21  43  1   
 45  22  23  1   
 46  22  44  1   
 47  22  45  1   
 48  23  46  1   
 49  23  47  1   
@<TRIPOS>SUBSTRUCTURE
  1 ****   8 GROUP 4 **** **** 0

# MOE 2024.06 (io_trps.svl 2023.06)
