@<TRIPOS>MOLECULE
NONAME
43 45 1 0 0 
SMALL
USER_CHARGES


@<TRIPOS>ATOM
  1 CL      -1.2900     0.2930     2.3270 Cl    1 <1>  -0.1770 
  2 C       -2.3730    -0.5030     1.2170 C.ar  1 <1>   0.1770 
  3 C       -3.5420     0.1270     0.8370 C.ar  1 <1>  -0.1500 
  4 C       -2.0490    -1.7540     0.7300 C.ar  1 <1>  -0.1500 
  5 C       -4.3990    -0.5120    -0.0430 C.ar  1 <1>  -0.1500 
  6 C       -2.9170    -2.3810    -0.1500 C.ar  1 <1>  -0.1500 
  7 C       -4.1050    -1.7770    -0.5500 C.ar  1 <1>  -0.0090 
  8 S       -5.2490    -2.6300    -1.6770 S.o2  1 <1>   1.4470 
  9 O       -4.4600    -3.4170    -2.6000 O.2   1 <1>  -0.6500 
 10 O       -6.2110    -1.6740    -2.1870 O.2   1 <1>  -0.6500 
 11 N       -6.0830    -3.6830    -0.6450 N.am  1 <1>  -0.8490 
 12 C       -6.7590    -4.7640    -1.3970 C.3   1 <1>   0.1960 
 13 C       -7.0330    -2.9820     0.2180 C.3   1 <1>   0.1960 
 14 C       -7.4070    -5.8360    -0.4890 C.3   1 <1>  -0.1060 
 15 C       -7.6010    -3.9350     1.2630 C.3   1 <1>  -0.1600 
 16 C       -8.3840    -6.6500    -1.3370 C.2   1 <1>   0.9060 
 17 C       -8.2720    -5.1180     0.5720 C.3   1 <1>   0.2000 
 18 C       -6.3570    -6.8630     0.0410 C.3   1 <1>  -0.0650 
 19 O       -8.3460    -6.5800    -2.5690 O.co2 1 <1>  -0.9000 
 20 O       -9.2060    -7.3750    -0.7550 O.co2 1 <1>  -0.9000 
 21 O       -8.7060    -6.0130     1.5270 O.3   1 <1>  -0.6800 
 22 C       -5.2890    -6.3910     1.0380 C.3   1 <1>  -0.1950 
 23 C       -4.0120    -5.7500     0.6010 C.3   1 <1>  -0.2000 
 24 C       -4.0030    -7.1490     1.1440 C.3   1 <1>  -0.2000 
 25 H       -3.7730     1.1030     1.2260 H     1 <1>   0.1500 
 26 H       -1.1330    -2.2280     1.0360 H     1 <1>   0.1500 
 27 H       -5.3110    -0.0220    -0.3440 H     1 <1>   0.1500 
 28 H       -2.6700    -3.3570    -0.5360 H     1 <1>   0.1500 
 29 H       -7.5170    -4.3210    -2.0240 H     1 <1>   0.0800 
 30 H       -6.0580    -5.2530    -2.0510 H     1 <1>   0.0800 
 31 H       -6.5380    -2.1730     0.7260 H     1 <1>   0.0800 
 32 H       -7.8330    -2.5700    -0.3770 H     1 <1>   0.0800 
 33 H       -8.3310    -3.4160     1.8550 H     1 <1>   0.0800 
 34 H       -6.8120    -4.2560     1.9120 H     1 <1>   0.0800 
 35 H       -9.1570    -4.7480     0.0790 H     1 <1>   0.0800 
 36 H       -6.8870    -7.6730     0.5130 H     1 <1>   0.0800 
 37 H       -5.8620    -7.2910    -0.8130 H     1 <1>   0.0800 
 38 H       -9.0780    -6.7780     1.0060 H     1 <1>   0.4000 
 39 H       -5.7170    -6.1130     1.9840 H     1 <1>   0.1000 
 40 H       -3.8600    -5.5940    -0.4530 H     1 <1>   0.1000 
 41 H       -3.6330    -4.9420     1.2010 H     1 <1>   0.1000 
 42 H       -3.5900    -7.3250     2.1210 H     1 <1>   0.1000 
 43 H       -3.8180    -7.9630     0.4640 H     1 <1>   0.1000 
@<TRIPOS>BOND
  1   1   2  1   
  2   2   3  ar  
  3   2   4  ar  
  4   3   5  ar  
  5   3  25  1   
  6   4   6  ar  
  7   4  26  1   
  8   5   7  ar  
  9   5  27  1   
 10   6   7  ar  
 11   6  28  1   
 12   7   8  1   
 13   8   9  2   
 14   8  10  2   
 15   8  11  am  
 16  11  12  1   
 17  11  13  1   
 18  12  14  1   
 19  12  29  1   
 20  12  30  1   
 21  13  15  1   
 22  13  31  1   
 23  13  32  1   
 24  14  16  1   
 25  14  17  1   
 26  14  18  1   
 27  15  17  1   
 28  15  33  1   
 29  15  34  1   
 30  16  19  ar  
 31  16  20  ar  
 32  17  21  1   
 33  17  35  1   
 34  18  22  1   
 35  18  36  1   
 36  18  37  1   
 37  21  38  1   
 38  22  23  1   
 39  22  24  1   
 40  22  39  1   
 41  23  24  1   
 42  23  40  1   
 43  23  41  1   
 44  24  42  1   
 45  24  43  1   
@<TRIPOS>SUBSTRUCTURE
  1 ****  11 GROUP 4 **** **** 0

# MOE 2024.06 (io_trps.svl 2023.06)
