@<TRIPOS>MOLECULE
NONAME
37 39 1 0 0 
SMALL
USER_CHARGES


@<TRIPOS>ATOM
  1 S        0.7990    -0.4830    -1.4350 S.3   1 <1>  -0.0800 
  2 C        1.2160    -1.1880     0.1050 C.2   1 <1>  -0.1400 
  3 C        1.2080     1.0940    -0.7940 C.2   1 <1>   0.2280 
  4 C        1.6180    -0.2070     0.9280 C.2   1 <1>   0.0770 
  5 C        1.0990    -2.6860     0.2740 C.3   1 <1>   0.5230 
  6 N        1.6030     1.0770     0.4160 N.2   1 <1>  -0.5650 
  7 N       -0.2970    -3.0440     0.6410 N.4   1 <1>  -0.9590 
  8 C       -1.3440    -2.7350    -0.3720 C.3   1 <1>   0.3430 
  9 C       -0.4930    -4.4730     1.0170 C.3   1 <1>   0.3430 
 10 C       -2.5470    -3.5500     0.0990 C.3   1 <1>   0.2000 
 11 C       -1.9150    -4.8600     0.5710 C.3   1 <1>  -0.0800 
 12 O       -3.0780    -2.9100     1.2120 O.3   1 <1>  -0.6800 
 13 C       -1.9020    -5.9260    -0.5450 C.3   1 <1>   0.0200 
 14 C       -0.9800    -7.0790    -0.1950 C.2   1 <1>  -0.0400 
 15 O       -0.9790    -7.5640     1.0170 O.3   1 <1>  -0.0190 
 16 C       -0.0700    -7.7560    -0.9110 C.2   1 <1>  -0.1500 
 17 N       -0.1050    -8.5130     1.1570 N.2   1 <1>  -0.4100 
 18 C        0.4510    -8.6620     0.0080 C.2   1 <1>   0.1080 
 19 C        1.5240    -9.6870    -0.2900 C.3   1 <1>  -0.0590 
 20 H        1.0980     1.9410    -1.4500 H     1 <1>   0.1500 
 21 H        1.9510    -0.3220     1.9480 H     1 <1>   0.1500 
 22 H        1.7660    -2.9990     1.0610 H     1 <1>   0.0800 
 23 H        1.3910    -3.1820    -0.6370 H     1 <1>   0.0800 
 24 H       -0.5740    -2.4820     1.4620 H     1 <1>   0.4500 
 25 H       -1.5760    -1.6820    -0.4070 H     1 <1>   0.0800 
 26 H       -1.0300    -3.0710    -1.3460 H     1 <1>   0.0800 
 27 H        0.2350    -5.0990     0.5270 H     1 <1>   0.0800 
 28 H       -0.3900    -4.5980     2.0840 H     1 <1>   0.0800 
 29 H       -3.3150    -3.6570    -0.6500 H     1 <1>   0.0800 
 30 H       -2.4540    -5.2700     1.4090 H     1 <1>   0.0800 
 31 H       -3.9380    -3.3020     1.4770 H     1 <1>   0.4000 
 32 H       -1.5810    -5.5040    -1.4810 H     1 <1>   0.0800 
 33 H       -2.8980    -6.3120    -0.6800 H     1 <1>   0.0800 
 34 H        0.2210    -7.6620    -1.9420 H     1 <1>   0.1500 
 35 H        2.4010    -9.2030    -0.6760 H     1 <1>   0.0800 
 36 H        1.1610   -10.3940    -1.0140 H     1 <1>   0.0800 
 37 H        1.7860   -10.2170     0.6080 H     1 <1>   0.0800 
@<TRIPOS>BOND
  1   1   2  1   
  2   1   3  1   
  3   2   4  2   
  4   2   5  1   
  5   3   6  2   
  6   3  20  1   
  7   4   6  1   
  8   4  21  1   
  9   5   7  1   
 10   5  22  1   
 11   5  23  1   
 12   7   8  1   
 13   7   9  1   
 14   7  24  1   
 15   8  10  1   
 16   8  25  1   
 17   8  26  1   
 18   9  11  1   
 19   9  27  1   
 20   9  28  1   
 21  10  11  1   
 22  10  12  1   
 23  10  29  1   
 24  11  13  1   
 25  11  30  1   
 26  12  31  1   
 27  13  14  1   
 28  13  32  1   
 29  13  33  1   
 30  14  15  1   
 31  14  16  2   
 32  15  17  1   
 33  16  18  1   
 34  16  34  1   
 35  17  18  2   
 36  18  19  1   
 37  19  35  1   
 38  19  36  1   
 39  19  37  1   
@<TRIPOS>SUBSTRUCTURE
  1 ****   9 GROUP 4 **** **** 0

# MOE 2024.06 (io_trps.svl 2023.06)
