@<TRIPOS>MOLECULE
NONAME
63 65 1 0 0 
SMALL
USER_CHARGES


@<TRIPOS>ATOM
  1 O       -1.3640    -0.3090    -1.3720 O.3   1 <1>  -0.5600 
  2 C       -2.0950    -0.9810    -0.4050 C.3   1 <1>   0.1200 
  3 C       -0.7850     0.8830    -0.9380 C.3   1 <1>   0.0400 
  4 C       -2.6280    -2.2630    -1.0550 C.3   1 <1>   0.3430 
  5 N       -3.4150    -3.1230    -0.1090 N.4   1 <1>  -0.9590 
  6 C       -3.6450    -4.4610    -0.7260 C.3   1 <1>   0.3430 
  7 C       -4.7010    -2.4810     0.2940 C.3   1 <1>   0.3430 
  8 C       -4.3480    -5.3800     0.2730 C.3   1 <1>  -0.1600 
  9 C       -5.4280    -3.3630     1.3130 C.3   1 <1>  -0.1600 
 10 C       -5.6770    -4.7830     0.7740 C.3   1 <1>  -0.0800 
 11 C       -6.3560    -5.6600     1.8470 C.3   1 <1>   0.2090 
 12 N       -6.6180    -7.0360     1.3270 N.pl3 1 <1>  -0.8380 
 13 C       -7.7240    -7.4160     0.6150 C.ar  1 <1>   0.4100 
 14 C       -5.6570    -8.0680     1.8430 C.3   1 <1>   0.1290 
 15 N       -7.8070    -8.6850     0.2600 N.ar  1 <1>  -0.6200 
 16 C       -8.7460    -6.5060     0.2680 C.ar  1 <1>  -0.1500 
 17 C       -8.8730    -9.0950    -0.4090 C.ar  1 <1>   0.7710 
 18 C       -9.8300    -6.9450    -0.4170 C.ar  1 <1>   0.2180 
 19 N       -9.8660    -8.2570    -0.7410 N.ar  1 <1>  -0.1790 
 20 N       -8.9690   -10.3980    -0.7700 N.pl3 1 <1>  -0.8380 
 21 C      -10.9910    -6.0480    -0.8310 C.3   1 <1>  -0.0170 
 22 C      -10.0290   -11.0650    -1.5740 C.3   1 <1>   0.2090 
 23 C       -7.9200   -11.3870    -0.3930 C.3   1 <1>   0.2090 
 24 C      -12.3050    -6.4540    -0.1500 C.3   1 <1>  -0.2400 
 25 C       -9.4570   -12.4310    -1.9260 C.3   1 <1>  -0.1600 
 26 C       -8.4850   -12.7420    -0.7950 C.3   1 <1>  -0.1600 
 27 H       -2.8970    -0.3390    -0.0850 H     1 <1>   0.0800 
 28 H       -1.4380    -1.2110     0.4170 H     1 <1>   0.0800 
 29 H       -0.2470     1.3150    -1.7640 H     1 <1>   0.0800 
 30 H       -0.1010     0.6780    -0.1320 H     1 <1>   0.0800 
 31 H       -1.5570     1.5620    -0.6180 H     1 <1>   0.0800 
 32 H       -1.7820    -2.8200    -1.4230 H     1 <1>   0.0800 
 33 H       -3.2430    -1.9940    -1.8980 H     1 <1>   0.0800 
 34 H       -2.8490    -3.2730     0.7370 H     1 <1>   0.4500 
 35 H       -2.7050    -4.9020    -1.0170 H     1 <1>   0.0800 
 36 H       -4.2560    -4.3570    -1.6090 H     1 <1>   0.0800 
 37 H       -5.3260    -2.3430    -0.5740 H     1 <1>   0.0800 
 38 H       -4.5130    -1.5140     0.7320 H     1 <1>   0.0800 
 39 H       -3.6890    -5.5770     1.1000 H     1 <1>   0.0800 
 40 H       -4.5390    -6.3200    -0.2170 H     1 <1>   0.0800 
 41 H       -6.3690    -2.9010     1.5550 H     1 <1>   0.0800 
 42 H       -4.8480    -3.4040     2.2190 H     1 <1>   0.0800 
 43 H       -6.3510    -4.7090    -0.0620 H     1 <1>   0.0800 
 44 H       -7.2790    -5.2100     2.1690 H     1 <1>   0.0800 
 45 H       -5.7260    -5.7190     2.7200 H     1 <1>   0.0800 
 46 H       -4.7460    -7.6140     2.1900 H     1 <1>   0.0800 
 47 H       -5.4050    -8.7680     1.0640 H     1 <1>   0.0800 
 48 H       -6.1100    -8.6070     2.6580 H     1 <1>   0.0800 
 49 H       -8.6600    -5.4780     0.5530 H     1 <1>   0.1500 
 50 H      -10.6450    -8.6740    -1.2330 H     1 <1>   0.4570 
 51 H      -11.1110    -6.0800    -1.9000 H     1 <1>   0.0800 
 52 H      -10.7680    -5.0280    -0.5650 H     1 <1>   0.0800 
 53 H      -10.2620   -10.5130    -2.4690 H     1 <1>   0.0800 
 54 H      -10.9130   -11.1900    -0.9700 H     1 <1>   0.0800 
 55 H       -7.7070   -11.3510     0.6630 H     1 <1>   0.0800 
 56 H       -7.0190   -11.1790    -0.9460 H     1 <1>   0.0800 
 57 H      -12.6150    -7.4410    -0.4430 H     1 <1>   0.0800 
 58 H      -13.0850    -5.7640    -0.4250 H     1 <1>   0.0800 
 59 H      -12.1990    -6.4260     0.9220 H     1 <1>   0.0800 
 60 H       -8.9210   -12.3610    -2.8570 H     1 <1>   0.0800 
 61 H      -10.2250   -13.1780    -2.0220 H     1 <1>   0.0800 
 62 H       -9.0140   -13.1640     0.0420 H     1 <1>   0.0800 
 63 H       -7.7090   -13.4240    -1.0960 H     1 <1>   0.0800 
@<TRIPOS>BOND
  1   1   2  1   
  2   1   3  1   
  3   2   4  1   
  4   2  27  1   
  5   2  28  1   
  6   3  29  1   
  7   3  30  1   
  8   3  31  1   
  9   4   5  1   
 10   4  32  1   
 11   4  33  1   
 12   5   6  1   
 13   5   7  1   
 14   5  34  1   
 15   6   8  1   
 16   6  35  1   
 17   6  36  1   
 18   7   9  1   
 19   7  37  1   
 20   7  38  1   
 21   8  10  1   
 22   8  39  1   
 23   8  40  1   
 24   9  10  1   
 25   9  41  1   
 26   9  42  1   
 27  10  11  1   
 28  10  43  1   
 29  11  12  1   
 30  11  44  1   
 31  11  45  1   
 32  12  13  1   
 33  12  14  1   
 34  13  15  ar  
 35  13  16  ar  
 36  14  46  1   
 37  14  47  1   
 38  14  48  1   
 39  15  17  ar  
 40  16  18  ar  
 41  16  49  1   
 42  17  19  ar  
 43  17  20  1   
 44  18  19  ar  
 45  18  21  1   
 46  19  50  1   
 47  20  22  1   
 48  20  23  1   
 49  21  24  1   
 50  21  51  1   
 51  21  52  1   
 52  22  25  1   
 53  22  53  1   
 54  22  54  1   
 55  23  26  1   
 56  23  55  1   
 57  23  56  1   
 58  24  57  1   
 59  24  58  1   
 60  24  59  1   
 61  25  26  1   
 62  25  60  1   
 63  25  61  1   
 64  26  62  1   
 65  26  63  1   
@<TRIPOS>SUBSTRUCTURE
  1 ****  12 GROUP 4 **** **** 0

# MOE 2024.06 (io_trps.svl 2023.06)
