@<TRIPOS>MOLECULE
NONAME
48 51 1 0 0 
SMALL
USER_CHARGES


@<TRIPOS>ATOM
  1 O        0.4670    -0.4530     0.2560 O.3   1 <1>  -0.3630 
  2 C        0.4480    -1.7880     0.2840 C.ar  1 <1>   0.0820 
  3 C       -0.4200    -0.0070     1.2820 C.3   1 <1>   0.4000 
  4 C       -0.4030    -2.2240     1.2550 C.ar  1 <1>   0.0820 
  5 C        1.1500    -2.6680    -0.5130 C.ar  1 <1>  -0.1500 
  6 O       -0.9600    -1.1840     1.8840 O.3   1 <1>  -0.3630 
  7 C       -0.6050    -3.5680     1.4900 C.ar  1 <1>  -0.1500 
  8 C        0.9630    -4.0350    -0.2980 C.ar  1 <1>   0.0820 
  9 C        0.0880    -4.4810     0.7000 C.ar  1 <1>  -0.1440 
 10 O        1.6010    -4.9860    -1.0380 O.3   1 <1>  -0.3630 
 11 C       -0.1120    -5.9660     0.9280 C.3   1 <1>   0.4870 
 12 C        2.6740    -4.6330    -1.8910 C.3   1 <1>   0.0400 
 13 N       -0.6660    -6.5620    -0.3130 N.4   1 <1>  -0.9590 
 14 C       -2.0120    -6.0150    -0.6790 C.3   1 <1>   0.3430 
 15 C       -0.7680    -8.0460    -0.2470 C.3   1 <1>   0.3430 
 16 C       -2.9400    -7.2250    -0.8280 C.3   1 <1>   0.2000 
 17 C       -2.2530    -8.3590    -0.0770 C.3   1 <1>  -0.0800 
 18 O       -4.1940    -6.9830    -0.2900 O.3   1 <1>  -0.6800 
 19 C       -2.6500    -9.7530    -0.5970 C.3   1 <1>  -0.0170 
 20 C       -1.9700   -10.8660     0.1860 C.ar  1 <1>   0.1670 
 21 N       -0.6490   -10.9290     0.0920 N.ar  1 <1>  -0.6200 
 22 C       -2.7370   -11.7430     0.9400 C.ar  1 <1>  -0.1500 
 23 C       -0.0740   -11.9160     0.7650 C.ar  1 <1>   0.1600 
 24 C       -2.1220   -12.7580     1.6420 C.ar  1 <1>  -0.1500 
 25 C       -0.7510   -12.8380     1.5430 C.ar  1 <1>  -0.1500 
 26 H        0.1300     0.5550     2.0160 H     1 <1>   0.0800 
 27 H       -1.2130     0.5750     0.8460 H     1 <1>   0.0800 
 28 H        1.8060    -2.2710    -1.2640 H     1 <1>   0.1500 
 29 H       -1.2820    -3.8660     2.2720 H     1 <1>   0.1500 
 30 H       -0.7820    -6.1310     1.7560 H     1 <1>   0.0800 
 31 H        0.8400    -6.4160     1.1590 H     1 <1>   0.0800 
 32 H        3.0960    -5.5350    -2.2970 H     1 <1>   0.0800 
 33 H        3.4210    -4.1100    -1.3190 H     1 <1>   0.0800 
 34 H        2.3030    -4.0150    -2.6900 H     1 <1>   0.0800 
 35 H        0.0200    -6.2860    -1.0390 H     1 <1>   0.4500 
 36 H       -2.3780    -5.3670     0.1000 H     1 <1>   0.0800 
 37 H       -1.9590    -5.4650    -1.6050 H     1 <1>   0.0800 
 38 H       -0.4210    -8.4760    -1.1740 H     1 <1>   0.0800 
 39 H       -0.1850    -8.4620     0.5600 H     1 <1>   0.0800 
 40 H       -3.0630    -7.4560    -1.8730 H     1 <1>   0.0800 
 41 H       -2.4790    -8.2970     0.9730 H     1 <1>   0.0800 
 42 H       -4.1970    -6.9920     0.6880 H     1 <1>   0.4000 
 43 H       -2.3830    -9.8550    -1.6350 H     1 <1>   0.0800 
 44 H       -3.7190    -9.8650    -0.5300 H     1 <1>   0.0800 
 45 H       -3.8070   -11.6450     0.9800 H     1 <1>   0.1500 
 46 H        0.9980   -11.9970     0.6940 H     1 <1>   0.1500 
 47 H       -2.6870   -13.4570     2.2360 H     1 <1>   0.1500 
 48 H       -0.2100   -13.6110     2.0610 H     1 <1>   0.1500 
@<TRIPOS>BOND
  1   1   2  1   
  2   1   3  1   
  3   2   4  ar  
  4   2   5  ar  
  5   3   6  1   
  6   3  26  1   
  7   3  27  1   
  8   4   6  1   
  9   4   7  ar  
 10   5   8  ar  
 11   5  28  1   
 12   7   9  ar  
 13   7  29  1   
 14   8   9  ar  
 15   8  10  1   
 16   9  11  1   
 17  10  12  1   
 18  11  13  1   
 19  11  30  1   
 20  11  31  1   
 21  12  32  1   
 22  12  33  1   
 23  12  34  1   
 24  13  14  1   
 25  13  15  1   
 26  13  35  1   
 27  14  16  1   
 28  14  36  1   
 29  14  37  1   
 30  15  17  1   
 31  15  38  1   
 32  15  39  1   
 33  16  17  1   
 34  16  18  1   
 35  16  40  1   
 36  17  19  1   
 37  17  41  1   
 38  18  42  1   
 39  19  20  1   
 40  19  43  1   
 41  19  44  1   
 42  20  21  ar  
 43  20  22  ar  
 44  21  23  ar  
 45  22  24  ar  
 46  22  45  1   
 47  23  25  ar  
 48  23  46  1   
 49  24  25  ar  
 50  24  47  1   
 51  25  48  1   
@<TRIPOS>SUBSTRUCTURE
  1 ****  13 GROUP 4 **** **** 0

# MOE 2024.06 (io_trps.svl 2023.06)
