@<TRIPOS>MOLECULE
NONAME
42 42 1 0 0 
SMALL
USER_CHARGES


@<TRIPOS>ATOM
  1 O       -0.8280    -1.5170     0.7920 O.2   1 <1>  -0.5700 
  2 C        0.0980    -1.5380     0.0170 C.2   1 <1>   0.5690 
  3 N        0.0600    -2.2950    -1.1080 N.am  1 <1>  -0.7300 
  4 C        1.3520    -0.7170     0.3220 C.3   1 <1>  -0.0190 
  5 C       -1.1040    -3.1210    -1.5560 C.3   1 <1>   0.2010 
  6 C        1.6590     0.3050    -0.7860 C.3   1 <1>  -0.2400 
  7 C        2.5750    -1.6170     0.5680 C.3   1 <1>  -0.2400 
  8 C       -0.8260    -4.6280    -1.5470 C.2   1 <1>   0.5690 
  9 O       -0.5050    -5.1170    -2.6060 O.2   1 <1>  -0.5700 
 10 N       -0.9200    -5.3900    -0.4030 N.am  1 <1>  -0.6600 
 11 C       -0.5820    -6.8410    -0.4820 C.3   1 <1>   0.3200 
 12 C       -0.9890    -4.8140     0.9860 C.3   1 <1>   0.1400 
 13 C       -1.8180    -7.6600    -0.7890 C.2   1 <1>  -0.3320 
 14 C       -2.3910    -4.3410     1.4060 C.3   1 <1>   0.1200 
 15 N       -2.8310    -7.8800     0.0690 N.pl3 1 <1>   0.0330 
 16 C       -2.1400    -8.3200    -1.9230 C.2   1 <1>   0.0770 
 17 O       -3.3400    -5.2780     1.0350 O.3   1 <1>  -0.6800 
 18 C       -3.7060    -8.6580    -0.6000 C.2   1 <1>   0.0060 
 19 N       -3.3240    -8.9500    -1.7990 N.2   1 <1>  -0.5650 
 20 C       -5.0120    -9.1230     0.0060 C.3   1 <1>  -0.0600 
 21 H        0.8800    -2.3320    -1.7170 H     1 <1>   0.3700 
 22 H        1.1580    -0.1690     1.2290 H     1 <1>   0.0800 
 23 H       -1.3500    -2.8370    -2.5640 H     1 <1>   0.0800 
 24 H       -1.9660    -2.9070    -0.9550 H     1 <1>   0.0800 
 25 H        1.8960    -0.1890    -1.7110 H     1 <1>   0.0800 
 26 H        2.4920     0.9230    -0.5030 H     1 <1>   0.0800 
 27 H        0.8050     0.9390    -0.9450 H     1 <1>   0.0800 
 28 H        2.8290    -2.1720    -0.3170 H     1 <1>   0.0800 
 29 H        2.3650    -2.3120     1.3620 H     1 <1>   0.0800 
 30 H        3.4240    -1.0220     0.8550 H     1 <1>   0.0800 
 31 H       -0.1400    -7.1800     0.4380 H     1 <1>   0.0800 
 32 H        0.1470    -7.0040    -1.2590 H     1 <1>   0.0800 
 33 H       -0.3000    -3.9930     1.0690 H     1 <1>   0.0800 
 34 H       -0.6640    -5.5500     1.7000 H     1 <1>   0.0800 
 35 H       -2.6440    -3.4030     0.9470 H     1 <1>   0.0800 
 36 H       -2.4410    -4.2130     2.4730 H     1 <1>   0.0800 
 37 H       -2.9560    -7.4740     1.0040 H     1 <1>   0.2700 
 38 H       -1.5740    -8.3720    -2.8390 H     1 <1>   0.1500 
 39 H       -3.2140    -5.4850     0.0800 H     1 <1>   0.4000 
 40 H       -5.6080    -8.2750     0.2890 H     1 <1>   0.0800 
 41 H       -4.8210    -9.7320     0.8700 H     1 <1>   0.0800 
 42 H       -5.5590    -9.7050    -0.7140 H     1 <1>   0.0800 
@<TRIPOS>BOND
  1   1   2  2   
  2   2   3  am  
  3   2   4  1   
  4   3   5  1   
  5   3  21  1   
  6   4   6  1   
  7   4   7  1   
  8   4  22  1   
  9   5   8  1   
 10   5  23  1   
 11   5  24  1   
 12   6  25  1   
 13   6  26  1   
 14   6  27  1   
 15   7  28  1   
 16   7  29  1   
 17   7  30  1   
 18   8   9  2   
 19   8  10  am  
 20  10  11  1   
 21  10  12  1   
 22  11  13  1   
 23  11  31  1   
 24  11  32  1   
 25  12  14  1   
 26  12  33  1   
 27  12  34  1   
 28  13  15  1   
 29  13  16  2   
 30  14  17  1   
 31  14  35  1   
 32  14  36  1   
 33  15  18  1   
 34  15  37  1   
 35  16  19  1   
 36  16  38  1   
 37  17  39  1   
 38  18  19  2   
 39  18  20  1   
 40  20  40  1   
 41  20  41  1   
 42  20  42  1   
@<TRIPOS>SUBSTRUCTURE
  1 ****  10 GROUP 4 **** **** 0

# MOE 2024.06 (io_trps.svl 2023.06)
