@<TRIPOS>MOLECULE
NONAME
44 45 1 0 0 
SMALL
USER_CHARGES


@<TRIPOS>ATOM
  1 O        0.9920    -0.0140    -1.2620 O.3   1 <1>  -0.6800 
  2 C        1.1480    -0.1430     0.1000 C.3   1 <1>   0.3440 
  3 C        1.0580    -1.6180     0.4630 C.ar  1 <1>  -0.1440 
  4 C        2.5030     0.4540     0.4740 C.3   1 <1>  -0.1600 
  5 C        0.2770    -2.0120     1.5410 C.ar  1 <1>  -0.1500 
  6 C        1.7490    -2.5850    -0.2580 C.ar  1 <1>  -0.1500 
  7 C        2.6310     1.8760    -0.0710 C.3   1 <1>   0.3430 
  8 C        0.1900    -3.3480     1.8940 C.ar  1 <1>  -0.1500 
  9 C        1.6610    -3.9200     0.0940 C.ar  1 <1>  -0.1500 
 10 N        3.9900     2.4250     0.2090 N.4   1 <1>  -0.9590 
 11 C        0.8820    -4.3020     1.1710 C.ar  1 <1>  -0.1500 
 12 C        3.9370     3.9220     0.0850 C.3   1 <1>   0.3430 
 13 C        4.9970     1.8180    -0.7060 C.3   1 <1>   0.3430 
 14 C        5.2100     4.6360     0.5590 C.3   1 <1>   0.0960 
 15 C        6.1490     1.2810     0.1320 C.3   1 <1>  -0.2400 
 16 N        5.0130     6.0900     0.4520 N.pl3 1 <1>   0.3140 
 17 N        3.9450     6.6200    -0.1720 N.2   1 <1>  -0.7070 
 18 C        5.8260     7.0490     0.9320 C.2   1 <1>  -0.3020 
 19 C        4.1060     7.9060    -0.0740 C.2   1 <1>   0.1390 
 20 C        5.2690     8.2360     0.6090 C.2   1 <1>  -0.1500 
 21 H        0.3100    -0.6550    -1.5540 H     1 <1>   0.4000 
 22 H        0.3470     0.4040     0.5690 H     1 <1>   0.0800 
 23 H        2.5880     0.4580     1.5460 H     1 <1>   0.0800 
 24 H        3.2720    -0.1810     0.0730 H     1 <1>   0.0800 
 25 H       -0.2710    -1.2880     2.1170 H     1 <1>   0.1500 
 26 H        2.3580    -2.3060    -1.1000 H     1 <1>   0.1500 
 27 H        1.8800     2.4940     0.3940 H     1 <1>   0.0800 
 28 H        2.4470     1.8760    -1.1350 H     1 <1>   0.0800 
 29 H       -0.4170    -3.6470     2.7310 H     1 <1>   0.1500 
 30 H        2.1990    -4.6630    -0.4690 H     1 <1>   0.1500 
 31 H        4.2320     2.1690     1.1750 H     1 <1>   0.4500 
 32 H        0.8140    -5.3410     1.4460 H     1 <1>   0.1500 
 33 H        3.7530     4.1930    -0.9430 H     1 <1>   0.0800 
 34 H        3.1120     4.2980     0.6700 H     1 <1>   0.0800 
 35 H        4.5560     1.0060    -1.2630 H     1 <1>   0.0800 
 36 H        5.3570     2.5490    -1.4130 H     1 <1>   0.0800 
 37 H        6.0490     4.3710    -0.0560 H     1 <1>   0.0800 
 38 H        5.4140     4.4000     1.5860 H     1 <1>   0.0800 
 39 H        5.8060     0.5170     0.8070 H     1 <1>   0.0800 
 40 H        6.6320     2.0650     0.6860 H     1 <1>   0.0800 
 41 H        6.8810     0.8380    -0.5190 H     1 <1>   0.0800 
 42 H        6.7380     6.8510     1.4650 H     1 <1>   0.1500 
 43 H        3.4140     8.6270    -0.4790 H     1 <1>   0.1500 
 44 H        5.6210     9.2310     0.8190 H     1 <1>   0.1500 
@<TRIPOS>BOND
  1   1   2  1   
  2   1  21  1   
  3   2   3  1   
  4   2   4  1   
  5   2  22  1   
  6   3   5  ar  
  7   3   6  ar  
  8   4   7  1   
  9   4  23  1   
 10   4  24  1   
 11   5   8  ar  
 12   5  25  1   
 13   6   9  ar  
 14   6  26  1   
 15   7  10  1   
 16   7  27  1   
 17   7  28  1   
 18   8  11  ar  
 19   8  29  1   
 20   9  11  ar  
 21   9  30  1   
 22  10  12  1   
 23  10  13  1   
 24  10  31  1   
 25  11  32  1   
 26  12  14  1   
 27  12  33  1   
 28  12  34  1   
 29  13  15  1   
 30  13  35  1   
 31  13  36  1   
 32  14  16  1   
 33  14  37  1   
 34  14  38  1   
 35  15  39  1   
 36  15  40  1   
 37  15  41  1   
 38  16  17  1   
 39  16  18  1   
 40  17  19  2   
 41  18  20  2   
 42  18  42  1   
 43  19  20  1   
 44  19  43  1   
 45  20  44  1   
@<TRIPOS>SUBSTRUCTURE
  1 ****   7 GROUP 4 **** **** 0

# MOE 2024.06 (io_trps.svl 2023.06)
