@<TRIPOS>MOLECULE
NONAME
22 22 1 0 0 
SMALL
USER_CHARGES


@<TRIPOS>ATOM
  1 N        0.0170     0.3070     1.0270 N.ar  1 <1>  -0.6200 
  2 C        0.9450     1.1600     1.4230 C.ar  1 <1>   0.1600 
  3 C       -0.9490     0.8370     0.2970 C.ar  1 <1>   0.1600 
  4 C        0.9540     2.5120     1.1230 C.ar  1 <1>  -0.1500 
  5 C       -1.0330     2.1730    -0.0580 C.ar  1 <1>  -0.1500 
  6 C       -0.0590     3.0680     0.3590 C.ar  1 <1>  -0.1440 
  7 C       -0.0540     4.5690     0.0100 C.3   1 <1>   0.3440 
  8 C        0.2670     5.3780     1.2290 C.1   1 <1>  -0.2000 
  9 C       -1.4060     5.0660    -0.5230 C.3   1 <1>  -0.2400 
 10 C        1.0220     4.8280    -1.0490 C.3   1 <1>  -0.2400 
 11 C        0.5210     6.0230     2.1960 C.1   1 <1>  -0.1770 
 12 H        1.7470     0.7610     2.0200 H     1 <1>   0.1500 
 13 H       -1.7200     0.1660    -0.0400 H     1 <1>   0.1500 
 14 H        1.7590     3.1210     1.4930 H     1 <1>   0.1500 
 15 H       -1.8660     2.4830    -0.6580 H     1 <1>   0.1500 
 16 H       -2.1840     4.8520     0.1880 H     1 <1>   0.0800 
 17 H       -1.6440     4.5970    -1.4600 H     1 <1>   0.0800 
 18 H       -1.3750     6.1300    -0.6790 H     1 <1>   0.0800 
 19 H        1.9890     4.5430    -0.6760 H     1 <1>   0.0800 
 20 H        1.0510     5.8700    -1.3100 H     1 <1>   0.0800 
 21 H        0.8160     4.2530    -1.9340 H     1 <1>   0.0800 
 22 H        0.7470     6.6050     3.0720 H     1 <1>   0.1770 
@<TRIPOS>BOND
  1   1   2  ar  
  2   1   3  ar  
  3   2   4  ar  
  4   2  12  1   
  5   3   5  ar  
  6   3  13  1   
  7   4   6  ar  
  8   4  14  1   
  9   5   6  ar  
 10   5  15  1   
 11   6   7  1   
 12   7   8  1   
 13   7   9  1   
 14   7  10  1   
 15   8  11  3   
 16   9  16  1   
 17   9  17  1   
 18   9  18  1   
 19  10  19  1   
 20  10  20  1   
 21  10  21  1   
 22  11  22  1   
@<TRIPOS>SUBSTRUCTURE
  1 ****   6 GROUP 4 **** **** 0

# MOE 2024.06 (io_trps.svl 2023.06)
