@<TRIPOS>MOLECULE
NONAME
35 36 1 0 0 
SMALL
USER_CHARGES


@<TRIPOS>ATOM
  1 S       -0.7780    -0.1950    -1.6110 S.3   1 <1>  -0.0800 
  2 C       -1.1910     1.0300    -0.4300 C.2   1 <1>   0.1980 
  3 C       -2.0220    -1.2120    -0.9470 C.2   1 <1>  -0.1100 
  4 N       -2.1390     0.7030     0.3540 N.2   1 <1>  -0.5650 
  5 C       -0.4050     2.3270    -0.4570 C.3   1 <1>   0.0200 
  6 C       -2.6190    -0.5690     0.0710 C.2   1 <1>   0.0460 
  7 C        1.0170     2.1400     0.0910 C.3   1 <1>  -0.1600 
  8 C       -3.7600    -1.0870     0.9360 C.3   1 <1>   0.3210 
  9 C        1.8010     3.4570     0.0900 C.3   1 <1>  -0.2400 
 10 N       -3.8770    -2.5610     0.8360 N.am  1 <1>  -0.7300 
 11 C       -4.9650    -3.2440     0.3970 C.2   1 <1>   0.7150 
 12 O       -5.9670    -2.6170     0.1130 O.2   1 <1>  -0.5700 
 13 C       -4.8850    -4.6780     0.2800 C.2   1 <1>  -0.2370 
 14 N       -5.8940    -5.4880    -0.1920 N.pl3 1 <1>   0.0480 
 15 C       -3.8280    -5.4960     0.6010 C.2   1 <1>  -0.1500 
 16 C       -5.4580    -6.7700    -0.1590 C.2   1 <1>  -0.3020 
 17 C       -7.2340    -5.0840    -0.6650 C.3   1 <1>   0.0160 
 18 C       -4.1900    -6.8100     0.3240 C.2   1 <1>  -0.1500 
 19 H       -2.1770    -2.1790    -1.3900 H     1 <1>   0.1500 
 20 H       -0.9270     3.0530     0.1400 H     1 <1>   0.0800 
 21 H       -0.3680     2.6910    -1.4680 H     1 <1>   0.0800 
 22 H        1.5420     1.4140    -0.5070 H     1 <1>   0.0800 
 23 H        0.9590     1.7600     1.0970 H     1 <1>   0.0800 
 24 H       -4.6760    -0.6080     0.6350 H     1 <1>   0.0800 
 25 H       -3.5670    -0.8250     1.9610 H     1 <1>   0.0800 
 26 H        1.8890     3.8430    -0.9110 H     1 <1>   0.0800 
 27 H        2.7910     3.2950     0.4810 H     1 <1>   0.0800 
 28 H        1.3080     4.1900     0.7040 H     1 <1>   0.0800 
 29 H       -3.0350    -3.0860     1.0580 H     1 <1>   0.3700 
 30 H       -2.8710    -5.2110     1.0010 H     1 <1>   0.1500 
 31 H       -6.0660    -7.5980    -0.4800 H     1 <1>   0.1500 
 32 H       -7.1280    -4.4060    -1.4920 H     1 <1>   0.0800 
 33 H       -7.7590    -4.5930     0.1340 H     1 <1>   0.0800 
 34 H       -7.7860    -5.9500    -0.9800 H     1 <1>   0.0800 
 35 H       -3.5690    -7.6770     0.4720 H     1 <1>   0.1500 
@<TRIPOS>BOND
  1   1   2  1   
  2   1   3  1   
  3   2   4  2   
  4   2   5  1   
  5   3   6  2   
  6   3  19  1   
  7   4   6  1   
  8   5   7  1   
  9   5  20  1   
 10   5  21  1   
 11   6   8  1   
 12   7   9  1   
 13   7  22  1   
 14   7  23  1   
 15   8  10  1   
 16   8  24  1   
 17   8  25  1   
 18   9  26  1   
 19   9  27  1   
 20   9  28  1   
 21  10  11  am  
 22  10  29  1   
 23  11  12  2   
 24  11  13  1   
 25  13  14  1   
 26  13  15  2   
 27  14  16  1   
 28  14  17  1   
 29  15  18  1   
 30  15  30  1   
 31  16  18  2   
 32  16  31  1   
 33  17  32  1   
 34  17  33  1   
 35  17  34  1   
 36  18  35  1   
@<TRIPOS>SUBSTRUCTURE
  1 ****  10 GROUP 4 **** **** 0

# MOE 2024.06 (io_trps.svl 2023.06)
