@<TRIPOS>MOLECULE
NONAME
47 48 1 0 0 
SMALL
USER_CHARGES


@<TRIPOS>ATOM
  1 S        0.4970     0.7080    -1.7010 S.o2  1 <1>   1.3330 
  2 O       -0.6270    -0.1520    -1.9940 O.2   1 <1>  -0.6500 
  3 O        1.6090     0.7710    -2.6230 O.2   1 <1>  -0.6500 
  4 N        1.1010     0.2560    -0.1790 N.am  1 <1>  -0.8490 
  5 C       -0.0970     2.3810    -1.4420 C.3   1 <1>  -0.0550 
  6 C        2.1890    -0.7210    -0.2750 C.3   1 <1>   0.1160 
  7 C        0.0670    -0.2370     0.7380 C.3   1 <1>   0.1160 
  8 C        1.0130     3.4170    -1.1610 C.3   1 <1>  -0.0800 
  9 C        0.5230     4.8670    -1.1340 C.3   1 <1>   0.2000 
 10 C        1.7340     3.2380     0.1830 C.3   1 <1>   0.1400 
 11 O       -0.6410     4.9380    -0.3820 O.3   1 <1>  -0.6800 
 12 C        1.6220     5.6050    -0.3750 C.3   1 <1>   0.1400 
 13 N        2.1090     4.6070     0.6120 N.am  1 <1>  -0.6600 
 14 C        2.9090     4.8470     1.6990 C.2   1 <1>   0.5690 
 15 O        3.2690     3.9420     2.4140 O.2   1 <1>  -0.5700 
 16 C        3.3540     6.2590     2.0590 C.3   1 <1>   0.0440 
 17 C        4.0670     6.9850     0.9220 C.ar  1 <1>  -0.1440 
 18 C        3.6540     8.2470     0.5220 C.ar  1 <1>  -0.1500 
 19 C        5.1320     6.3820     0.2710 C.ar  1 <1>  -0.1500 
 20 C        4.2860     8.9000    -0.5240 C.ar  1 <1>  -0.1440 
 21 C        5.7690     7.0300    -0.7720 C.ar  1 <1>  -0.1500 
 22 C        5.3460     8.2850    -1.1690 C.ar  1 <1>  -0.1500 
 23 C        3.8260    10.2810    -0.9550 C.3   1 <1>  -0.0970 
 24 H       -0.6200     2.6890    -2.3260 H     1 <1>   0.0800 
 25 H       -0.8080     2.3840    -0.6380 H     1 <1>   0.0800 
 26 H        2.5570    -0.9680     0.7060 H     1 <1>   0.0800 
 27 H        3.0060    -0.3090    -0.8440 H     1 <1>   0.0800 
 28 H        1.8450    -1.6180    -0.7630 H     1 <1>   0.0800 
 29 H        0.4900    -0.4130     1.7120 H     1 <1>   0.0800 
 30 H       -0.3580    -1.1560     0.3680 H     1 <1>   0.0800 
 31 H       -0.7200     0.4910     0.8370 H     1 <1>   0.0800 
 32 H        1.7560     3.3410    -1.9370 H     1 <1>   0.0800 
 33 H        0.3310     5.2780    -2.1110 H     1 <1>   0.0800 
 34 H        2.6100     2.6180     0.0820 H     1 <1>   0.0800 
 35 H        1.0820     2.8080     0.9230 H     1 <1>   0.0800 
 36 H       -0.4150     4.7530     0.5520 H     1 <1>   0.4000 
 37 H        1.2530     6.4980     0.0970 H     1 <1>   0.0800 
 38 H        2.4260     5.8560    -1.0460 H     1 <1>   0.0800 
 39 H        2.4880     6.8110     2.3710 H     1 <1>   0.0800 
 40 H        4.0210     6.2040     2.8990 H     1 <1>   0.0800 
 41 H        2.8350     8.7300     1.0260 H     1 <1>   0.1500 
 42 H        5.4690     5.4040     0.5730 H     1 <1>   0.1500 
 43 H        6.5960     6.5570    -1.2730 H     1 <1>   0.1500 
 44 H        5.8480     8.7820    -1.9810 H     1 <1>   0.1500 
 45 H        4.0180    10.4320    -2.0020 H     1 <1>   0.0800 
 46 H        4.3550    11.0300    -0.3940 H     1 <1>   0.0800 
 47 H        2.7710    10.3990    -0.7840 H     1 <1>   0.0800 
@<TRIPOS>BOND
  1   1   2  2   
  2   1   3  2   
  3   1   4  am  
  4   1   5  1   
  5   4   6  1   
  6   4   7  1   
  7   5   8  1   
  8   5  24  1   
  9   5  25  1   
 10   6  26  1   
 11   6  27  1   
 12   6  28  1   
 13   7  29  1   
 14   7  30  1   
 15   7  31  1   
 16   8   9  1   
 17   8  10  1   
 18   8  32  1   
 19   9  11  1   
 20   9  12  1   
 21   9  33  1   
 22  10  13  1   
 23  10  34  1   
 24  10  35  1   
 25  11  36  1   
 26  12  13  1   
 27  12  37  1   
 28  12  38  1   
 29  13  14  am  
 30  14  15  2   
 31  14  16  1   
 32  16  17  1   
 33  16  39  1   
 34  16  40  1   
 35  17  18  ar  
 36  17  19  ar  
 37  18  20  ar  
 38  18  41  1   
 39  19  21  ar  
 40  19  42  1   
 41  20  22  ar  
 42  20  23  1   
 43  21  22  ar  
 44  21  43  1   
 45  22  44  1   
 46  23  45  1   
 47  23  46  1   
 48  23  47  1   
@<TRIPOS>SUBSTRUCTURE
  1 ****  13 GROUP 4 **** **** 0

# MOE 2024.06 (io_trps.svl 2023.06)
