@<TRIPOS>MOLECULE
NONAME
51 54 1 0 0 
SMALL
USER_CHARGES


@<TRIPOS>ATOM
  1 O       -0.8330     0.9970    -1.4860 O.3   1 <1>  -0.3630 
  2 C       -2.0020     1.1480    -0.8150 C.ar  1 <1>   0.0830 
  3 C        0.3320     0.5400    -0.8360 C.3   1 <1>   0.0400 
  4 C       -3.0570     1.7000    -1.5220 C.ar  1 <1>  -0.1500 
  5 C       -2.1860     0.7860     0.5160 C.ar  1 <1>  -0.1500 
  6 C       -4.2870     1.8830    -0.9200 C.ar  1 <1>  -0.1500 
  7 C       -3.4180     0.9670     1.1190 C.ar  1 <1>  -0.1500 
  8 C       -4.4810     1.5060     0.4040 C.ar  1 <1>  -0.0230 
  9 N       -5.7530     1.6430     1.0060 N.pl3 1 <1>   0.3260 
 10 C       -6.7840     0.7590     0.9570 C.2   1 <1>   0.0060 
 11 C       -6.2350     2.6550     1.7550 C.2   1 <1>  -0.3020 
 12 N       -7.8470     1.1330     1.6030 N.2   1 <1>  -0.5650 
 13 C       -6.6630    -0.5560     0.2060 C.3   1 <1>   0.5230 
 14 C       -7.4980     2.3340     2.1080 C.2   1 <1>   0.0770 
 15 N       -8.0330    -1.1250     0.1050 N.4   1 <1>  -0.9590 
 16 C       -8.0800    -2.6110     0.2510 C.3   1 <1>   0.3430 
 17 C       -8.7540    -0.6160    -1.0930 C.3   1 <1>   0.3430 
 18 C       -9.5340    -3.1180     0.3070 C.3   1 <1>   0.0580 
 19 C      -10.2120    -1.0790    -1.0450 C.3   1 <1>  -0.1600 
 20 C       -9.6130    -4.6420     0.3810 C.2   1 <1>  -0.0380 
 21 C      -10.3340    -2.6050    -0.9030 C.3   1 <1>  -0.1600 
 22 N      -10.7750    -5.1970     0.8570 N.pl3 1 <1>  -0.5500 
 23 C       -8.6430    -5.5160     0.0160 C.2   1 <1>  -0.1360 
 24 C      -10.9290    -6.5530     0.9570 C.2   1 <1>   0.4400 
 25 C       -8.8500    -6.9150     0.1410 C.2   1 <1>   0.7670 
 26 N      -10.0300    -7.4030     0.6250 N.2   1 <1>  -0.6610 
 27 O       -7.9690    -7.6930    -0.1820 O.2   1 <1>  -0.5700 
 28 H        1.1350     0.5410    -1.5510 H     1 <1>   0.0800 
 29 H        0.1650    -0.4600    -0.4770 H     1 <1>   0.0800 
 30 H        0.5660     1.2080    -0.0260 H     1 <1>   0.0800 
 31 H       -2.8980     1.9900    -2.5470 H     1 <1>   0.1500 
 32 H       -1.3820     0.3660     1.0930 H     1 <1>   0.1500 
 33 H       -5.0900     2.3270    -1.4850 H     1 <1>   0.1500 
 34 H       -3.5460     0.6890     2.1520 H     1 <1>   0.1500 
 35 H       -5.6550     3.5300     1.9870 H     1 <1>   0.1500 
 36 H       -6.0210    -1.2160     0.7670 H     1 <1>   0.0800 
 37 H       -6.2370    -0.4010    -0.7720 H     1 <1>   0.0800 
 38 H       -8.1820     2.9150     2.7080 H     1 <1>   0.1500 
 39 H       -8.5000    -0.6780     0.9200 H     1 <1>   0.4500 
 40 H       -7.5700    -2.9100     1.1520 H     1 <1>   0.0800 
 41 H       -7.5820    -3.0660    -0.5890 H     1 <1>   0.0800 
 42 H       -8.2870    -0.9880    -1.9900 H     1 <1>   0.0800 
 43 H       -8.7230     0.4630    -1.1110 H     1 <1>   0.0800 
 44 H       -9.9710    -2.7240     1.2080 H     1 <1>   0.0800 
 45 H      -10.7080    -0.7650    -1.9470 H     1 <1>   0.0800 
 46 H      -10.7090    -0.5910    -0.2230 H     1 <1>   0.0800 
 47 H      -11.3720    -2.8720    -0.7960 H     1 <1>   0.0800 
 48 H       -9.9700    -3.0780    -1.8000 H     1 <1>   0.0800 
 49 H      -11.5680    -4.6160     1.1470 H     1 <1>   0.4000 
 50 H       -7.6890    -5.2390    -0.3830 H     1 <1>   0.1500 
 51 H      -11.8720    -6.9060     1.3400 H     1 <1>   0.0600 
@<TRIPOS>BOND
  1   1   2  1   
  2   1   3  1   
  3   2   4  ar  
  4   2   5  ar  
  5   3  28  1   
  6   3  29  1   
  7   3  30  1   
  8   4   6  ar  
  9   4  31  1   
 10   5   7  ar  
 11   5  32  1   
 12   6   8  ar  
 13   6  33  1   
 14   7   8  ar  
 15   7  34  1   
 16   8   9  1   
 17   9  10  1   
 18   9  11  1   
 19  10  12  2   
 20  10  13  1   
 21  11  14  2   
 22  11  35  1   
 23  12  14  1   
 24  13  15  1   
 25  13  36  1   
 26  13  37  1   
 27  14  38  1   
 28  15  16  1   
 29  15  17  1   
 30  15  39  1   
 31  16  18  1   
 32  16  40  1   
 33  16  41  1   
 34  17  19  1   
 35  17  42  1   
 36  17  43  1   
 37  18  20  1   
 38  18  21  1   
 39  18  44  1   
 40  19  21  1   
 41  19  45  1   
 42  19  46  1   
 43  20  22  1   
 44  20  23  2   
 45  21  47  1   
 46  21  48  1   
 47  22  24  1   
 48  22  49  1   
 49  23  25  1   
 50  23  50  1   
 51  24  26  2   
 52  24  51  1   
 53  25  26  1   
 54  25  27  2   
@<TRIPOS>SUBSTRUCTURE
  1 ****  13 GROUP 4 **** **** 0

# MOE 2024.06 (io_trps.svl 2023.06)
