@<TRIPOS>MOLECULE
NONAME
45 46 1 0 0 
SMALL
USER_CHARGES


@<TRIPOS>ATOM
  1 O        1.6320     0.0280     2.4750 O.2   1 <1>  -0.5700 
  2 C        1.5250    -0.4940     1.3910 C.2   1 <1>   0.5690 
  3 N        1.9120     0.1030     0.2260 N.am  1 <1>  -0.4940 
  4 C        0.9310    -1.8950     1.2950 C.3   1 <1>   0.1810 
  5 C        2.1490     1.4720    -0.0030 C.2   1 <1>  -0.0880 
  6 O        0.9140    -2.3540    -0.0380 O.3   1 <1>  -0.5600 
  7 N        3.3590     2.1030    -0.0460 N.pl3 1 <1>   0.3140 
  8 C        1.1860     2.4130    -0.2120 C.2   1 <1>  -0.0540 
  9 C        0.3380    -3.6060    -0.1930 C.3   1 <1>   0.1200 
 10 N        3.1840     3.4330    -0.2920 N.2   1 <1>  -0.7070 
 11 C        4.7420     1.4980     0.1370 C.3   1 <1>   0.2560 
 12 C       -0.2480     2.2680    -0.2500 C.ar  1 <1>   0.0540 
 13 C        1.9040     3.5960    -0.3790 C.2   1 <1>   0.1390 
 14 C        0.3820    -3.9480    -1.6770 C.3   1 <1>  -0.2400 
 15 C        5.8440     2.5580    -0.0740 C.3   1 <1>  -0.2400 
 16 C        4.9760     0.3740    -0.8890 C.3   1 <1>  -0.2400 
 17 C        4.8950     0.9430     1.5630 C.3   1 <1>  -0.2400 
 18 C       -1.0700     3.1000     0.5060 C.ar  1 <1>  -0.1500 
 19 C       -0.8570     1.2940    -1.0390 C.ar  1 <1>  -0.1500 
 20 C       -2.4470     2.9670     0.4750 C.ar  1 <1>  -0.1500 
 21 C       -2.2320     1.1550    -1.0740 C.ar  1 <1>  -0.1500 
 22 C       -3.0310     1.9940    -0.3160 C.ar  1 <1>  -0.1500 
 23 H        1.7210    -0.4880    -0.5900 H     1 <1>   0.3700 
 24 H       -0.0780    -1.8710     1.6670 H     1 <1>   0.0800 
 25 H        1.5210    -2.5710     1.8880 H     1 <1>   0.0800 
 26 H       -0.6800    -3.5710     0.1570 H     1 <1>   0.0800 
 27 H        0.9020    -4.3250     0.3790 H     1 <1>   0.0800 
 28 H        1.4420     4.5490    -0.5680 H     1 <1>   0.1500 
 29 H       -0.1720    -3.2190    -2.2410 H     1 <1>   0.0800 
 30 H       -0.0580    -4.9150    -1.8410 H     1 <1>   0.0800 
 31 H        1.4000    -3.9720    -2.0220 H     1 <1>   0.0800 
 32 H        5.7800     2.9720    -1.0650 H     1 <1>   0.0800 
 33 H        6.8200     2.1260     0.0490 H     1 <1>   0.0800 
 34 H        5.7370     3.3550     0.6400 H     1 <1>   0.0800 
 35 H        4.8300     0.7480    -1.8870 H     1 <1>   0.0800 
 36 H        4.3100    -0.4510    -0.7220 H     1 <1>   0.0800 
 37 H        5.9820     0.0020    -0.8110 H     1 <1>   0.0800 
 38 H        4.6760     1.7120     2.2830 H     1 <1>   0.0800 
 39 H        5.8990     0.5980     1.7280 H     1 <1>   0.0800 
 40 H        4.2320     0.1170     1.7290 H     1 <1>   0.0800 
 41 H       -0.6200     3.8510     1.1290 H     1 <1>   0.1500 
 42 H       -0.2410     0.6430    -1.6320 H     1 <1>   0.1500 
 43 H       -3.0630     3.6200     1.0680 H     1 <1>   0.1500 
 44 H       -2.6820     0.3970    -1.6910 H     1 <1>   0.1500 
 45 H       -4.1020     1.8890    -0.3420 H     1 <1>   0.1500 
@<TRIPOS>BOND
  1   1   2  2   
  2   2   3  am  
  3   2   4  1   
  4   3   5  1   
  5   3  23  1   
  6   4   6  1   
  7   4  24  1   
  8   4  25  1   
  9   5   7  1   
 10   5   8  2   
 11   6   9  1   
 12   7  10  1   
 13   7  11  1   
 14   8  12  1   
 15   8  13  1   
 16   9  14  1   
 17   9  26  1   
 18   9  27  1   
 19  10  13  2   
 20  11  15  1   
 21  11  16  1   
 22  11  17  1   
 23  12  18  ar  
 24  12  19  ar  
 25  13  28  1   
 26  14  29  1   
 27  14  30  1   
 28  14  31  1   
 29  15  32  1   
 30  15  33  1   
 31  15  34  1   
 32  16  35  1   
 33  16  36  1   
 34  16  37  1   
 35  17  38  1   
 36  17  39  1   
 37  17  40  1   
 38  18  20  ar  
 39  18  41  1   
 40  19  21  ar  
 41  19  42  1   
 42  20  22  ar  
 43  20  43  1   
 44  21  22  ar  
 45  21  44  1   
 46  22  45  1   
@<TRIPOS>SUBSTRUCTURE
  1 ****   3 GROUP 4 **** **** 0

# MOE 2024.06 (io_trps.svl 2023.06)
