@<TRIPOS>MOLECULE
NONAME
56 60 1 0 0 
SMALL
USER_CHARGES


@<TRIPOS>ATOM
  1 S       -0.7400     0.1420    -1.4910 S.3   1 <1>  -0.0800 
  2 C       -1.8120    -0.9920    -0.7390 C.2   1 <1>   0.4420 
  3 C       -0.1290     0.4950     0.0900 C.2   1 <1>   0.1980 
  4 N       -1.6690    -1.0280     0.5350 N.2   1 <1>  -0.3380 
  5 N       -2.6680    -1.6950    -1.5560 N.am  1 <1>  -0.4940 
  6 N       -0.7050    -0.1790     1.0010 N.2   1 <1>  -0.3380 
  7 C        0.9750     1.5270     0.2230 C.3   1 <1>   0.0200 
  8 C       -3.5600    -2.6890    -1.2990 C.2   1 <1>   0.5690 
  9 C        2.3170     0.9880    -0.2910 C.3   1 <1>  -0.1600 
 10 O       -4.3000    -3.0150    -2.1900 O.2   1 <1>  -0.5700 
 11 C       -3.6580    -3.3590     0.0790 C.3   1 <1>  -0.0190 
 12 C        3.4380     2.0240    -0.1300 C.3   1 <1>  -0.1600 
 13 C       -2.3890    -4.1530     0.5180 C.3   1 <1>   0.3380 
 14 C       -4.6980    -4.5700     0.1990 C.3   1 <1>  -0.0190 
 15 C        4.7730     1.4770    -0.6450 C.3   1 <1>  -0.1600 
 16 O       -2.9690    -4.9560    -0.2670 O.3   1 <1>  -0.5600 
 17 C       -1.5400    -5.4350     0.5640 C.2   1 <1>  -0.2880 
 18 C       -5.9200    -5.2810    -0.2820 C.2   1 <1>   0.5690 
 19 C       -3.7470    -5.7510     0.4280 C.3   1 <1>   0.4180 
 20 C        5.8910     2.5100    -0.4830 C.3   1 <1>  -0.2400 
 21 C       -2.4130    -6.4620     0.4130 C.2   1 <1>  -0.2880 
 22 O       -6.7230    -4.8840    -1.0900 O.2   1 <1>  -0.5700 
 23 N       -6.0000    -6.4460     0.4170 N.am  1 <1>  -0.6600 
 24 C       -4.7240    -6.6940     1.1670 C.3   1 <1>   0.1400 
 25 C       -6.9030    -7.5670     0.0460 C.3   1 <1>   0.2840 
 26 C       -6.1740    -8.5800    -0.8300 C.ar  1 <1>   0.1670 
 27 N       -5.8370    -9.7360    -0.2700 N.ar  1 <1>  -0.6200 
 28 C       -5.8900    -8.2440    -2.1460 C.ar  1 <1>  -0.1500 
 29 C       -5.1980   -10.5870    -1.0580 C.ar  1 <1>   0.1600 
 30 C       -5.2230    -9.1410    -2.9520 C.ar  1 <1>  -0.1500 
 31 C       -4.8720   -10.3450    -2.3810 C.ar  1 <1>  -0.1500 
 32 H       -2.6850    -1.4200    -2.5350 H     1 <1>   0.3700 
 33 H        0.6970     2.4110    -0.3230 H     1 <1>   0.0800 
 34 H        1.0700     1.7930     1.2610 H     1 <1>   0.0800 
 35 H        2.5710     0.0970     0.2580 H     1 <1>   0.0800 
 36 H        2.2240     0.7230    -1.3300 H     1 <1>   0.0800 
 37 H       -3.8880    -2.5990     0.8020 H     1 <1>   0.0800 
 38 H        3.1860     2.9170    -0.6760 H     1 <1>   0.0800 
 39 H        3.5390     2.2860     0.9100 H     1 <1>   0.0800 
 40 H       -1.8420    -3.4890     1.1650 H     1 <1>   0.0800 
 41 H       -5.0790    -4.3080     1.1730 H     1 <1>   0.0800 
 42 H        5.0350     0.5860    -0.1000 H     1 <1>   0.0800 
 43 H        4.6820     1.2160    -1.6860 H     1 <1>   0.0800 
 44 H       -0.4690    -5.3950     0.6540 H     1 <1>   0.1500 
 45 H        6.0170     2.7700     0.5530 H     1 <1>   0.0800 
 46 H        5.6630     3.4030    -1.0390 H     1 <1>   0.0800 
 47 H        6.8190     2.1080    -0.8500 H     1 <1>   0.0800 
 48 H       -2.3020    -7.5290     0.3300 H     1 <1>   0.1500 
 49 H       -4.8290    -6.4280     2.2040 H     1 <1>   0.0800 
 50 H       -4.4300    -7.7250     1.0770 H     1 <1>   0.0800 
 51 H       -7.2610    -8.0480     0.9390 H     1 <1>   0.0800 
 52 H       -7.7520    -7.1810    -0.4900 H     1 <1>   0.0800 
 53 H       -6.1850    -7.2830    -2.5330 H     1 <1>   0.1500 
 54 H       -4.9180   -11.5320    -0.6250 H     1 <1>   0.1500 
 55 H       -4.9870    -8.9070    -3.9760 H     1 <1>   0.1500 
 56 H       -4.3500   -11.0890    -2.9540 H     1 <1>   0.1500 
@<TRIPOS>BOND
  1   1   2  1   
  2   1   3  1   
  3   2   4  2   
  4   2   5  1   
  5   3   6  2   
  6   3   7  1   
  7   4   6  1   
  8   5   8  am  
  9   5  32  1   
 10   7   9  1   
 11   7  33  1   
 12   7  34  1   
 13   8  10  2   
 14   8  11  1   
 15   9  12  1   
 16   9  35  1   
 17   9  36  1   
 18  11  13  1   
 19  11  14  1   
 20  11  37  1   
 21  12  15  1   
 22  12  38  1   
 23  12  39  1   
 24  13  16  1   
 25  13  17  1   
 26  13  40  1   
 27  14  18  1   
 28  14  19  1   
 29  14  41  1   
 30  15  20  1   
 31  15  42  1   
 32  15  43  1   
 33  16  19  1   
 34  17  21  2   
 35  17  44  1   
 36  18  22  2   
 37  18  23  am  
 38  19  21  1   
 39  19  24  1   
 40  20  45  1   
 41  20  46  1   
 42  20  47  1   
 43  21  48  1   
 44  23  24  1   
 45  23  25  1   
 46  24  49  1   
 47  24  50  1   
 48  25  26  1   
 49  25  51  1   
 50  25  52  1   
 51  26  27  ar  
 52  26  28  ar  
 53  27  29  ar  
 54  28  30  ar  
 55  28  53  1   
 56  29  31  ar  
 57  29  54  1   
 58  30  31  ar  
 59  30  55  1   
 60  31  56  1   
@<TRIPOS>SUBSTRUCTURE
  1 ****  13 GROUP 4 **** **** 0

# MOE 2024.06 (io_trps.svl 2023.06)
