@<TRIPOS>MOLECULE
NONAME
46 47 1 0 0 
SMALL
USER_CHARGES


@<TRIPOS>ATOM
  1 O        0.4310     0.0800     0.3870 O.2   1 <1>  -0.5700 
  2 C        0.5300    -1.0980     0.6400 C.2   1 <1>   0.5690 
  3 N       -0.3960    -1.6860     1.4330 N.am  1 <1>  -0.7300 
  4 C        1.7140    -1.9270     0.0650 C.3   1 <1>   0.2510 
  5 C       -0.3980    -3.1350     1.7350 C.3   1 <1>   0.1400 
  6 N        1.6780    -3.4000     0.3670 N.3   1 <1>  -0.8100 
  7 C        3.0430    -1.3530     0.5890 C.3   1 <1>  -0.0990 
  8 C        0.3080    -3.9120     0.6130 C.3   1 <1>   0.1100 
  9 C        2.4880    -4.2020    -0.5720 C.3   1 <1>   0.1900 
 10 C        3.6210    -0.3340    -0.3650 C.2   1 <1>   0.5690 
 11 C        1.7520    -4.5160    -1.8790 C.3   1 <1>  -0.2400 
 12 C        2.9460    -5.4820     0.1230 C.3   1 <1>  -0.2400 
 13 O        4.7080    -0.5360    -0.8540 O.2   1 <1>  -0.5700 
 14 N        2.9220     0.7920    -0.6320 N.am  1 <1>  -0.7300 
 15 C        3.3570     1.8920    -1.5170 C.3   1 <1>   0.2780 
 16 C        4.4050     2.7400    -0.8090 C.2   1 <1>  -0.0380 
 17 N        5.5760     2.1350    -0.4390 N.pl3 1 <1>  -0.5500 
 18 C        4.2830     4.0510    -0.5060 C.2   1 <1>  -0.1360 
 19 C        6.5660     2.8140     0.2020 C.2   1 <1>   0.4390 
 20 C        5.3410     4.7220     0.1620 C.2   1 <1>   0.7670 
 21 N        6.4900     4.0570     0.5030 N.2   1 <1>  -0.6610 
 22 C        7.7980     2.0240     0.5640 C.3   1 <1>  -0.1790 
 23 O        5.2400     5.9060     0.4430 O.2   1 <1>  -0.5700 
 24 H       -1.1360    -1.1020     1.8280 H     1 <1>   0.3700 
 25 H        1.6760    -1.8050    -1.0030 H     1 <1>   0.0800 
 26 H       -1.4120    -3.4810     1.8270 H     1 <1>   0.0800 
 27 H        0.1100    -3.3080     2.6690 H     1 <1>   0.0800 
 28 H        3.7710    -2.1300     0.7260 H     1 <1>   0.0800 
 29 H        2.8930    -0.8870     1.5450 H     1 <1>   0.0800 
 30 H       -0.2830    -3.8310    -0.2830 H     1 <1>   0.0800 
 31 H        0.3500    -4.9490     0.8940 H     1 <1>   0.0800 
 32 H        3.3770    -3.6480    -0.8250 H     1 <1>   0.0800 
 33 H        0.9340    -5.1930    -1.7150 H     1 <1>   0.0800 
 34 H        2.4330    -4.9880    -2.5630 H     1 <1>   0.0800 
 35 H        1.3890    -3.6170    -2.3410 H     1 <1>   0.0800 
 36 H        2.1220    -6.1430     0.3140 H     1 <1>   0.0800 
 37 H        3.4310    -5.2390     1.0520 H     1 <1>   0.0800 
 38 H        3.6520    -5.9990    -0.5000 H     1 <1>   0.0800 
 39 H        1.9920     0.9120    -0.1990 H     1 <1>   0.3700 
 40 H        2.5050     2.4940    -1.7830 H     1 <1>   0.0800 
 41 H        3.7780     1.4800    -2.4180 H     1 <1>   0.0800 
 42 H        5.6680     1.1160    -0.6000 H     1 <1>   0.4000 
 43 H        3.4150     4.6350    -0.7390 H     1 <1>   0.1500 
 44 H        7.5320     1.2110     1.2140 H     1 <1>   0.0800 
 45 H        8.5060     2.6550     1.0700 H     1 <1>   0.0800 
 46 H        8.2550     1.6350    -0.3260 H     1 <1>   0.0800 
@<TRIPOS>BOND
  1   1   2  2   
  2   2   3  am  
  3   2   4  1   
  4   3   5  1   
  5   3  24  1   
  6   4   6  1   
  7   4   7  1   
  8   4  25  1   
  9   5   8  1   
 10   5  26  1   
 11   5  27  1   
 12   6   8  1   
 13   6   9  1   
 14   7  10  1   
 15   7  28  1   
 16   7  29  1   
 17   8  30  1   
 18   8  31  1   
 19   9  11  1   
 20   9  12  1   
 21   9  32  1   
 22  10  13  2   
 23  10  14  am  
 24  11  33  1   
 25  11  34  1   
 26  11  35  1   
 27  12  36  1   
 28  12  37  1   
 29  12  38  1   
 30  14  15  1   
 31  14  39  1   
 32  15  16  1   
 33  15  40  1   
 34  15  41  1   
 35  16  17  1   
 36  16  18  2   
 37  17  19  1   
 38  17  42  1   
 39  18  20  1   
 40  18  43  1   
 41  19  21  2   
 42  19  22  1   
 43  20  21  1   
 44  20  23  2   
 45  22  44  1   
 46  22  45  1   
 47  22  46  1   
@<TRIPOS>SUBSTRUCTURE
  1 ****  10 GROUP 4 **** **** 0

# MOE 2024.06 (io_trps.svl 2023.06)
