@<TRIPOS>MOLECULE
NONAME
53 56 1 0 0 
SMALL
USER_CHARGES


@<TRIPOS>ATOM
  1 O       -1.1490    -1.1460     2.0170 O.2   1 <1>  -0.5700 
  2 C       -1.6040    -0.0980     1.6190 C.2   1 <1>   0.5690 
  3 N       -2.4250    -0.0490     0.5110 N.am  1 <1>  -0.6600 
  4 C       -1.2370     1.1430     2.4310 C.3   1 <1>   0.0440 
  5 C       -2.9640     1.2260    -0.0560 C.3   1 <1>   0.2200 
  6 C       -2.7820    -1.3210    -0.1930 C.3   1 <1>   0.0600 
  7 C       -0.4550     2.1970     1.6510 C.ar  1 <1>  -0.1440 
  8 C       -4.4550     1.1990    -0.3840 C.3   1 <1>  -0.1600 
  9 C       -2.2950     1.6220    -1.3700 C.3   1 <1>  -0.1600 
 10 C        0.6040     1.8280     0.8370 C.ar  1 <1>  -0.1500 
 11 C       -0.8000     3.5370     1.7410 C.ar  1 <1>  -0.1500 
 12 C       -4.6420     2.3700    -1.3570 C.3   1 <1>  -0.0800 
 13 C       -3.2750     2.6060    -2.0250 C.3   1 <1>  -0.0800 
 14 C        1.2880     2.7810     0.1050 C.ar  1 <1>  -0.1500 
 15 C       -0.1120     4.4870     1.0080 C.ar  1 <1>  -0.1500 
 16 C       -5.0130     3.6870    -0.6630 C.3   1 <1>  -0.1600 
 17 C       -2.9130     4.0790    -1.7780 C.3   1 <1>  -0.1600 
 18 C        0.9370     4.1250     0.1710 C.ar  1 <1>   0.0000 
 19 C       -4.2290     4.7490    -1.4160 C.3   1 <1>   0.2000 
 20 C        1.6390     5.1160    -0.6110 C.ar  1 <1>   0.0000 
 21 O       -3.9990     5.8350    -0.6020 O.3   1 <1>  -0.6800 
 22 C        1.6460     5.0530    -2.0020 C.ar  1 <1>  -0.1500 
 23 C        2.3230     6.1620     0.0010 C.ar  1 <1>  -0.1500 
 24 C        2.3130     6.0010    -2.7560 C.ar  1 <1>  -0.1500 
 25 C        2.9920     7.1130    -0.7480 C.ar  1 <1>  -0.1500 
 26 C        2.9880     7.0340    -2.1290 C.ar  1 <1>  -0.1500 
 27 H       -2.1430     1.5620     2.8240 H     1 <1>   0.0800 
 28 H       -0.6400     0.8370     3.2700 H     1 <1>   0.0800 
 29 H       -2.8210     2.0320     0.6380 H     1 <1>   0.0800 
 30 H       -2.8370    -1.1700    -1.2550 H     1 <1>   0.0800 
 31 H       -3.7340    -1.6730     0.1630 H     1 <1>   0.0800 
 32 H       -2.0440    -2.0820    -0.0040 H     1 <1>   0.0800 
 33 H       -4.7200     0.2940    -0.8980 H     1 <1>   0.0800 
 34 H       -5.0620     1.2970     0.4990 H     1 <1>   0.0800 
 35 H       -1.3260     2.0560    -1.2080 H     1 <1>   0.0800 
 36 H       -2.1880     0.7670    -2.0100 H     1 <1>   0.0800 
 37 H        0.8970     0.7930     0.7640 H     1 <1>   0.1500 
 38 H       -1.6080     3.8480     2.3790 H     1 <1>   0.1500 
 39 H       -5.3840     2.1330    -2.1020 H     1 <1>   0.0800 
 40 H       -3.3420     2.4210    -3.0840 H     1 <1>   0.0800 
 41 H        2.1070     2.4830    -0.5250 H     1 <1>   0.1500 
 42 H       -0.3890     5.5240     1.0780 H     1 <1>   0.1500 
 43 H       -4.6990     3.6670     0.3660 H     1 <1>   0.0800 
 44 H       -6.0710     3.8740    -0.7140 H     1 <1>   0.0800 
 45 H       -2.4770     4.5270    -2.6530 H     1 <1>   0.0800 
 46 H       -2.2240     4.1590    -0.9560 H     1 <1>   0.0800 
 47 H       -4.7590     5.0730    -2.2970 H     1 <1>   0.0800 
 48 H       -3.4350     5.5700     0.1470 H     1 <1>   0.4000 
 49 H        1.1200     4.2540    -2.4920 H     1 <1>   0.1500 
 50 H        2.3320     6.2240     1.0750 H     1 <1>   0.1500 
 51 H        2.3070     5.9370    -3.8300 H     1 <1>   0.1500 
 52 H        3.5170     7.9140    -0.2570 H     1 <1>   0.1500 
 53 H        3.5080     7.7730    -2.7140 H     1 <1>   0.1500 
@<TRIPOS>BOND
  1   1   2  2   
  2   2   3  am  
  3   2   4  1   
  4   3   5  1   
  5   3   6  1   
  6   4   7  1   
  7   4  27  1   
  8   4  28  1   
  9   5   8  1   
 10   5   9  1   
 11   5  29  1   
 12   6  30  1   
 13   6  31  1   
 14   6  32  1   
 15   7  10  ar  
 16   7  11  ar  
 17   8  12  1   
 18   8  33  1   
 19   8  34  1   
 20   9  13  1   
 21   9  35  1   
 22   9  36  1   
 23  10  14  ar  
 24  10  37  1   
 25  11  15  ar  
 26  11  38  1   
 27  12  13  1   
 28  12  16  1   
 29  12  39  1   
 30  13  17  1   
 31  13  40  1   
 32  14  18  ar  
 33  14  41  1   
 34  15  18  ar  
 35  15  42  1   
 36  16  19  1   
 37  16  43  1   
 38  16  44  1   
 39  17  19  1   
 40  17  45  1   
 41  17  46  1   
 42  18  20  1   
 43  19  21  1   
 44  19  47  1   
 45  20  22  ar  
 46  20  23  ar  
 47  21  48  1   
 48  22  24  ar  
 49  22  49  1   
 50  23  25  ar  
 51  23  50  1   
 52  24  26  ar  
 53  24  51  1   
 54  25  26  ar  
 55  25  52  1   
 56  26  53  1   
@<TRIPOS>SUBSTRUCTURE
  1 ****  11 GROUP 4 **** **** 0

# MOE 2024.06 (io_trps.svl 2023.06)
