@<TRIPOS>MOLECULE
NONAME
34 36 1 0 0 
SMALL
USER_CHARGES


@<TRIPOS>ATOM
  1 O        0.0040    -0.1590     0.0320 O.3   1 <1>  -0.2800 
  2 C       -0.0230    -1.4420     0.3760 C.2   1 <1>   0.5620 
  3 C        1.2610     0.0900    -0.2800 C.ar  1 <1>   0.1400 
  4 N        1.1140    -2.0460     0.3120 N.2   1 <1>  -0.5650 
  5 N       -1.2170    -2.0150     0.7520 N.pl3 1 <1>  -0.8220 
  6 C        1.9610    -1.0760    -0.1100 C.ar  1 <1>   0.2270 
  7 C        1.8590     1.2650    -0.7080 C.ar  1 <1>  -0.1500 
  8 C       -1.3020    -3.4420     1.1920 C.3   1 <1>   0.2090 
  9 C       -2.5120    -1.2860     0.7260 C.3   1 <1>   0.2090 
 10 C        3.3260    -1.1040    -0.3720 C.ar  1 <1>  -0.1500 
 11 C        3.2180     1.2370    -0.9680 C.ar  1 <1>  -0.1500 
 12 C       -2.2540    -4.2160     0.2660 C.3   1 <1>   0.2000 
 13 C       -3.5070    -2.0370    -0.1660 C.3   1 <1>  -0.1600 
 14 C        3.9470     0.0560    -0.8000 C.ar  1 <1>  -0.1500 
 15 O       -1.6990    -4.2230    -1.0020 O.3   1 <1>  -0.6800 
 16 C       -3.6380    -3.5340     0.2070 C.3   1 <1>  -0.0800 
 17 C       -4.5710    -4.2800    -0.7610 C.3   1 <1>   0.1200 
 18 O       -5.8550    -3.7640    -0.6640 O.3   1 <1>  -0.6800 
 19 H        1.2730     2.1580    -0.8280 H     1 <1>   0.1500 
 20 H       -0.3330    -3.9120     1.1840 H     1 <1>   0.0800 
 21 H       -1.6720    -3.4750     2.2010 H     1 <1>   0.0800 
 22 H       -2.8970    -1.2210     1.7300 H     1 <1>   0.0800 
 23 H       -2.3830    -0.2830     0.3550 H     1 <1>   0.0800 
 24 H        3.8670    -2.0220    -0.2360 H     1 <1>   0.1500 
 25 H        3.7210     2.1280    -1.3030 H     1 <1>   0.1500 
 26 H       -2.3460    -5.2390     0.5890 H     1 <1>   0.0800 
 27 H       -4.4670    -1.5580    -0.0910 H     1 <1>   0.0800 
 28 H       -3.1870    -1.9440    -1.1890 H     1 <1>   0.0800 
 29 H        5.0040     0.0540    -1.0080 H     1 <1>   0.1500 
 30 H       -1.2790    -3.3450    -1.1320 H     1 <1>   0.4000 
 31 H       -4.0610    -3.6030     1.1940 H     1 <1>   0.0800 
 32 H       -4.6110    -5.3310    -0.5320 H     1 <1>   0.0800 
 33 H       -4.2390    -4.1580    -1.7790 H     1 <1>   0.0800 
 34 H       -6.2400    -3.9530     0.2120 H     1 <1>   0.4000 
@<TRIPOS>BOND
  1   1   2  1   
  2   1   3  1   
  3   2   4  2   
  4   2   5  1   
  5   3   6  ar  
  6   3   7  ar  
  7   4   6  1   
  8   5   8  1   
  9   5   9  1   
 10   6  10  ar  
 11   7  11  ar  
 12   7  19  1   
 13   8  12  1   
 14   8  20  1   
 15   8  21  1   
 16   9  13  1   
 17   9  22  1   
 18   9  23  1   
 19  10  14  ar  
 20  10  24  1   
 21  11  14  ar  
 22  11  25  1   
 23  12  15  1   
 24  12  16  1   
 25  12  26  1   
 26  13  16  1   
 27  13  27  1   
 28  13  28  1   
 29  14  29  1   
 30  15  30  1   
 31  16  17  1   
 32  16  31  1   
 33  17  18  1   
 34  17  32  1   
 35  17  33  1   
 36  18  34  1   
@<TRIPOS>SUBSTRUCTURE
  1 ****   2 GROUP 4 **** **** 0

# MOE 2024.06 (io_trps.svl 2023.06)
