@<TRIPOS>MOLECULE
NONAME
57 60 1 0 0 
SMALL
USER_CHARGES


@<TRIPOS>ATOM
  1 O       -1.7960    -0.0140    -1.9410 O.2   1 <1>  -0.5700 
  2 C       -1.3390     0.1340    -0.8240 C.2   1 <1>   0.7160 
  3 N       -0.8890    -0.9570    -0.1480 N.am  1 <1>  -0.7300 
  4 C       -1.3820     1.3790    -0.1470 C.2   1 <1>  -0.0860 
  5 C       -1.4200    -2.3330    -0.3290 C.3   1 <1>   0.2200 
  6 C       -2.5430     1.9090     0.4170 C.2   1 <1>   0.3720 
  7 C       -0.4080     2.2490     0.2170 C.2   1 <1>   0.0870 
  8 C       -2.9500    -2.3210    -0.5900 C.3   1 <1>   0.3430 
  9 C       -1.1470    -3.1320     0.9570 C.3   1 <1>  -0.1600 
 10 N       -2.2750     2.9770     1.0820 N.2   1 <1>  -0.4100 
 11 N       -3.8230     1.3320     0.2810 N.pl3 1 <1>  -0.8210 
 12 O       -0.9870     3.1710     0.9440 O.3   1 <1>  -0.0190 
 13 C        1.0090     2.2710    -0.0350 C.ar  1 <1>   0.0530 
 14 N       -3.7200    -1.6080     0.5030 N.4   1 <1>  -0.9590 
 15 C       -2.2750    -3.0000     2.0100 C.3   1 <1>  -0.1600 
 16 C       -4.3760     1.5100    -1.1010 C.3   1 <1>   0.2090 
 17 C       -4.8590     1.8220     1.2430 C.3   1 <1>   0.2090 
 18 C        1.8910     2.8660     0.8680 C.ar  1 <1>  -0.1500 
 19 C        1.5560     1.6960    -1.1830 C.ar  1 <1>  -0.1500 
 20 C       -3.1050    -1.7160     1.8650 C.3   1 <1>   0.3430 
 21 C       -5.1510    -2.0200     0.5040 C.3   1 <1>   0.2630 
 22 C       -5.8000     2.0320    -0.9420 C.3   1 <1>  -0.1600 
 23 C       -6.1770     1.7140     0.4960 C.3   1 <1>  -0.1600 
 24 C        3.2540     2.8710     0.6440 C.ar  1 <1>  -0.1500 
 25 C        2.9190     1.6970    -1.4140 C.ar  1 <1>  -0.1500 
 26 C        3.7830     2.2860    -0.4950 C.ar  1 <1>   0.0830 
 27 O        5.1270     2.3290    -0.6400 O.3   1 <1>  -0.3630 
 28 C        5.7670     1.7920    -1.7770 C.3   1 <1>   0.0400 
 29 H       -0.2950    -0.8050     0.6690 H     1 <1>   0.3700 
 30 H       -0.9090    -2.7910    -1.1600 H     1 <1>   0.0800 
 31 H       -3.2810    -3.3440    -0.6490 H     1 <1>   0.0800 
 32 H       -3.1490    -1.8590    -1.5440 H     1 <1>   0.0800 
 33 H       -0.2020    -2.8340     1.3790 H     1 <1>   0.0800 
 34 H       -1.0530    -4.1740     0.7020 H     1 <1>   0.0800 
 35 H       -3.6970    -0.5830     0.2810 H     1 <1>   0.4500 
 36 H       -1.8440    -3.0310     2.9960 H     1 <1>   0.0800 
 37 H       -2.9400    -3.8430     1.9340 H     1 <1>   0.0800 
 38 H       -4.3870     0.5600    -1.6080 H     1 <1>   0.0800 
 39 H       -3.7840     2.2020    -1.6790 H     1 <1>   0.0800 
 40 H       -4.6900     2.8560     1.4990 H     1 <1>   0.0800 
 41 H       -4.8620     1.2330     2.1430 H     1 <1>   0.0800 
 42 H        1.5050     3.3290     1.7600 H     1 <1>   0.1500 
 43 H        0.9100     1.2480    -1.9170 H     1 <1>   0.1500 
 44 H       -3.8700    -1.6810     2.6230 H     1 <1>   0.0800 
 45 H       -2.4540    -0.8700     2.0190 H     1 <1>   0.0800 
 46 H       -5.2390    -3.0670     0.7460 H     1 <1>   0.0800 
 47 H       -5.5880    -1.8480    -0.4660 H     1 <1>   0.0800 
 48 H       -5.7010    -1.4480     1.2330 H     1 <1>   0.0800 
 49 H       -6.4730     1.5890    -1.6540 H     1 <1>   0.0800 
 50 H       -5.7940     3.0980    -1.0890 H     1 <1>   0.0800 
 51 H       -6.9110     2.4000     0.8850 H     1 <1>   0.0800 
 52 H       -6.5570     0.7120     0.5730 H     1 <1>   0.0800 
 53 H        3.9230     3.3310     1.3490 H     1 <1>   0.1500 
 54 H        3.2930     1.2420    -2.3110 H     1 <1>   0.1500 
 55 H        6.8250     1.9530    -1.6710 H     1 <1>   0.0800 
 56 H        5.4060     2.3000    -2.6530 H     1 <1>   0.0800 
 57 H        5.5610     0.7380    -1.8280 H     1 <1>   0.0800 
@<TRIPOS>BOND
  1   1   2  2   
  2   2   3  am  
  3   2   4  1   
  4   3   5  1   
  5   3  29  1   
  6   4   6  1   
  7   4   7  2   
  8   5   8  1   
  9   5   9  1   
 10   5  30  1   
 11   6  10  2   
 12   6  11  1   
 13   7  12  1   
 14   7  13  1   
 15   8  14  1   
 16   8  31  1   
 17   8  32  1   
 18   9  15  1   
 19   9  33  1   
 20   9  34  1   
 21  10  12  1   
 22  11  16  1   
 23  11  17  1   
 24  13  18  ar  
 25  13  19  ar  
 26  14  20  1   
 27  14  21  1   
 28  14  35  1   
 29  15  20  1   
 30  15  36  1   
 31  15  37  1   
 32  16  22  1   
 33  16  38  1   
 34  16  39  1   
 35  17  23  1   
 36  17  40  1   
 37  17  41  1   
 38  18  24  ar  
 39  18  42  1   
 40  19  25  ar  
 41  19  43  1   
 42  20  44  1   
 43  20  45  1   
 44  21  46  1   
 45  21  47  1   
 46  21  48  1   
 47  22  23  1   
 48  22  49  1   
 49  22  50  1   
 50  23  51  1   
 51  23  52  1   
 52  24  26  ar  
 53  24  53  1   
 54  25  26  ar  
 55  25  54  1   
 56  26  27  1   
 57  27  28  1   
 58  28  55  1   
 59  28  56  1   
 60  28  57  1   
@<TRIPOS>SUBSTRUCTURE
  1 ****   4 GROUP 4 **** **** 0

# MOE 2024.06 (io_trps.svl 2023.06)
