@<TRIPOS>MOLECULE
NONAME
54 57 1 0 0 
SMALL
USER_CHARGES


@<TRIPOS>ATOM
  1 O        0.1700     1.4960     0.0230 O.co2 1 <1>  -0.9000 
  2 C       -0.3360     1.9640     1.0590 C.2   1 <1>   0.9060 
  3 O        0.2120     1.8940     2.1610 O.co2 1 <1>  -0.9000 
  4 C       -1.7990     2.4610     0.9480 C.3   1 <1>   0.4600 
  5 N       -2.5740     1.6340    -0.0590 N.4   1 <1>  -0.9590 
  6 C       -1.9040     3.9300     0.5350 C.ar  1 <1>  -0.1430 
  7 C       -3.9380     2.1570    -0.4120 C.3   1 <1>   0.3430 
  8 C       -2.5990     0.1940     0.3700 C.3   1 <1>   0.3430 
  9 C       -2.8300     4.7510     1.1610 C.ar  1 <1>  -0.1500 
 10 C       -1.1090     4.4630    -0.4690 C.ar  1 <1>  -0.1500 
 11 C       -4.6550     1.2560    -1.4390 C.3   1 <1>   0.2090 
 12 C       -3.3070    -0.7090    -0.6610 C.3   1 <1>   0.2090 
 13 C       -2.9830     6.0760     0.7940 C.ar  1 <1>   0.0830 
 14 C       -1.2480     5.7870    -0.8470 C.ar  1 <1>  -0.1500 
 15 N       -4.6640    -0.1760    -0.9960 N.pl3 1 <1>  -0.8380 
 16 O       -3.9380     6.7540     1.4880 O.3   1 <1>  -0.3620 
 17 C       -2.1880     6.6110    -0.2330 C.ar  1 <1>   0.0830 
 18 C       -5.7330    -0.6450    -0.2700 C.ar  1 <1>   0.4100 
 19 C       -3.7510     8.1100     1.8310 C.3   1 <1>   0.0400 
 20 O       -2.3590     7.9090    -0.6210 O.3   1 <1>  -0.3630 
 21 N       -6.2050     0.1490     0.6480 N.ar  1 <1>  -0.6200 
 22 C       -6.2540    -1.9440    -0.4930 C.ar  1 <1>   0.0000 
 23 C       -1.5260     8.5220    -1.5810 C.3   1 <1>   0.0400 
 24 C       -7.2060    -0.3410     1.3920 C.ar  1 <1>   0.4700 
 25 C       -7.2830    -2.3440     0.3650 C.ar  1 <1>   0.3100 
 26 C       -5.8250    -2.8360    -1.4960 C.ar  1 <1>  -0.1500 
 27 N       -7.7530    -1.5110     1.3160 N.ar  1 <1>  -0.6200 
 28 C       -7.8330    -3.6250     0.2250 C.ar  1 <1>  -0.1500 
 29 C       -6.3790    -4.0840    -1.6190 C.ar  1 <1>  -0.1500 
 30 C       -7.3910    -4.4860    -0.7460 C.ar  1 <1>  -0.1500 
 31 H       -2.2380     2.3460     1.9220 H     1 <1>   0.0800 
 32 H       -1.9420     1.6660    -0.8750 H     1 <1>   0.4500 
 33 H       -3.8590     3.1550    -0.8110 H     1 <1>   0.0800 
 34 H       -4.5450     2.2020     0.4770 H     1 <1>   0.0800 
 35 H       -3.1180     0.1070     1.3100 H     1 <1>   0.0800 
 36 H       -1.5900    -0.1630     0.5120 H     1 <1>   0.0800 
 37 H       -3.4510     4.3710     1.9530 H     1 <1>   0.1500 
 38 H       -0.3680     3.8530    -0.9630 H     1 <1>   0.1500 
 39 H       -4.1640     1.3310    -2.3930 H     1 <1>   0.0800 
 40 H       -5.6680     1.6010    -1.5650 H     1 <1>   0.0800 
 41 H       -3.3930    -1.7020    -0.2550 H     1 <1>   0.0800 
 42 H       -2.7120    -0.7690    -1.5560 H     1 <1>   0.0800 
 43 H       -0.6090     6.1500    -1.6290 H     1 <1>   0.1500 
 44 H       -4.3820     8.3340     2.6710 H     1 <1>   0.0800 
 45 H       -4.0310     8.7220     0.9930 H     1 <1>   0.0800 
 46 H       -2.7190     8.2690     2.0910 H     1 <1>   0.0800 
 47 H       -1.8320     9.5480    -1.6810 H     1 <1>   0.0800 
 48 H       -1.6440     8.0150    -2.5220 H     1 <1>   0.0800 
 49 H       -0.5070     8.4770    -1.2410 H     1 <1>   0.0800 
 50 H       -7.5890     0.3290     2.1440 H     1 <1>   0.1500 
 51 H       -5.0540    -2.5200    -2.1760 H     1 <1>   0.1500 
 52 H       -8.6150    -3.9110     0.9040 H     1 <1>   0.1500 
 53 H       -6.0460    -4.7630    -2.3860 H     1 <1>   0.1500 
 54 H       -7.8190    -5.4690    -0.8480 H     1 <1>   0.1500 
@<TRIPOS>BOND
  1   1   2  ar  
  2   2   3  ar  
  3   2   4  1   
  4   4   5  1   
  5   4   6  1   
  6   4  31  1   
  7   5   7  1   
  8   5   8  1   
  9   5  32  1   
 10   6   9  ar  
 11   6  10  ar  
 12   7  11  1   
 13   7  33  1   
 14   7  34  1   
 15   8  12  1   
 16   8  35  1   
 17   8  36  1   
 18   9  13  ar  
 19   9  37  1   
 20  10  14  ar  
 21  10  38  1   
 22  11  15  1   
 23  11  39  1   
 24  11  40  1   
 25  12  15  1   
 26  12  41  1   
 27  12  42  1   
 28  13  16  1   
 29  13  17  ar  
 30  14  17  ar  
 31  14  43  1   
 32  15  18  1   
 33  16  19  1   
 34  17  20  1   
 35  18  21  ar  
 36  18  22  ar  
 37  19  44  1   
 38  19  45  1   
 39  19  46  1   
 40  20  23  1   
 41  21  24  ar  
 42  22  25  ar  
 43  22  26  ar  
 44  23  47  1   
 45  23  48  1   
 46  23  49  1   
 47  24  27  ar  
 48  24  50  1   
 49  25  27  ar  
 50  25  28  ar  
 51  26  29  ar  
 52  26  51  1   
 53  28  30  ar  
 54  28  52  1   
 55  29  30  ar  
 56  29  53  1   
 57  30  54  1   
@<TRIPOS>SUBSTRUCTURE
  1 ****   7 GROUP 4 **** **** 0

# MOE 2024.06 (io_trps.svl 2023.06)
