@<TRIPOS>MOLECULE
NONAME
48 50 1 0 0 
SMALL
USER_CHARGES


@<TRIPOS>ATOM
  1 O        0.4660    -0.2580    -0.9540 O.2   1 <1>  -0.5700 
  2 C       -0.5120     0.4540    -0.9150 C.2   1 <1>   0.5690 
  3 N       -1.7580    -0.0840    -0.7250 N.am  1 <1>  -0.6600 
  4 C       -0.2940     1.9510    -1.1180 C.3   1 <1>   0.0820 
  5 C       -3.0280     0.6460    -0.4700 C.3   1 <1>   0.1400 
  6 C       -1.9350    -1.5120    -0.3670 C.3   1 <1>   0.1400 
  7 C       -0.7600     2.8530     0.0250 C.2   1 <1>  -0.1810 
  8 C       -3.8490    -0.2840     0.4320 C.3   1 <1>   0.2000 
  9 C       -3.4260    -1.6750    -0.0470 C.3   1 <1>  -0.0800 
 10 C       -0.6770     2.6010     1.3970 C.2   1 <1>   0.1080 
 11 C       -1.3540     4.0660    -0.0640 C.2   1 <1>  -0.3320 
 12 O       -3.4690    -0.1530     1.7750 O.3   1 <1>  -0.5600 
 13 C       -3.7190    -2.8110     0.9510 C.3   1 <1>   0.0200 
 14 N       -1.1900     3.5600     2.1010 N.2   1 <1>  -0.7070 
 15 C       -0.0820     1.3750     2.0550 C.3   1 <1>  -0.0590 
 16 N       -1.5950     4.4690     1.2010 N.pl3 1 <1>   0.3000 
 17 C       -1.7180     4.9110    -1.2740 C.3   1 <1>  -0.0600 
 18 C       -3.9040     0.9990     2.4310 C.3   1 <1>   0.0400 
 19 C       -3.4400    -4.1930     0.3850 C.2   1 <1>  -0.0400 
 20 O       -3.5730    -5.2300     1.1680 O.3   1 <1>  -0.0190 
 21 C       -3.0630    -4.6430    -0.8240 C.2   1 <1>  -0.1500 
 22 N       -3.3040    -6.3450     0.5530 N.2   1 <1>  -0.4100 
 23 C       -2.9930    -6.0220    -0.6490 C.2   1 <1>   0.1080 
 24 C       -2.6020    -7.0130    -1.7230 C.3   1 <1>  -0.0590 
 25 H        0.7560     2.1210    -1.2660 H     1 <1>   0.0800 
 26 H       -0.7940     2.2270    -2.0250 H     1 <1>   0.0800 
 27 H       -2.8790     1.6040    -0.0150 H     1 <1>   0.0800 
 28 H       -3.5380     0.7800    -1.4070 H     1 <1>   0.0800 
 29 H       -1.6210    -2.1460    -1.1770 H     1 <1>   0.0800 
 30 H       -1.3360    -1.7250     0.5040 H     1 <1>   0.0800 
 31 H       -4.9100    -0.1230     0.3490 H     1 <1>   0.0800 
 32 H       -3.9440    -1.8780    -0.9670 H     1 <1>   0.0800 
 33 H       -4.7520    -2.7670     1.2450 H     1 <1>   0.0800 
 34 H       -3.1240    -2.6790     1.8380 H     1 <1>   0.0800 
 35 H        0.8240     1.0860     1.5570 H     1 <1>   0.0800 
 36 H       -0.7840     0.5630     2.0170 H     1 <1>   0.0800 
 37 H        0.1440     1.5880     3.0840 H     1 <1>   0.0800 
 38 H       -2.0270     5.3570     1.4820 H     1 <1>   0.2700 
 39 H       -1.3890     4.4450    -2.1840 H     1 <1>   0.0800 
 40 H       -1.2480     5.8760    -1.2030 H     1 <1>   0.0800 
 41 H       -2.7840     5.0460    -1.3250 H     1 <1>   0.0800 
 42 H       -3.6300     0.9130     3.4680 H     1 <1>   0.0800 
 43 H       -4.9730     1.0800     2.3450 H     1 <1>   0.0800 
 44 H       -3.4190     1.8630     2.0140 H     1 <1>   0.0800 
 45 H       -2.8560    -4.1110    -1.7330 H     1 <1>   0.1500 
 46 H       -3.2940    -6.9530    -2.5430 H     1 <1>   0.0800 
 47 H       -2.6190    -8.0110    -1.3240 H     1 <1>   0.0800 
 48 H       -1.6110    -6.7960    -2.0760 H     1 <1>   0.0800 
@<TRIPOS>BOND
  1   1   2  2   
  2   2   3  am  
  3   2   4  1   
  4   3   5  1   
  5   3   6  1   
  6   4   7  1   
  7   4  25  1   
  8   4  26  1   
  9   5   8  1   
 10   5  27  1   
 11   5  28  1   
 12   6   9  1   
 13   6  29  1   
 14   6  30  1   
 15   7  10  1   
 16   7  11  2   
 17   8   9  1   
 18   8  12  1   
 19   8  31  1   
 20   9  13  1   
 21   9  32  1   
 22  10  14  2   
 23  10  15  1   
 24  11  16  1   
 25  11  17  1   
 26  12  18  1   
 27  13  19  1   
 28  13  33  1   
 29  13  34  1   
 30  14  16  1   
 31  15  35  1   
 32  15  36  1   
 33  15  37  1   
 34  16  38  1   
 35  17  39  1   
 36  17  40  1   
 37  17  41  1   
 38  18  42  1   
 39  18  43  1   
 40  18  44  1   
 41  19  20  1   
 42  19  21  2   
 43  20  22  1   
 44  21  23  1   
 45  21  45  1   
 46  22  23  2   
 47  23  24  1   
 48  24  46  1   
 49  24  47  1   
 50  24  48  1   
@<TRIPOS>SUBSTRUCTURE
  1 ****   3 GROUP 4 **** **** 0

# MOE 2024.06 (io_trps.svl 2023.06)
