@<TRIPOS>MOLECULE
NONAME
42 44 1 0 0 
SMALL
USER_CHARGES


@<TRIPOS>ATOM
  1 F       -0.4380    -0.6910    -0.0540 F     1 <1>  -0.1900 
  2 C       -1.6470    -1.2060     0.0390 C.ar  1 <1>   0.1900 
  3 C       -2.7670    -0.4140     0.2950 C.ar  1 <1>   0.4100 
  4 C       -1.8020    -2.5550    -0.1090 C.ar  1 <1>   0.1600 
  5 N       -3.9540    -0.9850     0.3980 N.ar  1 <1>  -0.6200 
  6 N       -2.7220     0.9710     0.4550 N.pl3 1 <1>  -0.8380 
  7 N       -2.9860    -3.1290    -0.0150 N.ar  1 <1>  -0.6200 
  8 C       -3.9920    -2.2960     0.2330 C.ar  1 <1>   0.7200 
  9 C       -1.9420     1.8250    -0.4810 C.3   1 <1>   0.1290 
 10 C       -3.7820     1.6810     1.2230 C.3   1 <1>   0.1290 
 11 N       -5.2350    -2.8190     0.3390 N.pl3 1 <1>  -0.8690 
 12 C       -5.4880    -4.1890     0.8630 C.3   1 <1>   0.2090 
 13 C       -5.5250    -5.2120    -0.2760 C.3   1 <1>   0.2090 
 14 N       -5.8790    -6.5580     0.2650 N.pl3 1 <1>  -0.8380 
 15 C       -7.1350    -7.0830    -0.0040 C.ar  1 <1>   0.1000 
 16 C       -4.8720    -7.6400     0.0580 C.3   1 <1>   0.2090 
 17 C       -7.0960    -8.4350    -0.2600 C.ar  1 <1>  -0.1430 
 18 C       -8.3500    -6.4110    -0.0360 C.ar  1 <1>  -0.1500 
 19 C       -5.6770    -8.9310    -0.1640 C.3   1 <1>  -0.0170 
 20 C       -8.2440    -9.1460    -0.5550 C.ar  1 <1>  -0.1500 
 21 C       -9.5080    -7.1110    -0.3310 C.ar  1 <1>  -0.1500 
 22 C       -9.4570    -8.4740    -0.5900 C.ar  1 <1>  -0.1500 
 23 H       -0.9460    -3.1750    -0.3050 H     1 <1>   0.1500 
 24 H       -1.5760     1.2420    -1.3090 H     1 <1>   0.0800 
 25 H       -1.1070     2.2600     0.0390 H     1 <1>   0.0800 
 26 H       -2.5650     2.6110    -0.8710 H     1 <1>   0.0800 
 27 H       -4.1380     1.0580     2.0260 H     1 <1>   0.0800 
 28 H       -4.6070     1.9150     0.5720 H     1 <1>   0.0800 
 29 H       -3.3870     2.5890     1.6440 H     1 <1>   0.0800 
 30 H       -5.8910    -2.1070     0.6570 H     1 <1>   0.4000 
 31 H       -6.4320    -4.2020     1.3770 H     1 <1>   0.0800 
 32 H       -4.7140    -4.4630     1.5590 H     1 <1>   0.0800 
 33 H       -4.5610    -5.2420    -0.7520 H     1 <1>   0.0800 
 34 H       -6.2550    -4.9090    -1.0060 H     1 <1>   0.0800 
 35 H       -4.2400    -7.7240     0.9240 H     1 <1>   0.0800 
 36 H       -4.2710    -7.4290    -0.8100 H     1 <1>   0.0800 
 37 H       -8.3820    -5.3590     0.1710 H     1 <1>   0.1500 
 38 H       -5.5670    -9.5920     0.6760 H     1 <1>   0.0800 
 39 H       -5.3710    -9.4270    -1.0660 H     1 <1>   0.0800 
 40 H       -8.1980   -10.2020    -0.7530 H     1 <1>   0.1500 
 41 H      -10.4520    -6.5960    -0.3580 H     1 <1>   0.1500 
 42 H      -10.3600    -9.0120    -0.8180 H     1 <1>   0.1500 
@<TRIPOS>BOND
  1   1   2  1   
  2   2   3  ar  
  3   2   4  ar  
  4   3   5  ar  
  5   3   6  1   
  6   4   7  ar  
  7   4  23  1   
  8   5   8  ar  
  9   6   9  1   
 10   6  10  1   
 11   7   8  ar  
 12   8  11  1   
 13   9  24  1   
 14   9  25  1   
 15   9  26  1   
 16  10  27  1   
 17  10  28  1   
 18  10  29  1   
 19  11  12  1   
 20  11  30  1   
 21  12  13  1   
 22  12  31  1   
 23  12  32  1   
 24  13  14  1   
 25  13  33  1   
 26  13  34  1   
 27  14  15  1   
 28  14  16  1   
 29  15  17  ar  
 30  15  18  ar  
 31  16  19  1   
 32  16  35  1   
 33  16  36  1   
 34  17  19  1   
 35  17  20  ar  
 36  18  21  ar  
 37  18  37  1   
 38  19  38  1   
 39  19  39  1   
 40  20  22  ar  
 41  20  40  1   
 42  21  22  ar  
 43  21  41  1   
 44  22  42  1   
@<TRIPOS>SUBSTRUCTURE
  1 ****  12 GROUP 4 **** **** 0

# MOE 2024.06 (io_trps.svl 2023.06)
