@<TRIPOS>MOLECULE
NONAME
50 53 1 0 0 
SMALL
USER_CHARGES


@<TRIPOS>ATOM
  1 S       -1.0820    -0.3080    -0.9600 S.o2  1 <1>   1.0900 
  2 O       -0.0130    -0.8030    -1.7970 O.2   1 <1>  -0.6500 
  3 O       -0.9610     0.9200    -0.2120 O.2   1 <1>  -0.6500 
  4 C       -1.5880    -1.6360     0.0930 C.3   1 <1>  -0.0550 
  5 C       -2.5830    -0.3110    -1.9300 C.3   1 <1>  -0.0550 
  6 C       -2.4240    -2.5330    -0.8140 C.3   1 <1>   0.1760 
  7 C       -3.3510    -1.6130    -1.6370 C.3   1 <1>  -0.1600 
  8 N       -3.1890    -3.5310    -0.0260 N.pl3 1 <1>   0.3140 
  9 N       -3.9850    -3.1490     0.9890 N.2   1 <1>  -0.7070 
 10 C       -3.1960    -4.8790    -0.1810 C.2   1 <1>  -0.3320 
 11 C       -4.4750    -4.2510     1.4660 C.2   1 <1>   0.1080 
 12 C       -4.0100    -5.3750     0.7760 C.2   1 <1>   0.0630 
 13 C       -2.4100    -5.6340    -1.2470 C.3   1 <1>  -0.0600 
 14 C       -5.4480    -4.2380     2.6240 C.3   1 <1>  -0.0590 
 15 N       -4.2980    -6.7500     0.9600 N.am  1 <1>  -0.4930 
 16 C       -4.4620    -7.4790     2.1000 C.2   1 <1>   0.5690 
 17 O       -4.4300    -7.0060     3.2110 O.2   1 <1>  -0.5700 
 18 C       -4.6740    -8.9830     1.9720 C.3   1 <1>   0.2010 
 19 N       -5.8730    -9.3320     1.1510 N.am  1 <1>  -0.4200 
 20 C       -5.8150    -9.3070    -0.2230 C.2   1 <1>   0.5440 
 21 C       -7.0480    -9.6720     1.7750 C.2   1 <1>   0.4500 
 22 O       -4.7890    -8.9300    -0.7710 O.2   1 <1>  -0.5700 
 23 C       -6.9820    -9.7060    -0.9580 C.ar  1 <1>   0.0860 
 24 N       -8.1170   -10.0160     1.1640 N.2   1 <1>  -0.6290 
 25 C       -8.1180   -10.0540    -0.2170 C.ar  1 <1>   0.1790 
 26 C       -7.0410    -9.7610    -2.3540 C.ar  1 <1>  -0.1500 
 27 C       -9.2740   -10.4470    -0.8830 C.ar  1 <1>  -0.1500 
 28 C       -8.1960   -10.1520    -3.0000 C.ar  1 <1>  -0.1500 
 29 C       -9.3180   -10.4970    -2.2610 C.ar  1 <1>  -0.1500 
 30 H       -2.1970    -1.2520     0.8900 H     1 <1>   0.0800 
 31 H       -0.7460    -2.1610     0.5000 H     1 <1>   0.0800 
 32 H       -2.3430    -0.2430    -2.9740 H     1 <1>   0.0800 
 33 H       -3.1950     0.5320    -1.6680 H     1 <1>   0.0800 
 34 H       -1.7610    -3.0500    -1.4840 H     1 <1>   0.0800 
 35 H       -3.6590    -2.0960    -2.5480 H     1 <1>   0.0800 
 36 H       -4.2270    -1.3710    -1.0570 H     1 <1>   0.0800 
 37 H       -2.7090    -5.3110    -2.2280 H     1 <1>   0.0800 
 38 H       -2.5870    -6.6920    -1.1740 H     1 <1>   0.0800 
 39 H       -1.3560    -5.4610    -1.1250 H     1 <1>   0.0800 
 40 H       -5.9570    -3.2930     2.6650 H     1 <1>   0.0800 
 41 H       -4.9130    -4.3860     3.5440 H     1 <1>   0.0800 
 42 H       -6.1740    -5.0200     2.5070 H     1 <1>   0.0800 
 43 H       -4.3150    -7.2950     0.0880 H     1 <1>   0.3700 
 44 H       -4.7790    -9.4000     2.9580 H     1 <1>   0.0800 
 45 H       -3.7970    -9.4180     1.5270 H     1 <1>   0.0800 
 46 H       -7.0450    -9.6400     2.8510 H     1 <1>   0.0600 
 47 H       -6.1700    -9.4920    -2.9260 H     1 <1>   0.1500 
 48 H      -10.1380   -10.7120    -0.2990 H     1 <1>   0.1500 
 49 H       -8.2310   -10.1920    -4.0760 H     1 <1>   0.1500 
 50 H      -10.2200   -10.8040    -2.7640 H     1 <1>   0.1500 
@<TRIPOS>BOND
  1   1   2  2   
  2   1   3  2   
  3   1   4  1   
  4   1   5  1   
  5   4   6  1   
  6   4  30  1   
  7   4  31  1   
  8   5   7  1   
  9   5  32  1   
 10   5  33  1   
 11   6   7  1   
 12   6   8  1   
 13   6  34  1   
 14   7  35  1   
 15   7  36  1   
 16   8   9  1   
 17   8  10  1   
 18   9  11  2   
 19  10  12  2   
 20  10  13  1   
 21  11  12  1   
 22  11  14  1   
 23  12  15  1   
 24  13  37  1   
 25  13  38  1   
 26  13  39  1   
 27  14  40  1   
 28  14  41  1   
 29  14  42  1   
 30  15  16  am  
 31  15  43  1   
 32  16  17  2   
 33  16  18  1   
 34  18  19  1   
 35  18  44  1   
 36  18  45  1   
 37  19  20  am  
 38  19  21  1   
 39  20  22  2   
 40  20  23  1   
 41  21  24  2   
 42  21  46  1   
 43  23  25  ar  
 44  23  26  ar  
 45  24  25  1   
 46  25  27  ar  
 47  26  28  ar  
 48  26  47  1   
 49  27  29  ar  
 50  27  48  1   
 51  28  29  ar  
 52  28  49  1   
 53  29  50  1   
@<TRIPOS>SUBSTRUCTURE
  1 ****  12 GROUP 4 **** **** 0

# MOE 2024.06 (io_trps.svl 2023.06)
