@<TRIPOS>MOLECULE
NONAME
53 55 1 0 0 
SMALL
USER_CHARGES


@<TRIPOS>ATOM
  1 CL       2.9020     0.8820    -3.2500 Cl    1 <1>  -0.1770 
  2 C        3.5570     2.0050    -2.0900 C.ar  1 <1>   0.1770 
  3 C        2.9980     2.0860    -0.8290 C.ar  1 <1>  -0.1500 
  4 C        4.6300     2.8000    -2.4420 C.ar  1 <1>  -0.1500 
  5 C        3.5220     2.9810     0.0870 C.ar  1 <1>  -0.1500 
  6 C        5.1450     3.6910    -1.5170 C.ar  1 <1>  -0.1500 
  7 C        4.6010     3.8120    -0.2340 C.ar  1 <1>   0.0860 
  8 C        5.1480     4.7590     0.7250 C.2   1 <1>   0.5440 
  9 O        6.3050     5.1330     0.6290 O.2   1 <1>  -0.5700 
 10 N        4.3690     5.2930     1.7280 N.am  1 <1>  -0.6600 
 11 C        4.9550     5.7030     3.0260 C.3   1 <1>   0.1400 
 12 C        3.1370     6.0390     1.3990 C.3   1 <1>   0.1400 
 13 C        5.4090     7.1610     2.9370 C.3   1 <1>  -0.1600 
 14 C        3.5260     7.4970     1.1560 C.3   1 <1>  -0.1600 
 15 C        4.3490     8.1080     2.3180 C.3   1 <1>  -0.0190 
 16 C        4.9250     9.4710     1.9170 C.2   1 <1>   0.5690 
 17 O        4.4070    10.4530     2.3910 O.2   1 <1>  -0.5700 
 18 N        5.9650     9.6200     1.0270 N.am  1 <1>  -0.6600 
 19 C        6.7590     8.5800     0.3170 C.3   1 <1>   0.1400 
 20 C        6.3930    10.9690     0.5840 C.3   1 <1>   0.1400 
 21 C        7.2890     9.2940    -0.9210 C.3   1 <1>   0.2000 
 22 C        7.4940    10.7540    -0.4670 C.3   1 <1>   0.4230 
 23 O        8.4860     8.7350    -1.3650 O.3   1 <1>  -0.6800 
 24 N        7.4820    11.7690    -1.5920 N.4   1 <1>  -0.9590 
 25 C        8.5810    11.4870    -2.5730 C.3   1 <1>   0.2630 
 26 C        7.6110    13.1710    -1.0800 C.3   1 <1>   0.2630 
 27 H        2.1670     1.4520    -0.5740 H     1 <1>   0.1500 
 28 H        5.0550     2.7160    -3.4270 H     1 <1>   0.1500 
 29 H        3.0920     3.0370     1.0730 H     1 <1>   0.1500 
 30 H        5.9860     4.3070    -1.7860 H     1 <1>   0.1500 
 31 H        4.2170     5.5900     3.8010 H     1 <1>   0.0800 
 32 H        5.7950     5.0710     3.2630 H     1 <1>   0.0800 
 33 H        2.6700     5.6310     0.5190 H     1 <1>   0.0800 
 34 H        2.4410     5.9670     2.2180 H     1 <1>   0.0800 
 35 H        5.6630     7.5100     3.9220 H     1 <1>   0.0800 
 36 H        6.3170     7.1610     2.3740 H     1 <1>   0.0800 
 37 H        4.0730     7.5440     0.2350 H     1 <1>   0.0800 
 38 H        2.6320     8.0800     1.0160 H     1 <1>   0.0800 
 39 H        3.6400     8.2970     3.1050 H     1 <1>   0.0800 
 40 H        7.5800     8.2770     0.9450 H     1 <1>   0.0800 
 41 H        6.1660     7.7240     0.0530 H     1 <1>   0.0800 
 42 H        5.5430    11.4760     0.1620 H     1 <1>   0.0800 
 43 H        6.7660    11.5250     1.4270 H     1 <1>   0.0800 
 44 H        6.5590     9.2290    -1.7100 H     1 <1>   0.0800 
 45 H        8.4390    10.8020     0.0480 H     1 <1>   0.0800 
 46 H        8.4060     7.7610    -1.4630 H     1 <1>   0.4000 
 47 H        6.5830    11.6810    -2.0880 H     1 <1>   0.4500 
 48 H        9.5400    11.5140    -2.0800 H     1 <1>   0.0800 
 49 H        8.5780    12.2170    -3.3650 H     1 <1>   0.0800 
 50 H        8.4550    10.5090    -3.0100 H     1 <1>   0.0800 
 51 H        8.5370    13.2890    -0.5410 H     1 <1>   0.0800 
 52 H        6.7930    13.4100    -0.4190 H     1 <1>   0.0800 
 53 H        7.5990    13.8710    -1.9000 H     1 <1>   0.0800 
@<TRIPOS>BOND
  1   1   2  1   
  2   2   3  ar  
  3   2   4  ar  
  4   3   5  ar  
  5   3  27  1   
  6   4   6  ar  
  7   4  28  1   
  8   5   7  ar  
  9   5  29  1   
 10   6   7  ar  
 11   6  30  1   
 12   7   8  1   
 13   8   9  2   
 14   8  10  am  
 15  10  11  1   
 16  10  12  1   
 17  11  13  1   
 18  11  31  1   
 19  11  32  1   
 20  12  14  1   
 21  12  33  1   
 22  12  34  1   
 23  13  15  1   
 24  13  35  1   
 25  13  36  1   
 26  14  15  1   
 27  14  37  1   
 28  14  38  1   
 29  15  16  1   
 30  15  39  1   
 31  16  17  2   
 32  16  18  am  
 33  18  19  1   
 34  18  20  1   
 35  19  21  1   
 36  19  40  1   
 37  19  41  1   
 38  20  22  1   
 39  20  42  1   
 40  20  43  1   
 41  21  22  1   
 42  21  23  1   
 43  21  44  1   
 44  22  24  1   
 45  22  45  1   
 46  23  46  1   
 47  24  25  1   
 48  24  26  1   
 49  24  47  1   
 50  25  48  1   
 51  25  49  1   
 52  25  50  1   
 53  26  51  1   
 54  26  52  1   
 55  26  53  1   
@<TRIPOS>SUBSTRUCTURE
  1 ****  19 GROUP 4 **** **** 0

# MOE 2024.06 (io_trps.svl 2023.06)
