@<TRIPOS>MOLECULE
NONAME
42 45 1 0 0 
SMALL
USER_CHARGES


@<TRIPOS>ATOM
  1 O       -2.1140     0.9160    -1.9180 O.2   1 <1>  -0.5700 
  2 C       -1.8080     0.9210    -0.7400 C.2   1 <1>   0.7150 
  3 N       -1.8880    -0.2480    -0.0420 N.am  1 <1>  -0.7300 
  4 C       -1.3780     2.1330    -0.0950 C.2   1 <1>   0.0550 
  5 C       -2.3080    -1.5560    -0.5920 C.3   1 <1>   0.2200 
  6 O       -1.0640     2.1550     1.1810 O.3   1 <1>  -0.0190 
  7 C       -1.2030     3.3950    -0.5470 C.2   1 <1>  -0.1500 
  8 C       -3.7260    -1.8570    -0.1380 C.3   1 <1>  -0.0800 
  9 C       -1.5190    -2.6730     0.0830 C.3   1 <1>   0.1200 
 10 N       -0.7000     3.3310     1.5930 N.2   1 <1>  -0.4100 
 11 C       -0.7720     4.1010     0.5650 C.2   1 <1>   0.2030 
 12 C       -3.4950    -2.4540     1.2550 C.3   1 <1>   0.1200 
 13 C       -4.4260    -2.8470    -1.0890 C.3   1 <1>  -0.0160 
 14 O       -2.1920    -2.9640     1.2720 O.3   1 <1>  -0.5600 
 15 C       -0.4340     5.5810     0.5830 C.3   1 <1>  -0.0140 
 16 C       -5.8540    -3.1260    -0.6490 C.ar  1 <1>  -0.1440 
 17 C        0.3850     6.1940    -0.5140 C.3   1 <1>  -0.2000 
 18 C        0.9750     6.0170     0.8500 C.3   1 <1>  -0.2000 
 19 C       -6.2170    -4.3110    -0.0400 C.ar  1 <1>  -0.1500 
 20 C       -6.8650    -2.2050    -0.8400 C.ar  1 <1>  -0.1500 
 21 C       -7.5330    -4.5090     0.3430 C.ar  1 <1>   0.1600 
 22 C       -8.1510    -2.5020    -0.4190 C.ar  1 <1>   0.1600 
 23 N       -8.5090    -3.6310     0.1700 N.ar  1 <1>  -0.6200 
 24 H       -1.6580    -0.2490     0.9550 H     1 <1>   0.3700 
 25 H       -2.1920    -1.5680    -1.6630 H     1 <1>   0.0800 
 26 H       -1.3570     3.7790    -1.5380 H     1 <1>   0.1500 
 27 H       -4.3160    -0.9590    -0.0790 H     1 <1>   0.0800 
 28 H       -0.5040    -2.3930     0.3010 H     1 <1>   0.0800 
 29 H       -1.5280    -3.5630    -0.5210 H     1 <1>   0.0800 
 30 H       -4.1840    -3.2430     1.4990 H     1 <1>   0.0800 
 31 H       -3.5510    -1.6880     2.0090 H     1 <1>   0.0800 
 32 H       -3.8770    -3.7710    -1.1380 H     1 <1>   0.0800 
 33 H       -4.4480    -2.4310    -2.0820 H     1 <1>   0.0800 
 34 H       -1.2200     6.1720     1.0180 H     1 <1>   0.1000 
 35 H        0.7510     5.5690    -1.3110 H     1 <1>   0.1000 
 36 H        0.1380     7.1870    -0.8480 H     1 <1>   0.1000 
 37 H        1.1330     6.8820     1.4700 H     1 <1>   0.1000 
 38 H        1.7210     5.2560     1.0050 H     1 <1>   0.1000 
 39 H       -5.4910    -5.0820     0.1420 H     1 <1>   0.1500 
 40 H       -6.6650    -1.2600    -1.3110 H     1 <1>   0.1500 
 41 H       -7.7980    -5.4380     0.8180 H     1 <1>   0.1500 
 42 H       -8.9260    -1.7720    -0.5760 H     1 <1>   0.1500 
@<TRIPOS>BOND
  1   1   2  2   
  2   2   3  am  
  3   2   4  1   
  4   3   5  1   
  5   3  24  1   
  6   4   6  1   
  7   4   7  2   
  8   5   8  1   
  9   5   9  1   
 10   5  25  1   
 11   6  10  1   
 12   7  11  1   
 13   7  26  1   
 14   8  12  1   
 15   8  13  1   
 16   8  27  1   
 17   9  14  1   
 18   9  28  1   
 19   9  29  1   
 20  10  11  2   
 21  11  15  1   
 22  12  14  1   
 23  12  30  1   
 24  12  31  1   
 25  13  16  1   
 26  13  32  1   
 27  13  33  1   
 28  15  17  1   
 29  15  18  1   
 30  15  34  1   
 31  16  19  ar  
 32  16  20  ar  
 33  17  18  1   
 34  17  35  1   
 35  17  36  1   
 36  18  37  1   
 37  18  38  1   
 38  19  21  ar  
 39  19  39  1   
 40  20  22  ar  
 41  20  40  1   
 42  21  23  ar  
 43  21  41  1   
 44  22  23  ar  
 45  22  42  1   
@<TRIPOS>SUBSTRUCTURE
  1 ****   3 GROUP 4 **** **** 0

# MOE 2024.06 (io_trps.svl 2023.06)
