@<TRIPOS>MOLECULE
NONAME
55 58 1 0 0 
SMALL
USER_CHARGES


@<TRIPOS>ATOM
  1 O       -1.8650    -1.3270     0.8020 O.3   1 <1>  -0.5600 
  2 C       -2.7300    -2.3240     0.3410 C.3   1 <1>   0.1200 
  3 C       -0.5290    -1.5230     0.4480 C.3   1 <1>   0.1200 
  4 C       -2.3320    -3.6940     0.9170 C.3   1 <1>   0.2090 
  5 C       -0.0030    -2.8460     1.0370 C.3   1 <1>   0.2090 
  6 N       -0.8790    -4.0040     0.6370 N.pl3 1 <1>  -0.8380 
  7 C       -0.4970    -5.1780     0.0640 C.ar  1 <1>   0.7710 
  8 N       -1.4210    -6.0150    -0.3850 N.ar  1 <1>  -0.6200 
  9 N        0.8140    -5.4690    -0.0290 N.ar  1 <1>  -0.1790 
 10 C       -1.0310    -7.1380    -0.9370 C.ar  1 <1>   0.4100 
 11 C        1.2620    -6.6180    -0.5910 C.ar  1 <1>   0.2180 
 12 N       -2.0240    -7.9240    -1.3740 N.pl3 1 <1>  -0.8690 
 13 C        0.3270    -7.4800    -1.0610 C.ar  1 <1>  -0.1500 
 14 C        2.7620    -6.8740    -0.6640 C.3   1 <1>  -0.0170 
 15 C       -2.0120    -9.2660    -2.0030 C.3   1 <1>   0.3900 
 16 C        3.4010    -6.9760     0.7280 C.3   1 <1>  -0.2400 
 17 C       -3.3730    -9.9230    -1.8290 C.2   1 <1>   0.1080 
 18 N       -4.4650    -9.4480    -2.3170 N.2   1 <1>  -0.4100 
 19 C       -3.6230   -11.0980    -1.1300 C.2   1 <1>  -0.1500 
 20 O       -5.4040   -10.2750    -1.9600 O.3   1 <1>  -0.0190 
 21 C       -4.9560   -11.2850    -1.2460 C.2   1 <1>   0.0870 
 22 C       -5.8450   -12.3140    -0.7570 C.ar  1 <1>   0.0530 
 23 C       -5.3580   -13.4090    -0.0470 C.ar  1 <1>  -0.1500 
 24 C       -7.2220   -12.2550    -0.9770 C.ar  1 <1>  -0.1500 
 25 C       -6.1950   -14.4050     0.4260 C.ar  1 <1>   0.0820 
 26 C       -8.0710   -13.2420    -0.5110 C.ar  1 <1>  -0.1500 
 27 O       -5.6070   -15.4230     1.1030 O.3   1 <1>  -0.3620 
 28 C       -7.5630   -14.3200     0.1910 C.ar  1 <1>  -0.1500 
 29 C       -6.3670   -16.4900     1.6250 C.3   1 <1>   0.0400 
 30 H       -2.7030    -2.3400    -0.7350 H     1 <1>   0.0800 
 31 H       -3.7260    -2.0650     0.6560 H     1 <1>   0.0800 
 32 H        0.0340    -0.6920     0.8350 H     1 <1>   0.0800 
 33 H       -0.4540    -1.5210    -0.6260 H     1 <1>   0.0800 
 34 H       -2.9930    -4.4370     0.5080 H     1 <1>   0.0800 
 35 H       -2.4910    -3.6780     1.9810 H     1 <1>   0.0800 
 36 H        0.0040    -2.7610     2.1120 H     1 <1>   0.0800 
 37 H        1.0100    -2.9810     0.7070 H     1 <1>   0.0800 
 38 H        1.4480    -4.7940     0.3750 H     1 <1>   0.4570 
 39 H       -2.9820    -7.5620    -1.2820 H     1 <1>   0.4000 
 40 H        0.5920    -8.4100    -1.5240 H     1 <1>   0.1500 
 41 H        3.2380    -6.0870    -1.2240 H     1 <1>   0.0800 
 42 H        2.9420    -7.7950    -1.1930 H     1 <1>   0.0800 
 43 H       -1.2520    -9.8800    -1.5530 H     1 <1>   0.0800 
 44 H       -1.8070    -9.1660    -3.0550 H     1 <1>   0.0800 
 45 H        3.3200    -6.0520     1.2720 H     1 <1>   0.0800 
 46 H        4.4470    -7.2140     0.6310 H     1 <1>   0.0800 
 47 H        2.9340    -7.7600     1.3010 H     1 <1>   0.0800 
 48 H       -2.9030   -11.7060    -0.6160 H     1 <1>   0.1500 
 49 H       -4.3070   -13.5000     0.1480 H     1 <1>   0.1500 
 50 H       -7.6350   -11.4230    -1.5210 H     1 <1>   0.1500 
 51 H       -9.1290   -13.1710    -0.6950 H     1 <1>   0.1500 
 52 H       -8.2410   -15.0740     0.5430 H     1 <1>   0.1500 
 53 H       -5.6940   -17.1700     2.1150 H     1 <1>   0.0800 
 54 H       -6.8680   -16.9910     0.8160 H     1 <1>   0.0800 
 55 H       -7.0740   -16.1000     2.3360 H     1 <1>   0.0800 
@<TRIPOS>BOND
  1   1   2  1   
  2   1   3  1   
  3   2   4  1   
  4   2  30  1   
  5   2  31  1   
  6   3   5  1   
  7   3  32  1   
  8   3  33  1   
  9   4   6  1   
 10   4  34  1   
 11   4  35  1   
 12   5   6  1   
 13   5  36  1   
 14   5  37  1   
 15   6   7  1   
 16   7   8  ar  
 17   7   9  ar  
 18   8  10  ar  
 19   9  11  ar  
 20   9  38  1   
 21  10  12  1   
 22  10  13  ar  
 23  11  13  ar  
 24  11  14  1   
 25  12  15  1   
 26  12  39  1   
 27  13  40  1   
 28  14  16  1   
 29  14  41  1   
 30  14  42  1   
 31  15  17  1   
 32  15  43  1   
 33  15  44  1   
 34  16  45  1   
 35  16  46  1   
 36  16  47  1   
 37  17  18  2   
 38  17  19  1   
 39  18  20  1   
 40  19  21  2   
 41  19  48  1   
 42  20  21  1   
 43  21  22  1   
 44  22  23  ar  
 45  22  24  ar  
 46  23  25  ar  
 47  23  49  1   
 48  24  26  ar  
 49  24  50  1   
 50  25  27  1   
 51  25  28  ar  
 52  26  28  ar  
 53  26  51  1   
 54  27  29  1   
 55  28  52  1   
 56  29  53  1   
 57  29  54  1   
 58  29  55  1   
@<TRIPOS>SUBSTRUCTURE
  1 ****  12 GROUP 4 **** **** 0

# MOE 2024.06 (io_trps.svl 2023.06)
