@<TRIPOS>MOLECULE
NONAME
60 63 1 0 0 
SMALL
USER_CHARGES


@<TRIPOS>ATOM
  1 O        0.3230    -0.1170     1.5320 O.2   1 <1>  -0.5700 
  2 C        1.1290    -0.6750     0.8110 C.2   1 <1>   0.5440 
  3 N        0.7880    -1.8750     0.2160 N.am  1 <1>  -0.6600 
  4 C        2.4250    -0.0590     0.6030 C.ar  1 <1>   0.0860 
  5 C        1.7730    -2.7730    -0.4510 C.3   1 <1>   0.1400 
  6 C       -0.5910    -2.4350     0.3180 C.3   1 <1>   0.1400 
  7 C        2.8530     0.3320    -0.6620 C.ar  1 <1>  -0.1500 
  8 C        3.2940     0.1640     1.6650 C.ar  1 <1>  -0.1500 
  9 C        1.8170    -4.1210     0.2720 C.3   1 <1>  -0.1600 
 10 C       -0.5520    -3.7810     1.0450 C.3   1 <1>  -0.1600 
 11 C        4.0980     0.9010    -0.8560 C.ar  1 <1>  -0.1500 
 12 C        4.5400     0.7330     1.4740 C.ar  1 <1>  -0.1500 
 13 C        0.4180    -4.7640     0.3660 C.3   1 <1>  -0.0190 
 14 C        4.9720     1.1120     0.2060 C.ar  1 <1>  -0.1440 
 15 C        0.4260    -6.1150     1.0960 C.2   1 <1>   0.5690 
 16 C        6.3540     1.7480    -0.0600 C.3   1 <1>   0.1430 
 17 O        1.2860    -6.3200     1.9240 O.2   1 <1>  -0.5700 
 18 N       -0.5320    -7.0450     0.8150 N.am  1 <1>  -0.6600 
 19 C        6.1670     3.1450    -0.6710 C.3   1 <1>  -0.2400 
 20 C        7.2020     1.9090     1.2130 C.3   1 <1>  -0.2400 
 21 C        7.1470     0.8660    -1.0360 C.3   1 <1>  -0.2400 
 22 C       -1.6400    -6.9220    -0.1740 C.3   1 <1>   0.2350 
 23 C       -0.6930    -8.3000     1.6020 C.3   1 <1>   0.2350 
 24 C       -2.2360    -8.3100    -0.3060 C.3   1 <1>  -0.2420 
 25 C       -1.6620    -9.1570     0.8050 C.3   1 <1>  -0.2420 
 26 C       -3.6270    -8.2350    -0.9480 C.2   1 <1>   0.9470 
 27 C       -1.3610    -9.4960    -0.6300 C.3   1 <1>  -0.2000 
 28 C       -2.3250   -10.2010     1.7040 C.2   1 <1>   0.9470 
 29 O       -3.9030    -8.9610    -1.9120 O.co2 1 <1>  -0.9000 
 30 O       -4.3860    -7.3150    -0.6090 O.co2 1 <1>  -0.9000 
 31 O       -2.0940   -11.4020     1.5100 O.co2 1 <1>  -0.9000 
 32 O       -2.9510    -9.8210     2.7030 O.co2 1 <1>  -0.9000 
 33 H        1.4780    -2.9150    -1.4760 H     1 <1>   0.0800 
 34 H        2.7590    -2.3430    -0.4420 H     1 <1>   0.0800 
 35 H       -1.2420    -1.7610     0.8480 H     1 <1>   0.0800 
 36 H       -0.9890    -2.5660    -0.6730 H     1 <1>   0.0800 
 37 H        2.1950     0.1870    -1.5000 H     1 <1>   0.1500 
 38 H        2.9780    -0.1160     2.6550 H     1 <1>   0.1500 
 39 H        2.4820    -4.7860    -0.2490 H     1 <1>   0.0800 
 40 H        2.2160    -3.9710     1.2610 H     1 <1>   0.0800 
 41 H       -0.2510    -3.6200     2.0660 H     1 <1>   0.0800 
 42 H       -1.5430    -4.1980     1.0640 H     1 <1>   0.0800 
 43 H        4.3810     1.1840    -1.8540 H     1 <1>   0.1500 
 44 H        5.1580     0.8730     2.3410 H     1 <1>   0.1500 
 45 H        0.0840    -4.9310    -0.6400 H     1 <1>   0.0800 
 46 H        7.1180     3.6210    -0.8300 H     1 <1>   0.0800 
 47 H        5.5820     3.7600    -0.0100 H     1 <1>   0.0800 
 48 H        5.6600     3.0910    -1.6170 H     1 <1>   0.0800 
 49 H        8.1530     2.3520     0.9810 H     1 <1>   0.0800 
 50 H        7.3830     0.9520     1.6690 H     1 <1>   0.0800 
 51 H        6.7030     2.5460     1.9210 H     1 <1>   0.0800 
 52 H        8.1270     1.2730    -1.2050 H     1 <1>   0.0800 
 53 H        6.6490     0.7920    -1.9850 H     1 <1>   0.0800 
 54 H        7.2520    -0.1250    -0.6310 H     1 <1>   0.0800 
 55 H       -2.3790    -6.2370     0.2060 H     1 <1>   0.0800 
 56 H       -1.2850    -6.5880    -1.1320 H     1 <1>   0.0800 
 57 H        0.2500    -8.8010     1.7300 H     1 <1>   0.0800 
 58 H       -1.1100    -8.0630     2.5660 H     1 <1>   0.0800 
 59 H       -0.3710    -9.3390    -1.0150 H     1 <1>   0.1000 
 60 H       -1.8290   -10.3760    -1.0390 H     1 <1>   0.1000 
@<TRIPOS>BOND
  1   1   2  2   
  2   2   3  am  
  3   2   4  1   
  4   3   5  1   
  5   3   6  1   
  6   4   7  ar  
  7   4   8  ar  
  8   5   9  1   
  9   5  33  1   
 10   5  34  1   
 11   6  10  1   
 12   6  35  1   
 13   6  36  1   
 14   7  11  ar  
 15   7  37  1   
 16   8  12  ar  
 17   8  38  1   
 18   9  13  1   
 19   9  39  1   
 20   9  40  1   
 21  10  13  1   
 22  10  41  1   
 23  10  42  1   
 24  11  14  ar  
 25  11  43  1   
 26  12  14  ar  
 27  12  44  1   
 28  13  15  1   
 29  13  45  1   
 30  14  16  1   
 31  15  17  2   
 32  15  18  am  
 33  16  19  1   
 34  16  20  1   
 35  16  21  1   
 36  18  22  1   
 37  18  23  1   
 38  19  46  1   
 39  19  47  1   
 40  19  48  1   
 41  20  49  1   
 42  20  50  1   
 43  20  51  1   
 44  21  52  1   
 45  21  53  1   
 46  21  54  1   
 47  22  24  1   
 48  22  55  1   
 49  22  56  1   
 50  23  25  1   
 51  23  57  1   
 52  23  58  1   
 53  24  25  1   
 54  24  26  1   
 55  24  27  1   
 56  25  27  1   
 57  25  28  1   
 58  26  29  ar  
 59  26  30  ar  
 60  27  59  1   
 61  27  60  1   
 62  28  31  ar  
 63  28  32  ar  
@<TRIPOS>SUBSTRUCTURE
  1 ****  13 GROUP 4 **** **** 0

# MOE 2024.06 (io_trps.svl 2023.06)
