@<TRIPOS>MOLECULE
NONAME
47 50 1 0 0 
SMALL
USER_CHARGES


@<TRIPOS>ATOM
  1 O       -3.3520    -1.4420    -2.5710 O.2   1 <1>  -0.5700 
  2 C       -3.0720    -1.4090    -1.3930 C.2   1 <1>   0.5690 
  3 N       -3.5580    -0.4370    -0.5570 N.am  1 <1>  -0.6600 
  4 C       -2.1000    -2.4540    -0.8720 C.3   1 <1>  -0.0190 
  5 C       -3.1390    -0.3570     0.8810 C.3   1 <1>   0.2200 
  6 C       -4.7350     0.3900    -0.9350 C.3   1 <1>   0.0600 
  7 C       -0.7830    -1.7900    -0.4440 C.3   1 <1>   0.1200 
  8 C       -2.6960    -3.3880     0.2020 C.3   1 <1>   0.2090 
  9 C       -1.6240    -0.0900     0.9830 C.3   1 <1>   0.1200 
 10 C       -3.5670    -1.5850     1.7280 C.3   1 <1>   0.2090 
 11 O       -0.8520    -1.2490     0.8400 O.3   1 <1>  -0.5600 
 12 N       -3.8770    -2.8110     0.9200 N.pl3 1 <1>  -0.8380 
 13 C       -5.1780    -3.1080     0.5400 C.ar  1 <1>   0.7200 
 14 N       -6.1510    -2.3510     1.0420 N.ar  1 <1>  -0.6200 
 15 N       -5.3480    -4.1220    -0.3020 N.ar  1 <1>  -0.6200 
 16 C       -7.3720    -2.6250     0.6570 C.ar  1 <1>   0.1670 
 17 C       -6.5710    -4.3790    -0.6860 C.ar  1 <1>   0.1670 
 18 C       -7.6510    -3.6520    -0.2240 C.ar  1 <1>  -0.1430 
 19 C       -8.4640    -1.7480     1.2520 C.3   1 <1>  -0.0170 
 20 C       -6.7180    -5.5260    -1.6700 C.3   1 <1>  -0.0970 
 21 C       -9.0820    -3.9590    -0.6690 C.3   1 <1>  -0.0170 
 22 C       -9.8010    -1.8550     0.5080 C.3   1 <1>  -0.1600 
 23 C      -10.1400    -3.3220     0.2390 C.3   1 <1>  -0.1600 
 24 H       -1.8510    -3.0770    -1.7110 H     1 <1>   0.0800 
 25 H       -3.6190     0.5030     1.3120 H     1 <1>   0.0800 
 26 H       -4.5130     1.4320    -0.7930 H     1 <1>   0.0800 
 27 H       -5.5780     0.1120    -0.3250 H     1 <1>   0.0800 
 28 H       -4.9970     0.2300    -1.9670 H     1 <1>   0.0800 
 29 H       -0.4940    -1.0180    -1.1380 H     1 <1>   0.0800 
 30 H       -0.0040    -2.5320    -0.4230 H     1 <1>   0.0800 
 31 H       -1.9410    -3.6330     0.9270 H     1 <1>   0.0800 
 32 H       -2.9670    -4.3160    -0.2700 H     1 <1>   0.0800 
 33 H       -1.4060     0.2990     1.9620 H     1 <1>   0.0800 
 34 H       -1.3120     0.6390     0.2550 H     1 <1>   0.0800 
 35 H       -4.4160    -1.3060     2.3250 H     1 <1>   0.0800 
 36 H       -2.7890    -1.8270     2.4310 H     1 <1>   0.0800 
 37 H       -8.5990    -2.0440     2.2770 H     1 <1>   0.0800 
 38 H       -8.1360    -0.7230     1.2480 H     1 <1>   0.0800 
 39 H       -7.4390    -5.2890    -2.4280 H     1 <1>   0.0800 
 40 H       -7.0210    -6.4130    -1.1470 H     1 <1>   0.0800 
 41 H       -5.7770    -5.7170    -2.1540 H     1 <1>   0.0800 
 42 H       -9.2100    -3.5850    -1.6700 H     1 <1>   0.0800 
 43 H       -9.2440    -5.0220    -0.6880 H     1 <1>   0.0800 
 44 H      -10.5770    -1.3960     1.0950 H     1 <1>   0.0800 
 45 H       -9.7310    -1.3260    -0.4270 H     1 <1>   0.0800 
 46 H      -11.1080    -3.3970    -0.2270 H     1 <1>   0.0800 
 47 H      -10.1780    -3.8580     1.1730 H     1 <1>   0.0800 
@<TRIPOS>BOND
  1   1   2  2   
  2   2   3  am  
  3   2   4  1   
  4   3   5  1   
  5   3   6  1   
  6   4   7  1   
  7   4   8  1   
  8   4  24  1   
  9   5   9  1   
 10   5  10  1   
 11   5  25  1   
 12   6  26  1   
 13   6  27  1   
 14   6  28  1   
 15   7  11  1   
 16   7  29  1   
 17   7  30  1   
 18   8  12  1   
 19   8  31  1   
 20   8  32  1   
 21   9  11  1   
 22   9  33  1   
 23   9  34  1   
 24  10  12  1   
 25  10  35  1   
 26  10  36  1   
 27  12  13  1   
 28  13  14  ar  
 29  13  15  ar  
 30  14  16  ar  
 31  15  17  ar  
 32  16  18  ar  
 33  16  19  1   
 34  17  18  ar  
 35  17  20  1   
 36  18  21  1   
 37  19  22  1   
 38  19  37  1   
 39  19  38  1   
 40  20  39  1   
 41  20  40  1   
 42  20  41  1   
 43  21  23  1   
 44  21  42  1   
 45  21  43  1   
 46  22  23  1   
 47  22  44  1   
 48  22  45  1   
 49  23  46  1   
 50  23  47  1   
@<TRIPOS>SUBSTRUCTURE
  1 ****  13 GROUP 4 **** **** 0

# MOE 2024.06 (io_trps.svl 2023.06)
