@<TRIPOS>MOLECULE
NONAME
48 51 1 0 0 
SMALL
USER_CHARGES


@<TRIPOS>ATOM
  1 S       -0.5280    -2.3540     1.1260 S.3   1 <1>  -0.0800 
  2 C       -2.2040    -2.3750     1.6380 C.2   1 <1>  -0.1100 
  3 C       -0.6560    -0.6780     0.6290 C.2   1 <1>  -0.1100 
  4 C       -2.7880    -1.1800     1.4200 C.2   1 <1>  -0.1810 
  5 C       -1.8980    -0.2090     0.8490 C.2   1 <1>  -0.1500 
  6 C       -4.2330    -0.8460     1.7250 C.3   1 <1>   0.5240 
  7 N       -4.9440    -0.6590     0.4350 N.4   1 <1>  -0.9590 
  8 C       -6.3090    -0.0710     0.6510 C.3   1 <1>   0.3430 
  9 C       -5.0130    -1.9360    -0.3370 C.3   1 <1>   0.3430 
 10 C       -7.0370     0.2130    -0.6750 C.3   1 <1>   0.1440 
 11 C       -5.6760    -1.6920    -1.6950 C.3   1 <1>  -0.1600 
 12 C       -8.4400     0.6600    -0.3470 C.ar  1 <1>   0.1670 
 13 C       -7.0710    -1.0560    -1.5520 C.3   1 <1>  -0.1600 
 14 C       -6.4660     1.4380    -1.4410 C.3   1 <1>  -0.1600 
 15 N       -9.2200     0.0600     0.5130 N.ar  1 <1>  -0.6200 
 16 C       -8.7910     1.7790    -1.0360 C.ar  1 <1>  -0.1430 
 17 C       -7.6790     2.2500    -1.9390 C.3   1 <1>  -0.0170 
 18 C      -10.4210     0.6280     0.6700 C.ar  1 <1>   0.7200 
 19 C      -10.0430     2.2920    -0.8090 C.ar  1 <1>   0.1600 
 20 N      -10.8620     1.7240     0.0450 N.ar  1 <1>  -0.6200 
 21 N      -11.2770     0.0290     1.5700 N.pl3 1 <1>  -0.8380 
 22 C      -11.2170    -1.4250     1.8810 C.3   1 <1>   0.1290 
 23 C      -12.4790     0.7390     2.0900 C.3   1 <1>   0.1290 
 24 H       -2.5650    -3.3030     2.0520 H     1 <1>   0.1500 
 25 H        0.2290    -0.2170     0.2250 H     1 <1>   0.1500 
 26 H       -2.2080     0.8000     0.6340 H     1 <1>   0.1500 
 27 H       -4.2740     0.0570     2.3130 H     1 <1>   0.0800 
 28 H       -4.6870    -1.6450     2.2890 H     1 <1>   0.0800 
 29 H       -4.3790    -0.0040    -0.1180 H     1 <1>   0.4500 
 30 H       -6.2400     0.8460     1.2130 H     1 <1>   0.0800 
 31 H       -6.9110    -0.7600     1.2220 H     1 <1>   0.0800 
 32 H       -5.5860    -2.6650     0.2140 H     1 <1>   0.0800 
 33 H       -4.0200    -2.3320    -0.4910 H     1 <1>   0.0800 
 34 H       -5.7720    -2.6340    -2.2080 H     1 <1>   0.0800 
 35 H       -5.0370    -1.0700    -2.2980 H     1 <1>   0.0800 
 36 H       -7.4750    -0.8250    -2.5230 H     1 <1>   0.0800 
 37 H       -7.7330    -1.7740    -1.0980 H     1 <1>   0.0800 
 38 H       -5.8250     1.1640    -2.2590 H     1 <1>   0.0800 
 39 H       -5.9090     2.0620    -0.7640 H     1 <1>   0.0800 
 40 H       -7.9160     2.0000    -2.9600 H     1 <1>   0.0800 
 41 H       -7.5150     3.3100    -1.8520 H     1 <1>   0.0800 
 42 H      -10.3780     3.1750    -1.3270 H     1 <1>   0.1500 
 43 H      -10.5960    -1.9440     1.1730 H     1 <1>   0.0800 
 44 H      -12.2040    -1.8500     1.8370 H     1 <1>   0.0800 
 45 H      -10.8150    -1.5650     2.8690 H     1 <1>   0.0800 
 46 H      -12.2880     1.7960     2.1630 H     1 <1>   0.0800 
 47 H      -12.7310     0.3710     3.0690 H     1 <1>   0.0800 
 48 H      -13.3080     0.5800     1.4230 H     1 <1>   0.0800 
@<TRIPOS>BOND
  1   1   2  1   
  2   1   3  1   
  3   2   4  2   
  4   2  24  1   
  5   3   5  2   
  6   3  25  1   
  7   4   5  1   
  8   4   6  1   
  9   5  26  1   
 10   6   7  1   
 11   6  27  1   
 12   6  28  1   
 13   7   8  1   
 14   7   9  1   
 15   7  29  1   
 16   8  10  1   
 17   8  30  1   
 18   8  31  1   
 19   9  11  1   
 20   9  32  1   
 21   9  33  1   
 22  10  12  1   
 23  10  13  1   
 24  10  14  1   
 25  11  13  1   
 26  11  34  1   
 27  11  35  1   
 28  12  15  ar  
 29  12  16  ar  
 30  13  36  1   
 31  13  37  1   
 32  14  17  1   
 33  14  38  1   
 34  14  39  1   
 35  15  18  ar  
 36  16  17  1   
 37  16  19  ar  
 38  17  40  1   
 39  17  41  1   
 40  18  20  ar  
 41  18  21  1   
 42  19  20  ar  
 43  19  42  1   
 44  21  22  1   
 45  21  23  1   
 46  22  43  1   
 47  22  44  1   
 48  22  45  1   
 49  23  46  1   
 50  23  47  1   
 51  23  48  1   
@<TRIPOS>SUBSTRUCTURE
  1 ****   8 GROUP 4 **** **** 0

# MOE 2024.06 (io_trps.svl 2023.06)
