@<TRIPOS>MOLECULE
NONAME
39 42 1 0 0 
SMALL
USER_CHARGES


@<TRIPOS>ATOM
  1 S        0.1590     0.4410    -1.6980 S.3   1 <1>  -0.0800 
  2 C       -0.9390     1.2140    -0.5650 C.2   1 <1>  -0.1400 
  3 C       -1.0150    -0.8280    -2.0200 C.2   1 <1>  -0.1100 
  4 C       -2.0910     0.5350    -0.4840 C.2   1 <1>  -0.1810 
  5 C       -0.5800     2.4870     0.1960 C.3   1 <1>   0.4600 
  6 C       -2.1410    -0.6350    -1.3050 C.2   1 <1>  -0.1500 
  7 C       -3.1900     1.0370     0.4250 C.3   1 <1>   0.0210 
  8 O       -1.6100     2.7550     1.1320 O.3   1 <1>  -0.5600 
  9 C       -0.4400     3.6840    -0.7510 C.3   1 <1>  -0.1600 
 10 C        0.7010     2.2930     1.0080 C.3   1 <1>  -0.1600 
 11 C       -2.9420     2.5260     0.7370 C.3   1 <1>   0.1200 
 12 C       -0.0550     4.9520     0.0090 C.3   1 <1>   0.2090 
 13 C        1.1040     3.5740     1.7390 C.3   1 <1>   0.2090 
 14 N        1.1940     4.7040     0.7720 N.pl3 1 <1>  -0.8380 
 15 C        2.4100     5.0740     0.2340 C.ar  1 <1>   0.4100 
 16 N        3.3170     4.1200     0.0550 N.ar  1 <1>  -0.6200 
 17 C        2.6450     6.4040    -0.1070 C.ar  1 <1>  -0.1500 
 18 C        4.4650     4.4950    -0.4820 C.ar  1 <1>   0.1600 
 19 C        3.8450     6.7780    -0.6650 C.ar  1 <1>  -0.1500 
 20 C        4.7940     5.7870    -0.8640 C.ar  1 <1>   0.0730 
 21 C        6.0700     6.0710    -1.4410 C.1   1 <1>   0.4840 
 22 N        7.0900     6.2900    -1.9030 N.1   1 <1>  -0.5570 
 23 H       -0.7330    -1.5940    -2.7190 H     1 <1>   0.1500 
 24 H       -3.0090    -1.2700    -1.3210 H     1 <1>   0.1500 
 25 H       -3.1960     0.4680     1.3370 H     1 <1>   0.0800 
 26 H       -4.1460     0.9280    -0.0540 H     1 <1>   0.0800 
 27 H       -1.3510     3.8380    -1.2960 H     1 <1>   0.0800 
 28 H        0.3310     3.4740    -1.4700 H     1 <1>   0.0800 
 29 H        1.5050     2.0120     0.3540 H     1 <1>   0.0800 
 30 H        0.5610     1.4950     1.7130 H     1 <1>   0.0800 
 31 H       -3.5810     2.8480     1.5400 H     1 <1>   0.0800 
 32 H       -3.1490     3.1290    -0.1290 H     1 <1>   0.0800 
 33 H       -0.8390     5.2270     0.6940 H     1 <1>   0.0800 
 34 H        0.0850     5.7600    -0.6880 H     1 <1>   0.0800 
 35 H        2.0510     3.4330     2.2310 H     1 <1>   0.0800 
 36 H        0.3700     3.8130     2.4900 H     1 <1>   0.0800 
 37 H        1.8760     7.1280     0.0820 H     1 <1>   0.1500 
 38 H        5.1960     3.7180    -0.6300 H     1 <1>   0.1500 
 39 H        4.0420     7.8020    -0.9340 H     1 <1>   0.1500 
@<TRIPOS>BOND
  1   1   2  1   
  2   1   3  1   
  3   2   4  2   
  4   2   5  1   
  5   3   6  2   
  6   3  23  1   
  7   4   6  1   
  8   4   7  1   
  9   5   8  1   
 10   5   9  1   
 11   5  10  1   
 12   6  24  1   
 13   7  11  1   
 14   7  25  1   
 15   7  26  1   
 16   8  11  1   
 17   9  12  1   
 18   9  27  1   
 19   9  28  1   
 20  10  13  1   
 21  10  29  1   
 22  10  30  1   
 23  11  31  1   
 24  11  32  1   
 25  12  14  1   
 26  12  33  1   
 27  12  34  1   
 28  13  14  1   
 29  13  35  1   
 30  13  36  1   
 31  14  15  1   
 32  15  16  ar  
 33  15  17  ar  
 34  16  18  ar  
 35  17  19  ar  
 36  17  37  1   
 37  18  20  ar  
 38  18  38  1   
 39  19  20  ar  
 40  19  39  1   
 41  20  21  1   
 42  21  22  3   
@<TRIPOS>SUBSTRUCTURE
  1 ****   9 GROUP 4 **** **** 0

# MOE 2024.06 (io_trps.svl 2023.06)
