@<TRIPOS>MOLECULE
NONAME
33 34 1 0 0 
SMALL
USER_CHARGES


@<TRIPOS>ATOM
  1 S        1.8330     0.0100     1.2180 S.3   1 <1>  -0.0800 
  2 C        1.3710     1.0740    -0.1030 C.2   1 <1>  -0.1400 
  3 C        1.6860    -1.4060     0.1920 C.2   1 <1>  -0.1100 
  4 C        1.1350     0.3570    -1.2190 C.2   1 <1>  -0.1500 
  5 C        1.3160     2.5650     0.1980 C.3   1 <1>   0.3800 
  6 C        1.3130    -1.0540    -1.0520 C.2   1 <1>  -0.1500 
  7 O        0.6050     3.2260    -0.8180 O.3   1 <1>  -0.5600 
  8 C        2.7330     3.1580     0.2860 C.3   1 <1>   0.2090 
  9 C       -0.7820     3.1360    -0.7110 C.3   1 <1>   0.0400 
 10 N        2.7100     4.6410     0.4100 N.pl3 1 <1>  -0.8690 
 11 C        3.8340     5.3860     0.4460 C.ar  1 <1>   0.7200 
 12 N        3.6910     6.6100    -0.0310 N.ar  1 <1>  -0.6200 
 13 N        4.9340     4.8230     0.9390 N.ar  1 <1>  -0.6200 
 14 C        4.7640     7.3720    -0.0090 C.ar  1 <1>   0.3930 
 15 C        6.0020     5.5920     0.9570 C.ar  1 <1>   0.1600 
 16 O        4.5610     8.6140    -0.5060 O.3   1 <1>  -0.3630 
 17 C        5.9660     6.8810     0.4920 C.ar  1 <1>   0.1900 
 18 C        5.5400     9.6280    -0.5610 C.3   1 <1>   0.0400 
 19 F        7.0740     7.5870     0.5410 F     1 <1>  -0.1900 
 20 H        1.8980    -2.3630     0.6350 H     1 <1>   0.1500 
 21 H        0.8400     0.7710    -2.1680 H     1 <1>   0.1500 
 22 H        0.8140     2.7350     1.1350 H     1 <1>   0.0800 
 23 H        1.1540    -1.7300    -1.8730 H     1 <1>   0.1500 
 24 H        3.2820     2.8820    -0.5980 H     1 <1>   0.0800 
 25 H        3.2400     2.7370     1.1360 H     1 <1>   0.0800 
 26 H       -1.2150     3.6480    -1.5520 H     1 <1>   0.0800 
 27 H       -1.0990     3.6090     0.2020 H     1 <1>   0.0800 
 28 H       -1.0800     2.1020    -0.7250 H     1 <1>   0.0800 
 29 H        1.9920     5.0740    -0.1770 H     1 <1>   0.4000 
 30 H        6.9190     5.1880     1.3480 H     1 <1>   0.1500 
 31 H        5.0860    10.5060    -0.9850 H     1 <1>   0.0800 
 32 H        6.3510     9.3000    -1.1870 H     1 <1>   0.0800 
 33 H        5.8820     9.8420     0.4360 H     1 <1>   0.0800 
@<TRIPOS>BOND
  1   1   2  1   
  2   1   3  1   
  3   2   4  2   
  4   2   5  1   
  5   3   6  2   
  6   3  20  1   
  7   4   6  1   
  8   4  21  1   
  9   5   7  1   
 10   5   8  1   
 11   5  22  1   
 12   6  23  1   
 13   7   9  1   
 14   8  10  1   
 15   8  24  1   
 16   8  25  1   
 17   9  26  1   
 18   9  27  1   
 19   9  28  1   
 20  10  11  1   
 21  10  29  1   
 22  11  12  ar  
 23  11  13  ar  
 24  12  14  ar  
 25  13  15  ar  
 26  14  16  1   
 27  14  17  ar  
 28  15  17  ar  
 29  15  30  1   
 30  16  18  1   
 31  17  19  1   
 32  18  31  1   
 33  18  32  1   
 34  18  33  1   
@<TRIPOS>SUBSTRUCTURE
  1 ****  10 GROUP 4 **** **** 0

# MOE 2024.06 (io_trps.svl 2023.06)
