@<TRIPOS>MOLECULE
NONAME
45 46 1 0 0 
SMALL
USER_CHARGES


@<TRIPOS>ATOM
  1 S        0.5540     0.0910     0.0630 S.o2  1 <1>   1.3330 
  2 O        0.7910    -0.5020     1.3600 O.2   1 <1>  -0.6500 
  3 O        0.2890    -0.7650    -1.0720 O.2   1 <1>  -0.6500 
  4 N       -0.7340     1.1850     0.2210 N.am  1 <1>  -0.8490 
  5 C        1.9360     1.1480    -0.3620 C.3   1 <1>  -0.0550 
  6 C       -0.7860     1.8390     1.5320 C.3   1 <1>   0.1160 
  7 C       -2.0280     0.5640    -0.0790 C.3   1 <1>   0.1160 
  8 C        3.2430     0.3660    -0.6070 C.3   1 <1>  -0.0800 
  9 C        4.4050     1.2050    -1.1160 C.3   1 <1>   0.2200 
 10 C        3.8240    -0.3100     0.6440 C.3   1 <1>   0.1200 
 11 N        4.4580     2.5100    -0.4160 N.am  1 <1>  -0.7300 
 12 C        5.5830     0.3590    -0.6560 C.3   1 <1>   0.1200 
 13 O        5.2080    -0.1140     0.6000 O.3   1 <1>  -0.5600 
 14 C        4.0860     3.7120    -0.9430 C.2   1 <1>   0.5440 
 15 O        3.5930     3.7210    -2.0520 O.2   1 <1>  -0.5700 
 16 C        4.2110     4.9380    -0.1720 C.ar  1 <1>   0.0860 
 17 C        5.3660     5.3070     0.5390 C.ar  1 <1>  -0.1440 
 18 C        3.1150     5.7990    -0.1280 C.ar  1 <1>  -0.1500 
 19 C        5.3830     6.4760     1.2870 C.ar  1 <1>  -0.1500 
 20 C        6.6380     4.4670     0.5080 C.3   1 <1>  -0.0970 
 21 C        3.1480     6.9640     0.6130 C.ar  1 <1>   0.0820 
 22 C        4.2780     7.3040     1.3290 C.ar  1 <1>  -0.1500 
 23 O        2.0830     7.7790     0.6420 O.3   1 <1>  -0.5330 
 24 H        1.6910     1.6910    -1.2550 H     1 <1>   0.0800 
 25 H        2.0850     1.8630     0.4220 H     1 <1>   0.0800 
 26 H       -1.5650     2.5820     1.5440 H     1 <1>   0.0800 
 27 H        0.1500     2.3270     1.7410 H     1 <1>   0.0800 
 28 H       -0.9790     1.1150     2.3070 H     1 <1>   0.0800 
 29 H       -2.8200     1.2860     0.0150 H     1 <1>   0.0800 
 30 H       -2.2140    -0.2580     0.5930 H     1 <1>   0.0800 
 31 H       -2.0320     0.1910    -1.0900 H     1 <1>   0.0800 
 32 H        3.0460    -0.4040    -1.3330 H     1 <1>   0.0800 
 33 H        4.3880     1.3420    -2.1850 H     1 <1>   0.0800 
 34 H        3.6200    -1.3680     0.6560 H     1 <1>   0.0800 
 35 H        3.4590     0.1370     1.5530 H     1 <1>   0.0800 
 36 H        4.8070     2.4560     0.5440 H     1 <1>   0.3700 
 37 H        6.4970     0.9210    -0.5790 H     1 <1>   0.0800 
 38 H        5.7230    -0.4890    -1.3040 H     1 <1>   0.0800 
 39 H        2.2340     5.5410    -0.6870 H     1 <1>   0.1500 
 40 H        6.2630     6.7570     1.8400 H     1 <1>   0.1500 
 41 H        7.4910     5.0550     0.7960 H     1 <1>   0.0800 
 42 H        6.8190     4.0920    -0.4840 H     1 <1>   0.0800 
 43 H        6.5550     3.6380     1.1880 H     1 <1>   0.0800 
 44 H        4.2880     8.2110     1.9070 H     1 <1>   0.1500 
 45 H        1.3610     7.4880     0.0570 H     1 <1>   0.4500 
@<TRIPOS>BOND
  1   1   2  2   
  2   1   3  2   
  3   1   4  am  
  4   1   5  1   
  5   4   6  1   
  6   4   7  1   
  7   5   8  1   
  8   5  24  1   
  9   5  25  1   
 10   6  26  1   
 11   6  27  1   
 12   6  28  1   
 13   7  29  1   
 14   7  30  1   
 15   7  31  1   
 16   8   9  1   
 17   8  10  1   
 18   8  32  1   
 19   9  11  1   
 20   9  12  1   
 21   9  33  1   
 22  10  13  1   
 23  10  34  1   
 24  10  35  1   
 25  11  14  am  
 26  11  36  1   
 27  12  13  1   
 28  12  37  1   
 29  12  38  1   
 30  14  15  2   
 31  14  16  1   
 32  16  17  ar  
 33  16  18  ar  
 34  17  19  ar  
 35  17  20  1   
 36  18  21  ar  
 37  18  39  1   
 38  19  22  ar  
 39  19  40  1   
 40  20  41  1   
 41  20  42  1   
 42  20  43  1   
 43  21  22  ar  
 44  21  23  1   
 45  22  44  1   
 46  23  45  1   
@<TRIPOS>SUBSTRUCTURE
  1 ****  11 GROUP 4 **** **** 0

# MOE 2024.06 (io_trps.svl 2023.06)
