@<TRIPOS>MOLECULE
NONAME
46 48 1 0 0 
SMALL
USER_CHARGES


@<TRIPOS>ATOM
  1 F        0.8030     1.8640     1.2640 F     1 <1>  -0.1900 
  2 C        2.0260     2.2850     1.4410 C.ar  1 <1>   0.1900 
  3 C        2.6470     2.0870     2.6610 C.ar  1 <1>   0.1600 
  4 C        2.6680     2.9220     0.4060 C.ar  1 <1>  -0.1500 
  5 N        3.8870     2.4850     2.9160 N.ar  1 <1>  -0.6200 
  6 C        3.9670     3.3570     0.6470 C.ar  1 <1>   0.0860 
  7 C        4.5050     3.0930     1.9110 C.ar  1 <1>   0.1600 
  8 C        4.7510     4.0560    -0.3520 C.2   1 <1>   0.5440 
  9 O        5.9670     4.0470    -0.3100 O.2   1 <1>  -0.5700 
 10 N        4.1730     4.8150    -1.3430 N.am  1 <1>  -0.6600 
 11 C        4.7920     4.8940    -2.7090 C.3   1 <1>   0.1400 
 12 C        3.2570     5.9340    -1.0010 C.3   1 <1>   0.1400 
 13 C        6.0270     5.8220    -2.7820 C.3   1 <1>   0.3430 
 14 C        4.0510     7.1130    -0.4200 C.3   1 <1>  -0.1600 
 15 N        6.2190     6.6080    -1.5270 N.4   1 <1>  -0.9590 
 16 C        5.1760     7.6510    -1.3110 C.3   1 <1>   0.3430 
 17 C        7.6160     7.1190    -1.3480 C.3   1 <1>   0.3430 
 18 C        8.0470     7.1650     0.1320 C.3   1 <1>   0.2000 
 19 O        7.0730     7.8310     0.8970 O.3   1 <1>  -0.5600 
 20 C        9.4070     7.8730     0.2950 C.3   1 <1>   0.1200 
 21 C        7.4070     7.9310     2.2560 C.3   1 <1>   0.1200 
 22 O        9.7380     7.9610     1.6470 O.3   1 <1>  -0.5600 
 23 C        8.7750     8.6160     2.4220 C.3   1 <1>   0.1200 
 24 H        2.1070     1.5850     3.4460 H     1 <1>   0.1500 
 25 H        2.1810     3.0650    -0.5420 H     1 <1>   0.1500 
 26 H        5.5180     3.4100     2.1010 H     1 <1>   0.1500 
 27 H        4.0550     5.2250    -3.4190 H     1 <1>   0.0800 
 28 H        5.0930     3.9050    -3.0110 H     1 <1>   0.0800 
 29 H        2.5320     5.6040    -0.2760 H     1 <1>   0.0800 
 30 H        2.7170     6.2450    -1.8800 H     1 <1>   0.0800 
 31 H        5.9430     6.4800    -3.6310 H     1 <1>   0.0800 
 32 H        6.8920     5.1980    -2.9380 H     1 <1>   0.0800 
 33 H        4.4570     6.8420     0.5380 H     1 <1>   0.0800 
 34 H        3.3610     7.9180    -0.2410 H     1 <1>   0.0800 
 35 H        6.0730     5.8980    -0.7790 H     1 <1>   0.4500 
 36 H        5.6180     8.5020    -0.8170 H     1 <1>   0.0800 
 37 H        4.7790     7.9840    -2.2560 H     1 <1>   0.0800 
 38 H        7.7040     8.1030    -1.7770 H     1 <1>   0.0800 
 39 H        8.3030     6.4720    -1.8690 H     1 <1>   0.0800 
 40 H        8.1310     6.1560     0.5010 H     1 <1>   0.0800 
 41 H        9.3790     8.8670    -0.1150 H     1 <1>   0.0800 
 42 H       10.1870     7.3150    -0.1920 H     1 <1>   0.0800 
 43 H        7.4290     6.9430     2.6840 H     1 <1>   0.0800 
 44 H        6.6410     8.5040     2.7480 H     1 <1>   0.0800 
 45 H        9.0940     8.5750     3.4490 H     1 <1>   0.0800 
 46 H        8.7260     9.6470     2.1170 H     1 <1>   0.0800 
@<TRIPOS>BOND
  1   1   2  1   
  2   2   3  ar  
  3   2   4  ar  
  4   3   5  ar  
  5   3  24  1   
  6   4   6  ar  
  7   4  25  1   
  8   5   7  ar  
  9   6   7  ar  
 10   6   8  1   
 11   7  26  1   
 12   8   9  2   
 13   8  10  am  
 14  10  11  1   
 15  10  12  1   
 16  11  13  1   
 17  11  27  1   
 18  11  28  1   
 19  12  14  1   
 20  12  29  1   
 21  12  30  1   
 22  13  15  1   
 23  13  31  1   
 24  13  32  1   
 25  14  16  1   
 26  14  33  1   
 27  14  34  1   
 28  15  16  1   
 29  15  17  1   
 30  15  35  1   
 31  16  36  1   
 32  16  37  1   
 33  17  18  1   
 34  17  38  1   
 35  17  39  1   
 36  18  19  1   
 37  18  20  1   
 38  18  40  1   
 39  19  21  1   
 40  20  22  1   
 41  20  41  1   
 42  20  42  1   
 43  21  23  1   
 44  21  43  1   
 45  21  44  1   
 46  22  23  1   
 47  23  45  1   
 48  23  46  1   
@<TRIPOS>SUBSTRUCTURE
  1 ****   8 GROUP 4 **** **** 0

# MOE 2024.06 (io_trps.svl 2023.06)
