@<TRIPOS>MOLECULE
NONAME
52 55 1 0 0 
SMALL
USER_CHARGES


@<TRIPOS>ATOM
  1 O        1.2320     0.7280    -2.0990 O.2   1 <1>  -0.5700 
  2 C        1.3620    -0.3330    -1.5320 C.2   1 <1>   0.5690 
  3 N        2.0850    -0.4030    -0.3640 N.am  1 <1>  -0.6600 
  4 C        0.7350    -1.5550    -2.1850 C.3   1 <1>   0.0820 
  5 C        2.3350     0.8340     0.4480 C.3   1 <1>   0.1400 
  6 C        2.6400    -1.6600     0.2230 C.3   1 <1>   0.1400 
  7 C       -0.2230    -2.2600    -1.2450 C.2   1 <1>   0.0460 
  8 C        3.8270     1.2450     0.5910 C.3   1 <1>   0.4230 
  9 C        4.1840    -1.6380     0.2370 C.3   1 <1>  -0.0800 
 10 N       -0.0010    -3.5270    -0.8550 N.2   1 <1>  -0.5650 
 11 C       -1.3500    -1.8070    -0.6800 C.2   1 <1>  -0.0400 
 12 N        4.7480     0.7820    -0.5240 N.4   1 <1>  -0.9590 
 13 C        4.3900     0.8710     1.9800 C.3   1 <1>   0.1200 
 14 C        4.7870    -1.4460     1.6370 C.3   1 <1>   0.1200 
 15 C        4.7750    -0.6950    -0.8260 C.3   1 <1>   0.3430 
 16 C       -1.0060    -3.7910    -0.0740 C.2   1 <1>   0.4250 
 17 O       -1.8320    -2.7670     0.0530 O.3   1 <1>  -0.2800 
 18 C       -2.0890    -0.4860    -0.7460 C.3   1 <1>  -0.0600 
 19 C        4.4280     1.5310    -1.7810 C.3   1 <1>   0.2630 
 20 O        4.1220    -0.4480     2.3360 O.3   1 <1>  -0.5600 
 21 C       -1.2760    -5.0320     0.6230 C.ar  1 <1>   0.0530 
 22 C       -2.3370    -5.1540     1.5240 C.ar  1 <1>  -0.1500 
 23 C       -0.4820    -6.1620     0.4190 C.ar  1 <1>  -0.1500 
 24 C       -2.5910    -6.3400     2.1880 C.ar  1 <1>  -0.1500 
 25 C       -0.7300    -7.3520     1.0790 C.ar  1 <1>  -0.1500 
 26 C       -1.7860    -7.4430     1.9660 C.ar  1 <1>  -0.1500 
 27 H        0.1890    -1.2470    -3.0580 H     1 <1>   0.0800 
 28 H        1.5050    -2.2300    -2.5040 H     1 <1>   0.0800 
 29 H        1.8060     1.6640     0.0130 H     1 <1>   0.0800 
 30 H        1.9070     0.6940     1.4260 H     1 <1>   0.0800 
 31 H        2.2480    -1.7990     1.2180 H     1 <1>   0.0800 
 32 H        2.3250    -2.5080    -0.3550 H     1 <1>   0.0800 
 33 H        3.8370     2.3220     0.5770 H     1 <1>   0.0800 
 34 H        4.4880    -2.6260    -0.0610 H     1 <1>   0.0800 
 35 H        5.6990     1.0440    -0.2390 H     1 <1>   0.4500 
 36 H        3.9100     1.4850     2.7230 H     1 <1>   0.0800 
 37 H        5.4490     1.0470     2.0420 H     1 <1>   0.0800 
 38 H        5.8400    -1.2230     1.6040 H     1 <1>   0.0800 
 39 H        4.6550    -2.3520     2.2060 H     1 <1>   0.0800 
 40 H        4.2310    -0.8700    -1.7400 H     1 <1>   0.0800 
 41 H        5.7960    -0.9870    -1.0100 H     1 <1>   0.0800 
 42 H       -1.5810     0.2020    -1.3970 H     1 <1>   0.0800 
 43 H       -2.1530    -0.0560     0.2360 H     1 <1>   0.0800 
 44 H       -3.0840    -0.6460    -1.1200 H     1 <1>   0.0800 
 45 H        3.4360     1.2850    -2.1220 H     1 <1>   0.0800 
 46 H        5.1290     1.2780    -2.5600 H     1 <1>   0.0800 
 47 H        4.4750     2.5950    -1.6110 H     1 <1>   0.0800 
 48 H       -2.9730    -4.3060     1.7090 H     1 <1>   0.1500 
 49 H        0.3410    -6.1040    -0.2710 H     1 <1>   0.1500 
 50 H       -3.4140    -6.4070     2.8770 H     1 <1>   0.1500 
 51 H       -0.1020    -8.2080     0.9020 H     1 <1>   0.1500 
 52 H       -1.9820    -8.3680     2.4810 H     1 <1>   0.1500 
@<TRIPOS>BOND
  1   1   2  2   
  2   2   3  am  
  3   2   4  1   
  4   3   5  1   
  5   3   6  1   
  6   4   7  1   
  7   4  27  1   
  8   4  28  1   
  9   5   8  1   
 10   5  29  1   
 11   5  30  1   
 12   6   9  1   
 13   6  31  1   
 14   6  32  1   
 15   7  10  1   
 16   7  11  2   
 17   8  12  1   
 18   8  13  1   
 19   8  33  1   
 20   9  14  1   
 21   9  15  1   
 22   9  34  1   
 23  10  16  2   
 24  11  17  1   
 25  11  18  1   
 26  12  15  1   
 27  12  19  1   
 28  12  35  1   
 29  13  20  1   
 30  13  36  1   
 31  13  37  1   
 32  14  20  1   
 33  14  38  1   
 34  14  39  1   
 35  15  40  1   
 36  15  41  1   
 37  16  17  1   
 38  16  21  1   
 39  18  42  1   
 40  18  43  1   
 41  18  44  1   
 42  19  45  1   
 43  19  46  1   
 44  19  47  1   
 45  21  22  ar  
 46  21  23  ar  
 47  22  24  ar  
 48  22  48  1   
 49  23  25  ar  
 50  23  49  1   
 51  24  26  ar  
 52  24  50  1   
 53  25  26  ar  
 54  25  51  1   
 55  26  52  1   
@<TRIPOS>SUBSTRUCTURE
  1 ****   6 GROUP 4 **** **** 0

# MOE 2024.06 (io_trps.svl 2023.06)
