@<TRIPOS>MOLECULE
NONAME
39 41 1 0 0 
SMALL
USER_CHARGES


@<TRIPOS>ATOM
  1 O       -0.7340    -0.5770    -0.0350 O.co2 1 <1>  -0.9000 
  2 C       -0.6810    -1.8160     0.0010 C.2   1 <1>   1.0330 
  3 O       -1.6870    -2.4590    -0.3600 O.co2 1 <1>  -0.9000 
  4 C        0.5040    -2.5030     0.4220 C.2   1 <1>  -0.2330 
  5 C        0.5200    -3.8220     0.8710 C.2   1 <1>   0.3720 
  6 C        1.8120    -2.1330     0.4940 C.2   1 <1>   0.0870 
  7 N        1.7080    -4.2080     1.1730 N.2   1 <1>  -0.4100 
  8 N       -0.5980    -4.6340     0.9640 N.pl3 1 <1>  -0.8520 
  9 O        2.4730    -3.1750     0.9480 O.3   1 <1>  -0.0190 
 10 C        2.5510    -0.9330     0.1720 C.ar  1 <1>   0.0530 
 11 C       -0.5020    -5.8950     0.1810 C.3   1 <1>   0.2090 
 12 C        2.1590    -0.0640    -0.8460 C.ar  1 <1>  -0.1500 
 13 C        3.7180    -0.6100     0.8680 C.ar  1 <1>  -0.1500 
 14 C       -1.8630    -6.5360    -0.2040 C.3   1 <1>   0.2800 
 15 C        2.8900     1.0680    -1.1550 C.ar  1 <1>  -0.1500 
 16 C        4.4570     0.5190     0.5640 C.ar  1 <1>  -0.1500 
 17 O       -2.4880    -7.0720     0.9290 O.3   1 <1>  -0.5600 
 18 C       -1.6660    -7.7210    -1.1600 C.3   1 <1>  -0.1600 
 19 C       -2.8490    -5.5210    -0.7950 C.3   1 <1>  -0.2400 
 20 C        4.0440     1.3630    -0.4510 C.ar  1 <1>  -0.1500 
 21 C       -2.7270    -8.4370     0.8160 C.3   1 <1>   0.1200 
 22 C       -2.6660    -8.7480    -0.6690 C.3   1 <1>  -0.1600 
 23 H       -1.3920    -4.0720     0.5910 H     1 <1>   0.4000 
 24 H        0.0760    -6.6070     0.7430 H     1 <1>   0.0800 
 25 H        0.0340    -5.6820    -0.7270 H     1 <1>   0.0800 
 26 H        1.2630    -0.2780    -1.4010 H     1 <1>   0.1500 
 27 H        4.0450    -1.2570     1.6620 H     1 <1>   0.1500 
 28 H        2.5520     1.7190    -1.9420 H     1 <1>   0.1500 
 29 H        5.3510     0.7420     1.1180 H     1 <1>   0.1500 
 30 H       -0.6700    -8.1130    -1.0580 H     1 <1>   0.0800 
 31 H       -1.8240    -7.4500    -2.1890 H     1 <1>   0.0800 
 32 H       -3.1110    -4.7830    -0.0570 H     1 <1>   0.0800 
 33 H       -3.7470    -6.0070    -1.1270 H     1 <1>   0.0800 
 34 H       -2.4030    -5.0080    -1.6280 H     1 <1>   0.0800 
 35 H        4.6120     2.2440    -0.6910 H     1 <1>   0.1500 
 36 H       -3.6850    -8.6640     1.2490 H     1 <1>   0.0800 
 37 H       -1.9460    -8.9490     1.3520 H     1 <1>   0.0800 
 38 H       -2.3580    -9.7600    -0.8600 H     1 <1>   0.0800 
 39 H       -3.6330    -8.5760    -1.1080 H     1 <1>   0.0800 
@<TRIPOS>BOND
  1   1   2  ar  
  2   2   3  ar  
  3   2   4  1   
  4   4   5  1   
  5   4   6  2   
  6   5   7  2   
  7   5   8  1   
  8   6   9  1   
  9   6  10  1   
 10   7   9  1   
 11   8  11  1   
 12   8  23  1   
 13  10  12  ar  
 14  10  13  ar  
 15  11  14  1   
 16  11  24  1   
 17  11  25  1   
 18  12  15  ar  
 19  12  26  1   
 20  13  16  ar  
 21  13  27  1   
 22  14  17  1   
 23  14  18  1   
 24  14  19  1   
 25  15  20  ar  
 26  15  28  1   
 27  16  20  ar  
 28  16  29  1   
 29  17  21  1   
 30  18  22  1   
 31  18  30  1   
 32  18  31  1   
 33  19  32  1   
 34  19  33  1   
 35  19  34  1   
 36  20  35  1   
 37  21  22  1   
 38  21  36  1   
 39  21  37  1   
 40  22  38  1   
 41  22  39  1   
@<TRIPOS>SUBSTRUCTURE
  1 ****   5 GROUP 4 **** **** 0

# MOE 2024.06 (io_trps.svl 2023.06)
