@<TRIPOS>MOLECULE
NONAME
54 56 1 0 0 
SMALL
USER_CHARGES


@<TRIPOS>ATOM
  1 S        0.2380     0.2690     0.7420 S.3   1 <1>  -0.0800 
  2 C        1.4690     0.9920    -0.2990 C.2   1 <1>  -0.0450 
  3 C        0.4100    -1.3010    -0.0130 C.2   1 <1>  -0.1400 
  4 C        1.7890     2.3890    -0.1230 C.2   1 <1>   0.7150 
  5 C        1.9290     0.0350    -1.1470 C.2   1 <1>  -0.1500 
  6 C        1.3380    -1.2520    -0.9850 C.2   1 <1>  -0.1500 
  7 C       -0.4650    -2.4220     0.5070 C.3   1 <1>  -0.0600 
  8 O        0.9190     3.1760     0.2070 O.2   1 <1>  -0.5700 
  9 N        3.0660     2.8760    -0.3290 N.am  1 <1>  -0.6600 
 10 C        4.2920     2.0340    -0.1580 C.3   1 <1>   0.1400 
 11 C        3.2810     4.3260    -0.6020 C.3   1 <1>   0.1400 
 12 C        5.2040     2.5430     0.9670 C.3   1 <1>   0.1400 
 13 C        3.6190     5.0680     0.6970 C.3   1 <1>  -0.1600 
 14 N        5.8300     3.8500     0.6010 N.am  1 <1>  -0.6600 
 15 C        5.1020     5.0530     1.0980 C.3   1 <1>   0.1400 
 16 C        6.9580     3.8520    -0.1830 C.2   1 <1>   0.5690 
 17 O        7.4480     2.8230    -0.5820 O.2   1 <1>  -0.5700 
 18 C        7.6670     5.1330    -0.5840 C.3   1 <1>  -0.0990 
 19 C        8.6070     5.6140     0.5300 C.3   1 <1>  -0.0220 
 20 C        9.4430     6.8100     0.0640 C.2   1 <1>  -0.1240 
 21 C        9.0160     8.0960     0.2210 C.2   1 <1>  -0.0290 
 22 C       10.7150     6.5990    -0.5620 C.2   1 <1>   0.3750 
 23 N        9.8440     9.0830    -0.2220 N.am  1 <1>  -0.5390 
 24 C        7.7120     8.5840     0.8340 C.3   1 <1>  -0.1020 
 25 N       11.4720     7.5510    -0.9760 N.2   1 <1>  -0.6610 
 26 C       11.2610     5.1970    -0.7720 C.3   1 <1>  -0.1790 
 27 C       11.0430     8.8340    -0.8090 C.2   1 <1>   0.8410 
 28 O       11.7180     9.7740    -1.1780 O.2   1 <1>  -0.5700 
 29 H        2.6760     0.2010    -1.9030 H     1 <1>   0.1500 
 30 H        1.6330    -2.0800    -1.6060 H     1 <1>   0.1500 
 31 H       -0.2650    -2.5880     1.5500 H     1 <1>   0.0800 
 32 H       -0.2700    -3.3290    -0.0350 H     1 <1>   0.0800 
 33 H       -1.5010    -2.1610     0.3870 H     1 <1>   0.0800 
 34 H        4.8430     2.0050    -1.0820 H     1 <1>   0.0800 
 35 H        4.0150     1.0250     0.0890 H     1 <1>   0.0800 
 36 H        2.3780     4.7410    -1.0170 H     1 <1>   0.0800 
 37 H        4.0610     4.4520    -1.3340 H     1 <1>   0.0800 
 38 H        5.9810     1.8170     1.1370 H     1 <1>   0.0800 
 39 H        4.6430     2.6360     1.8810 H     1 <1>   0.0800 
 40 H        3.0210     4.6680     1.4970 H     1 <1>   0.0800 
 41 H        3.3230     6.0950     0.5860 H     1 <1>   0.0800 
 42 H        5.1790     5.0880     2.1720 H     1 <1>   0.0800 
 43 H        5.5590     5.9460     0.7190 H     1 <1>   0.0800 
 44 H        6.9610     5.8940    -0.8520 H     1 <1>   0.0800 
 45 H        8.2430     4.9260    -1.4680 H     1 <1>   0.0800 
 46 H        9.2420     4.8020     0.8370 H     1 <1>   0.0800 
 47 H        8.0340     5.8730     1.4010 H     1 <1>   0.0800 
 48 H        9.6290    10.0750    -0.1460 H     1 <1>   0.3700 
 49 H        7.2240     9.2600     0.1560 H     1 <1>   0.0800 
 50 H        7.9180     9.1080     1.7510 H     1 <1>   0.0800 
 51 H        7.0320     7.7850     1.0460 H     1 <1>   0.0800 
 52 H       10.5590     4.5900    -1.3110 H     1 <1>   0.0800 
 53 H       11.4800     4.7420     0.1760 H     1 <1>   0.0800 
 54 H       12.1730     5.2340    -1.3420 H     1 <1>   0.0800 
@<TRIPOS>BOND
  1   1   2  1   
  2   1   3  1   
  3   2   4  1   
  4   2   5  2   
  5   3   6  2   
  6   3   7  1   
  7   4   8  2   
  8   4   9  am  
  9   5   6  1   
 10   5  29  1   
 11   6  30  1   
 12   7  31  1   
 13   7  32  1   
 14   7  33  1   
 15   9  10  1   
 16   9  11  1   
 17  10  12  1   
 18  10  34  1   
 19  10  35  1   
 20  11  13  1   
 21  11  36  1   
 22  11  37  1   
 23  12  14  1   
 24  12  38  1   
 25  12  39  1   
 26  13  15  1   
 27  13  40  1   
 28  13  41  1   
 29  14  15  1   
 30  14  16  am  
 31  15  42  1   
 32  15  43  1   
 33  16  17  2   
 34  16  18  1   
 35  18  19  1   
 36  18  44  1   
 37  18  45  1   
 38  19  20  1   
 39  19  46  1   
 40  19  47  1   
 41  20  21  2   
 42  20  22  1   
 43  21  23  1   
 44  21  24  1   
 45  22  25  2   
 46  22  26  1   
 47  23  27  am  
 48  23  48  1   
 49  24  49  1   
 50  24  50  1   
 51  24  51  1   
 52  25  27  1   
 53  26  52  1   
 54  26  53  1   
 55  26  54  1   
 56  27  28  2   
@<TRIPOS>SUBSTRUCTURE
  1 ****  14 GROUP 4 **** **** 0

# MOE 2024.06 (io_trps.svl 2023.06)
