@<TRIPOS>MOLECULE
NONAME
46 47 1 0 0 
SMALL
USER_CHARGES


@<TRIPOS>ATOM
  1 O       -0.0540     1.2970    -0.7820 O.3   1 <1>  -0.6800 
  2 C       -0.6690     2.5450    -0.9320 C.3   1 <1>   0.2000 
  3 C       -1.4290     2.9810     0.3640 C.3   1 <1>   0.0000 
  4 C        0.4530     3.5510    -1.2500 C.3   1 <1>   0.3430 
  5 C       -0.4810     3.7900     1.3030 C.3   1 <1>  -0.1600 
  6 C       -1.9610     1.7200     1.1080 C.3   1 <1>   0.1200 
  7 C       -2.6580     3.8640    -0.0170 C.3   1 <1>  -0.1600 
  8 N        1.5290     3.5020    -0.1960 N.4   1 <1>  -0.9590 
  9 C        0.9880     3.3580     1.2000 C.3   1 <1>   0.3430 
 10 O       -2.7840     2.0500     2.1760 O.3   1 <1>  -0.6800 
 11 C       -2.4170     5.0620    -0.9590 C.3   1 <1>  -0.1600 
 12 C        2.5200     4.6140    -0.3360 C.3   1 <1>   0.4860 
 13 C       -3.7090     5.8590    -1.1540 C.3   1 <1>  -0.2400 
 14 C        1.8380     5.9700    -0.1990 C.ar  1 <1>  -0.1440 
 15 C        1.6950     6.5680     1.0450 C.ar  1 <1>  -0.1500 
 16 C        1.3510     6.6280    -1.3200 C.ar  1 <1>  -0.1500 
 17 C        1.0420     7.7820     1.1670 C.ar  1 <1>  -0.1500 
 18 C        0.6990     7.8420    -1.1910 C.ar  1 <1>  -0.1500 
 19 C        0.5250     8.4330     0.0540 C.ar  1 <1>   0.0730 
 20 C       -0.1710     9.6820     0.1860 C.1   1 <1>   0.4840 
 21 N       -0.7350    10.6660     0.2910 N.1   1 <1>  -0.5570 
 22 H       -0.7080     0.5710    -0.8750 H     1 <1>   0.4000 
 23 H       -1.3500     2.4710    -1.7640 H     1 <1>   0.0800 
 24 H        0.0260     4.5360    -1.2910 H     1 <1>   0.0800 
 25 H        0.8690     3.3250    -2.2180 H     1 <1>   0.0800 
 26 H       -0.7950     3.6940     2.3260 H     1 <1>   0.0800 
 27 H       -0.5280     4.8400     1.0860 H     1 <1>   0.0800 
 28 H       -1.1570     1.1140     1.4920 H     1 <1>   0.0800 
 29 H       -2.5530     1.1190     0.4380 H     1 <1>   0.0800 
 30 H       -3.4030     3.2330    -0.4740 H     1 <1>   0.0800 
 31 H       -3.1030     4.2430     0.8890 H     1 <1>   0.0800 
 32 H        2.0110     2.6100    -0.3800 H     1 <1>   0.4500 
 33 H        1.0510     2.3210     1.4900 H     1 <1>   0.0800 
 34 H        1.5860     3.9280     1.8920 H     1 <1>   0.0800 
 35 H       -2.2850     2.4210     2.9280 H     1 <1>   0.4000 
 36 H       -1.6750     5.7280    -0.5590 H     1 <1>   0.0800 
 37 H       -2.0900     4.7240    -1.9270 H     1 <1>   0.0800 
 38 H        3.2860     4.5190     0.4170 H     1 <1>   0.0800 
 39 H        2.9970     4.5550    -1.3010 H     1 <1>   0.0800 
 40 H       -4.0600     6.2460    -0.2130 H     1 <1>   0.0800 
 41 H       -4.4790     5.2380    -1.5780 H     1 <1>   0.0800 
 42 H       -3.5370     6.6890    -1.8170 H     1 <1>   0.0800 
 43 H        2.0880     6.1020     1.9330 H     1 <1>   0.1500 
 44 H        1.4730     6.2090    -2.3050 H     1 <1>   0.1500 
 45 H        0.9320     8.2340     2.1400 H     1 <1>   0.1500 
 46 H        0.3200     8.3400    -2.0690 H     1 <1>   0.1500 
@<TRIPOS>BOND
  1   1   2  1   
  2   1  22  1   
  3   2   3  1   
  4   2   4  1   
  5   2  23  1   
  6   3   5  1   
  7   3   6  1   
  8   3   7  1   
  9   4   8  1   
 10   4  24  1   
 11   4  25  1   
 12   5   9  1   
 13   5  26  1   
 14   5  27  1   
 15   6  10  1   
 16   6  28  1   
 17   6  29  1   
 18   7  11  1   
 19   7  30  1   
 20   7  31  1   
 21   8   9  1   
 22   8  12  1   
 23   8  32  1   
 24   9  33  1   
 25   9  34  1   
 26  10  35  1   
 27  11  13  1   
 28  11  36  1   
 29  11  37  1   
 30  12  14  1   
 31  12  38  1   
 32  12  39  1   
 33  13  40  1   
 34  13  41  1   
 35  13  42  1   
 36  14  15  ar  
 37  14  16  ar  
 38  15  17  ar  
 39  15  43  1   
 40  16  18  ar  
 41  16  44  1   
 42  17  19  ar  
 43  17  45  1   
 44  18  19  ar  
 45  18  46  1   
 46  19  20  1   
 47  20  21  3   
@<TRIPOS>SUBSTRUCTURE
  1 ****   5 GROUP 4 **** **** 0

# MOE 2024.06 (io_trps.svl 2023.06)
