@<TRIPOS>MOLECULE
NONAME
48 50 1 0 0 
SMALL
USER_CHARGES


@<TRIPOS>ATOM
  1 O        0.9450     0.5210    -1.7700 O.2   1 <1>  -0.5700 
  2 C        1.6920    -0.1360    -1.0700 C.2   1 <1>   0.5440 
  3 N        2.7640     0.4830    -0.4650 N.am  1 <1>  -0.6600 
  4 C        1.5510    -1.5310    -0.8320 C.ar  1 <1>   0.0860 
  5 C        2.7440     0.6640     1.0270 C.3   1 <1>   0.2200 
  6 C        4.0560     0.5080    -1.1990 C.3   1 <1>   0.1400 
  7 C        2.3640    -2.4380    -1.5150 C.ar  1 <1>  -0.1500 
  8 C        0.8230    -1.9990     0.2620 C.ar  1 <1>  -0.1500 
  9 C        3.5110     1.9230     1.4580 C.3   1 <1>   0.1200 
 10 C        3.2460    -0.5710     1.8270 C.3   1 <1>   0.3430 
 11 C        5.3060     0.3070    -0.3230 C.3   1 <1>  -0.0800 
 12 C        2.6780    -3.6540    -0.9690 C.ar  1 <1>   0.0830 
 13 C        1.1180    -3.2090     0.8350 C.ar  1 <1>   0.0830 
 14 O        4.8650     1.6370     1.6590 O.3   1 <1>  -0.5600 
 15 N        4.1120    -1.5330     1.0690 N.4   1 <1>  -0.9590 
 16 C        5.6390     1.5570     0.5100 C.3   1 <1>   0.1200 
 17 C        5.3840    -1.0020     0.4960 C.3   1 <1>   0.3430 
 18 O        3.5470    -4.4210    -1.6950 O.3   1 <1>  -0.3630 
 19 C        2.1680    -4.0070     0.3070 C.ar  1 <1>  -0.1710 
 20 O        0.3950    -3.5230     1.9540 O.3   1 <1>  -0.3630 
 21 C        4.3730    -2.7470     1.9040 C.3   1 <1>   0.2630 
 22 C        3.4470    -5.8220    -1.5590 C.3   1 <1>   0.0400 
 23 O        2.7220    -4.9040     1.0020 O.3   1 <1>  -0.8290 
 24 C        0.1920    -4.8920     2.2350 C.3   1 <1>   0.0400 
 25 H        1.7190     0.8320     1.3090 H     1 <1>   0.0800 
 26 H        4.0410    -0.2530    -1.9610 H     1 <1>   0.0800 
 27 H        4.1280     1.4540    -1.7090 H     1 <1>   0.0800 
 28 H        2.7920    -2.1590    -2.4590 H     1 <1>   0.1500 
 29 H        0.0620    -1.3780     0.6970 H     1 <1>   0.1500 
 30 H        3.1280     2.2620     2.4050 H     1 <1>   0.0800 
 31 H        3.3990     2.7220     0.7440 H     1 <1>   0.0800 
 32 H        2.3790    -1.1070     2.1790 H     1 <1>   0.0800 
 33 H        3.7740    -0.2250     2.7000 H     1 <1>   0.0800 
 34 H        6.1190     0.2420    -1.0230 H     1 <1>   0.0800 
 35 H        3.5270    -1.9080     0.2980 H     1 <1>   0.4500 
 36 H        5.5100     2.4610    -0.0630 H     1 <1>   0.0800 
 37 H        6.6650     1.5130     0.8330 H     1 <1>   0.0800 
 38 H        6.0870    -0.8490     1.2980 H     1 <1>   0.0800 
 39 H        5.7940    -1.7670    -0.1430 H     1 <1>   0.0800 
 40 H        5.0480    -2.5240     2.7120 H     1 <1>   0.0800 
 41 H        4.7870    -3.5360     1.2950 H     1 <1>   0.0800 
 42 H        3.4470    -3.1230     2.3130 H     1 <1>   0.0800 
 43 H        3.8990    -6.2820    -2.4170 H     1 <1>   0.0800 
 44 H        2.4090    -6.0950    -1.4880 H     1 <1>   0.0800 
 45 H        3.9660    -6.1190    -0.6650 H     1 <1>   0.0800 
 46 H       -0.6570    -4.9830     2.8860 H     1 <1>   0.0800 
 47 H        1.0720    -5.2780     2.7180 H     1 <1>   0.0800 
 48 H        0.0190    -5.4180     1.3130 H     1 <1>   0.0800 
@<TRIPOS>BOND
  1   1   2  2   
  2   2   3  am  
  3   2   4  1   
  4   3   5  1   
  5   3   6  1   
  6   4   7  ar  
  7   4   8  ar  
  8   5   9  1   
  9   5  10  1   
 10   5  25  1   
 11   6  11  1   
 12   6  26  1   
 13   6  27  1   
 14   7  12  ar  
 15   7  28  1   
 16   8  13  ar  
 17   8  29  1   
 18   9  14  1   
 19   9  30  1   
 20   9  31  1   
 21  10  15  1   
 22  10  32  1   
 23  10  33  1   
 24  11  16  1   
 25  11  17  1   
 26  11  34  1   
 27  12  18  1   
 28  12  19  ar  
 29  13  19  ar  
 30  13  20  1   
 31  14  16  1   
 32  15  17  1   
 33  15  21  1   
 34  15  35  1   
 35  16  36  1   
 36  16  37  1   
 37  17  38  1   
 38  17  39  1   
 39  18  22  1   
 40  19  23  1   
 41  20  24  1   
 42  21  40  1   
 43  21  41  1   
 44  21  42  1   
 45  22  43  1   
 46  22  44  1   
 47  22  45  1   
 48  24  46  1   
 49  24  47  1   
 50  24  48  1   
@<TRIPOS>SUBSTRUCTURE
  1 ****  15 GROUP 4 **** **** 0

# MOE 2024.06 (io_trps.svl 2023.06)
