@<TRIPOS>MOLECULE
NONAME
59 63 1 0 0 
SMALL
USER_CHARGES


@<TRIPOS>ATOM
  1 S       -0.4410    -0.4850     1.3290 S.o2  1 <1>   1.3330 
  2 O        0.4540    -0.4740     2.4620 O.2   1 <1>  -0.6500 
  3 O       -1.4710    -1.4900     1.2330 O.2   1 <1>  -0.6500 
  4 N        0.4890    -0.7320    -0.0450 N.am  1 <1>  -0.9140 
  5 C       -1.1140     1.1660     1.1080 C.3   1 <1>  -0.0550 
  6 C        1.6480    -1.6080     0.1210 C.3   1 <1>   0.1960 
  7 C       -1.8760     1.4010    -0.2110 C.3   1 <1>  -0.0800 
  8 C        1.2660    -3.0470     0.5210 C.3   1 <1>  -0.0800 
  9 C       -2.3120     2.8550    -0.3720 C.3   1 <1>  -0.1600 
 10 C       -3.1870     0.6230    -0.3280 C.3   1 <1>  -0.1600 
 11 C        0.4490    -3.7540    -0.5730 C.3   1 <1>   0.2000 
 12 C        2.4490    -4.0340     0.6630 C.3   1 <1>  -0.0800 
 13 C       -3.4180     2.8090    -1.4240 C.3   1 <1>  -0.1600 
 14 C       -4.0520     1.4190    -1.3100 C.3   1 <1>  -0.1600 
 15 O        1.4560    -4.3110    -1.3290 O.3   1 <1>  -0.5600 
 16 C       -0.2450    -5.0080    -0.0260 C.3   1 <1>  -0.1600 
 17 C        2.0820    -5.0910    -0.3730 C.3   1 <1>   0.2800 
 18 C        3.8750    -3.6060     0.2740 C.3   1 <1>   0.1400 
 19 C        0.9310    -5.9820     0.0950 C.3   1 <1>  -0.1600 
 20 C        3.3890    -5.7160    -0.8540 C.3   1 <1>   0.1400 
 21 N        4.4550    -4.7470    -0.4790 N.am  1 <1>  -0.6600 
 22 C        5.7380    -4.8330    -0.9940 C.2   1 <1>   0.5440 
 23 O        6.0020    -5.8410    -1.6310 O.2   1 <1>  -0.5700 
 24 C        6.7680    -3.7930    -0.8460 C.ar  1 <1>   0.3960 
 25 N        6.8060    -3.0050     0.2470 N.ar  1 <1>  -0.6200 
 26 C        7.7100    -3.6490    -1.8700 C.ar  1 <1>  -0.1500 
 27 C        7.7650    -2.1100     0.2840 C.ar  1 <1>   0.3930 
 28 C        8.7080    -2.6990    -1.8080 C.ar  1 <1>  -0.1500 
 29 O        7.7600    -1.3640     1.3710 O.3   1 <1>  -0.5330 
 30 C        8.7280    -1.9050    -0.6870 C.ar  1 <1>  -0.1500 
 31 H       -0.1460    -1.1780    -0.7020 H     1 <1>   0.4200 
 32 H       -1.7630     1.3880     1.9320 H     1 <1>   0.0800 
 33 H       -0.2990     1.8630     1.1480 H     1 <1>   0.0800 
 34 H        2.1750    -1.6300    -0.8180 H     1 <1>   0.0800 
 35 H        2.3080    -1.1870     0.8630 H     1 <1>   0.0800 
 36 H       -1.2450     1.1480    -1.0470 H     1 <1>   0.0800 
 37 H        0.7200    -3.0290     1.4460 H     1 <1>   0.0800 
 38 H       -2.7230     3.2210     0.5540 H     1 <1>   0.0800 
 39 H       -1.4990     3.4920    -0.6740 H     1 <1>   0.0800 
 40 H       -3.0300    -0.3860    -0.6710 H     1 <1>   0.0800 
 41 H       -3.6820     0.5900     0.6280 H     1 <1>   0.0800 
 42 H       -0.1860    -3.1210    -1.1690 H     1 <1>   0.0800 
 43 H        2.4770    -4.4710     1.6450 H     1 <1>   0.0800 
 44 H       -4.1420     3.5910    -1.2680 H     1 <1>   0.0800 
 45 H       -2.9870     2.9250    -2.4040 H     1 <1>   0.0800 
 46 H       -4.0600     0.9410    -2.2750 H     1 <1>   0.0800 
 47 H       -5.0640     1.4840    -0.9480 H     1 <1>   0.0800 
 48 H       -0.7330    -4.8170     0.9140 H     1 <1>   0.0800 
 49 H       -0.9690    -5.3660    -0.7370 H     1 <1>   0.0800 
 50 H        4.4520    -3.4020     1.1580 H     1 <1>   0.0800 
 51 H        3.8910    -2.7470    -0.3700 H     1 <1>   0.0800 
 52 H        0.8130    -6.8170    -0.5730 H     1 <1>   0.0800 
 53 H        1.0790    -6.3380     1.0990 H     1 <1>   0.0800 
 54 H        3.3690    -5.8860    -1.9160 H     1 <1>   0.0800 
 55 H        3.5720    -6.6430    -0.3410 H     1 <1>   0.0800 
 56 H        7.6510    -4.2980    -2.7260 H     1 <1>   0.1500 
 57 H        9.4340    -2.5870    -2.5960 H     1 <1>   0.1500 
 58 H        7.0390    -1.6650     1.9490 H     1 <1>   0.4500 
 59 H        9.4690    -1.1380    -0.5510 H     1 <1>   0.1500 
@<TRIPOS>BOND
  1   1   2  2   
  2   1   3  2   
  3   1   4  am  
  4   1   5  1   
  5   4   6  1   
  6   4  31  1   
  7   5   7  1   
  8   5  32  1   
  9   5  33  1   
 10   6   8  1   
 11   6  34  1   
 12   6  35  1   
 13   7   9  1   
 14   7  10  1   
 15   7  36  1   
 16   8  11  1   
 17   8  12  1   
 18   8  37  1   
 19   9  13  1   
 20   9  38  1   
 21   9  39  1   
 22  10  14  1   
 23  10  40  1   
 24  10  41  1   
 25  11  15  1   
 26  11  16  1   
 27  11  42  1   
 28  12  17  1   
 29  12  18  1   
 30  12  43  1   
 31  13  14  1   
 32  13  44  1   
 33  13  45  1   
 34  14  46  1   
 35  14  47  1   
 36  15  17  1   
 37  16  19  1   
 38  16  48  1   
 39  16  49  1   
 40  17  19  1   
 41  17  20  1   
 42  18  21  1   
 43  18  50  1   
 44  18  51  1   
 45  19  52  1   
 46  19  53  1   
 47  20  21  1   
 48  20  54  1   
 49  20  55  1   
 50  21  22  am  
 51  22  23  2   
 52  22  24  1   
 53  24  25  ar  
 54  24  26  ar  
 55  25  27  ar  
 56  26  28  ar  
 57  26  56  1   
 58  27  29  1   
 59  27  30  ar  
 60  28  30  ar  
 61  28  57  1   
 62  29  58  1   
 63  30  59  1   
@<TRIPOS>SUBSTRUCTURE
  1 ****   6 GROUP 4 **** **** 0

# MOE 2024.06 (io_trps.svl 2023.06)
