@<TRIPOS>MOLECULE
NONAME
54 57 1 0 0 
SMALL
USER_CHARGES


@<TRIPOS>ATOM
  1 O       -1.9340     1.5220    -1.9950 O.2   1 <1>  -0.5700 
  2 C       -2.1920     1.4590    -0.8050 C.2   1 <1>   0.7160 
  3 N       -2.7120     0.2930    -0.2890 N.am  1 <1>  -0.6600 
  4 C       -1.9150     2.5780     0.0340 C.2   1 <1>  -0.0860 
  5 C       -3.2590     0.1850     1.0880 C.3   1 <1>   0.1400 
  6 C       -2.7250    -0.9700    -1.0650 C.3   1 <1>   0.1400 
  7 C       -2.8100     3.5780     0.4240 C.2   1 <1>   0.3720 
  8 C       -0.7720     2.8910     0.6950 C.2   1 <1>   0.0870 
  9 C       -2.2260    -0.4060     2.0540 C.3   1 <1>  -0.1600 
 10 C       -1.3830    -1.7030    -0.9480 C.3   1 <1>  -0.1600 
 11 N       -2.2510     4.3910     1.2530 N.2   1 <1>  -0.4100 
 12 N       -4.1490     3.6670     0.0110 N.pl3 1 <1>  -0.8210 
 13 O       -1.0230     3.9650     1.3990 O.3   1 <1>  -0.0190 
 14 C        0.5170     2.2530     0.7430 C.ar  1 <1>   0.0530 
 15 C       -1.6470    -1.7720     1.6380 C.3   1 <1>  -0.1600 
 16 C       -0.6970    -1.6750     0.4330 C.3   1 <1>  -0.1600 
 17 C       -4.4030     3.5970    -1.4540 C.3   1 <1>   0.2090 
 18 C       -4.9830     4.7490     0.5960 C.3   1 <1>   0.2090 
 19 C        1.0750     1.6420    -0.3810 C.ar  1 <1>  -0.1500 
 20 C        1.2510     2.2120     1.9280 C.ar  1 <1>  -0.1500 
 21 C       -5.4030     4.7060    -1.7620 C.3   1 <1>  -0.1600 
 22 C       -6.0780     4.9980    -0.4290 C.3   1 <1>  -0.1600 
 23 C        2.2990     1.0030    -0.3240 C.ar  1 <1>  -0.1500 
 24 C        2.4750     1.5750     1.9930 C.ar  1 <1>  -0.1500 
 25 C        3.0100     0.9620     0.8720 C.ar  1 <1>   0.0830 
 26 O        4.2100     0.3540     1.0170 O.3   1 <1>  -0.3630 
 27 C        4.8430    -0.2970    -0.0620 C.3   1 <1>   0.0400 
 28 H       -4.1360    -0.4390     1.0720 H     1 <1>   0.0800 
 29 H       -3.5700     1.1530     1.4420 H     1 <1>   0.0800 
 30 H       -2.9350    -0.7610    -2.1010 H     1 <1>   0.0800 
 31 H       -3.5130    -1.6050    -0.6980 H     1 <1>   0.0800 
 32 H       -2.7040    -0.5190     3.0110 H     1 <1>   0.0800 
 33 H       -1.4270     0.3010     2.1890 H     1 <1>   0.0800 
 34 H       -0.7050    -1.2830    -1.6710 H     1 <1>   0.0800 
 35 H       -1.5460    -2.7260    -1.2350 H     1 <1>   0.0800 
 36 H       -2.4350    -2.4780     1.4430 H     1 <1>   0.0800 
 37 H       -1.0790    -2.1490     2.4720 H     1 <1>   0.0800 
 38 H       -0.1150    -0.7740     0.5200 H     1 <1>   0.0800 
 39 H        0.0000    -2.4940     0.4720 H     1 <1>   0.0800 
 40 H       -4.8260     2.6350    -1.6880 H     1 <1>   0.0800 
 41 H       -3.4960     3.7330    -2.0200 H     1 <1>   0.0800 
 42 H       -4.3960     5.6430     0.7250 H     1 <1>   0.0800 
 43 H       -5.3890     4.4440     1.5460 H     1 <1>   0.0800 
 44 H        0.5440     1.6700    -1.3160 H     1 <1>   0.1500 
 45 H        0.8510     2.6820     2.8100 H     1 <1>   0.1500 
 46 H       -6.1020     4.4110    -2.5230 H     1 <1>   0.0800 
 47 H       -4.8630     5.5740    -2.0980 H     1 <1>   0.0800 
 48 H       -6.4610     6.0010    -0.3710 H     1 <1>   0.0800 
 49 H       -6.8790     4.3000    -0.2610 H     1 <1>   0.0800 
 50 H        2.6830     0.5450    -1.2160 H     1 <1>   0.1500 
 51 H        3.0280     1.5480     2.9140 H     1 <1>   0.1500 
 52 H        5.7740    -0.7010     0.2920 H     1 <1>   0.0800 
 53 H        5.0290     0.4210    -0.8410 H     1 <1>   0.0800 
 54 H        4.2090    -1.0920    -0.4120 H     1 <1>   0.0800 
@<TRIPOS>BOND
  1   1   2  2   
  2   2   3  am  
  3   2   4  1   
  4   3   5  1   
  5   3   6  1   
  6   4   7  1   
  7   4   8  2   
  8   5   9  1   
  9   5  28  1   
 10   5  29  1   
 11   6  10  1   
 12   6  30  1   
 13   6  31  1   
 14   7  11  2   
 15   7  12  1   
 16   8  13  1   
 17   8  14  1   
 18   9  15  1   
 19   9  32  1   
 20   9  33  1   
 21  10  16  1   
 22  10  34  1   
 23  10  35  1   
 24  11  13  1   
 25  12  17  1   
 26  12  18  1   
 27  14  19  ar  
 28  14  20  ar  
 29  15  16  1   
 30  15  36  1   
 31  15  37  1   
 32  16  38  1   
 33  16  39  1   
 34  17  21  1   
 35  17  40  1   
 36  17  41  1   
 37  18  22  1   
 38  18  42  1   
 39  18  43  1   
 40  19  23  ar  
 41  19  44  1   
 42  20  24  ar  
 43  20  45  1   
 44  21  22  1   
 45  21  46  1   
 46  21  47  1   
 47  22  48  1   
 48  22  49  1   
 49  23  25  ar  
 50  23  50  1   
 51  24  25  ar  
 52  24  51  1   
 53  25  26  1   
 54  26  27  1   
 55  27  52  1   
 56  27  53  1   
 57  27  54  1   
@<TRIPOS>SUBSTRUCTURE
  1 ****   4 GROUP 4 **** **** 0

# MOE 2024.06 (io_trps.svl 2023.06)
