@<TRIPOS>MOLECULE
NONAME
45 47 1 0 0 
SMALL
USER_CHARGES


@<TRIPOS>ATOM
  1 O        0.4750    -0.0410     0.5050 O.3   1 <1>  -0.6800 
  2 C        1.7380    -0.1210    -0.0680 C.3   1 <1>   0.2000 
  3 C        2.4120    -1.4400     0.3030 C.3   1 <1>  -0.0800 
  4 C        2.6660     0.9660     0.4690 C.3   1 <1>   0.2090 
  5 C        3.9110    -1.1250     0.2890 C.3   1 <1>   0.2090 
  6 C        2.0330    -2.5940    -0.6390 C.3   1 <1>   0.0210 
  7 N        4.0130     0.3430     0.4610 N.pl3 1 <1>  -0.8380 
  8 C        2.7270    -3.8780    -0.2340 C.2   1 <1>   0.1080 
  9 C        5.1760     1.0460     0.2560 C.ar  1 <1>   0.7200 
 10 N        2.3400    -4.5890     0.7780 N.2   1 <1>  -0.7070 
 11 C        3.8320    -4.4290    -0.8740 C.2   1 <1>  -0.1500 
 12 N        5.0950     2.3730     0.3110 N.ar  1 <1>  -0.6200 
 13 N        6.2760     0.3340     0.0200 N.ar  1 <1>  -0.6200 
 14 N        3.1990    -5.6250     0.8130 N.pl3 1 <1>   0.3000 
 15 C        4.1120    -5.5500    -0.1780 C.2   1 <1>  -0.3320 
 16 C        6.2150     3.0270     0.1220 C.ar  1 <1>   0.1600 
 17 C        7.3770     1.0200    -0.1640 C.ar  1 <1>   0.1600 
 18 C        5.2140    -6.5690    -0.4010 C.3   1 <1>  -0.0600 
 19 C        7.4130     2.3950    -0.1240 C.ar  1 <1>  -0.1430 
 20 C        8.7140     3.1610    -0.3430 C.3   1 <1>   0.0630 
 21 C        9.0770     3.9820     0.8980 C.3   1 <1>  -0.2400 
 22 C        8.6140     4.0620    -1.5780 C.3   1 <1>  -0.2400 
 23 H       -0.0290    -0.8600     0.3370 H     1 <1>   0.4000 
 24 H        1.6420    -0.0160    -1.1350 H     1 <1>   0.0800 
 25 H        2.1530    -1.7010     1.3150 H     1 <1>   0.0800 
 26 H        2.4050     1.2230     1.4810 H     1 <1>   0.0800 
 27 H        2.6330     1.8400    -0.1580 H     1 <1>   0.0800 
 28 H        4.3560    -1.4010    -0.6520 H     1 <1>   0.0800 
 29 H        4.4240    -1.6360     1.0870 H     1 <1>   0.0800 
 30 H        2.2980    -2.3500    -1.6510 H     1 <1>   0.0800 
 31 H        0.9710    -2.7590    -0.6020 H     1 <1>   0.0800 
 32 H        4.3360    -4.0260    -1.7340 H     1 <1>   0.1500 
 33 H        3.1340    -6.3640     1.5230 H     1 <1>   0.2700 
 34 H        6.1740     4.1010     0.1660 H     1 <1>   0.1500 
 35 H        8.2790     0.4630    -0.3520 H     1 <1>   0.1500 
 36 H        5.8120    -6.2870    -1.2500 H     1 <1>   0.0800 
 37 H        4.7920    -7.5410    -0.5880 H     1 <1>   0.0800 
 38 H        5.8520    -6.6230     0.4640 H     1 <1>   0.0800 
 39 H        9.5080     2.4540    -0.5140 H     1 <1>   0.0800 
 40 H        8.3380     4.7400     1.0900 H     1 <1>   0.0800 
 41 H       10.0300     4.4610     0.7620 H     1 <1>   0.0800 
 42 H        9.1390     3.3390     1.7590 H     1 <1>   0.0800 
 43 H        7.8640     4.8200    -1.4430 H     1 <1>   0.0800 
 44 H        8.3550     3.4740    -2.4420 H     1 <1>   0.0800 
 45 H        9.5570     4.5430    -1.7650 H     1 <1>   0.0800 
@<TRIPOS>BOND
  1   1   2  1   
  2   1  23  1   
  3   2   3  1   
  4   2   4  1   
  5   2  24  1   
  6   3   5  1   
  7   3   6  1   
  8   3  25  1   
  9   4   7  1   
 10   4  26  1   
 11   4  27  1   
 12   5   7  1   
 13   5  28  1   
 14   5  29  1   
 15   6   8  1   
 16   6  30  1   
 17   6  31  1   
 18   7   9  1   
 19   8  10  2   
 20   8  11  1   
 21   9  12  ar  
 22   9  13  ar  
 23  10  14  1   
 24  11  15  2   
 25  11  32  1   
 26  12  16  ar  
 27  13  17  ar  
 28  14  15  1   
 29  14  33  1   
 30  15  18  1   
 31  16  19  ar  
 32  16  34  1   
 33  17  19  ar  
 34  17  35  1   
 35  18  36  1   
 36  18  37  1   
 37  18  38  1   
 38  19  20  1   
 39  20  21  1   
 40  20  22  1   
 41  20  39  1   
 42  21  40  1   
 43  21  41  1   
 44  21  42  1   
 45  22  43  1   
 46  22  44  1   
 47  22  45  1   
@<TRIPOS>SUBSTRUCTURE
  1 ****   5 GROUP 4 **** **** 0

# MOE 2024.06 (io_trps.svl 2023.06)
