@<TRIPOS>MOLECULE
NONAME
48 50 1 0 0 
SMALL
USER_CHARGES


@<TRIPOS>ATOM
  1 S        0.1750     0.3510    -0.7120 S.o2  1 <1>   1.3330 
  2 O        0.1060    -1.0890    -0.6080 O.2   1 <1>  -0.6500 
  3 O       -0.1090     0.9890    -1.9770 O.2   1 <1>  -0.6500 
  4 N       -0.8720     1.0050     0.4530 N.am  1 <1>  -0.8490 
  5 C        1.7790     0.9470    -0.1810 C.3   1 <1>  -0.0550 
  6 C       -0.9090     0.2260     1.6970 C.3   1 <1>   0.1160 
  7 C       -2.2340     1.1720    -0.0640 C.3   1 <1>   0.1160 
  8 C        2.9410     0.4830    -1.0940 C.3   1 <1>  -0.0800 
  9 C        4.2650     1.1960    -0.8360 C.3   1 <1>   0.2200 
 10 C        3.3400    -0.9470    -0.7370 C.3   1 <1>   0.1200 
 11 N        4.1120     2.6440    -0.5380 N.am  1 <1>  -0.7300 
 12 C        4.8720     0.3850     0.3160 C.3   1 <1>   0.1200 
 13 O        4.1510    -0.8130     0.3840 O.3   1 <1>  -0.5600 
 14 C        5.1400     3.4780    -0.1950 C.2   1 <1>   0.5440 
 15 O        6.2510     3.0010    -0.0710 O.2   1 <1>  -0.5700 
 16 C        4.9130     4.9010    -0.0110 C.ar  1 <1>   0.0860 
 17 C        3.6610     5.4170     0.3280 C.ar  1 <1>  -0.1500 
 18 C        5.9480     5.8230    -0.1700 C.ar  1 <1>  -0.1500 
 19 C        3.4580     6.7750     0.4830 C.ar  1 <1>  -0.1500 
 20 C        5.7430     7.1810    -0.0130 C.ar  1 <1>  -0.1500 
 21 C        4.4910     7.6970     0.3190 C.ar  1 <1>   0.0540 
 22 C        4.2570     9.1180     0.4880 C.2   1 <1>   0.2350 
 23 N        3.0720     9.6780     0.4220 N.2   1 <1>  -0.7070 
 24 C        5.2370    10.0850     0.7440 C.2   1 <1>  -0.1500 
 25 N        3.2810    10.9870     0.6270 N.pl3 1 <1>   0.3000 
 26 C        4.5830    11.2600     0.8250 C.2   1 <1>  -0.3020 
 27 H        1.7250     2.0160    -0.1750 H     1 <1>   0.0800 
 28 H        1.9710     0.6310     0.8260 H     1 <1>   0.0800 
 29 H       -1.5210     0.7260     2.4280 H     1 <1>   0.0800 
 30 H        0.0820     0.1190     2.1010 H     1 <1>   0.0800 
 31 H       -1.3140    -0.7570     1.5150 H     1 <1>   0.0800 
 32 H       -2.8710     1.6010     0.6900 H     1 <1>   0.0800 
 33 H       -2.6370     0.2220    -0.3720 H     1 <1>   0.0800 
 34 H       -2.2260     1.8350    -0.9140 H     1 <1>   0.0800 
 35 H        2.6620     0.5560    -2.1310 H     1 <1>   0.0800 
 36 H        4.9080     1.0880    -1.6950 H     1 <1>   0.0800 
 37 H        3.9290    -1.3940    -1.5200 H     1 <1>   0.0800 
 38 H        2.5130    -1.5920    -0.4980 H     1 <1>   0.0800 
 39 H        3.2640     3.0730    -0.9080 H     1 <1>   0.3700 
 40 H        4.7660     0.8930     1.2580 H     1 <1>   0.0800 
 41 H        5.9070     0.1580     0.1310 H     1 <1>   0.0800 
 42 H        2.8310     4.7520     0.4800 H     1 <1>   0.1500 
 43 H        6.9290     5.4600    -0.4240 H     1 <1>   0.1500 
 44 H        2.4790     7.1430     0.7410 H     1 <1>   0.1500 
 45 H        6.5720     7.8500    -0.1570 H     1 <1>   0.1500 
 46 H        6.2900     9.9030     0.8560 H     1 <1>   0.1500 
 47 H        2.5150    11.6730     0.6280 H     1 <1>   0.2700 
 48 H        4.9580    12.2500     1.0100 H     1 <1>   0.1500 
@<TRIPOS>BOND
  1   1   2  2   
  2   1   3  2   
  3   1   4  am  
  4   1   5  1   
  5   4   6  1   
  6   4   7  1   
  7   5   8  1   
  8   5  27  1   
  9   5  28  1   
 10   6  29  1   
 11   6  30  1   
 12   6  31  1   
 13   7  32  1   
 14   7  33  1   
 15   7  34  1   
 16   8   9  1   
 17   8  10  1   
 18   8  35  1   
 19   9  11  1   
 20   9  12  1   
 21   9  36  1   
 22  10  13  1   
 23  10  37  1   
 24  10  38  1   
 25  11  14  am  
 26  11  39  1   
 27  12  13  1   
 28  12  40  1   
 29  12  41  1   
 30  14  15  2   
 31  14  16  1   
 32  16  17  ar  
 33  16  18  ar  
 34  17  19  ar  
 35  17  42  1   
 36  18  20  ar  
 37  18  43  1   
 38  19  21  ar  
 39  19  44  1   
 40  20  21  ar  
 41  20  45  1   
 42  21  22  1   
 43  22  23  2   
 44  22  24  1   
 45  23  25  1   
 46  24  26  2   
 47  24  46  1   
 48  25  26  1   
 49  25  47  1   
 50  26  48  1   
@<TRIPOS>SUBSTRUCTURE
  1 ****  17 GROUP 4 **** **** 0

# MOE 2024.06 (io_trps.svl 2023.06)
