@<TRIPOS>MOLECULE
NONAME
45 46 1 0 0 
SMALL
USER_CHARGES


@<TRIPOS>ATOM
  1 O        1.2610     2.3560     0.8070 O.2   1 <1>  -0.5700 
  2 C        1.9070     1.4140     0.3840 C.2   1 <1>   0.5440 
  3 N        1.2420     0.2700    -0.0170 N.am  1 <1>  -0.6600 
  4 C        3.3430     1.5340     0.3270 C.ar  1 <1>   0.0860 
  5 C        1.8890    -1.0650    -0.1360 C.3   1 <1>   0.0600 
  6 C       -0.2380     0.2550    -0.1870 C.3   1 <1>   0.0600 
  7 C        4.0420     2.0480     1.4140 C.ar  1 <1>   0.1600 
  8 C        4.0930     1.1890    -0.7920 C.ar  1 <1>  -0.1500 
  9 N        5.3460     2.2480     1.4760 N.ar  1 <1>  -0.6200 
 10 C        5.4500     1.3900    -0.7460 C.ar  1 <1>  -0.1500 
 11 C        6.0470     1.9350     0.3920 C.ar  1 <1>   0.4100 
 12 N        7.3960     2.2220     0.4160 N.pl3 1 <1>  -0.8380 
 13 C        7.9410     3.3220     1.2770 C.3   1 <1>   0.3890 
 14 C        8.4240     1.3790    -0.2530 C.3   1 <1>   0.1290 
 15 C        8.5940     4.4170     0.4430 C.2   1 <1>   0.0070 
 16 N        9.7750     4.8770     0.6880 N.2   1 <1>  -0.3380 
 17 N        8.0360     5.0380    -0.6080 N.pl3 1 <1>   0.0480 
 18 N       10.0250     5.8250    -0.2140 N.2   1 <1>  -0.3380 
 19 C        8.9860     5.9030    -0.9690 C.2   1 <1>   0.0360 
 20 C        6.7380     4.8430    -1.2920 C.3   1 <1>   0.0960 
 21 C        5.5660     5.2830    -0.4190 C.3   1 <1>   0.1200 
 22 O        4.4010     5.0680    -1.1490 O.3   1 <1>  -0.5600 
 23 C        3.2310     5.2390    -0.4130 C.3   1 <1>   0.0400 
 24 H        2.8740    -1.0570     0.2970 H     1 <1>   0.0800 
 25 H        1.9620    -1.3410    -1.1740 H     1 <1>   0.0800 
 26 H        1.3000    -1.8020     0.3820 H     1 <1>   0.0800 
 27 H       -0.6200     1.2570    -0.2830 H     1 <1>   0.0800 
 28 H       -0.6960    -0.2080     0.6700 H     1 <1>   0.0800 
 29 H       -0.5000    -0.2950    -1.0730 H     1 <1>   0.0800 
 30 H        3.4690     2.3150     2.2870 H     1 <1>   0.1500 
 31 H        3.6100     0.7930    -1.6680 H     1 <1>   0.1500 
 32 H        6.0580     1.1530    -1.5970 H     1 <1>   0.1500 
 33 H        8.6690     2.9110     1.9540 H     1 <1>   0.0800 
 34 H        7.1710     3.7720     1.8760 H     1 <1>   0.0800 
 35 H        8.0000     0.4420    -0.5680 H     1 <1>   0.0800 
 36 H        9.2300     1.1710     0.4300 H     1 <1>   0.0800 
 37 H        8.8200     1.8980    -1.1090 H     1 <1>   0.0800 
 38 H        8.8840     6.5780    -1.7980 H     1 <1>   0.1500 
 39 H        6.6350     3.8060    -1.5470 H     1 <1>   0.0800 
 40 H        6.7360     5.4190    -2.1980 H     1 <1>   0.0800 
 41 H        5.6320     6.3310    -0.1820 H     1 <1>   0.0800 
 42 H        5.5210     4.6990     0.4830 H     1 <1>   0.0800 
 43 H        2.3950     5.0270    -1.0560 H     1 <1>   0.0800 
 44 H        3.1730     6.2560    -0.0650 H     1 <1>   0.0800 
 45 H        3.2240     4.5550     0.4170 H     1 <1>   0.0800 
@<TRIPOS>BOND
  1   1   2  2   
  2   2   3  am  
  3   2   4  1   
  4   3   5  1   
  5   3   6  1   
  6   4   7  ar  
  7   4   8  ar  
  8   5  24  1   
  9   5  25  1   
 10   5  26  1   
 11   6  27  1   
 12   6  28  1   
 13   6  29  1   
 14   7   9  ar  
 15   7  30  1   
 16   8  10  ar  
 17   8  31  1   
 18   9  11  ar  
 19  10  11  ar  
 20  10  32  1   
 21  11  12  1   
 22  12  13  1   
 23  12  14  1   
 24  13  15  1   
 25  13  33  1   
 26  13  34  1   
 27  14  35  1   
 28  14  36  1   
 29  14  37  1   
 30  15  16  2   
 31  15  17  1   
 32  16  18  1   
 33  17  19  1   
 34  17  20  1   
 35  18  19  2   
 36  19  38  1   
 37  20  21  1   
 38  20  39  1   
 39  20  40  1   
 40  21  22  1   
 41  21  41  1   
 42  21  42  1   
 43  22  23  1   
 44  23  43  1   
 45  23  44  1   
 46  23  45  1   
@<TRIPOS>SUBSTRUCTURE
  1 ****  11 GROUP 4 **** **** 0

# MOE 2024.06 (io_trps.svl 2023.06)
