@<TRIPOS>MOLECULE
NONAME
44 48 1 0 0 
SMALL
USER_CHARGES


@<TRIPOS>ATOM
  1 S        0.3190     1.3170     3.0670 S.3   1 <1>  -0.0800 
  2 C        0.2620     2.1500     1.5280 C.2   1 <1>  -0.1400 
  3 C        1.8460     2.0980     3.4530 C.2   1 <1>  -0.1100 
  4 C        1.3310     2.9350     1.3430 C.2   1 <1>  -0.1810 
  5 C       -0.8740     1.9850     0.5560 C.3   1 <1>   0.0200 
  6 C        2.2400     2.9120     2.4540 C.2   1 <1>  -0.1500 
  7 C        1.5020     3.7460     0.0570 C.3   1 <1>   0.4610 
  8 C       -0.8090     3.1680    -0.4220 C.3   1 <1>   0.1200 
  9 O        0.5060     3.3770    -0.8820 O.3   1 <1>  -0.5600 
 10 C        1.3960     5.2540     0.3340 C.3   1 <1>  -0.1600 
 11 C        2.8430     3.4100    -0.6100 C.3   1 <1>  -0.1600 
 12 C        1.6560     6.0680    -0.9330 C.3   1 <1>   0.1400 
 13 C        3.0940     4.2680    -1.8530 C.3   1 <1>   0.1400 
 14 N        2.9950     5.7000    -1.4650 N.am  1 <1>  -0.6600 
 15 C        4.0860     6.5480    -1.5100 C.2   1 <1>   0.7150 
 16 O        5.0010     6.2630    -2.2670 O.2   1 <1>  -0.5700 
 17 C        4.2220     7.7590    -0.7110 C.2   1 <1>   0.1010 
 18 N        3.5420     8.1520     0.3380 N.2   1 <1>  -0.5650 
 19 N        5.2030     8.6500    -1.0330 N.pl3 1 <1>   0.0330 
 20 C        4.0970     9.3360     0.7000 C.ar  1 <1>   0.2270 
 21 C        5.1370     9.6650    -0.1440 C.ar  1 <1>  -0.1520 
 22 C        3.7590    10.1900     1.7500 C.ar  1 <1>  -0.1500 
 23 C        5.8700    10.8420     0.0270 C.ar  1 <1>  -0.1500 
 24 C        4.4740    11.3540     1.9290 C.ar  1 <1>  -0.1500 
 25 C        5.5300    11.6790     1.0670 C.ar  1 <1>  -0.1500 
 26 H        2.2940     1.8610     4.4020 H     1 <1>   0.1500 
 27 H       -1.8160     1.9900     1.0730 H     1 <1>   0.0800 
 28 H       -0.7720     1.0550     0.0260 H     1 <1>   0.0800 
 29 H        3.1390     3.5030     2.4540 H     1 <1>   0.1500 
 30 H       -1.1510     4.0680     0.0560 H     1 <1>   0.0800 
 31 H       -1.4300     2.9760    -1.2790 H     1 <1>   0.0800 
 32 H        2.1250     5.5340     1.0720 H     1 <1>   0.0800 
 33 H        0.4310     5.4920     0.7370 H     1 <1>   0.0800 
 34 H        2.8560     2.3690    -0.8740 H     1 <1>   0.0800 
 35 H        3.6460     3.5790     0.0830 H     1 <1>   0.0800 
 36 H        1.5880     7.1210    -0.7290 H     1 <1>   0.0800 
 37 H        0.9110     5.8360    -1.6750 H     1 <1>   0.0800 
 38 H        2.3580     4.0530    -2.6100 H     1 <1>   0.0800 
 39 H        4.0660     4.0450    -2.2580 H     1 <1>   0.0800 
 40 H        5.8730     8.5190    -1.7960 H     1 <1>   0.2700 
 41 H        2.9460     9.9150     2.3960 H     1 <1>   0.1500 
 42 H        6.6800    11.0810    -0.6400 H     1 <1>   0.1500 
 43 H        4.2270    12.0250     2.7330 H     1 <1>   0.1500 
 44 H        6.0740    12.5940     1.2280 H     1 <1>   0.1500 
@<TRIPOS>BOND
  1   1   2  1   
  2   1   3  1   
  3   2   4  2   
  4   2   5  1   
  5   3   6  2   
  6   3  26  1   
  7   4   6  1   
  8   4   7  1   
  9   5   8  1   
 10   5  27  1   
 11   5  28  1   
 12   6  29  1   
 13   7   9  1   
 14   7  10  1   
 15   7  11  1   
 16   8   9  1   
 17   8  30  1   
 18   8  31  1   
 19  10  12  1   
 20  10  32  1   
 21  10  33  1   
 22  11  13  1   
 23  11  34  1   
 24  11  35  1   
 25  12  14  1   
 26  12  36  1   
 27  12  37  1   
 28  13  14  1   
 29  13  38  1   
 30  13  39  1   
 31  14  15  am  
 32  15  16  2   
 33  15  17  1   
 34  17  18  2   
 35  17  19  1   
 36  18  20  1   
 37  19  21  1   
 38  19  40  1   
 39  20  21  ar  
 40  20  22  ar  
 41  21  23  ar  
 42  22  24  ar  
 43  22  41  1   
 44  23  25  ar  
 45  23  42  1   
 46  24  25  ar  
 47  24  43  1   
 48  25  44  1   
@<TRIPOS>SUBSTRUCTURE
  1 ****  10 GROUP 4 **** **** 0

# MOE 2024.06 (io_trps.svl 2023.06)
