@<TRIPOS>MOLECULE
Untitled Document
58 60 1 0 0 
SMALL
USER_CHARGES


@<TRIPOS>ATOM
  1 CL       5.6520     0.2380    -2.3190 Cl    1 <1>  -0.1770 
  2 C        4.3930     1.1750    -1.5350 C.ar  1 <1>   0.1770 
  3 C        3.6680     0.6070    -0.4890 C.ar  1 <1>   0.1000 
  4 C        4.1610     2.4570    -1.9750 C.ar  1 <1>  -0.1500 
  5 N        3.8950    -0.6990    -0.0630 N.pl3 1 <1>  -0.9000 
  6 C        2.7040     1.4110     0.1230 C.ar  1 <1>   0.0830 
  7 C        3.1710     3.2620    -1.4010 C.ar  1 <1>   0.0860 
  8 O        2.0290     0.8920     1.1950 O.3   1 <1>  -0.3630 
  9 C        2.4470     2.7090    -0.3280 C.ar  1 <1>   0.0830 
 10 C        2.9780     4.5870    -1.9370 C.2   1 <1>   0.4230 
 11 C        1.3850     1.8120     2.0490 C.3   1 <1>   0.1200 
 12 O        1.4990     3.4620     0.2920 O.3   1 <1>  -0.3630 
 13 O        3.8960     5.2390    -2.3720 O.2   1 <1>  -0.5700 
 14 C        1.6000     5.2260    -2.0660 C.3   1 <1>  -0.0990 
 15 C        0.6200     2.8350     1.2080 C.3   1 <1>   0.1200 
 16 C        1.4380     6.4300    -1.1170 C.3   1 <1>  -0.1600 
 17 C        0.1360     7.2220    -1.3400 C.3   1 <1>  -0.0800 
 18 C        0.1550     8.5010    -0.4880 C.3   1 <1>  -0.1600 
 19 C       -1.1170     6.3930    -1.0070 C.3   1 <1>  -0.1600 
 20 C       -1.1480     9.2900    -0.6070 C.3   1 <1>   0.3430 
 21 C       -2.3960     7.2270    -1.1070 C.3   1 <1>   0.3430 
 22 N       -2.2940     8.4200    -0.2120 N.4   1 <1>  -0.9590 
 23 C       -3.5640     9.2190    -0.1570 C.3   1 <1>   0.3430 
 24 C       -4.7340     8.4320     0.4610 C.3   1 <1>   0.1960 
 25 N       -5.8710     9.3020     0.7510 N.am  1 <1>  -0.9140 
 26 S       -7.1330     8.4460     1.4460 S.o2  1 <1>   1.3330 
 27 O       -7.8520     7.9720     0.2930 O.2   1 <1>  -0.6500 
 28 O       -6.5400     7.5250     2.3840 O.2   1 <1>  -0.6500 
 29 C       -8.0640     9.6930     2.3090 C.3   1 <1>  -0.1350 
 30 H        4.7560     2.8470    -2.7830 H     1 <1>   0.1500 
 31 H        3.5050    -0.9530     0.8520 H     1 <1>   0.4000 
 32 H        4.8030    -1.1270    -0.2710 H     1 <1>   0.4000 
 33 H        2.1330     2.2970     2.6510 H     1 <1>   0.0800 
 34 H        0.7170     1.2620     2.6870 H     1 <1>   0.0800 
 35 H        0.8390     4.4890    -1.8950 H     1 <1>   0.0800 
 36 H        1.4970     5.5620    -3.0820 H     1 <1>   0.0800 
 37 H        0.1900     3.5960     1.8330 H     1 <1>   0.0800 
 38 H       -0.1600     2.3480     0.6490 H     1 <1>   0.0800 
 39 H        2.2740     7.0910    -1.2820 H     1 <1>   0.0800 
 40 H        1.4980     6.0930    -0.0970 H     1 <1>   0.0800 
 41 H        0.0920     7.5120    -2.3780 H     1 <1>   0.0800 
 42 H        0.9670     9.1310    -0.8110 H     1 <1>   0.0800 
 43 H        0.3310     8.2600     0.5460 H     1 <1>   0.0800 
 44 H       -1.0370     5.9790    -0.0170 H     1 <1>   0.0800 
 45 H       -1.2020     5.5700    -1.6940 H     1 <1>   0.0800 
 46 H       -1.2750     9.6260    -1.6240 H     1 <1>   0.0800 
 47 H       -1.1010    10.1560     0.0340 H     1 <1>   0.0800 
 48 H       -3.2370     6.6150    -0.8240 H     1 <1>   0.0800 
 49 H       -2.5360     7.5460    -2.1270 H     1 <1>   0.0800 
 50 H       -2.0850     8.0760     0.7360 H     1 <1>   0.4500 
 51 H       -3.8360     9.5410    -1.1480 H     1 <1>   0.0800 
 52 H       -3.4010    10.0950     0.4510 H     1 <1>   0.0800 
 53 H       -4.3910     7.9930     1.3830 H     1 <1>   0.0800 
 54 H       -5.0510     7.6440    -0.2030 H     1 <1>   0.0800 
 55 H       -6.2880     9.5980    -0.1350 H     1 <1>   0.4200 
 56 H       -8.3990    10.4500     1.6270 H     1 <1>   0.0800 
 57 H       -7.4580    10.1500     3.0660 H     1 <1>   0.0800 
 58 H       -8.9210     9.2500     2.7780 H     1 <1>   0.0800 
@<TRIPOS>BOND
  1   1   2  1   
  2   2   3  ar  
  3   2   4  ar  
  4   3   5  1   
  5   3   6  ar  
  6   4   7  ar  
  7   4  30  1   
  8   5  31  1   
  9   5  32  1   
 10   6   8  1   
 11   6   9  ar  
 12   7   9  ar  
 13   7  10  1   
 14   8  11  1   
 15   9  12  1   
 16  10  13  2   
 17  10  14  1   
 18  11  15  1   
 19  11  33  1   
 20  11  34  1   
 21  12  15  1   
 22  14  16  1   
 23  14  35  1   
 24  14  36  1   
 25  15  37  1   
 26  15  38  1   
 27  16  17  1   
 28  16  39  1   
 29  16  40  1   
 30  17  18  1   
 31  17  19  1   
 32  17  41  1   
 33  18  20  1   
 34  18  42  1   
 35  18  43  1   
 36  19  21  1   
 37  19  44  1   
 38  19  45  1   
 39  20  22  1   
 40  20  46  1   
 41  20  47  1   
 42  21  22  1   
 43  21  48  1   
 44  21  49  1   
 45  22  23  1   
 46  22  50  1   
 47  23  24  1   
 48  23  51  1   
 49  23  52  1   
 50  24  25  1   
 51  24  53  1   
 52  24  54  1   
 53  25  26  am  
 54  25  55  1   
 55  26  27  2   
 56  26  28  2   
 57  26  29  1   
 58  29  56  1   
 59  29  57  1   
 60  29  58  1   
@<TRIPOS>SUBSTRUCTURE
  1 ****  19 GROUP 4 **** **** 0

# MOE 2024.06 (io_trps.svl 2023.06)
