@<TRIPOS>MOLECULE
NONAME
40 41 1 0 0 
SMALL
USER_CHARGES


@<TRIPOS>ATOM
  1 O        2.1640     5.8660    -3.4460 O.co2 1 <1>  -0.9000 
  2 C        1.1080     5.3390    -3.0300 C.2   1 <1>   1.0330 
  3 O        0.0770     5.4020    -3.7180 O.co2 1 <1>  -0.9000 
  4 C        1.0800     4.8100    -1.6740 C.2   1 <1>  -0.0060 
  5 N        2.1490     4.2300    -1.0480 N.2   1 <1>  -0.5650 
  6 C        0.1050     4.9480    -0.7550 C.2   1 <1>  -0.0100 
  7 C        1.8250     4.2540     0.1900 C.2   1 <1>   0.5620 
  8 O        0.5780     4.6030     0.4180 O.3   1 <1>  -0.2800 
  9 N        2.7570     4.2440     1.2090 N.pl3 1 <1>  -0.8220 
 10 C        2.9770     5.5810     1.8470 C.3   1 <1>   0.2090 
 11 C        3.9830     3.4000     1.0790 C.3   1 <1>   0.2090 
 12 C        3.3260     6.6840     0.8100 C.3   1 <1>   0.3430 
 13 C        5.0090     3.8970     0.0370 C.3   1 <1>  -0.1600 
 14 N        4.1170     6.1580    -0.3500 N.4   1 <1>  -0.9590 
 15 C        5.3310     5.3960     0.0140 C.3   1 <1>   0.3430 
 16 C        4.2290     7.0690    -1.5320 C.3   1 <1>   0.3430 
 17 C        4.8140     8.4610    -1.2100 C.3   1 <1>  -0.0800 
 18 C        4.8560     9.2880    -2.5020 C.3   1 <1>  -0.2400 
 19 C        6.2210     8.4260    -0.5900 C.3   1 <1>  -0.2400 
 20 H       -0.8970     5.3300    -0.8530 H     1 <1>   0.1500 
 21 H        3.7700     5.5080     2.5710 H     1 <1>   0.0800 
 22 H        2.0860     5.8690     2.3790 H     1 <1>   0.0800 
 23 H        3.6790     2.4000     0.8150 H     1 <1>   0.0800 
 24 H        4.4560     3.3390     2.0450 H     1 <1>   0.0800 
 25 H        3.8590     7.4820     1.2950 H     1 <1>   0.0800 
 26 H        2.4000     7.0880     0.4340 H     1 <1>   0.0800 
 27 H        4.6880     3.5960    -0.9450 H     1 <1>   0.0800 
 28 H        5.9270     3.3670     0.2160 H     1 <1>   0.0800 
 29 H        3.4910     5.4110    -0.7260 H     1 <1>   0.4500 
 30 H        6.0980     5.5750    -0.7220 H     1 <1>   0.0800 
 31 H        5.7000     5.7170     0.9740 H     1 <1>   0.0800 
 32 H        3.2460     7.2060    -1.9560 H     1 <1>   0.0800 
 33 H        4.8240     6.5930    -2.2950 H     1 <1>   0.0800 
 34 H        4.1460     8.9660    -0.5350 H     1 <1>   0.0800 
 35 H        5.5220     8.8420    -3.2210 H     1 <1>   0.0800 
 36 H        5.1920    10.2910    -2.3000 H     1 <1>   0.0800 
 37 H        3.8750     9.3460    -2.9430 H     1 <1>   0.0800 
 38 H        6.9000     7.8770    -1.2190 H     1 <1>   0.0800 
 39 H        6.2020     7.9790     0.3860 H     1 <1>   0.0800 
 40 H        6.6010     9.4270    -0.4800 H     1 <1>   0.0800 
@<TRIPOS>BOND
  1   1   2  ar  
  2   2   3  ar  
  3   2   4  1   
  4   4   5  1   
  5   4   6  2   
  6   5   7  2   
  7   6   8  1   
  8   6  20  1   
  9   7   8  1   
 10   7   9  1   
 11   9  10  1   
 12   9  11  1   
 13  10  12  1   
 14  10  21  1   
 15  10  22  1   
 16  11  13  1   
 17  11  23  1   
 18  11  24  1   
 19  12  14  1   
 20  12  25  1   
 21  12  26  1   
 22  13  15  1   
 23  13  27  1   
 24  13  28  1   
 25  14  15  1   
 26  14  16  1   
 27  14  29  1   
 28  15  30  1   
 29  15  31  1   
 30  16  17  1   
 31  16  32  1   
 32  16  33  1   
 33  17  18  1   
 34  17  19  1   
 35  17  34  1   
 36  18  35  1   
 37  18  36  1   
 38  18  37  1   
 39  19  38  1   
 40  19  39  1   
 41  19  40  1   
@<TRIPOS>SUBSTRUCTURE
  1 ****  14 GROUP 4 **** **** 0

# MOE 2024.06 (io_trps.svl 2023.06)
