@<TRIPOS>MOLECULE
NONAME
42 44 1 0 0 
SMALL
USER_CHARGES


@<TRIPOS>ATOM
  1 O       -0.5500     0.1650     1.0910 O.2   1 <1>  -0.5700 
  2 C       -1.4920     0.7640     0.6290 C.2   1 <1>   0.5690 
  3 N       -2.5860     0.0730     0.1640 N.am  1 <1>  -0.6600 
  4 C       -1.3640     2.2930     0.5910 C.3   1 <1>  -0.0190 
  5 C       -3.8600     0.5980    -0.3930 C.3   1 <1>   0.1400 
  6 C       -2.5900    -1.4130     0.1330 C.3   1 <1>   0.1400 
  7 C       -2.4640     3.0670     1.3420 C.3   1 <1>  -0.1600 
  8 C       -1.1810     2.8560    -0.8310 C.3   1 <1>  -0.1600 
  9 C       -4.5720    -0.6250    -0.9700 C.3   1 <1>   0.2000 
 10 C       -4.0310    -1.8150    -0.1850 C.3   1 <1>  -0.0800 
 11 C       -2.2230     4.5760     1.2310 C.3   1 <1>   0.1200 
 12 C       -1.0490     4.3820    -0.7950 C.3   1 <1>   0.1200 
 13 O       -5.9470    -0.5390    -0.8170 O.3   1 <1>  -0.6800 
 14 C       -4.1640    -3.1400    -0.9550 C.3   1 <1>  -0.0170 
 15 O       -2.1400     4.9240    -0.1160 O.3   1 <1>  -0.5600 
 16 C       -3.6560    -4.3190    -0.1410 C.ar  1 <1>   0.1670 
 17 N       -2.3500    -4.5330    -0.1630 N.ar  1 <1>  -0.6200 
 18 C       -4.5520    -5.1070     0.5790 C.ar  1 <1>   0.1600 
 19 C       -2.0040    -5.5720     0.5790 C.ar  1 <1>   0.1600 
 20 N       -4.2090    -6.1460     1.3220 N.ar  1 <1>  -0.6200 
 21 C       -2.9030    -6.3510     1.2980 C.ar  1 <1>   0.1600 
 22 H       -0.4480     2.5150     1.1120 H     1 <1>   0.0800 
 23 H       -4.4450     1.0190     0.4040 H     1 <1>   0.0800 
 24 H       -3.6860     1.3270    -1.1610 H     1 <1>   0.0800 
 25 H       -1.9170    -1.7470    -0.6400 H     1 <1>   0.0800 
 26 H       -2.2660    -1.8200     1.0760 H     1 <1>   0.0800 
 27 H       -2.4710     2.7770     2.3770 H     1 <1>   0.0800 
 28 H       -3.4330     2.8660     0.9330 H     1 <1>   0.0800 
 29 H       -2.0140     2.6050    -1.4580 H     1 <1>   0.0800 
 30 H       -0.2980     2.4310    -1.2750 H     1 <1>   0.0800 
 31 H       -4.3500    -0.7140    -2.0200 H     1 <1>   0.0800 
 32 H       -4.5520    -1.8920     0.7530 H     1 <1>   0.0800 
 33 H       -1.3100     4.8680     1.7220 H     1 <1>   0.0800 
 34 H       -3.0440     5.1230     1.6620 H     1 <1>   0.0800 
 35 H       -1.0490     4.7850    -1.7930 H     1 <1>   0.0800 
 36 H       -0.1450     4.6870    -0.2950 H     1 <1>   0.0800 
 37 H       -6.1820    -0.4520     0.1270 H     1 <1>   0.4000 
 38 H       -3.6100    -3.0870    -1.8770 H     1 <1>   0.0800 
 39 H       -5.1970    -3.2990    -1.2090 H     1 <1>   0.0800 
 40 H       -5.6000    -4.8660     0.5420 H     1 <1>   0.1500 
 41 H       -0.9580    -5.8180     0.6220 H     1 <1>   0.1500 
 42 H       -2.5240    -7.1770     1.8740 H     1 <1>   0.1500 
@<TRIPOS>BOND
  1   1   2  2   
  2   2   3  am  
  3   2   4  1   
  4   3   5  1   
  5   3   6  1   
  6   4   7  1   
  7   4   8  1   
  8   4  22  1   
  9   5   9  1   
 10   5  23  1   
 11   5  24  1   
 12   6  10  1   
 13   6  25  1   
 14   6  26  1   
 15   7  11  1   
 16   7  27  1   
 17   7  28  1   
 18   8  12  1   
 19   8  29  1   
 20   8  30  1   
 21   9  10  1   
 22   9  13  1   
 23   9  31  1   
 24  10  14  1   
 25  10  32  1   
 26  11  15  1   
 27  11  33  1   
 28  11  34  1   
 29  12  15  1   
 30  12  35  1   
 31  12  36  1   
 32  13  37  1   
 33  14  16  1   
 34  14  38  1   
 35  14  39  1   
 36  16  17  ar  
 37  16  18  ar  
 38  17  19  ar  
 39  18  20  ar  
 40  18  40  1   
 41  19  21  ar  
 42  19  41  1   
 43  20  21  ar  
 44  21  42  1   
@<TRIPOS>SUBSTRUCTURE
  1 ****   6 GROUP 4 **** **** 0

# MOE 2024.06 (io_trps.svl 2023.06)
