@<TRIPOS>MOLECULE
NONAME
55 58 1 0 0 
SMALL
USER_CHARGES


@<TRIPOS>ATOM
  1 O       -0.0330    -1.3300     0.4740 O.co2 1 <1>  -0.9000 
  2 C       -0.3030    -2.3460    -0.1690 C.2   1 <1>   1.0330 
  3 O       -1.4390    -2.8500    -0.0320 O.co2 1 <1>  -0.9000 
  4 C        0.6390    -3.0350    -0.9930 C.2   1 <1>  -0.2330 
  5 C        0.2700    -3.8920    -2.0270 C.2   1 <1>   0.3720 
  6 C        1.9950    -3.1290    -0.9770 C.2   1 <1>   0.0870 
  7 N        1.2890    -4.4550    -2.5660 N.2   1 <1>  -0.4100 
  8 N       -1.0450    -4.1720    -2.3730 N.pl3 1 <1>  -0.8520 
  9 O        2.3240    -3.9680    -1.9340 O.3   1 <1>  -0.0190 
 10 C        3.0330    -2.5780    -0.1400 C.ar  1 <1>   0.0530 
 11 C       -1.4680    -5.6050    -2.3020 C.3   1 <1>   0.2090 
 12 C        4.3090    -2.3390    -0.6530 C.ar  1 <1>  -0.1500 
 13 C        2.8230    -2.2890     1.2080 C.ar  1 <1>  -0.1500 
 14 C       -2.1600    -6.0130    -0.9560 C.3   1 <1>   0.5030 
 15 C        5.3270    -1.8400     0.1390 C.ar  1 <1>  -0.1500 
 16 C        3.8340    -1.7880     2.0060 C.ar  1 <1>  -0.1500 
 17 N       -1.2810    -5.5690     0.1930 N.4   1 <1>  -0.9590 
 18 C       -2.3570    -7.5500    -0.9770 C.3   1 <1>  -0.1600 
 19 C       -3.5540    -5.3250    -0.9030 C.3   1 <1>  -0.1600 
 20 C        5.0910    -1.5630     1.4740 C.ar  1 <1>  -0.1500 
 21 C        0.0990    -6.1830     0.2430 C.3   1 <1>   0.3430 
 22 C       -1.8600    -5.3560     1.5560 C.3   1 <1>   0.3430 
 23 C       -3.3080    -8.1000     0.0970 C.3   1 <1>  -0.1600 
 24 C       -4.6050    -5.9240     0.0600 C.3   1 <1>  -0.1600 
 25 C        0.7730    -6.0900     1.6240 C.3   1 <1>   0.1200 
 26 C       -0.8760    -4.6270     2.5040 C.3   1 <1>   0.1200 
 27 C       -4.6880    -7.4500    -0.0390 C.3   1 <1>  -0.1600 
 28 O        0.4820    -4.8720     2.2300 O.3   1 <1>  -0.5600 
 29 H       -1.6540    -3.5630    -1.7890 H     1 <1>   0.4000 
 30 H       -0.6130    -6.2370    -2.4680 H     1 <1>   0.0800 
 31 H       -2.1420    -5.7920    -3.1190 H     1 <1>   0.0800 
 32 H        4.5030    -2.5460    -1.6910 H     1 <1>   0.1500 
 33 H        1.8520    -2.4570     1.6400 H     1 <1>   0.1500 
 34 H        6.3010    -1.6650    -0.2820 H     1 <1>   0.1500 
 35 H        3.6370    -1.5700     3.0410 H     1 <1>   0.1500 
 36 H       -1.1130    -4.5640    -0.0560 H     1 <1>   0.4500 
 37 H       -1.4200    -8.0710    -0.9320 H     1 <1>   0.0800 
 38 H       -2.7890    -7.8110    -1.9280 H     1 <1>   0.0800 
 39 H       -3.9870    -5.3950    -1.8850 H     1 <1>   0.0800 
 40 H       -3.4420    -4.2740    -0.7050 H     1 <1>   0.0800 
 41 H        5.8770    -1.1730     2.0950 H     1 <1>   0.1500 
 42 H        0.7350    -5.6920    -0.4730 H     1 <1>   0.0800 
 43 H        0.0620    -7.2200    -0.0290 H     1 <1>   0.0800 
 44 H       -2.1390    -6.2980     1.9910 H     1 <1>   0.0800 
 45 H       -2.7380    -4.7390     1.4820 H     1 <1>   0.0800 
 46 H       -2.9120    -7.9320     1.0810 H     1 <1>   0.0800 
 47 H       -3.4100    -9.1640    -0.0310 H     1 <1>   0.0800 
 48 H       -5.5700    -5.5080    -0.1800 H     1 <1>   0.0800 
 49 H       -4.4090    -5.6510     1.0780 H     1 <1>   0.0800 
 50 H        1.8420    -6.1590     1.5180 H     1 <1>   0.0800 
 51 H        0.4400    -6.8830     2.2700 H     1 <1>   0.0800 
 52 H       -1.0690    -4.9100     3.5230 H     1 <1>   0.0800 
 53 H       -1.0230    -3.5630     2.4240 H     1 <1>   0.0800 
 54 H       -5.3430    -7.8260     0.7290 H     1 <1>   0.0800 
 55 H       -5.1180    -7.7210    -0.9890 H     1 <1>   0.0800 
@<TRIPOS>BOND
  1   1   2  ar  
  2   2   3  ar  
  3   2   4  1   
  4   4   5  1   
  5   4   6  2   
  6   5   7  2   
  7   5   8  1   
  8   6   9  1   
  9   6  10  1   
 10   7   9  1   
 11   8  11  1   
 12   8  29  1   
 13  10  12  ar  
 14  10  13  ar  
 15  11  14  1   
 16  11  30  1   
 17  11  31  1   
 18  12  15  ar  
 19  12  32  1   
 20  13  16  ar  
 21  13  33  1   
 22  14  17  1   
 23  14  18  1   
 24  14  19  1   
 25  15  20  ar  
 26  15  34  1   
 27  16  20  ar  
 28  16  35  1   
 29  17  21  1   
 30  17  22  1   
 31  17  36  1   
 32  18  23  1   
 33  18  37  1   
 34  18  38  1   
 35  19  24  1   
 36  19  39  1   
 37  19  40  1   
 38  20  41  1   
 39  21  25  1   
 40  21  42  1   
 41  21  43  1   
 42  22  26  1   
 43  22  44  1   
 44  22  45  1   
 45  23  27  1   
 46  23  46  1   
 47  23  47  1   
 48  24  27  1   
 49  24  48  1   
 50  24  49  1   
 51  25  28  1   
 52  25  50  1   
 53  25  51  1   
 54  26  28  1   
 55  26  52  1   
 56  26  53  1   
 57  27  54  1   
 58  27  55  1   
@<TRIPOS>SUBSTRUCTURE
  1 ****   4 GROUP 4 **** **** 0

# MOE 2024.06 (io_trps.svl 2023.06)
