@<TRIPOS>MOLECULE
NONAME
51 54 1 0 0 
SMALL
USER_CHARGES


@<TRIPOS>ATOM
  1 O       -0.8270     0.5670    -1.0760 O.2   1 <1>  -0.5700 
  2 C       -1.8340     1.1360    -0.6840 C.2   1 <1>   0.5440 
  3 N       -3.0640     0.5990    -1.0110 N.am  1 <1>  -0.6600 
  4 C       -1.7150     2.3350     0.1190 C.ar  1 <1>   0.0860 
  5 C       -3.2090    -0.4770    -2.0300 C.3   1 <1>   0.1400 
  6 C       -4.3010     0.8380    -0.2180 C.3   1 <1>   0.1400 
  7 C       -0.8900     2.3770     1.2570 C.ar  1 <1>   0.1000 
  8 C       -2.4240     3.4880    -0.2230 C.ar  1 <1>  -0.1500 
  9 C       -3.5830    -1.7850    -1.3290 C.3   1 <1>  -0.1600 
 10 C       -4.6800    -0.4540     0.5070 C.3   1 <1>  -0.1600 
 11 N       -0.1350     1.2810     1.6390 N.pl3 1 <1>  -0.9000 
 12 C       -0.8180     3.5380     2.0210 C.ar  1 <1>  -0.1500 
 13 C       -2.3400     4.6300     0.5450 C.ar  1 <1>   0.0830 
 14 C       -4.8450    -1.6340    -0.4680 C.3   1 <1>   0.4240 
 15 C       -1.5370     4.6630     1.6740 C.ar  1 <1>  -0.1500 
 16 O       -3.0490     5.7140     0.1870 O.3   1 <1>  -0.5320 
 17 O       -5.8750    -1.3090    -1.3730 O.3   1 <1>  -0.5600 
 18 C       -5.1410    -2.9460     0.2900 C.ar  1 <1>  -0.1430 
 19 C       -7.1870    -1.5530    -0.9710 C.3   1 <1>   0.1200 
 20 C       -6.3440    -3.6240     0.1180 C.ar  1 <1>  -0.1430 
 21 C       -4.2030    -3.4750     1.1720 C.ar  1 <1>  -0.1500 
 22 C       -7.3860    -3.0580    -0.8260 C.3   1 <1>  -0.0170 
 23 C       -6.5970    -4.8030     0.8010 C.ar  1 <1>  -0.1500 
 24 C       -4.4560    -4.6490     1.8560 C.ar  1 <1>  -0.1500 
 25 C       -5.6500    -5.3240     1.6760 C.ar  1 <1>   0.0830 
 26 O       -5.8180    -6.4690     2.3830 O.3   1 <1>  -0.3630 
 27 C       -6.9890    -7.2430     2.2560 C.3   1 <1>   0.0400 
 28 H       -2.2930    -0.6060    -2.5810 H     1 <1>   0.0800 
 29 H       -3.9800    -0.2000    -2.7290 H     1 <1>   0.0800 
 30 H       -5.0940     1.1380    -0.8820 H     1 <1>   0.0800 
 31 H       -4.1540     1.6180     0.5070 H     1 <1>   0.0800 
 32 H       -3.0460     3.4870    -1.0990 H     1 <1>   0.1500 
 33 H       -2.7490    -2.0820    -0.7220 H     1 <1>   0.0800 
 34 H       -3.7430    -2.5570    -2.0580 H     1 <1>   0.0800 
 35 H       -5.5820    -0.3110     1.0700 H     1 <1>   0.0800 
 36 H       -3.9020    -0.6790     1.2130 H     1 <1>   0.0800 
 37 H        0.7490     1.4650     2.1190 H     1 <1>   0.4000 
 38 H       -0.0100     0.5860     0.8830 H     1 <1>   0.4000 
 39 H       -0.1930     3.5490     2.8950 H     1 <1>   0.1500 
 40 H       -1.4720     5.5520     2.2750 H     1 <1>   0.1500 
 41 H       -2.9010     6.4720     0.7800 H     1 <1>   0.4500 
 42 H       -7.8420    -1.1570    -1.7270 H     1 <1>   0.0800 
 43 H       -7.3750    -1.0450    -0.0420 H     1 <1>   0.0800 
 44 H       -3.2650    -2.9750     1.3360 H     1 <1>   0.1500 
 45 H       -7.2940    -3.5260    -1.7900 H     1 <1>   0.0800 
 46 H       -8.3740    -3.2500    -0.4490 H     1 <1>   0.0800 
 47 H       -7.5310    -5.3050     0.6430 H     1 <1>   0.1500 
 48 H       -3.7260    -5.0520     2.5350 H     1 <1>   0.1500 
 49 H       -6.8940    -8.1010     2.8970 H     1 <1>   0.0800 
 50 H       -7.0890    -7.5610     1.2330 H     1 <1>   0.0800 
 51 H       -7.8340    -6.6510     2.5610 H     1 <1>   0.0800 
@<TRIPOS>BOND
  1   1   2  2   
  2   2   3  am  
  3   2   4  1   
  4   3   5  1   
  5   3   6  1   
  6   4   7  ar  
  7   4   8  ar  
  8   5   9  1   
  9   5  28  1   
 10   5  29  1   
 11   6  10  1   
 12   6  30  1   
 13   6  31  1   
 14   7  11  1   
 15   7  12  ar  
 16   8  13  ar  
 17   8  32  1   
 18   9  14  1   
 19   9  33  1   
 20   9  34  1   
 21  10  14  1   
 22  10  35  1   
 23  10  36  1   
 24  11  37  1   
 25  11  38  1   
 26  12  15  ar  
 27  12  39  1   
 28  13  15  ar  
 29  13  16  1   
 30  14  17  1   
 31  14  18  1   
 32  15  40  1   
 33  16  41  1   
 34  17  19  1   
 35  18  20  ar  
 36  18  21  ar  
 37  19  22  1   
 38  19  42  1   
 39  19  43  1   
 40  20  22  1   
 41  20  23  ar  
 42  21  24  ar  
 43  21  44  1   
 44  22  45  1   
 45  22  46  1   
 46  23  25  ar  
 47  23  47  1   
 48  24  25  ar  
 49  24  48  1   
 50  25  26  1   
 51  26  27  1   
 52  27  49  1   
 53  27  50  1   
 54  27  51  1   
@<TRIPOS>SUBSTRUCTURE
  1 ****  10 GROUP 4 **** **** 0

# MOE 2024.06 (io_trps.svl 2023.06)
