@<TRIPOS>MOLECULE
NONAME
50 51 1 0 0 
SMALL
USER_CHARGES


@<TRIPOS>ATOM
  1 O       -0.2830     0.8750    -0.5930 O.2   1 <1>  -0.5700 
  2 C       -0.3560     2.0810    -0.6150 C.2   1 <1>   0.5690 
  3 N       -1.1380     2.7850     0.2610 N.am  1 <1>  -0.6600 
  4 C        0.4440     2.8340    -1.6790 C.3   1 <1>   0.1810 
  5 C       -1.2380     4.2810     0.1840 C.3   1 <1>   0.3640 
  6 C       -1.8820     2.1310     1.3760 C.3   1 <1>   0.0600 
  7 O        0.7270     4.1560    -1.3010 O.3   1 <1>  -0.5600 
  8 C       -2.7040     4.7440     0.1600 C.ar  1 <1>  -0.1430 
  9 C       -0.4210     4.9210    -0.9670 C.3   1 <1>   0.2610 
 10 C       -3.6820     4.2590    -0.7160 C.ar  1 <1>  -0.1430 
 11 C       -3.0600     5.7220     1.0830 C.ar  1 <1>  -0.1500 
 12 C       -0.0780     6.3720    -0.5950 C.2   1 <1>   0.5690 
 13 C       -4.9770     4.7510    -0.6330 C.ar  1 <1>  -0.1500 
 14 C       -3.4140     3.1960    -1.7760 C.3   1 <1>  -0.0960 
 15 C       -4.3520     6.2060     1.1540 C.ar  1 <1>  -0.1500 
 16 O       -0.7860     7.2280    -1.0790 O.2   1 <1>  -0.5700 
 17 N        0.9410     6.7050     0.2800 N.am  1 <1>  -0.6600 
 18 C       -5.3150     5.7180     0.2950 C.ar  1 <1>  -0.1500 
 19 C        1.3080     8.1510     0.4850 C.3   1 <1>   0.1400 
 20 C        1.8880     5.7210     0.8740 C.3   1 <1>   0.0600 
 21 C        2.5830     8.6570    -0.2590 C.3   1 <1>   0.2800 
 22 O        2.7650     7.9810    -1.4450 O.3   1 <1>  -0.6800 
 23 C        3.8640     8.4550     0.5550 C.3   1 <1>  -0.2400 
 24 C        2.4360    10.1330    -0.6320 C.3   1 <1>  -0.2400 
 25 H       -0.1030     2.8510    -2.6040 H     1 <1>   0.0800 
 26 H        1.3810     2.3330    -1.8390 H     1 <1>   0.0800 
 27 H       -0.8090     4.6460     1.0990 H     1 <1>   0.0800 
 28 H       -1.6050     2.5790     2.3140 H     1 <1>   0.0800 
 29 H       -1.6570     1.0790     1.4180 H     1 <1>   0.0800 
 30 H       -2.9420     2.2480     1.2290 H     1 <1>   0.0800 
 31 H       -1.0320     4.9660    -1.8490 H     1 <1>   0.0800 
 32 H       -2.3270     6.1260     1.7590 H     1 <1>   0.1500 
 33 H       -5.7400     4.3840    -1.2950 H     1 <1>   0.1500 
 34 H       -4.2260     3.1420    -2.4790 H     1 <1>   0.0800 
 35 H       -3.3100     2.2310    -1.3140 H     1 <1>   0.0800 
 36 H       -2.5240     3.4190    -2.3310 H     1 <1>   0.0800 
 37 H       -4.6050     6.9650     1.8730 H     1 <1>   0.1500 
 38 H       -6.3230     6.0900     0.3450 H     1 <1>   0.1500 
 39 H        0.4810     8.7650     0.1740 H     1 <1>   0.0800 
 40 H        1.4220     8.3340     1.5370 H     1 <1>   0.0800 
 41 H        2.2860     6.1000     1.7980 H     1 <1>   0.0800 
 42 H        2.6950     5.5470     0.1820 H     1 <1>   0.0800 
 43 H        1.4030     4.7840     1.0750 H     1 <1>   0.0800 
 44 H        3.4980     8.3800    -1.9440 H     1 <1>   0.4000 
 45 H        3.7790     8.9530     1.5040 H     1 <1>   0.0800 
 46 H        4.7120     8.8640     0.0380 H     1 <1>   0.0800 
 47 H        4.0420     7.4120     0.7350 H     1 <1>   0.0800 
 48 H        2.2930    10.7240     0.2540 H     1 <1>   0.0800 
 49 H        1.5790    10.2690    -1.2690 H     1 <1>   0.0800 
 50 H        3.3120    10.4930    -1.1400 H     1 <1>   0.0800 
@<TRIPOS>BOND
  1   1   2  2   
  2   2   3  am  
  3   2   4  1   
  4   3   5  1   
  5   3   6  1   
  6   4   7  1   
  7   4  25  1   
  8   4  26  1   
  9   5   8  1   
 10   5   9  1   
 11   5  27  1   
 12   6  28  1   
 13   6  29  1   
 14   6  30  1   
 15   7   9  1   
 16   8  10  ar  
 17   8  11  ar  
 18   9  12  1   
 19   9  31  1   
 20  10  13  ar  
 21  10  14  1   
 22  11  15  ar  
 23  11  32  1   
 24  12  16  2   
 25  12  17  am  
 26  13  18  ar  
 27  13  33  1   
 28  14  34  1   
 29  14  35  1   
 30  14  36  1   
 31  15  18  ar  
 32  15  37  1   
 33  17  19  1   
 34  17  20  1   
 35  18  38  1   
 36  19  21  1   
 37  19  39  1   
 38  19  40  1   
 39  20  41  1   
 40  20  42  1   
 41  20  43  1   
 42  21  22  1   
 43  21  23  1   
 44  21  24  1   
 45  22  44  1   
 46  23  45  1   
 47  23  46  1   
 48  23  47  1   
 49  24  48  1   
 50  24  49  1   
 51  24  50  1   
@<TRIPOS>SUBSTRUCTURE
  1 ****   9 GROUP 4 **** **** 0

# MOE 2024.06 (io_trps.svl 2023.06)
