@<TRIPOS>MOLECULE
NONAME
44 45 1 0 0 
SMALL
USER_CHARGES


@<TRIPOS>ATOM
  1 CL      -1.9020    -0.7020     3.3670 Cl    1 <1>  -0.1770 
  2 C       -2.3000    -1.2890     1.7700 C.ar  1 <1>   0.1770 
  3 C       -2.2180    -0.4450     0.6720 C.ar  1 <1>  -0.1440 
  4 C       -2.6940    -2.6080     1.6520 C.ar  1 <1>  -0.1500 
  5 C       -2.5380    -0.9940    -0.5630 C.ar  1 <1>   0.1770 
  6 C       -1.7840     1.0100     0.8420 C.3   1 <1>  -0.0960 
  7 C       -3.0340    -3.1520     0.4140 C.ar  1 <1>   0.0860 
  8 CL      -2.4590    -0.0390    -2.0230 Cl    1 <1>  -0.1770 
  9 C       -2.9320    -2.3120    -0.6950 C.ar  1 <1>  -0.1500 
 10 C       -3.4730    -4.5310     0.2940 C.2   1 <1>   0.5440 
 11 O       -3.1470    -5.3600     1.1210 O.2   1 <1>  -0.5700 
 12 N       -4.3310    -4.9300    -0.7040 N.am  1 <1>  -0.6600 
 13 C       -4.2040    -6.3060    -1.2630 C.3   1 <1>   0.3200 
 14 C       -5.6740    -4.2910    -0.8580 C.3   1 <1>   0.1400 
 15 C       -5.1990    -7.1880    -0.5450 C.2   1 <1>  -0.3320 
 16 C       -6.4750    -4.4010     0.4590 C.3   1 <1>   0.3430 
 17 N       -5.0500    -7.5300     0.7480 N.pl3 1 <1>   0.0330 
 18 C       -6.3500    -7.7550    -0.9650 C.2   1 <1>   0.0770 
 19 N       -7.9590    -4.2540     0.2790 N.4   1 <1>  -0.9590 
 20 C       -6.1510    -8.2500     1.0460 C.2   1 <1>   0.0360 
 21 N       -6.9670    -8.3870     0.0490 N.2   1 <1>  -0.5650 
 22 C       -8.6050    -3.9510     1.5930 C.3   1 <1>   0.2630 
 23 C       -8.5560    -5.5100    -0.2830 C.3   1 <1>   0.2630 
 24 H       -2.7320    -3.2220     2.5360 H     1 <1>   0.1500 
 25 H       -2.3000     1.4600     1.6710 H     1 <1>   0.0800 
 26 H       -1.9960     1.6010    -0.0290 H     1 <1>   0.0800 
 27 H       -0.7260     1.0530     1.0330 H     1 <1>   0.0800 
 28 H       -3.1520    -2.6870    -1.6780 H     1 <1>   0.1500 
 29 H       -3.2020    -6.6790    -1.1170 H     1 <1>   0.0800 
 30 H       -4.4060    -6.2880    -2.3200 H     1 <1>   0.0800 
 31 H       -6.2030    -4.7840    -1.6540 H     1 <1>   0.0800 
 32 H       -5.5520    -3.2560    -1.1230 H     1 <1>   0.0800 
 33 H       -6.1160    -3.6420     1.1340 H     1 <1>   0.0800 
 34 H       -6.2770    -5.3600     0.9060 H     1 <1>   0.0800 
 35 H       -4.2640    -7.2620     1.3590 H     1 <1>   0.2700 
 36 H       -6.7830    -7.7330    -1.9530 H     1 <1>   0.1500 
 37 H       -8.1520    -3.4710    -0.3640 H     1 <1>   0.4500 
 38 H       -6.3150    -8.6630     2.0280 H     1 <1>   0.1500 
 39 H       -8.4300    -4.7540     2.2910 H     1 <1>   0.0800 
 40 H       -9.6700    -3.8310     1.4680 H     1 <1>   0.0800 
 41 H       -8.2050    -3.0400     2.0090 H     1 <1>   0.0800 
 42 H       -8.3640    -6.3440     0.3730 H     1 <1>   0.0800 
 43 H       -8.1300    -5.7350    -1.2470 H     1 <1>   0.0800 
 44 H       -9.6220    -5.4030    -0.3970 H     1 <1>   0.0800 
@<TRIPOS>BOND
  1   1   2  1   
  2   2   3  ar  
  3   2   4  ar  
  4   3   5  ar  
  5   3   6  1   
  6   4   7  ar  
  7   4  24  1   
  8   5   8  1   
  9   5   9  ar  
 10   6  25  1   
 11   6  26  1   
 12   6  27  1   
 13   7   9  ar  
 14   7  10  1   
 15   9  28  1   
 16  10  11  2   
 17  10  12  am  
 18  12  13  1   
 19  12  14  1   
 20  13  15  1   
 21  13  29  1   
 22  13  30  1   
 23  14  16  1   
 24  14  31  1   
 25  14  32  1   
 26  15  17  1   
 27  15  18  2   
 28  16  19  1   
 29  16  33  1   
 30  16  34  1   
 31  17  20  1   
 32  17  35  1   
 33  18  21  1   
 34  18  36  1   
 35  19  22  1   
 36  19  23  1   
 37  19  37  1   
 38  20  21  2   
 39  20  38  1   
 40  22  39  1   
 41  22  40  1   
 42  22  41  1   
 43  23  42  1   
 44  23  43  1   
 45  23  44  1   
@<TRIPOS>SUBSTRUCTURE
  1 ****  10 GROUP 4 **** **** 0

# MOE 2024.06 (io_trps.svl 2023.06)
