@<TRIPOS>MOLECULE
NONAME
34 34 1 0 0 
SMALL
USER_CHARGES


@<TRIPOS>ATOM
  1 O       -0.5480     2.5690    -1.2540 O.2   1 <1>  -0.5700 
  2 C       -0.7680     2.1220    -0.1530 C.2   1 <1>   0.5690 
  3 N        0.2420     1.9730     0.7410 N.am  1 <1>  -0.7300 
  4 C       -2.1950     1.7560     0.2630 C.3   1 <1>  -0.0190 
  5 C        1.6780     2.2770     0.4420 C.3   1 <1>   0.2010 
  6 C       -2.8490     0.7850    -0.7340 C.3   1 <1>  -0.2400 
  7 C       -3.0620     3.0150     0.4200 C.3   1 <1>  -0.2400 
  8 C        1.9910     3.7750     0.3920 C.2   1 <1>   0.5690 
  9 O        2.8550     4.2090     1.1150 O.2   1 <1>  -0.5700 
 10 N        1.2850     4.5590    -0.4670 N.am  1 <1>  -0.4930 
 11 C        1.3080     5.9380    -0.7320 C.2   1 <1>   0.3520 
 12 N        0.4810     6.4340    -1.5670 N.2   1 <1>  -0.4100 
 13 C        2.1090     6.9830    -0.2370 C.2   1 <1>   0.3520 
 14 O        0.7630     7.7010    -1.5790 O.3   1 <1>   0.2420 
 15 N        1.7310     8.0680    -0.7970 N.2   1 <1>  -0.4100 
 16 N        3.1490     6.8970     0.7060 N.am  1 <1>  -0.4930 
 17 C        3.9920     7.8160     1.2390 C.2   1 <1>   0.5690 
 18 O        4.8090     7.4750     2.0540 O.2   1 <1>  -0.5700 
 19 C        3.9470     9.2750     0.8440 C.3   1 <1>  -0.1790 
 20 H        0.0370     1.6600     1.6920 H     1 <1>   0.3700 
 21 H       -2.1500     1.2630     1.2170 H     1 <1>   0.0800 
 22 H        1.9360     1.8460    -0.5090 H     1 <1>   0.0800 
 23 H        2.2990     1.8170     1.1910 H     1 <1>   0.0800 
 24 H       -2.9320     1.2440    -1.7040 H     1 <1>   0.0800 
 25 H       -3.8330     0.5060    -0.4000 H     1 <1>   0.0800 
 26 H       -2.2540    -0.1060    -0.8300 H     1 <1>   0.0800 
 27 H       -3.1440     3.5320    -0.5210 H     1 <1>   0.0800 
 28 H       -2.6220     3.6840     1.1380 H     1 <1>   0.0800 
 29 H       -4.0500     2.7530     0.7560 H     1 <1>   0.0800 
 30 H        0.5530     4.0590    -0.9950 H     1 <1>   0.3700 
 31 H        3.3060     5.9510     1.0780 H     1 <1>   0.3700 
 32 H        2.9880     9.6900     1.0900 H     1 <1>   0.0800 
 33 H        4.1240     9.3730    -0.2100 H     1 <1>   0.0800 
 34 H        4.7070     9.8190     1.3750 H     1 <1>   0.0800 
@<TRIPOS>BOND
  1   1   2  2   
  2   2   3  am  
  3   2   4  1   
  4   3   5  1   
  5   3  20  1   
  6   4   6  1   
  7   4   7  1   
  8   4  21  1   
  9   5   8  1   
 10   5  22  1   
 11   5  23  1   
 12   6  24  1   
 13   6  25  1   
 14   6  26  1   
 15   7  27  1   
 16   7  28  1   
 17   7  29  1   
 18   8   9  2   
 19   8  10  am  
 20  10  11  1   
 21  10  30  1   
 22  11  12  2   
 23  11  13  1   
 24  12  14  1   
 25  13  15  2   
 26  13  16  1   
 27  14  15  1   
 28  16  17  am  
 29  16  31  1   
 30  17  18  2   
 31  17  19  1   
 32  19  32  1   
 33  19  33  1   
 34  19  34  1   
@<TRIPOS>SUBSTRUCTURE
  1 ****  10 GROUP 4 **** **** 0

# MOE 2024.06 (io_trps.svl 2023.06)
