@<TRIPOS>MOLECULE
NONAME
59 62 1 0 0 
SMALL
USER_CHARGES


@<TRIPOS>ATOM
  1 O       -0.0860    -0.1260    -0.4400 O.2   1 <1>  -0.5700 
  2 C       -0.5660     0.1800     0.6330 C.2   1 <1>   0.5440 
  3 N       -1.4090    -0.7040     1.2410 N.am  1 <1>  -0.7300 
  4 C       -0.2930     1.4710     1.2360 C.ar  1 <1>   0.0860 
  5 C       -1.8400    -2.0050     0.6770 C.3   1 <1>   0.2200 
  6 C       -0.0690     2.5910     0.4420 C.ar  1 <1>  -0.1500 
  7 C       -0.2600     1.6510     2.6180 C.ar  1 <1>  -0.1500 
  8 C       -3.2140    -1.8960     0.0260 C.3   1 <1>  -0.0800 
  9 C       -2.1540    -2.9540     1.8250 C.3   1 <1>   0.1200 
 10 C        0.1590     3.8480     0.9800 C.ar  1 <1>   0.1170 
 11 C       -0.0270     2.8950     3.1740 C.ar  1 <1>  -0.1500 
 12 C       -4.1700    -2.0450     1.2140 C.3   1 <1>   0.1200 
 13 C       -3.4590    -0.6420    -0.8340 C.3   1 <1>  -0.0160 
 14 O       -3.4240    -2.5810     2.2700 O.3   1 <1>  -0.5600 
 15 N        0.3680     4.9170     0.1010 N.am  1 <1>  -0.5470 
 16 C        0.1840     4.0000     2.3670 C.ar  1 <1>  -0.1430 
 17 C       -4.8510    -0.6590    -1.4460 C.ar  1 <1>  -0.1430 
 18 C       -0.4340     6.0030    -0.1080 C.2   1 <1>   0.5690 
 19 C        0.4370     5.3540     3.0190 C.3   1 <1>  -0.0970 
 20 C       -5.1610    -1.4540    -2.5310 C.ar  1 <1>  -0.1500 
 21 C       -5.8760     0.1210    -0.9490 C.ar  1 <1>  -0.1500 
 22 O       -1.4680     6.1770     0.4890 O.2   1 <1>  -0.5700 
 23 C       -0.0040     7.0330    -1.1500 C.3   1 <1>  -0.0190 
 24 C       -6.4460    -1.4360    -3.0470 C.ar  1 <1>   0.1600 
 25 C       -7.1270     0.0650    -1.5410 C.ar  1 <1>   0.1600 
 26 C        0.1530     6.4770    -2.5680 C.3   1 <1>  -0.1600 
 27 C        1.3380     7.7200    -0.8540 C.3   1 <1>  -0.1600 
 28 N       -7.4380    -0.6970    -2.5760 N.ar  1 <1>  -0.6200 
 29 C        1.0010     7.5250    -3.2820 C.3   1 <1>  -0.1600 
 30 C        1.9500     8.0760    -2.2150 C.3   1 <1>  -0.1600 
 31 H       -1.9250    -0.4290     2.0800 H     1 <1>   0.3700 
 32 H       -1.0910    -2.3990     0.0110 H     1 <1>   0.0800 
 33 H       -0.0860     2.4750    -0.6270 H     1 <1>   0.1500 
 34 H       -0.4120     0.8070     3.2690 H     1 <1>   0.1500 
 35 H       -3.3470    -2.7600    -0.6000 H     1 <1>   0.0800 
 36 H       -1.4470    -2.8820     2.6320 H     1 <1>   0.0800 
 37 H       -2.2120    -3.9700     1.4750 H     1 <1>   0.0800 
 38 H       -0.0110     3.0000     4.2450 H     1 <1>   0.1500 
 39 H       -4.9870    -2.7090     0.9890 H     1 <1>   0.0800 
 40 H       -4.5540    -1.0930     1.5380 H     1 <1>   0.0800 
 41 H       -2.7240    -0.5980    -1.6200 H     1 <1>   0.0800 
 42 H       -3.3480     0.2490    -0.2420 H     1 <1>   0.0800 
 43 H        1.1630     4.8260    -0.5290 H     1 <1>   0.3700 
 44 H        0.6910     5.2400     4.0580 H     1 <1>   0.0800 
 45 H       -0.4470     5.9610     2.9480 H     1 <1>   0.0800 
 46 H        1.2470     5.8620     2.5290 H     1 <1>   0.0800 
 47 H       -4.4160    -2.0850    -2.9790 H     1 <1>   0.1500 
 48 H       -5.7150     0.7730    -0.1100 H     1 <1>   0.1500 
 49 H       -0.7610     7.7980    -1.1860 H     1 <1>   0.0800 
 50 H       -6.6700    -2.0630    -3.8930 H     1 <1>   0.1500 
 51 H       -7.9140     0.6820    -1.1400 H     1 <1>   0.1500 
 52 H        0.6850     5.5420    -2.5530 H     1 <1>   0.0800 
 53 H       -0.8000     6.3330    -3.0480 H     1 <1>   0.0800 
 54 H        1.1870     8.5980    -0.2500 H     1 <1>   0.0800 
 55 H        2.0020     7.0560    -0.3300 H     1 <1>   0.0800 
 56 H        1.5330     7.1100    -4.1220 H     1 <1>   0.0800 
 57 H        0.3620     8.3180    -3.6320 H     1 <1>   0.0800 
 58 H        2.0660     9.1410    -2.3250 H     1 <1>   0.0800 
 59 H        2.9180     7.6130    -2.3090 H     1 <1>   0.0800 
@<TRIPOS>BOND
  1   1   2  2   
  2   2   3  am  
  3   2   4  1   
  4   3   5  1   
  5   3  31  1   
  6   4   6  ar  
  7   4   7  ar  
  8   5   8  1   
  9   5   9  1   
 10   5  32  1   
 11   6  10  ar  
 12   6  33  1   
 13   7  11  ar  
 14   7  34  1   
 15   8  12  1   
 16   8  13  1   
 17   8  35  1   
 18   9  14  1   
 19   9  36  1   
 20   9  37  1   
 21  10  15  1   
 22  10  16  ar  
 23  11  16  ar  
 24  11  38  1   
 25  12  14  1   
 26  12  39  1   
 27  12  40  1   
 28  13  17  1   
 29  13  41  1   
 30  13  42  1   
 31  15  18  am  
 32  15  43  1   
 33  16  19  1   
 34  17  20  ar  
 35  17  21  ar  
 36  18  22  2   
 37  18  23  1   
 38  19  44  1   
 39  19  45  1   
 40  19  46  1   
 41  20  24  ar  
 42  20  47  1   
 43  21  25  ar  
 44  21  48  1   
 45  23  26  1   
 46  23  27  1   
 47  23  49  1   
 48  24  28  ar  
 49  24  50  1   
 50  25  28  ar  
 51  25  51  1   
 52  26  29  1   
 53  26  52  1   
 54  26  53  1   
 55  27  30  1   
 56  27  54  1   
 57  27  55  1   
 58  29  30  1   
 59  29  56  1   
 60  29  57  1   
 61  30  58  1   
 62  30  59  1   
@<TRIPOS>SUBSTRUCTURE
  1 ****   6 GROUP 4 **** **** 0

# MOE 2024.06 (io_trps.svl 2023.06)
