@<TRIPOS>MOLECULE
NONAME
49 51 1 0 0 
SMALL
USER_CHARGES


@<TRIPOS>ATOM
  1 S       -0.5300    -0.1110    -1.5280 S.o2  1 <1>   1.4470 
  2 O       -0.7360    -1.1610    -2.5010 O.2   1 <1>  -0.6500 
  3 O       -0.4550     1.2640    -1.9770 O.2   1 <1>  -0.6500 
  4 N       -1.8180    -0.1970    -0.4280 N.am  1 <1>  -0.8490 
  5 C        0.9210    -0.5150    -0.5120 C.ar  1 <1>  -0.0090 
  6 C       -3.0960    -0.4430    -1.1120 C.3   1 <1>   0.1960 
  7 C       -1.8390     0.9000     0.5580 C.3   1 <1>   0.1960 
  8 C        2.0850     0.2420    -0.5840 C.ar  1 <1>  -0.1500 
  9 C        0.9050    -1.5990     0.3550 C.ar  1 <1>  -0.1500 
 10 C       -4.2780    -0.1350    -0.1920 C.3   1 <1>  -0.1600 
 11 C       -2.8830     1.9530     0.1870 C.3   1 <1>  -0.1600 
 12 C        3.2090    -0.0540     0.1830 C.ar  1 <1>  -0.1440 
 13 C        2.0060    -1.9120     1.1300 C.ar  1 <1>  -0.1500 
 14 C       -4.3110     1.3530     0.2340 C.3   1 <1>   0.2800 
 15 C        3.1520    -1.1430     1.0460 C.ar  1 <1>  -0.1500 
 16 C        4.4710     0.8190     0.0720 C.3   1 <1>   1.1640 
 17 O       -4.7400     1.3150     1.5700 O.3   1 <1>  -0.5600 
 18 C       -5.3080     2.1750    -0.6390 C.3   1 <1>  -0.1600 
 19 F        5.5510     0.2500     0.5950 F     1 <1>  -0.3400 
 20 F        4.3220     1.9800     0.6950 F     1 <1>  -0.3400 
 21 F        4.7760     1.1060    -1.1870 F     1 <1>  -0.3400 
 22 C       -4.9780     2.5100     2.2790 C.3   1 <1>   0.1200 
 23 C       -6.3110     3.0040     0.1750 C.3   1 <1>   0.2800 
 24 C       -5.5760     3.6090     1.3900 C.3   1 <1>   0.2000 
 25 O       -6.7560     4.0430    -0.6240 O.3   1 <1>  -0.6800 
 26 C       -7.5640     2.1920     0.5390 C.3   1 <1>  -0.2400 
 27 O       -6.4230     4.4210     2.1370 O.3   1 <1>  -0.6800 
 28 H       -3.1650     0.1740    -1.9940 H     1 <1>   0.0800 
 29 H       -3.1340    -1.4740    -1.4250 H     1 <1>   0.0800 
 30 H       -2.0890     0.4900     1.5240 H     1 <1>   0.0800 
 31 H       -0.8670     1.3560     0.6420 H     1 <1>   0.0800 
 32 H        2.1080     1.0840    -1.2590 H     1 <1>   0.1500 
 33 H        0.0160    -2.2050     0.4230 H     1 <1>   0.1500 
 34 H       -4.1790    -0.7650     0.6750 H     1 <1>   0.0800 
 35 H       -5.1910    -0.4230    -0.6780 H     1 <1>   0.0800 
 36 H       -2.6500     2.3000    -0.8030 H     1 <1>   0.0800 
 37 H       -2.7880     2.8020     0.8360 H     1 <1>   0.0800 
 38 H        1.9710    -2.7570     1.7970 H     1 <1>   0.1500 
 39 H        3.9980    -1.4050     1.6610 H     1 <1>   0.1500 
 40 H       -4.7440     2.8400    -1.2660 H     1 <1>   0.0800 
 41 H       -5.8480     1.5320    -1.3080 H     1 <1>   0.0800 
 42 H       -5.6660     2.2670     3.0700 H     1 <1>   0.0800 
 43 H       -4.0530     2.8400     2.7150 H     1 <1>   0.0800 
 44 H       -4.7770     4.2350     1.0330 H     1 <1>   0.0800 
 45 H       -7.2880     3.6820    -1.3580 H     1 <1>   0.4000 
 46 H       -7.3010     1.3500     1.1540 H     1 <1>   0.0800 
 47 H       -8.0500     1.8160    -0.3430 H     1 <1>   0.0800 
 48 H       -8.2590     2.7970     1.0930 H     1 <1>   0.0800 
 49 H       -6.9310     4.9710     1.5040 H     1 <1>   0.4000 
@<TRIPOS>BOND
  1   1   2  2   
  2   1   3  2   
  3   1   4  am  
  4   1   5  1   
  5   4   6  1   
  6   4   7  1   
  7   5   8  ar  
  8   5   9  ar  
  9   6  10  1   
 10   6  28  1   
 11   6  29  1   
 12   7  11  1   
 13   7  30  1   
 14   7  31  1   
 15   8  12  ar  
 16   8  32  1   
 17   9  13  ar  
 18   9  33  1   
 19  10  14  1   
 20  10  34  1   
 21  10  35  1   
 22  11  14  1   
 23  11  36  1   
 24  11  37  1   
 25  12  15  ar  
 26  12  16  1   
 27  13  15  ar  
 28  13  38  1   
 29  14  17  1   
 30  14  18  1   
 31  15  39  1   
 32  16  19  1   
 33  16  20  1   
 34  16  21  1   
 35  17  22  1   
 36  18  23  1   
 37  18  40  1   
 38  18  41  1   
 39  22  24  1   
 40  22  42  1   
 41  22  43  1   
 42  23  24  1   
 43  23  25  1   
 44  23  26  1   
 45  24  27  1   
 46  24  44  1   
 47  25  45  1   
 48  26  46  1   
 49  26  47  1   
 50  26  48  1   
 51  27  49  1   
@<TRIPOS>SUBSTRUCTURE
  1 ****   7 GROUP 4 **** **** 0

# MOE 2024.06 (io_trps.svl 2023.06)
