@<TRIPOS>MOLECULE
NONAME
46 48 1 0 0 
SMALL
USER_CHARGES


@<TRIPOS>ATOM
  1 O        1.1830     0.1060     1.4360 O.3   1 <1>  -0.6800 
  2 C        1.5150    -0.3270     0.1550 C.3   1 <1>   0.2000 
  3 C        2.3250    -1.6160     0.2800 C.3   1 <1>  -0.0800 
  4 C        2.5190     0.6580    -0.4480 C.3   1 <1>   0.3430 
  5 C        3.7510    -1.1270     0.5910 C.3   1 <1>   0.3430 
  6 C        2.2670    -2.4460    -1.0200 C.3   1 <1>  -0.0170 
  7 N        3.8290     0.3020     0.1680 N.4   1 <1>  -0.9590 
  8 C        2.9780    -3.7820    -0.8720 C.ar  1 <1>   0.1670 
  9 C        4.1360     1.2120     1.3130 C.3   1 <1>   0.4860 
 10 N        4.3010    -3.7430    -0.8900 N.ar  1 <1>  -0.6200 
 11 C        2.2360    -4.9460    -0.7310 C.ar  1 <1>  -0.1500 
 12 C        4.4920     2.5980     0.7820 C.ar  1 <1>   0.1670 
 13 C        4.9100    -4.9140    -0.7730 C.ar  1 <1>   0.1600 
 14 C        2.8850    -6.1560    -0.6040 C.ar  1 <1>  -0.1500 
 15 N        5.2660     2.6350    -0.2980 N.ar  1 <1>  -0.6200 
 16 C        3.9960     3.7240     1.4210 C.ar  1 <1>  -0.1500 
 17 C        4.2610    -6.1280    -0.6290 C.ar  1 <1>  -0.1500 
 18 C        5.5650     3.8470    -0.7440 C.ar  1 <1>   0.1600 
 19 C        4.3130     4.9750     0.9370 C.ar  1 <1>  -0.1500 
 20 C        5.1230     5.0340    -0.1780 C.ar  1 <1>  -0.1440 
 21 C        5.5240     6.3760    -0.7700 C.3   1 <1>  -0.0170 
 22 C        6.8200     6.8800    -0.1310 C.3   1 <1>  -0.2400 
 23 H        0.4300    -0.4080     1.7980 H     1 <1>   0.4000 
 24 H        0.6140    -0.4160    -0.4290 H     1 <1>   0.0800 
 25 H        1.9570    -2.2300     1.0840 H     1 <1>   0.0800 
 26 H        2.2370     1.6810    -0.2550 H     1 <1>   0.0800 
 27 H        2.5730     0.5030    -1.5130 H     1 <1>   0.0800 
 28 H        4.4940    -1.7110     0.0750 H     1 <1>   0.0800 
 29 H        3.9310    -1.2080     1.6510 H     1 <1>   0.0800 
 30 H        2.7170    -1.9090    -1.8370 H     1 <1>   0.0800 
 31 H        1.2390    -2.6280    -1.2830 H     1 <1>   0.0800 
 32 H        4.5890     0.4830    -0.5110 H     1 <1>   0.4500 
 33 H        3.2930     1.2730     1.9800 H     1 <1>   0.0800 
 34 H        4.9830     0.8330     1.8580 H     1 <1>   0.0800 
 35 H        1.1620    -4.9190    -0.7230 H     1 <1>   0.1500 
 36 H        5.9870    -4.9100    -0.7950 H     1 <1>   0.1500 
 37 H        2.3420    -7.0800    -0.4940 H     1 <1>   0.1500 
 38 H        3.3690     3.6380     2.2910 H     1 <1>   0.1500 
 39 H        4.8280    -7.0380    -0.5390 H     1 <1>   0.1500 
 40 H        6.2020     3.9010    -1.6110 H     1 <1>   0.1500 
 41 H        3.9470     5.8690     1.4140 H     1 <1>   0.1500 
 42 H        5.6600     6.2820    -1.8340 H     1 <1>   0.0800 
 43 H        4.7390     7.0950    -0.6060 H     1 <1>   0.0800 
 44 H        7.6190     6.1810    -0.3040 H     1 <1>   0.0800 
 45 H        6.6900     6.9980     0.9310 H     1 <1>   0.0800 
 46 H        7.0950     7.8300    -0.5520 H     1 <1>   0.0800 
@<TRIPOS>BOND
  1   1   2  1   
  2   1  23  1   
  3   2   3  1   
  4   2   4  1   
  5   2  24  1   
  6   3   5  1   
  7   3   6  1   
  8   3  25  1   
  9   4   7  1   
 10   4  26  1   
 11   4  27  1   
 12   5   7  1   
 13   5  28  1   
 14   5  29  1   
 15   6   8  1   
 16   6  30  1   
 17   6  31  1   
 18   7   9  1   
 19   7  32  1   
 20   8  10  ar  
 21   8  11  ar  
 22   9  12  1   
 23   9  33  1   
 24   9  34  1   
 25  10  13  ar  
 26  11  14  ar  
 27  11  35  1   
 28  12  15  ar  
 29  12  16  ar  
 30  13  17  ar  
 31  13  36  1   
 32  14  17  ar  
 33  14  37  1   
 34  15  18  ar  
 35  16  19  ar  
 36  16  38  1   
 37  17  39  1   
 38  18  20  ar  
 39  18  40  1   
 40  19  20  ar  
 41  19  41  1   
 42  20  21  1   
 43  21  22  1   
 44  21  42  1   
 45  21  43  1   
 46  22  44  1   
 47  22  45  1   
 48  22  46  1   
@<TRIPOS>SUBSTRUCTURE
  1 ****   7 GROUP 4 **** **** 0

# MOE 2024.06 (io_trps.svl 2023.06)
