@<TRIPOS>MOLECULE
NONAME
35 36 1 0 0 
SMALL
USER_CHARGES


@<TRIPOS>ATOM
  1 O        2.2870    -0.7770     2.7370 O.2   1 <1>  -0.5700 
  2 C        1.9840    -1.0230     1.5830 C.2   1 <1>   0.5440 
  3 N        2.1290    -0.0370     0.6440 N.am  1 <1>  -0.4930 
  4 C        1.4990    -2.3510     1.2380 C.ar  1 <1>   0.0860 
  5 C        2.6190     1.2890     0.7580 C.2   1 <1>   0.0630 
  6 C        0.8780    -2.6820     0.0160 C.ar  1 <1>   0.3930 
  7 C        1.6430    -3.3880     2.1560 C.ar  1 <1>  -0.1500 
  8 C        2.6780     2.2010    -0.2370 C.2   1 <1>  -0.3320 
  9 C        3.1380     1.9470     1.8740 C.2   1 <1>   0.1390 
 10 O        0.6990    -1.7170    -0.9150 O.3   1 <1>  -0.3620 
 11 N        0.4390    -3.8970    -0.3110 N.ar  1 <1>  -0.6200 
 12 C        1.1890    -4.6440     1.8260 C.ar  1 <1>  -0.1500 
 13 N        3.2150     3.3280     0.3020 N.pl3 1 <1>   0.3140 
 14 C        2.2500     2.0660    -1.6920 C.3   1 <1>  -0.0600 
 15 N        3.4960     3.1670     1.6070 N.2   1 <1>  -0.7070 
 16 C        0.0450    -1.9660    -2.1480 C.3   1 <1>   0.0400 
 17 C        0.6020    -4.8430     0.5930 C.ar  1 <1>   0.1600 
 18 C        3.4890     4.6130    -0.3770 C.3   1 <1>   0.0960 
 19 C        4.8780     4.6100    -1.0280 C.3   1 <1>  -0.2400 
 20 H        1.7860    -0.2800    -0.2860 H     1 <1>   0.3700 
 21 H        2.1050    -3.2110     3.1140 H     1 <1>   0.1500 
 22 H        3.2340     1.4980     2.8480 H     1 <1>   0.1500 
 23 H        1.2890    -5.4620     2.5170 H     1 <1>   0.1500 
 24 H        1.8600     1.0840    -1.8850 H     1 <1>   0.0800 
 25 H        3.0890     2.2310    -2.3430 H     1 <1>   0.0800 
 26 H        1.4820     2.7850    -1.9190 H     1 <1>   0.0800 
 27 H        0.0090    -1.0490    -2.7080 H     1 <1>   0.0800 
 28 H       -0.9540    -2.3150    -1.9480 H     1 <1>   0.0800 
 29 H        0.5980    -2.7110    -2.6930 H     1 <1>   0.0800 
 30 H        0.2490    -5.8290     0.3390 H     1 <1>   0.1500 
 31 H        3.4340     5.3940     0.3600 H     1 <1>   0.0800 
 32 H        2.7270     4.7860    -1.1130 H     1 <1>   0.0800 
 33 H        5.6330     4.4520    -0.2780 H     1 <1>   0.0800 
 34 H        5.0600     5.5580    -1.5020 H     1 <1>   0.0800 
 35 H        4.9470     3.8350    -1.7690 H     1 <1>   0.0800 
@<TRIPOS>BOND
  1   1   2  2   
  2   2   3  am  
  3   2   4  1   
  4   3   5  1   
  5   3  20  1   
  6   4   6  ar  
  7   4   7  ar  
  8   5   8  2   
  9   5   9  1   
 10   6  10  1   
 11   6  11  ar  
 12   7  12  ar  
 13   7  21  1   
 14   8  13  1   
 15   8  14  1   
 16   9  15  2   
 17   9  22  1   
 18  10  16  1   
 19  11  17  ar  
 20  12  17  ar  
 21  12  23  1   
 22  13  15  1   
 23  13  18  1   
 24  14  24  1   
 25  14  25  1   
 26  14  26  1   
 27  16  27  1   
 28  16  28  1   
 29  16  29  1   
 30  17  30  1   
 31  18  19  1   
 32  18  31  1   
 33  18  32  1   
 34  19  33  1   
 35  19  34  1   
 36  19  35  1   
@<TRIPOS>SUBSTRUCTURE
  1 ****   3 GROUP 4 **** **** 0

# MOE 2024.06 (io_trps.svl 2023.06)
