@<TRIPOS>MOLECULE
NONAME
41 43 1 0 0 
SMALL
USER_CHARGES


@<TRIPOS>ATOM
  1 O        0.1040    -0.1050     1.4630 O.2   1 <1>  -0.5700 
  2 C       -0.0580    -1.3000     1.3140 C.2   1 <1>   0.5440 
  3 N       -1.2590    -1.7730     1.7110 N.am  1 <1>  -0.8000 
  4 C        0.9790    -2.1470     0.7550 C.ar  1 <1>   0.0860 
  5 C        0.7550    -3.4590     0.2810 C.ar  1 <1>   0.4100 
  6 C        2.2800    -1.6650     0.6720 C.ar  1 <1>  -0.1500 
  7 N        1.7120    -4.2350    -0.2240 N.ar  1 <1>  -0.6200 
  8 N       -0.4990    -4.0480     0.2760 N.pl3 1 <1>  -0.8380 
  9 C        3.2720    -2.4660     0.1500 C.ar  1 <1>  -0.1430 
 10 C        2.9310    -3.7420    -0.2830 C.ar  1 <1>   0.1670 
 11 C       -0.6590    -5.3650     0.9620 C.3   1 <1>   0.2090 
 12 C       -1.1940    -4.1130    -1.0400 C.3   1 <1>   0.2090 
 13 C        4.6950    -1.9280     0.0700 C.3   1 <1>  -0.0970 
 14 C        3.9760    -4.6740    -0.8680 C.3   1 <1>  -0.0970 
 15 C       -1.2100    -6.3000    -0.1110 C.3   1 <1>  -0.0800 
 16 C       -2.0670    -5.3650    -0.9690 C.3   1 <1>  -0.0800 
 17 C       -1.9310    -7.5510     0.4220 C.3   1 <1>  -0.0220 
 18 C       -3.4340    -5.0200    -0.3300 C.3   1 <1>  -0.0220 
 19 C       -3.3930    -7.3010     0.7420 C.2   1 <1>  -0.2880 
 20 C       -4.0530    -6.1900     0.4120 C.2   1 <1>  -0.2880 
 21 H       -1.9890    -1.1370     2.0240 H     1 <1>   0.3700 
 22 H       -1.5080    -2.7370     1.4580 H     1 <1>   0.3700 
 23 H        2.4990    -0.6700     1.0180 H     1 <1>   0.1500 
 24 H        0.2760    -5.7280     1.3540 H     1 <1>   0.0800 
 25 H       -1.3650    -5.2610     1.7680 H     1 <1>   0.0800 
 26 H       -1.7740    -3.2220    -1.2120 H     1 <1>   0.0800 
 27 H       -0.4650    -4.2170    -1.8270 H     1 <1>   0.0800 
 28 H        4.7710    -0.9690     0.5510 H     1 <1>   0.0800 
 29 H        4.9890    -1.8140    -0.9580 H     1 <1>   0.0800 
 30 H        5.3760    -2.6020     0.5590 H     1 <1>   0.0800 
 31 H        4.5500    -4.1690    -1.6220 H     1 <1>   0.0800 
 32 H        3.5040    -5.5280    -1.3210 H     1 <1>   0.0800 
 33 H        4.6300    -5.0190    -0.0890 H     1 <1>   0.0800 
 34 H       -0.3650    -6.6270    -0.6940 H     1 <1>   0.0800 
 35 H       -2.2250    -5.7870    -1.9450 H     1 <1>   0.0800 
 36 H       -1.8850    -8.3230    -0.3260 H     1 <1>   0.0800 
 37 H       -1.4220    -7.9140     1.2970 H     1 <1>   0.0800 
 38 H       -3.3280    -4.2110     0.3720 H     1 <1>   0.0800 
 39 H       -4.1050    -4.6930    -1.1050 H     1 <1>   0.0800 
 40 H       -3.8570    -8.1210     1.2640 H     1 <1>   0.1500 
 41 H       -5.0900    -6.0330     0.6590 H     1 <1>   0.1500 
@<TRIPOS>BOND
  1   1   2  2   
  2   2   3  am  
  3   2   4  1   
  4   3  21  1   
  5   3  22  1   
  6   4   5  ar  
  7   4   6  ar  
  8   5   7  ar  
  9   5   8  1   
 10   6   9  ar  
 11   6  23  1   
 12   7  10  ar  
 13   8  11  1   
 14   8  12  1   
 15   9  10  ar  
 16   9  13  1   
 17  10  14  1   
 18  11  15  1   
 19  11  24  1   
 20  11  25  1   
 21  12  16  1   
 22  12  26  1   
 23  12  27  1   
 24  13  28  1   
 25  13  29  1   
 26  13  30  1   
 27  14  31  1   
 28  14  32  1   
 29  14  33  1   
 30  15  16  1   
 31  15  17  1   
 32  15  34  1   
 33  16  18  1   
 34  16  35  1   
 35  17  19  1   
 36  17  36  1   
 37  17  37  1   
 38  18  20  1   
 39  18  38  1   
 40  18  39  1   
 41  19  20  2   
 42  19  40  1   
 43  20  41  1   
@<TRIPOS>SUBSTRUCTURE
  1 ****   8 GROUP 4 **** **** 0

# MOE 2024.06 (io_trps.svl 2023.06)
