@<TRIPOS>MOLECULE
NONAME
47 49 1 0 0 
SMALL
USER_CHARGES


@<TRIPOS>ATOM
  1 O        0.6970    -1.3350     1.6680 O.co2 1 <1>  -0.9000 
  2 C        1.6710    -1.2350     0.9110 C.2   1 <1>   0.9060 
  3 O        2.3670    -2.2240     0.6460 O.co2 1 <1>  -0.9000 
  4 C        2.0330     0.1530     0.3450 C.3   1 <1>  -0.1060 
  5 C        3.2550    -0.0420    -0.6120 C.3   1 <1>   0.2000 
  6 C        2.4360     1.0300     1.5770 C.3   1 <1>  -0.1600 
  7 C        0.7700     0.7010    -0.4040 C.3   1 <1>  -0.0160 
  8 O        3.3420     0.9690    -1.5590 O.3   1 <1>  -0.6800 
  9 C        4.5730     0.0290     0.1780 C.3   1 <1>   0.2090 
 10 C        3.5090     2.0800     1.2750 C.3   1 <1>   0.2090 
 11 C        0.5930     2.2230    -0.4960 C.ar  1 <1>  -0.1440 
 12 N        4.7460     1.4280     0.7330 N.pl3 1 <1>  -0.8380 
 13 C        1.0460     2.9400    -1.5930 C.ar  1 <1>  -0.1500 
 14 C       -0.0650     2.9050     0.5180 C.ar  1 <1>  -0.1500 
 15 C        5.9530     2.0900     0.7070 C.ar  1 <1>   0.7200 
 16 C        0.8800     4.3120    -1.6610 C.ar  1 <1>  -0.1500 
 17 C       -0.2360     4.2770     0.4550 C.ar  1 <1>  -0.1500 
 18 N        7.0410     1.3690     0.4440 N.ar  1 <1>  -0.6200 
 19 N        5.9250     3.4010     0.9420 N.ar  1 <1>  -0.6200 
 20 C        0.2410     4.9840    -0.6340 C.ar  1 <1>  -0.1500 
 21 C        8.1770     2.0200     0.4150 C.ar  1 <1>   0.1600 
 22 C        7.0770     4.0230     0.9050 C.ar  1 <1>   0.1600 
 23 C        8.2600     3.3740     0.6430 C.ar  1 <1>  -0.1430 
 24 C        9.5880     4.1130     0.6040 C.3   1 <1>  -0.0170 
 25 C        9.8770     4.6240    -0.8090 C.3   1 <1>  -0.2400 
 26 H        3.1810    -0.9680    -1.1560 H     1 <1>   0.0800 
 27 H        2.8380     0.3930     2.3470 H     1 <1>   0.0800 
 28 H        1.5730     1.4900     2.0140 H     1 <1>   0.0800 
 29 H        0.7460     0.2800    -1.3930 H     1 <1>   0.0800 
 30 H       -0.1140     0.3290     0.0840 H     1 <1>   0.0800 
 31 H        3.7700     1.7170    -1.0850 H     1 <1>   0.4000 
 32 H        5.3830    -0.2330    -0.4790 H     1 <1>   0.0800 
 33 H        4.5560    -0.6860     0.9820 H     1 <1>   0.0800 
 34 H        3.7510     2.6100     2.1800 H     1 <1>   0.0800 
 35 H        3.1340     2.7910     0.5590 H     1 <1>   0.0800 
 36 H        1.5320     2.4270    -2.4040 H     1 <1>   0.1500 
 37 H       -0.4470     2.3590     1.3640 H     1 <1>   0.1500 
 38 H        1.2470     4.8520    -2.5150 H     1 <1>   0.1500 
 39 H       -0.7400     4.7900     1.2540 H     1 <1>   0.1500 
 40 H        0.1130     6.0500    -0.6850 H     1 <1>   0.1500 
 41 H        9.0680     1.4550     0.2010 H     1 <1>   0.1500 
 42 H        7.0760     5.0840     1.0890 H     1 <1>   0.1500 
 43 H        9.5630     4.9420     1.2900 H     1 <1>   0.0800 
 44 H       10.3800     3.4550     0.9180 H     1 <1>   0.0800 
 45 H        9.1010     5.2980    -1.1280 H     1 <1>   0.0800 
 46 H        9.9240     3.8020    -1.5010 H     1 <1>   0.0800 
 47 H       10.8170     5.1470    -0.8290 H     1 <1>   0.0800 
@<TRIPOS>BOND
  1   1   2  ar  
  2   2   3  ar  
  3   2   4  1   
  4   4   5  1   
  5   4   6  1   
  6   4   7  1   
  7   5   8  1   
  8   5   9  1   
  9   5  26  1   
 10   6  10  1   
 11   6  27  1   
 12   6  28  1   
 13   7  11  1   
 14   7  29  1   
 15   7  30  1   
 16   8  31  1   
 17   9  12  1   
 18   9  32  1   
 19   9  33  1   
 20  10  12  1   
 21  10  34  1   
 22  10  35  1   
 23  11  13  ar  
 24  11  14  ar  
 25  12  15  1   
 26  13  16  ar  
 27  13  36  1   
 28  14  17  ar  
 29  14  37  1   
 30  15  18  ar  
 31  15  19  ar  
 32  16  20  ar  
 33  16  38  1   
 34  17  20  ar  
 35  17  39  1   
 36  18  21  ar  
 37  19  22  ar  
 38  20  40  1   
 39  21  23  ar  
 40  21  41  1   
 41  22  23  ar  
 42  22  42  1   
 43  23  24  1   
 44  24  25  1   
 45  24  43  1   
 46  24  44  1   
 47  25  45  1   
 48  25  46  1   
 49  25  47  1   
@<TRIPOS>SUBSTRUCTURE
  1 ****  10 GROUP 4 **** **** 0

# MOE 2024.06 (io_trps.svl 2023.06)
