@<TRIPOS>MOLECULE
NONAME
53 56 1 0 0 
SMALL
USER_CHARGES


@<TRIPOS>ATOM
  1 O        2.7550     0.2640    -1.4450 O.2   1 <1>  -0.5700 
  2 C        2.9330    -0.7910    -0.8850 C.2   1 <1>   0.5690 
  3 N        2.1460    -1.2360     0.1400 N.am  1 <1>  -0.6600 
  4 C        4.1010    -1.6550    -1.3100 C.3   1 <1>  -0.0990 
  5 C        2.4980    -2.4800     0.8700 C.3   1 <1>   0.1400 
  6 C        0.9760    -0.4720     0.6470 C.3   1 <1>   0.0600 
  7 C        3.7300    -3.1490    -1.3270 C.3   1 <1>  -0.0800 
  8 C        2.8940    -3.6020    -0.1100 C.3   1 <1>  -0.0800 
  9 C        4.9690    -4.0510    -1.4070 C.3   1 <1>  -0.1600 
 10 C        3.6750    -4.7200     0.5940 C.3   1 <1>  -0.1600 
 11 C        4.8010    -5.1400    -0.3450 C.3   1 <1>   0.2200 
 12 N        6.0510    -5.4810     0.3980 N.am  1 <1>  -0.6600 
 13 C        7.0160    -4.5870     0.8650 C.2   1 <1>   0.7160 
 14 C        6.2720    -6.9510     0.5380 C.3   1 <1>   0.0600 
 15 O        8.1470    -5.0250     1.0190 O.2   1 <1>  -0.5700 
 16 C        6.7770    -3.1690     1.1440 C.2   1 <1>   0.2030 
 17 N        5.8710    -2.6660     1.9690 N.2   1 <1>  -0.7070 
 18 C        7.5150    -2.1260     0.5630 C.2   1 <1>  -0.1810 
 19 N        6.0370    -1.3400     1.9070 N.pl3 1 <1>   0.3000 
 20 C        7.0130    -0.9670     1.0540 C.2   1 <1>  -0.2050 
 21 C        8.6500    -2.2830    -0.4360 C.3   1 <1>  -0.0590 
 22 C        7.3490     0.4080     0.8000 C.ar  1 <1>   0.0530 
 23 C        8.6270     0.8900     1.0610 C.ar  1 <1>  -0.1500 
 24 C        6.4040     1.2940     0.2880 C.ar  1 <1>  -0.1500 
 25 C        8.9540     2.2130     0.8250 C.ar  1 <1>  -0.1500 
 26 C        6.7250     2.6180     0.0500 C.ar  1 <1>  -0.1500 
 27 C        8.0010     3.0810     0.3190 C.ar  1 <1>  -0.1500 
 28 H        4.4370    -1.3480    -2.2830 H     1 <1>   0.0800 
 29 H        4.8960    -1.4800    -0.6160 H     1 <1>   0.0800 
 30 H        3.3180    -2.2580     1.5290 H     1 <1>   0.0800 
 31 H        1.6670    -2.8060     1.4720 H     1 <1>   0.0800 
 32 H        0.0900    -1.0790     0.5800 H     1 <1>   0.0800 
 33 H        0.8250     0.4200     0.0640 H     1 <1>   0.0800 
 34 H        1.1410    -0.1920     1.6720 H     1 <1>   0.0800 
 35 H        3.1290    -3.3170    -2.2060 H     1 <1>   0.0800 
 36 H        1.9810    -4.0290    -0.4900 H     1 <1>   0.0800 
 37 H        5.8650    -3.4810    -1.2640 H     1 <1>   0.0800 
 38 H        5.0280    -4.5040    -2.3800 H     1 <1>   0.0800 
 39 H        3.0310    -5.5570     0.7960 H     1 <1>   0.0800 
 40 H        4.0760    -4.3830     1.5300 H     1 <1>   0.0800 
 41 H        4.4630    -6.0200    -0.8680 H     1 <1>   0.0800 
 42 H        5.3630    -7.4290     0.8580 H     1 <1>   0.0800 
 43 H        7.0350    -7.1550     1.2690 H     1 <1>   0.0800 
 44 H        6.5790    -7.3620    -0.4080 H     1 <1>   0.0800 
 45 H        5.4760    -0.6810     2.4600 H     1 <1>   0.2700 
 46 H        8.3430    -2.9100    -1.2530 H     1 <1>   0.0800 
 47 H        9.4980    -2.7360     0.0460 H     1 <1>   0.0800 
 48 H        8.9440    -1.3270    -0.8290 H     1 <1>   0.0800 
 49 H        9.3670     0.2160     1.4550 H     1 <1>   0.1500 
 50 H        5.4110     0.9460     0.0660 H     1 <1>   0.1500 
 51 H        9.9480     2.5690     1.0340 H     1 <1>   0.1500 
 52 H        5.9810     3.2870    -0.3480 H     1 <1>   0.1500 
 53 H        8.2520     4.1110     0.1340 H     1 <1>   0.1500 
@<TRIPOS>BOND
  1   1   2  2   
  2   2   3  am  
  3   2   4  1   
  4   3   5  1   
  5   3   6  1   
  6   4   7  1   
  7   4  28  1   
  8   4  29  1   
  9   5   8  1   
 10   5  30  1   
 11   5  31  1   
 12   6  32  1   
 13   6  33  1   
 14   6  34  1   
 15   7   8  1   
 16   7   9  1   
 17   7  35  1   
 18   8  10  1   
 19   8  36  1   
 20   9  11  1   
 21   9  37  1   
 22   9  38  1   
 23  10  11  1   
 24  10  39  1   
 25  10  40  1   
 26  11  12  1   
 27  11  41  1   
 28  12  13  am  
 29  12  14  1   
 30  13  15  2   
 31  13  16  1   
 32  14  42  1   
 33  14  43  1   
 34  14  44  1   
 35  16  17  2   
 36  16  18  1   
 37  17  19  1   
 38  18  20  2   
 39  18  21  1   
 40  19  20  1   
 41  19  45  1   
 42  20  22  1   
 43  21  46  1   
 44  21  47  1   
 45  21  48  1   
 46  22  23  ar  
 47  22  24  ar  
 48  23  25  ar  
 49  23  49  1   
 50  24  26  ar  
 51  24  50  1   
 52  25  27  ar  
 53  25  51  1   
 54  26  27  ar  
 55  26  52  1   
 56  27  53  1   
@<TRIPOS>SUBSTRUCTURE
  1 ****  19 GROUP 4 **** **** 0

# MOE 2024.06 (io_trps.svl 2023.06)
