@<TRIPOS>MOLECULE
NONAME
46 49 1 0 0 
SMALL
USER_CHARGES


@<TRIPOS>ATOM
  1 S        1.0760    -0.9410    -1.7070 S.3   1 <1>  -0.0800 
  2 C        1.4610    -1.8090    -0.2430 C.2   1 <1>  -0.1400 
  3 C        1.6710     0.5240    -0.9610 C.2   1 <1>   0.2280 
  4 C        1.9900    -0.9470     0.6410 C.2   1 <1>   0.0460 
  5 C        1.1780    -3.2920    -0.2070 C.3   1 <1>   0.5230 
  6 N        2.0970     0.3660     0.2280 N.2   1 <1>  -0.5650 
  7 C        2.4890    -1.2370     2.0420 C.3   1 <1>  -0.0590 
  8 N       -0.2170    -3.5220     0.2560 N.4   1 <1>  -0.9590 
  9 C       -1.2910    -2.9400    -0.5930 C.3   1 <1>   0.3430 
 10 C       -0.5820    -4.9520     0.4660 C.3   1 <1>   0.3430 
 11 C       -2.5530    -3.6430    -0.0950 C.3   1 <1>   0.2000 
 12 C       -2.0820    -5.0800     0.1400 C.3   1 <1>  -0.0800 
 13 O       -2.8800    -3.0950     1.1400 O.3   1 <1>  -0.6800 
 14 C       -2.3380    -5.9730    -1.0950 C.3   1 <1>  -0.0160 
 15 C       -1.5450    -7.2750    -1.0230 C.ar  1 <1>  -0.1440 
 16 C       -1.8410    -8.2970    -0.0890 C.ar  1 <1>   0.0000 
 17 C       -0.4920    -7.4780    -1.8680 C.ar  1 <1>  -0.1500 
 18 C       -0.9690    -9.4140    -0.0400 C.ar  1 <1>   0.3100 
 19 C       -2.9480    -8.2870     0.7920 C.ar  1 <1>  -0.1500 
 20 C        0.2860    -8.6370    -1.7590 C.ar  1 <1>   0.1600 
 21 N        0.0880    -9.5600    -0.8760 N.ar  1 <1>  -0.6200 
 22 C       -1.2040   -10.4210     0.9090 C.ar  1 <1>  -0.1500 
 23 C       -3.1520    -9.2890     1.7010 C.ar  1 <1>  -0.1500 
 24 C       -2.2670   -10.3660     1.7680 C.ar  1 <1>  -0.1500 
 25 H        1.6360     1.4290    -1.5430 H     1 <1>   0.1500 
 26 H        1.8640    -3.7620     0.4790 H     1 <1>   0.0800 
 27 H        1.3290    -3.7180    -1.1850 H     1 <1>   0.0800 
 28 H        2.3770    -2.2750     2.2940 H     1 <1>   0.0800 
 29 H        1.9380    -0.6440     2.7500 H     1 <1>   0.0800 
 30 H        3.5280    -0.9710     2.1140 H     1 <1>   0.0800 
 31 H       -0.3380    -3.0440     1.1630 H     1 <1>   0.4500 
 32 H       -1.3660    -1.8710    -0.4760 H     1 <1>   0.0800 
 33 H       -1.1200    -3.1820    -1.6290 H     1 <1>   0.0800 
 34 H       -0.0030    -5.5880    -0.1820 H     1 <1>   0.0800 
 35 H       -0.3960    -5.2400     1.4880 H     1 <1>   0.0800 
 36 H       -3.3930    -3.5400    -0.7640 H     1 <1>   0.0800 
 37 H       -2.5880    -5.5090     0.9850 H     1 <1>   0.0800 
 38 H       -3.7830    -3.3560     1.4220 H     1 <1>   0.4000 
 39 H       -2.0590    -5.4460    -1.9910 H     1 <1>   0.0800 
 40 H       -3.3880    -6.1950    -1.1810 H     1 <1>   0.0800 
 41 H       -0.2230    -6.7710    -2.6310 H     1 <1>   0.1500 
 42 H       -3.6590    -7.4850     0.7460 H     1 <1>   0.1500 
 43 H        1.1070    -8.7660    -2.4470 H     1 <1>   0.1500 
 44 H       -0.5170   -11.2470     0.9340 H     1 <1>   0.1500 
 45 H       -3.9960    -9.2690     2.3700 H     1 <1>   0.1500 
 46 H       -2.4350   -11.1470     2.4900 H     1 <1>   0.1500 
@<TRIPOS>BOND
  1   1   2  1   
  2   1   3  1   
  3   2   4  2   
  4   2   5  1   
  5   3   6  2   
  6   3  25  1   
  7   4   6  1   
  8   4   7  1   
  9   5   8  1   
 10   5  26  1   
 11   5  27  1   
 12   7  28  1   
 13   7  29  1   
 14   7  30  1   
 15   8   9  1   
 16   8  10  1   
 17   8  31  1   
 18   9  11  1   
 19   9  32  1   
 20   9  33  1   
 21  10  12  1   
 22  10  34  1   
 23  10  35  1   
 24  11  12  1   
 25  11  13  1   
 26  11  36  1   
 27  12  14  1   
 28  12  37  1   
 29  13  38  1   
 30  14  15  1   
 31  14  39  1   
 32  14  40  1   
 33  15  16  ar  
 34  15  17  ar  
 35  16  18  ar  
 36  16  19  ar  
 37  17  20  ar  
 38  17  41  1   
 39  18  21  ar  
 40  18  22  ar  
 41  19  23  ar  
 42  19  42  1   
 43  20  21  ar  
 44  20  43  1   
 45  22  24  ar  
 46  22  44  1   
 47  23  24  ar  
 48  23  45  1   
 49  24  46  1   
@<TRIPOS>SUBSTRUCTURE
  1 ****  10 GROUP 4 **** **** 0

# MOE 2024.06 (io_trps.svl 2023.06)
