@<TRIPOS>MOLECULE
NONAME
53 56 1 0 0 
SMALL
USER_CHARGES


@<TRIPOS>ATOM
  1 O        2.8990     2.0250    -3.0040 O.2   1 <1>  -0.5700 
  2 C        2.6960     2.7560    -2.0700 C.2   1 <1>   0.5690 
  3 N        3.6210     3.1510    -1.1900 N.am  1 <1>  -0.7300 
  4 C        1.3520     3.3110    -1.6900 C.3   1 <1>  -0.0990 
  5 C        3.0930     3.8970    -0.0470 C.3   1 <1>   0.2200 
  6 C        1.5670     3.7990    -0.2420 C.3   1 <1>  -0.1600 
  7 C        3.6130     3.2870     1.2720 C.3   1 <1>   0.1100 
  8 N        5.0810     3.0500     1.2270 N.3   1 <1>  -0.8100 
  9 C        5.4430     1.7420     1.8210 C.3   1 <1>   0.2530 
 10 C        5.8420     4.1360     1.8780 C.3   1 <1>   0.2900 
 11 C        6.8760     1.3360     1.4810 C.ar  1 <1>   0.1670 
 12 C        5.6340     5.4350     1.1280 C.2   1 <1>  -0.3320 
 13 N        7.7810     1.4390     2.4460 N.ar  1 <1>  -0.6200 
 14 C        7.1590     0.8890     0.1990 C.ar  1 <1>  -0.1500 
 15 N        6.0470     5.6620    -0.1380 N.pl3 1 <1>   0.0480 
 16 C        5.0280     6.5690     1.5450 C.2   1 <1>   0.0770 
 17 C        9.0120     1.0770     2.1190 C.ar  1 <1>   0.1600 
 18 C        8.4460     0.5210    -0.1290 C.ar  1 <1>  -0.1500 
 19 C        5.6450     6.9260    -0.4010 C.2   1 <1>   0.0360 
 20 C        6.7340     4.7440    -1.0730 C.3   1 <1>   0.2390 
 21 N        5.0260     7.5020     0.5780 N.2   1 <1>  -0.5650 
 22 C        9.3920     0.6200     0.8690 C.ar  1 <1>  -0.1500 
 23 C        8.2360     4.9840    -1.0650 C.ar  1 <1>  -0.1440 
 24 C        9.0570     4.2290    -0.2410 C.ar  1 <1>  -0.1500 
 25 C        8.7990     5.9550    -1.8790 C.ar  1 <1>  -0.1500 
 26 C       10.4250     4.4410    -0.2310 C.ar  1 <1>  -0.1500 
 27 C       10.1670     6.1680    -1.8710 C.ar  1 <1>  -0.1500 
 28 C       10.9810     5.4100    -1.0460 C.ar  1 <1>  -0.1500 
 29 H        4.5390     2.7170    -1.0970 H     1 <1>   0.3700 
 30 H        1.1150     4.1280    -2.3460 H     1 <1>   0.0800 
 31 H        0.5950     2.5510    -1.7540 H     1 <1>   0.0800 
 32 H        3.3970     4.9260    -0.1320 H     1 <1>   0.0800 
 33 H        1.1520     3.0800     0.4420 H     1 <1>   0.0800 
 34 H        1.0940     4.7490    -0.0670 H     1 <1>   0.0800 
 35 H        3.0990     2.3540     1.4230 H     1 <1>   0.0800 
 36 H        3.3550     3.9320     2.0950 H     1 <1>   0.0800 
 37 H        5.3190     1.7730     2.8910 H     1 <1>   0.0800 
 38 H        4.7900     0.9800     1.4340 H     1 <1>   0.0800 
 39 H        5.5250     4.2450     2.9010 H     1 <1>   0.0800 
 40 H        6.8940     3.9120     1.8820 H     1 <1>   0.0800 
 41 H        6.3780     0.8330    -0.5370 H     1 <1>   0.1500 
 42 H        4.5820     6.7660     2.5050 H     1 <1>   0.1500 
 43 H        9.7600     1.1490     2.8900 H     1 <1>   0.1500 
 44 H        8.7000     0.1720    -1.1150 H     1 <1>   0.1500 
 45 H        5.8320     7.3940    -1.3510 H     1 <1>   0.1500 
 46 H        6.5260     3.7290    -0.7930 H     1 <1>   0.0800 
 47 H        6.3400     4.9000    -2.0610 H     1 <1>   0.0800 
 48 H       10.4150     0.3460     0.6810 H     1 <1>   0.1500 
 49 H        8.6380     3.4730     0.4000 H     1 <1>   0.1500 
 50 H        8.1790     6.5530    -2.5240 H     1 <1>   0.1500 
 51 H       11.0540     3.8520     0.4130 H     1 <1>   0.1500 
 52 H       10.5990     6.9230    -2.5030 H     1 <1>   0.1500 
 53 H       12.0440     5.5760    -1.0390 H     1 <1>   0.1500 
@<TRIPOS>BOND
  1   1   2  2   
  2   2   3  am  
  3   2   4  1   
  4   3   5  1   
  5   3  29  1   
  6   4   6  1   
  7   4  30  1   
  8   4  31  1   
  9   5   6  1   
 10   5   7  1   
 11   5  32  1   
 12   6  33  1   
 13   6  34  1   
 14   7   8  1   
 15   7  35  1   
 16   7  36  1   
 17   8   9  1   
 18   8  10  1   
 19   9  11  1   
 20   9  37  1   
 21   9  38  1   
 22  10  12  1   
 23  10  39  1   
 24  10  40  1   
 25  11  13  ar  
 26  11  14  ar  
 27  12  15  1   
 28  12  16  2   
 29  13  17  ar  
 30  14  18  ar  
 31  14  41  1   
 32  15  19  1   
 33  15  20  1   
 34  16  21  1   
 35  16  42  1   
 36  17  22  ar  
 37  17  43  1   
 38  18  22  ar  
 39  18  44  1   
 40  19  21  2   
 41  19  45  1   
 42  20  23  1   
 43  20  46  1   
 44  20  47  1   
 45  22  48  1   
 46  23  24  ar  
 47  23  25  ar  
 48  24  26  ar  
 49  24  49  1   
 50  25  27  ar  
 51  25  50  1   
 52  26  28  ar  
 53  26  51  1   
 54  27  28  ar  
 55  27  52  1   
 56  28  53  1   
@<TRIPOS>SUBSTRUCTURE
  1 ****  20 GROUP 4 **** **** 0

# MOE 2024.06 (io_trps.svl 2023.06)
