@<TRIPOS>MOLECULE
NONAME
36 38 1 0 0 
SMALL
USER_CHARGES


@<TRIPOS>ATOM
  1 S        0.1460     0.1280     1.0890 S.3   1 <1>  -0.0800 
  2 C       -1.4890     0.2390     0.4820 C.2   1 <1>  -0.1400 
  3 C        0.2890     1.8700     1.0840 C.2   1 <1>  -0.1100 
  4 C       -1.8530     1.5150     0.2880 C.2   1 <1>  -0.1810 
  5 C       -2.3010    -1.0140     0.2400 C.3   1 <1>   0.0200 
  6 C       -0.8370     2.4850     0.6360 C.2   1 <1>  -0.0860 
  7 C       -3.2350     1.8620    -0.2500 C.3   1 <1>   0.0210 
  8 C       -3.7770    -0.6260     0.0360 C.3   1 <1>  -0.1600 
  9 C       -1.0050     3.9200     0.5150 C.2   1 <1>   0.7160 
 10 C       -3.9260     0.6230    -0.8560 C.3   1 <1>  -0.1600 
 11 O       -2.0870     4.4500     0.6870 O.2   1 <1>  -0.5700 
 12 N        0.0940     4.6680     0.1940 N.am  1 <1>  -0.4930 
 13 C        0.2370     6.0730     0.0560 C.2   1 <1>   0.0630 
 14 C        1.3730     6.7600    -0.3820 C.2   1 <1>   0.1080 
 15 C       -0.6600     7.0470     0.3130 C.2   1 <1>  -0.3020 
 16 N        1.1990     8.0440    -0.3950 N.2   1 <1>  -0.7070 
 17 C        2.6780     6.1230    -0.8040 C.3   1 <1>  -0.0590 
 18 N       -0.0620     8.2220     0.0340 N.pl3 1 <1>   0.3140 
 19 C       -0.6590     9.5550     0.1640 C.3   1 <1>   0.0160 
 20 H        1.2220     2.2740     1.4350 H     1 <1>   0.1500 
 21 H       -2.2110    -1.6820     1.0790 H     1 <1>   0.0800 
 22 H       -1.9230    -1.5100    -0.6360 H     1 <1>   0.0800 
 23 H       -3.1570     2.6260    -1.0040 H     1 <1>   0.0800 
 24 H       -3.8290     2.2530     0.5580 H     1 <1>   0.0800 
 25 H       -4.2170    -0.4180     0.9960 H     1 <1>   0.0800 
 26 H       -4.3090    -1.4550    -0.3980 H     1 <1>   0.0800 
 27 H       -3.4860     0.4170    -1.8170 H     1 <1>   0.0800 
 28 H       -4.9680     0.8390    -1.0110 H     1 <1>   0.0800 
 29 H        0.9250     4.1260    -0.0200 H     1 <1>   0.3700 
 30 H       -1.6680     6.9630     0.6710 H     1 <1>   0.1500 
 31 H        2.5040     5.4190    -1.5960 H     1 <1>   0.0800 
 32 H        3.1280     5.6230     0.0340 H     1 <1>   0.0800 
 33 H        3.3530     6.8810    -1.1580 H     1 <1>   0.0800 
 34 H       -1.6180     9.5620    -0.3190 H     1 <1>   0.0800 
 35 H       -0.0140    10.2760    -0.3020 H     1 <1>   0.0800 
 36 H       -0.7700     9.7890     1.2060 H     1 <1>   0.0800 
@<TRIPOS>BOND
  1   1   2  1   
  2   1   3  1   
  3   2   4  2   
  4   2   5  1   
  5   3   6  2   
  6   3  20  1   
  7   4   6  1   
  8   4   7  1   
  9   5   8  1   
 10   5  21  1   
 11   5  22  1   
 12   6   9  1   
 13   7  10  1   
 14   7  23  1   
 15   7  24  1   
 16   8  10  1   
 17   8  25  1   
 18   8  26  1   
 19   9  11  2   
 20   9  12  am  
 21  10  27  1   
 22  10  28  1   
 23  12  13  1   
 24  12  29  1   
 25  13  14  1   
 26  13  15  2   
 27  14  16  2   
 28  14  17  1   
 29  15  18  1   
 30  15  30  1   
 31  16  18  1   
 32  17  31  1   
 33  17  32  1   
 34  17  33  1   
 35  18  19  1   
 36  19  34  1   
 37  19  35  1   
 38  19  36  1   
@<TRIPOS>SUBSTRUCTURE
  1 ****   9 GROUP 4 **** **** 0

# MOE 2024.06 (io_trps.svl 2023.06)
