@<TRIPOS>MOLECULE
NONAME
58 59 1 0 0 
SMALL
USER_CHARGES


@<TRIPOS>ATOM
  1 S        0.9670     0.2920     0.9040 S.o2  1 <1>   1.3330 
  2 O       -0.2800     0.5180     1.5910 O.2   1 <1>  -0.6500 
  3 O        2.0760    -0.3400     1.5780 O.2   1 <1>  -0.6500 
  4 N        1.5380     1.8000     0.3590 N.am  1 <1>  -0.8490 
  5 C        0.6070    -0.5840    -0.6050 C.3   1 <1>  -0.1350 
  6 C        2.9630     1.7490    -0.0290 C.3   1 <1>   0.1960 
  7 C        1.2690     2.8160     1.3890 C.3   1 <1>   0.1960 
  8 C        3.2620     2.6410    -1.2540 C.3   1 <1>   0.3430 
  9 C        1.7840     4.2140     1.0390 C.3   1 <1>  -0.1600 
 10 N        3.0990     4.1220    -1.0450 N.4   1 <1>  -0.9590 
 11 C        1.7820     4.5120    -0.4570 C.3   1 <1>   0.3430 
 12 C        3.3510     4.8580    -2.3140 C.3   1 <1>   0.4860 
 13 C        3.5420     6.3260    -1.9870 C.ar  1 <1>  -0.1430 
 14 C        4.6980     6.7550    -1.3500 C.ar  1 <1>  -0.1500 
 15 C        2.5640     7.2540    -2.3170 C.ar  1 <1>  -0.1500 
 16 C        4.8760     8.0910    -1.0300 C.ar  1 <1>   0.0820 
 17 C        2.7370     8.5900    -2.0000 C.ar  1 <1>  -0.1500 
 18 O        6.0360     8.4140    -0.4080 O.3   1 <1>  -0.3630 
 19 C        3.8860     9.0120    -1.3560 C.ar  1 <1>  -0.1500 
 20 C        6.3870     9.7560    -0.1660 C.3   1 <1>   0.1200 
 21 C        7.7870     9.7580     0.4490 C.3   1 <1>  -0.1600 
 22 C        8.2590    11.1860     0.7200 C.3   1 <1>   0.3430 
 23 N        9.5850    11.1790     1.4060 N.4   1 <1>  -0.9590 
 24 C        9.8930    12.5320     1.9660 C.3   1 <1>   0.2630 
 25 C       10.6930    10.7290     0.5030 C.3   1 <1>   0.2630 
 26 H        0.2160    -1.5560    -0.3730 H     1 <1>   0.0800 
 27 H        1.4930    -0.7050    -1.1950 H     1 <1>   0.0800 
 28 H       -0.1270    -0.0500    -1.1750 H     1 <1>   0.0800 
 29 H        3.2200     0.7450    -0.3200 H     1 <1>   0.0800 
 30 H        3.5990     2.0010     0.8040 H     1 <1>   0.0800 
 31 H        1.6850     2.5040     2.3340 H     1 <1>   0.0800 
 32 H        0.2000     2.8880     1.5220 H     1 <1>   0.0800 
 33 H        2.6120     2.3230    -2.0520 H     1 <1>   0.0800 
 34 H        4.2740     2.4450    -1.5670 H     1 <1>   0.0800 
 35 H        2.7600     4.3700     1.4620 H     1 <1>   0.0800 
 36 H        1.1300     4.9190     1.5220 H     1 <1>   0.0800 
 37 H        3.8150     4.4510    -0.3870 H     1 <1>   0.4500 
 38 H        1.6300     5.5710    -0.5860 H     1 <1>   0.0800 
 39 H        0.9730     3.9900    -0.9430 H     1 <1>   0.0800 
 40 H        2.5230     4.7330    -2.9930 H     1 <1>   0.0800 
 41 H        4.2440     4.4880    -2.7900 H     1 <1>   0.0800 
 42 H        5.4850     6.0680    -1.0940 H     1 <1>   0.1500 
 43 H        1.6610     6.9540    -2.8240 H     1 <1>   0.1500 
 44 H        1.9740     9.3070    -2.2570 H     1 <1>   0.1500 
 45 H        3.9860    10.0550    -1.1220 H     1 <1>   0.1500 
 46 H        5.6620    10.1780     0.5090 H     1 <1>   0.0800 
 47 H        6.3750    10.2810    -1.1070 H     1 <1>   0.0800 
 48 H        8.4540     9.2700    -0.2390 H     1 <1>   0.0800 
 49 H        7.7540     9.2060     1.3720 H     1 <1>   0.0800 
 50 H        7.5330    11.6770     1.3490 H     1 <1>   0.0800 
 51 H        8.3260    11.7340    -0.2070 H     1 <1>   0.0800 
 52 H        9.5240    10.5150     2.1950 H     1 <1>   0.4500 
 53 H        9.9630    13.2590     1.1730 H     1 <1>   0.0800 
 54 H       10.8310    12.5120     2.4970 H     1 <1>   0.0800 
 55 H        9.1200    12.8400     2.6500 H     1 <1>   0.0800 
 56 H       10.7680    11.3790    -0.3530 H     1 <1>   0.0800 
 57 H       10.5150     9.7230     0.1580 H     1 <1>   0.0800 
 58 H       11.6340    10.7440     1.0300 H     1 <1>   0.0800 
@<TRIPOS>BOND
  1   1   2  2   
  2   1   3  2   
  3   1   4  am  
  4   1   5  1   
  5   4   6  1   
  6   4   7  1   
  7   5  26  1   
  8   5  27  1   
  9   5  28  1   
 10   6   8  1   
 11   6  29  1   
 12   6  30  1   
 13   7   9  1   
 14   7  31  1   
 15   7  32  1   
 16   8  10  1   
 17   8  33  1   
 18   8  34  1   
 19   9  11  1   
 20   9  35  1   
 21   9  36  1   
 22  10  11  1   
 23  10  12  1   
 24  10  37  1   
 25  11  38  1   
 26  11  39  1   
 27  12  13  1   
 28  12  40  1   
 29  12  41  1   
 30  13  14  ar  
 31  13  15  ar  
 32  14  16  ar  
 33  14  42  1   
 34  15  17  ar  
 35  15  43  1   
 36  16  18  1   
 37  16  19  ar  
 38  17  19  ar  
 39  17  44  1   
 40  18  20  1   
 41  19  45  1   
 42  20  21  1   
 43  20  46  1   
 44  20  47  1   
 45  21  22  1   
 46  21  48  1   
 47  21  49  1   
 48  22  23  1   
 49  22  50  1   
 50  22  51  1   
 51  23  24  1   
 52  23  25  1   
 53  23  52  1   
 54  24  53  1   
 55  24  54  1   
 56  24  55  1   
 57  25  56  1   
 58  25  57  1   
 59  25  58  1   
@<TRIPOS>SUBSTRUCTURE
  1 ****  14 GROUP 4 **** **** 0

# MOE 2024.06 (io_trps.svl 2023.06)
