@<TRIPOS>MOLECULE
NONAME
37 38 1 0 0 
SMALL
USER_CHARGES


@<TRIPOS>ATOM
  1 S       -0.5560     1.1960     2.3410 S.3   1 <1>  -0.0800 
  2 C       -1.3230     0.2560     1.0820 C.2   1 <1>   0.1980 
  3 C       -0.0580     2.3440     1.1330 C.2   1 <1>  -0.1100 
  4 N       -1.2140     0.7470    -0.0900 N.2   1 <1>  -0.5650 
  5 C       -2.0330    -1.0250     1.4940 C.3   1 <1>   0.5230 
  6 C       -0.4980     1.9330    -0.0670 C.2   1 <1>   0.0460 
  7 N       -2.3860    -1.8120     0.2660 N.4   1 <1>  -0.9590 
  8 C       -0.2850     2.6420    -1.3870 C.3   1 <1>  -0.0590 
  9 C       -3.5680    -2.6960     0.4930 C.3   1 <1>   0.3430 
 10 C       -1.1830    -2.5250    -0.2710 C.3   1 <1>   0.2630 
 11 C       -4.1400    -3.2430    -0.8170 C.3   1 <1>  -0.0170 
 12 C       -5.4020    -4.0190    -0.4990 C.ar  1 <1>  -0.1430 
 13 C       -6.6230    -3.3620    -0.4320 C.ar  1 <1>  -0.1500 
 14 C       -5.3450    -5.3860    -0.2580 C.ar  1 <1>  -0.1500 
 15 C       -7.7740    -4.0620    -0.1180 C.ar  1 <1>  -0.1500 
 16 C       -6.4960    -6.0890     0.0550 C.ar  1 <1>  -0.1500 
 17 C       -7.7070    -5.4210     0.1270 C.ar  1 <1>   0.0820 
 18 O       -8.8300    -6.0840     0.4330 O.3   1 <1>  -0.5330 
 19 H        0.5070     3.2020     1.4500 H     1 <1>   0.1500 
 20 H       -2.9270    -0.7560     2.0320 H     1 <1>   0.0800 
 21 H       -1.4000    -1.6050     2.1440 H     1 <1>   0.0800 
 22 H       -2.6250    -1.0740    -0.4220 H     1 <1>   0.4500 
 23 H        0.2790     3.5450    -1.2430 H     1 <1>   0.0800 
 24 H       -1.2350     2.8920    -1.8240 H     1 <1>   0.0800 
 25 H        0.2510     2.0010    -2.0640 H     1 <1>   0.0800 
 26 H       -4.3470    -2.1370     0.9870 H     1 <1>   0.0800 
 27 H       -3.2980    -3.5210     1.1330 H     1 <1>   0.0800 
 28 H       -0.8530    -3.2830     0.4200 H     1 <1>   0.0800 
 29 H       -0.3780    -1.8250    -0.4300 H     1 <1>   0.0800 
 30 H       -1.4130    -2.9920    -1.2150 H     1 <1>   0.0800 
 31 H       -3.4350    -3.8950    -1.3010 H     1 <1>   0.0800 
 32 H       -4.3790    -2.4350    -1.4860 H     1 <1>   0.0800 
 33 H       -6.6950    -2.3050    -0.6250 H     1 <1>   0.1500 
 34 H       -4.4110    -5.9170    -0.3140 H     1 <1>   0.1500 
 35 H       -8.7260    -3.5640    -0.0630 H     1 <1>   0.1500 
 36 H       -6.4470    -7.1460     0.2390 H     1 <1>   0.1500 
 37 H       -8.6930    -7.0380     0.5670 H     1 <1>   0.4500 
@<TRIPOS>BOND
  1   1   2  1   
  2   1   3  1   
  3   2   4  2   
  4   2   5  1   
  5   3   6  2   
  6   3  19  1   
  7   4   6  1   
  8   5   7  1   
  9   5  20  1   
 10   5  21  1   
 11   6   8  1   
 12   7   9  1   
 13   7  10  1   
 14   7  22  1   
 15   8  23  1   
 16   8  24  1   
 17   8  25  1   
 18   9  11  1   
 19   9  26  1   
 20   9  27  1   
 21  10  28  1   
 22  10  29  1   
 23  10  30  1   
 24  11  12  1   
 25  11  31  1   
 26  11  32  1   
 27  12  13  ar  
 28  12  14  ar  
 29  13  15  ar  
 30  13  33  1   
 31  14  16  ar  
 32  14  34  1   
 33  15  17  ar  
 34  15  35  1   
 35  16  17  ar  
 36  16  36  1   
 37  17  18  1   
 38  18  37  1   
@<TRIPOS>SUBSTRUCTURE
  1 ****   9 GROUP 4 **** **** 0

# MOE 2024.06 (io_trps.svl 2023.06)
