@<TRIPOS>MOLECULE
NONAME
47 48 1 0 0 
SMALL
USER_CHARGES


@<TRIPOS>ATOM
  1 O       -0.5260    -0.0960     1.3580 O.2   1 <1>  -0.5700 
  2 C       -1.2910     0.7720     1.0020 C.2   1 <1>   0.5690 
  3 N       -2.5290     0.4670     0.4890 N.am  1 <1>  -0.6600 
  4 C       -0.8120     2.2260     1.1520 C.3   1 <1>   0.1710 
  5 C       -2.9660    -0.9430     0.2710 C.3   1 <1>   0.1400 
  6 C       -3.4890     1.4570    -0.0840 C.3   1 <1>   0.1400 
  7 N       -0.5930     2.9800    -0.1260 N.3   1 <1>  -0.8100 
  8 C       -3.3140    -1.1690    -1.2100 C.3   1 <1>   0.1200 
  9 C       -3.7950     1.1060    -1.5490 C.3   1 <1>   0.1200 
 10 C       -0.3840     4.4360     0.0140 C.3   1 <1>   0.1100 
 11 C        0.2520     2.2610    -1.0900 C.3   1 <1>   0.0300 
 12 O       -4.2410    -0.2180    -1.6560 O.3   1 <1>  -0.5600 
 13 C        1.0530     4.9640     0.2930 C.3   1 <1>   0.0000 
 14 C        0.9670     6.4780     0.5670 C.3   1 <1>   0.3430 
 15 C        1.9830     4.8770    -0.9280 C.3   1 <1>  -0.1600 
 16 C        1.7260     4.2950     1.5090 C.3   1 <1>  -0.2400 
 17 N        1.9520     7.1560    -0.3320 N.4   1 <1>  -0.9590 
 18 C        2.8670     6.1060    -0.8360 C.3   1 <1>   0.3430 
 19 C        2.6740     8.2830     0.3320 C.3   1 <1>   0.2630 
 20 H        0.0990     2.1960     1.7160 H     1 <1>   0.0800 
 21 H       -1.5420     2.7440     1.7460 H     1 <1>   0.0800 
 22 H       -3.8330    -1.1440     0.8750 H     1 <1>   0.0800 
 23 H       -2.1930    -1.6330     0.5630 H     1 <1>   0.0800 
 24 H       -3.1000     2.4560    -0.0360 H     1 <1>   0.0800 
 25 H       -4.4030     1.4310     0.4820 H     1 <1>   0.0800 
 26 H       -3.7520    -2.1430    -1.3440 H     1 <1>   0.0800 
 27 H       -2.4290    -1.1010    -1.8190 H     1 <1>   0.0800 
 28 H       -2.9160     1.2260    -2.1570 H     1 <1>   0.0800 
 29 H       -4.5710     1.7450    -1.9300 H     1 <1>   0.0800 
 30 H       -1.0350     4.7810     0.8000 H     1 <1>   0.0800 
 31 H       -0.7410     4.8950    -0.8920 H     1 <1>   0.0800 
 32 H       -0.1840     1.3040    -1.3210 H     1 <1>   0.0800 
 33 H        1.2340     2.0950    -0.6830 H     1 <1>   0.0800 
 34 H        0.3270     2.8170    -2.0080 H     1 <1>   0.0800 
 35 H        1.2050     6.6710     1.6010 H     1 <1>   0.0800 
 36 H       -0.0270     6.8450     0.3690 H     1 <1>   0.0800 
 37 H        1.4210     4.9270    -1.8440 H     1 <1>   0.0800 
 38 H        2.5760     3.9800    -0.9420 H     1 <1>   0.0800 
 39 H        1.0780     4.3300     2.3680 H     1 <1>   0.0800 
 40 H        2.6500     4.7830     1.7650 H     1 <1>   0.0800 
 41 H        1.9530     3.2650     1.2990 H     1 <1>   0.0800 
 42 H        1.4320     7.5200    -1.1440 H     1 <1>   0.4500 
 43 H        3.2950     6.3670    -1.7910 H     1 <1>   0.0800 
 44 H        3.6550     5.9280    -0.1220 H     1 <1>   0.0800 
 45 H        3.2280     7.9230     1.1840 H     1 <1>   0.0800 
 46 H        1.9740     9.0310     0.6680 H     1 <1>   0.0800 
 47 H        3.3630     8.7440    -0.3570 H     1 <1>   0.0800 
@<TRIPOS>BOND
  1   1   2  2   
  2   2   3  am  
  3   2   4  1   
  4   3   5  1   
  5   3   6  1   
  6   4   7  1   
  7   4  20  1   
  8   4  21  1   
  9   5   8  1   
 10   5  22  1   
 11   5  23  1   
 12   6   9  1   
 13   6  24  1   
 14   6  25  1   
 15   7  10  1   
 16   7  11  1   
 17   8  12  1   
 18   8  26  1   
 19   8  27  1   
 20   9  12  1   
 21   9  28  1   
 22   9  29  1   
 23  10  13  1   
 24  10  30  1   
 25  10  31  1   
 26  11  32  1   
 27  11  33  1   
 28  11  34  1   
 29  13  14  1   
 30  13  15  1   
 31  13  16  1   
 32  14  17  1   
 33  14  35  1   
 34  14  36  1   
 35  15  18  1   
 36  15  37  1   
 37  15  38  1   
 38  16  39  1   
 39  16  40  1   
 40  16  41  1   
 41  17  18  1   
 42  17  19  1   
 43  17  42  1   
 44  18  43  1   
 45  18  44  1   
 46  19  45  1   
 47  19  46  1   
 48  19  47  1   
@<TRIPOS>SUBSTRUCTURE
  1 ****   7 GROUP 4 **** **** 0

# MOE 2024.06 (io_trps.svl 2023.06)
