@<TRIPOS>MOLECULE
NONAME
61 64 1 0 0 
SMALL
USER_CHARGES


@<TRIPOS>ATOM
  1 O       -0.7250     0.4160     1.3960 O.2   1 <1>  -0.5700 
  2 C       -1.4460     0.9250     0.5710 C.2   1 <1>   0.5690 
  3 N       -2.3620     0.1860    -0.1200 N.am  1 <1>  -0.6600 
  4 C       -1.3250     2.4240     0.3140 C.3   1 <1>  -0.0990 
  5 C       -3.4820     0.6990    -0.9530 C.3   1 <1>   0.1400 
  6 C       -2.5310    -1.2730     0.1070 C.3   1 <1>   0.1400 
  7 C        0.0270     3.0320     0.7460 C.3   1 <1>  -0.0800 
  8 C       -4.5910    -0.3320    -0.7580 C.3   1 <1>   0.2000 
  9 C       -3.8290    -1.6540    -0.6170 C.3   1 <1>  -0.0800 
 10 C        0.0160     4.5630     0.6140 C.3   1 <1>  -0.1600 
 11 C        1.2030     2.4590    -0.0650 C.3   1 <1>  -0.1600 
 12 O       -5.2400    -0.0390     0.4320 O.3   1 <1>  -0.6800 
 13 C       -4.6080    -2.7970     0.0600 C.3   1 <1>  -0.0170 
 14 C        1.3600     5.1670     1.0240 C.3   1 <1>   0.3430 
 15 C        2.5290     3.0820     0.3650 C.3   1 <1>   0.3430 
 16 C       -3.7900    -4.0790     0.0720 C.ar  1 <1>  -0.1440 
 17 N        2.4580     4.5620     0.2120 N.4   1 <1>  -0.9590 
 18 C       -3.7460    -4.9220    -1.0200 C.ar  1 <1>  -0.1500 
 19 C       -3.0480    -4.4650     1.1690 C.ar  1 <1>  -0.1500 
 20 C        3.7700     5.1990     0.5080 C.3   1 <1>   0.4860 
 21 C       -2.9810    -6.0750    -0.9650 C.ar  1 <1>   0.1600 
 22 C       -2.3140    -5.6380     1.1210 C.ar  1 <1>   0.1600 
 23 C        3.7020     6.6550     0.0920 C.ar  1 <1>  -0.1440 
 24 N       -2.2610    -6.4530     0.0800 N.ar  1 <1>  -0.6200 
 25 C        3.6160     7.6520     1.0540 C.ar  1 <1>  -0.1500 
 26 C        3.7190     7.0020    -1.2520 C.ar  1 <1>  -0.1500 
 27 C        3.5330     8.9800     0.6740 C.ar  1 <1>  -0.1500 
 28 C        3.6350     8.3300    -1.6290 C.ar  1 <1>  -0.1500 
 29 C        3.5400     9.3190    -0.6670 C.ar  1 <1>  -0.1500 
 30 H       -1.4790     2.6120    -0.7320 H     1 <1>   0.0800 
 31 H       -2.1190     2.9030     0.8590 H     1 <1>   0.0800 
 32 H       -3.8040     1.6810    -0.6540 H     1 <1>   0.0800 
 33 H       -3.1730     0.7130    -1.9840 H     1 <1>   0.0800 
 34 H       -1.6890    -1.8190    -0.2840 H     1 <1>   0.0800 
 35 H       -2.6110    -1.4580     1.1650 H     1 <1>   0.0800 
 36 H        0.1800     2.7910     1.7870 H     1 <1>   0.0800 
 37 H       -5.3160    -0.3340    -1.5540 H     1 <1>   0.0800 
 38 H       -3.5570    -1.9770    -1.6070 H     1 <1>   0.0800 
 39 H       -0.7510     4.9730     1.2490 H     1 <1>   0.0800 
 40 H       -0.2120     4.8530    -0.3970 H     1 <1>   0.0800 
 41 H        1.0510     2.6220    -1.1180 H     1 <1>   0.0800 
 42 H        1.2710     1.3960     0.0880 H     1 <1>   0.0800 
 43 H       -4.5700     0.0560     1.1390 H     1 <1>   0.4000 
 44 H       -5.5290    -2.9660    -0.4710 H     1 <1>   0.0800 
 45 H       -4.8670    -2.5290     1.0700 H     1 <1>   0.0800 
 46 H        1.5340     4.9770     2.0710 H     1 <1>   0.0800 
 47 H        1.3310     6.2350     0.8730 H     1 <1>   0.0800 
 48 H        3.3260     2.6820    -0.2410 H     1 <1>   0.0800 
 49 H        2.7230     2.8280     1.3950 H     1 <1>   0.0800 
 50 H        2.2470     4.7770    -0.7690 H     1 <1>   0.4500 
 51 H       -4.3000    -4.6950    -1.9130 H     1 <1>   0.1500 
 52 H       -3.0300    -3.8660     2.0620 H     1 <1>   0.1500 
 53 H        3.9940     5.1230     1.5590 H     1 <1>   0.0800 
 54 H        4.5540     4.7100    -0.0470 H     1 <1>   0.0800 
 55 H       -2.9590    -6.7210    -1.8260 H     1 <1>   0.1500 
 56 H       -1.7390    -5.9220     1.9860 H     1 <1>   0.1500 
 57 H        3.6140     7.4150     2.1040 H     1 <1>   0.1500 
 58 H        3.8000     6.2520    -2.0200 H     1 <1>   0.1500 
 59 H        3.4660     9.7550     1.4200 H     1 <1>   0.1500 
 60 H        3.6480     8.6010    -2.6720 H     1 <1>   0.1500 
 61 H        3.4770    10.3530    -0.9610 H     1 <1>   0.1500 
@<TRIPOS>BOND
  1   1   2  2   
  2   2   3  am  
  3   2   4  1   
  4   3   5  1   
  5   3   6  1   
  6   4   7  1   
  7   4  30  1   
  8   4  31  1   
  9   5   8  1   
 10   5  32  1   
 11   5  33  1   
 12   6   9  1   
 13   6  34  1   
 14   6  35  1   
 15   7  10  1   
 16   7  11  1   
 17   7  36  1   
 18   8   9  1   
 19   8  12  1   
 20   8  37  1   
 21   9  13  1   
 22   9  38  1   
 23  10  14  1   
 24  10  39  1   
 25  10  40  1   
 26  11  15  1   
 27  11  41  1   
 28  11  42  1   
 29  12  43  1   
 30  13  16  1   
 31  13  44  1   
 32  13  45  1   
 33  14  17  1   
 34  14  46  1   
 35  14  47  1   
 36  15  17  1   
 37  15  48  1   
 38  15  49  1   
 39  16  18  ar  
 40  16  19  ar  
 41  17  20  1   
 42  17  50  1   
 43  18  21  ar  
 44  18  51  1   
 45  19  22  ar  
 46  19  52  1   
 47  20  23  1   
 48  20  53  1   
 49  20  54  1   
 50  21  24  ar  
 51  21  55  1   
 52  22  24  ar  
 53  22  56  1   
 54  23  25  ar  
 55  23  26  ar  
 56  25  27  ar  
 57  25  57  1   
 58  26  28  ar  
 59  26  58  1   
 60  27  29  ar  
 61  27  59  1   
 62  28  29  ar  
 63  28  60  1   
 64  29  61  1   
@<TRIPOS>SUBSTRUCTURE
  1 ****   2 GROUP 4 **** **** 0

# MOE 2024.06 (io_trps.svl 2023.06)
