@<TRIPOS>MOLECULE
NONAME
49 51 1 0 0 
SMALL
USER_CHARGES


@<TRIPOS>ATOM
  1 S        0.0040    -0.3180    -0.4820 S.o2  1 <1>   1.2040 
  2 O        0.5630    -0.2630    -1.8130 O.2   1 <1>  -0.6500 
  3 O       -1.2210     0.3840    -0.1760 O.2   1 <1>  -0.6500 
  4 C       -0.1860    -2.0540    -0.0030 C.ar  1 <1>  -0.0090 
  5 C        1.2530     0.2610     0.6500 C.3   1 <1>  -0.1350 
  6 C       -1.1130    -2.4370     0.9580 C.ar  1 <1>  -0.1500 
  7 C        0.6000    -3.0460    -0.5740 C.ar  1 <1>  -0.1500 
  8 C       -1.2660    -3.7620     1.3250 C.ar  1 <1>  -0.1500 
  9 C        0.4570    -4.3740    -0.2150 C.ar  1 <1>  -0.1500 
 10 C       -0.4880    -4.7420     0.7290 C.ar  1 <1>  -0.1440 
 11 C       -0.6720    -6.2040     1.0840 C.3   1 <1>   0.4860 
 12 N       -1.4680    -6.8250    -0.0060 N.4   1 <1>  -0.9590 
 13 C       -1.3570    -8.3190     0.0230 C.3   1 <1>   0.5660 
 14 C       -2.8970    -6.3700    -0.0010 C.3   1 <1>   0.3430 
 15 C        0.0920    -8.6750    -0.2830 C.ar  1 <1>  -0.1440 
 16 C       -2.3320    -9.0310    -0.9550 C.3   1 <1>   0.2000 
 17 C       -3.7250    -7.1120    -1.0640 C.3   1 <1>   0.1200 
 18 C        0.7020    -8.2950    -1.4740 C.ar  1 <1>  -0.1500 
 19 C        0.8230    -9.3870     0.6570 C.ar  1 <1>  -0.1500 
 20 O       -3.6290    -8.4910    -0.8650 O.3   1 <1>  -0.5600 
 21 C       -2.4050   -10.5340    -0.6380 C.3   1 <1>   0.1200 
 22 C        2.0270    -8.6140    -1.7100 C.ar  1 <1>  -0.1500 
 23 C        2.1480    -9.7030     0.4190 C.ar  1 <1>  -0.1500 
 24 O       -2.5710   -10.7300     0.7310 O.3   1 <1>  -0.6800 
 25 C        2.7510    -9.3140    -0.7630 C.ar  1 <1>  -0.1500 
 26 H        2.1610    -0.2950     0.5240 H     1 <1>   0.0800 
 27 H        0.9190     0.1580     1.6640 H     1 <1>   0.0800 
 28 H        1.4600     1.2970     0.4640 H     1 <1>   0.0800 
 29 H       -1.7310    -1.6830     1.4220 H     1 <1>   0.1500 
 30 H        1.3330    -2.7730    -1.3180 H     1 <1>   0.1500 
 31 H       -1.9980    -4.0130     2.0760 H     1 <1>   0.1500 
 32 H        1.0920    -5.1110    -0.6820 H     1 <1>   0.1500 
 33 H       -1.1780    -6.3060     2.0300 H     1 <1>   0.0800 
 34 H        0.2970    -6.6710     1.1580 H     1 <1>   0.0800 
 35 H       -1.0340    -6.5170    -0.8800 H     1 <1>   0.4500 
 36 H       -1.5930    -8.6640     1.0160 H     1 <1>   0.0800 
 37 H       -3.3390    -6.5580     0.9640 H     1 <1>   0.0800 
 38 H       -2.9460    -5.3090    -0.1890 H     1 <1>   0.0800 
 39 H       -2.0030    -8.9090    -1.9710 H     1 <1>   0.0800 
 40 H       -3.3910    -6.8760    -2.0600 H     1 <1>   0.0800 
 41 H       -4.7630    -6.8420    -0.9770 H     1 <1>   0.0800 
 42 H        0.1660    -7.7560    -2.2370 H     1 <1>   0.1500 
 43 H        0.3710    -9.7080     1.5820 H     1 <1>   0.1500 
 44 H       -1.4950   -11.0280    -0.9330 H     1 <1>   0.0800 
 45 H       -3.2350   -10.9820    -1.1580 H     1 <1>   0.0800 
 46 H        2.5020    -8.3220    -2.6330 H     1 <1>   0.1500 
 47 H        2.7140   -10.2550     1.1510 H     1 <1>   0.1500 
 48 H       -2.8580   -11.6500     0.9150 H     1 <1>   0.4000 
 49 H        3.7830    -9.5630    -0.9480 H     1 <1>   0.1500 
@<TRIPOS>BOND
  1   1   2  2   
  2   1   3  2   
  3   1   4  1   
  4   1   5  1   
  5   4   6  ar  
  6   4   7  ar  
  7   5  26  1   
  8   5  27  1   
  9   5  28  1   
 10   6   8  ar  
 11   6  29  1   
 12   7   9  ar  
 13   7  30  1   
 14   8  10  ar  
 15   8  31  1   
 16   9  10  ar  
 17   9  32  1   
 18  10  11  1   
 19  11  12  1   
 20  11  33  1   
 21  11  34  1   
 22  12  13  1   
 23  12  14  1   
 24  12  35  1   
 25  13  15  1   
 26  13  16  1   
 27  13  36  1   
 28  14  17  1   
 29  14  37  1   
 30  14  38  1   
 31  15  18  ar  
 32  15  19  ar  
 33  16  20  1   
 34  16  21  1   
 35  16  39  1   
 36  17  20  1   
 37  17  40  1   
 38  17  41  1   
 39  18  22  ar  
 40  18  42  1   
 41  19  23  ar  
 42  19  43  1   
 43  21  24  1   
 44  21  44  1   
 45  21  45  1   
 46  22  25  ar  
 47  22  46  1   
 48  23  25  ar  
 49  23  47  1   
 50  24  48  1   
 51  25  49  1   
@<TRIPOS>SUBSTRUCTURE
  1 ****  12 GROUP 4 **** **** 0

# MOE 2024.06 (io_trps.svl 2023.06)
