@<TRIPOS>MOLECULE
NONAME
52 54 1 0 0 
SMALL
USER_CHARGES


@<TRIPOS>ATOM
  1 O       -0.4080     0.5490    -1.2400 O.2   1 <1>  -0.5700 
  2 C       -0.3860     1.6330    -0.6860 C.2   1 <1>   0.6900 
  3 N       -1.5340     2.3770    -0.5830 N.am  1 <1>  -0.6600 
  4 N        0.7730     2.1500    -0.1810 N.am  1 <1>  -0.5470 
  5 C       -2.7280     2.0000    -1.3930 C.3   1 <1>   0.1400 
  6 C       -1.7230     3.4400     0.4470 C.3   1 <1>   0.1400 
  7 C        2.0470     1.5920    -0.0080 C.ar  1 <1>   0.1170 
  8 C       -3.6470     3.2080    -1.5910 C.3   1 <1>  -0.1600 
  9 C       -3.1820     3.4680     0.9010 C.3   1 <1>  -0.1600 
 10 C        3.1420     2.4410     0.1000 C.ar  1 <1>  -0.1500 
 11 C        2.2680     0.2210     0.0830 C.ar  1 <1>  -0.1500 
 12 C       -4.1260     3.8440    -0.2610 C.3   1 <1>   0.2800 
 13 C        4.4180     1.9400     0.2900 C.ar  1 <1>  -0.1500 
 14 C        3.5420    -0.2830     0.2720 C.ar  1 <1>  -0.1500 
 15 O       -4.0310     5.2340    -0.4700 O.3   1 <1>  -0.5600 
 16 C       -5.5890     3.4460     0.0610 C.3   1 <1>  -0.1600 
 17 C        4.6270     0.5730     0.3790 C.ar  1 <1>  -0.1430 
 18 C       -4.7870     6.0820     0.3490 C.3   1 <1>   0.1200 
 19 C       -6.6090     4.4700    -0.4460 C.3   1 <1>   0.2800 
 20 C        6.0260     0.0180     0.5870 C.3   1 <1>  -0.0170 
 21 C       -6.2920     5.8460     0.1480 C.3   1 <1>  -0.1600 
 22 O       -6.4650     4.5780    -1.8040 O.3   1 <1>  -0.6800 
 23 C       -8.0510     4.0430    -0.1890 C.3   1 <1>  -0.2400 
 24 C        6.7110    -0.2320    -0.7590 C.3   1 <1>  -0.2400 
 25 H        0.7050     3.1450    -0.0100 H     1 <1>   0.3700 
 26 H       -3.2570     1.2070    -0.8910 H     1 <1>   0.0800 
 27 H       -2.4080     1.6300    -2.3540 H     1 <1>   0.0800 
 28 H       -1.4550     4.3950     0.0270 H     1 <1>   0.0800 
 29 H       -1.0930     3.2430     1.2980 H     1 <1>   0.0800 
 30 H       -4.4840     2.8980    -2.1880 H     1 <1>   0.0800 
 31 H       -3.0990     3.9330    -2.1670 H     1 <1>   0.0800 
 32 H       -3.2930     4.1500     1.7210 H     1 <1>   0.0800 
 33 H       -3.4300     2.4890     1.2710 H     1 <1>   0.0800 
 34 H        3.0010     3.5030     0.0300 H     1 <1>   0.1500 
 35 H        1.4400    -0.4590     0.0070 H     1 <1>   0.1500 
 36 H        5.2500     2.6160     0.3660 H     1 <1>   0.1500 
 37 H        3.6840    -1.3470     0.3340 H     1 <1>   0.1500 
 38 H       -5.7060     3.3710     1.1270 H     1 <1>   0.0800 
 39 H       -5.8120     2.4710    -0.3310 H     1 <1>   0.0800 
 40 H       -4.5310     7.0960     0.0960 H     1 <1>   0.0800 
 41 H       -4.5100     5.9080     1.3730 H     1 <1>   0.0800 
 42 H        5.9720    -0.9030     1.1400 H     1 <1>   0.0800 
 43 H        6.6090     0.7120     1.1660 H     1 <1>   0.0800 
 44 H       -6.7100     6.6200    -0.4730 H     1 <1>   0.0800 
 45 H       -6.7620     5.9370     1.1100 H     1 <1>   0.0800 
 46 H       -5.5650     4.9330    -1.9630 H     1 <1>   0.4000 
 47 H       -8.2270     3.9330     0.8650 H     1 <1>   0.0800 
 48 H       -8.2500     3.1010    -0.6690 H     1 <1>   0.0800 
 49 H       -8.7310     4.7820    -0.5740 H     1 <1>   0.0800 
 50 H        6.1410    -0.9370    -1.3380 H     1 <1>   0.0800 
 51 H        7.7000    -0.6250    -0.6060 H     1 <1>   0.0800 
 52 H        6.7840     0.6870    -1.3130 H     1 <1>   0.0800 
@<TRIPOS>BOND
  1   1   2  2   
  2   2   3  am  
  3   2   4  am  
  4   3   5  1   
  5   3   6  1   
  6   4   7  1   
  7   4  25  1   
  8   5   8  1   
  9   5  26  1   
 10   5  27  1   
 11   6   9  1   
 12   6  28  1   
 13   6  29  1   
 14   7  10  ar  
 15   7  11  ar  
 16   8  12  1   
 17   8  30  1   
 18   8  31  1   
 19   9  12  1   
 20   9  32  1   
 21   9  33  1   
 22  10  13  ar  
 23  10  34  1   
 24  11  14  ar  
 25  11  35  1   
 26  12  15  1   
 27  12  16  1   
 28  13  17  ar  
 29  13  36  1   
 30  14  17  ar  
 31  14  37  1   
 32  15  18  1   
 33  16  19  1   
 34  16  38  1   
 35  16  39  1   
 36  17  20  1   
 37  18  21  1   
 38  18  40  1   
 39  18  41  1   
 40  19  21  1   
 41  19  22  1   
 42  19  23  1   
 43  20  24  1   
 44  20  42  1   
 45  20  43  1   
 46  21  44  1   
 47  21  45  1   
 48  22  46  1   
 49  23  47  1   
 50  23  48  1   
 51  23  49  1   
 52  24  50  1   
 53  24  51  1   
 54  24  52  1   
@<TRIPOS>SUBSTRUCTURE
  1 ****   3 GROUP 4 **** **** 0

# MOE 2024.06 (io_trps.svl 2023.06)
