@<TRIPOS>MOLECULE
NONAME
50 52 1 0 0 
SMALL
USER_CHARGES


@<TRIPOS>ATOM
  1 S        0.9980     0.1720    -1.6360 S.o2  1 <1>   1.3330 
  2 O        1.2450    -1.2530    -1.6580 O.2   1 <1>  -0.6500 
  3 O        0.4680     0.8250    -2.8120 O.2   1 <1>  -0.6500 
  4 N       -0.0760     0.4930    -0.3590 N.am  1 <1>  -0.8490 
  5 C        2.5150     0.9900    -1.1380 C.3   1 <1>  -0.0550 
  6 C       -0.6730     1.8320    -0.4260 C.3   1 <1>   0.1160 
  7 C       -1.1350    -0.5160    -0.2640 C.3   1 <1>   0.1160 
  8 C        3.2330     0.3260     0.0580 C.3   1 <1>  -0.0800 
  9 C        4.5900     0.9230     0.4020 C.3   1 <1>   0.2200 
 10 C        2.4840     0.4020     1.3940 C.3   1 <1>   0.1200 
 11 N        4.5380     2.4020     0.3550 N.am  1 <1>  -0.7300 
 12 C        4.7320     0.4790     1.8510 C.3   1 <1>   0.1200 
 13 O        3.4490     0.5790     2.3910 O.3   1 <1>  -0.5600 
 14 C        4.9860     3.1980    -0.6560 C.2   1 <1>   0.7150 
 15 O        5.4920     2.6610    -1.6240 O.2   1 <1>  -0.5700 
 16 C        4.8130     4.6330    -0.5630 C.2   1 <1>   0.0550 
 17 O        4.1650     5.1290     0.5050 O.3   1 <1>  -0.2800 
 18 C        5.1770     5.6610    -1.3810 C.2   1 <1>  -0.1810 
 19 C        4.1070     6.4520     0.3840 C.ar  1 <1>   0.1400 
 20 C        4.7250     6.8510    -0.7840 C.ar  1 <1>   0.0000 
 21 C        5.9240     5.6440    -2.7040 C.3   1 <1>  -0.0590 
 22 C        3.5260     7.3580     1.2610 C.ar  1 <1>  -0.1500 
 23 C        4.7680     8.2110    -1.0980 C.ar  1 <1>  -0.1500 
 24 C        3.5700     8.7030     0.9480 C.ar  1 <1>  -0.1440 
 25 C        4.1930     9.1210    -0.2340 C.ar  1 <1>  -0.1500 
 26 C        2.9530     9.7390     1.8690 C.3   1 <1>  -0.0970 
 27 H        3.1890     0.9820    -1.9730 H     1 <1>   0.0800 
 28 H        2.3020     2.0160    -0.9130 H     1 <1>   0.0800 
 29 H       -1.2760     2.0120     0.4480 H     1 <1>   0.0800 
 30 H       -1.2930     1.9260    -1.3030 H     1 <1>   0.0800 
 31 H        0.0960     2.5830    -0.4660 H     1 <1>   0.0800 
 32 H       -1.7900    -0.2950     0.5610 H     1 <1>   0.0800 
 33 H       -0.7030    -1.4890    -0.0970 H     1 <1>   0.0800 
 34 H       -1.7070    -0.5450    -1.1760 H     1 <1>   0.0800 
 35 H        3.3810    -0.7160    -0.1710 H     1 <1>   0.0800 
 36 H        5.3840     0.5470    -0.2220 H     1 <1>   0.0800 
 37 H        1.9300    -0.5000     1.5950 H     1 <1>   0.0800 
 38 H        1.8220     1.2500     1.4330 H     1 <1>   0.0800 
 39 H        4.0990     2.8520     1.1630 H     1 <1>   0.3700 
 40 H        5.4130     1.0930     2.4130 H     1 <1>   0.0800 
 41 H        5.0330    -0.5530     1.9070 H     1 <1>   0.0800 
 42 H        6.8060     6.2550    -2.6330 H     1 <1>   0.0800 
 43 H        5.2930     6.0330    -3.4830 H     1 <1>   0.0800 
 44 H        6.2230     4.6480    -2.9740 H     1 <1>   0.0800 
 45 H        3.0590     6.9950     2.1570 H     1 <1>   0.1500 
 46 H        5.2460     8.5310    -2.0050 H     1 <1>   0.1500 
 47 H        4.2220    10.1710    -0.4700 H     1 <1>   0.1500 
 48 H        2.1850    10.2820     1.3470 H     1 <1>   0.0800 
 49 H        3.7070    10.4310     2.1990 H     1 <1>   0.0800 
 50 H        2.5150     9.2730     2.7330 H     1 <1>   0.0800 
@<TRIPOS>BOND
  1   1   2  2   
  2   1   3  2   
  3   1   4  am  
  4   1   5  1   
  5   4   6  1   
  6   4   7  1   
  7   5   8  1   
  8   5  27  1   
  9   5  28  1   
 10   6  29  1   
 11   6  30  1   
 12   6  31  1   
 13   7  32  1   
 14   7  33  1   
 15   7  34  1   
 16   8   9  1   
 17   8  10  1   
 18   8  35  1   
 19   9  11  1   
 20   9  12  1   
 21   9  36  1   
 22  10  13  1   
 23  10  37  1   
 24  10  38  1   
 25  11  14  am  
 26  11  39  1   
 27  12  13  1   
 28  12  40  1   
 29  12  41  1   
 30  14  15  2   
 31  14  16  1   
 32  16  17  1   
 33  16  18  2   
 34  17  19  1   
 35  18  20  1   
 36  18  21  1   
 37  19  20  ar  
 38  19  22  ar  
 39  20  23  ar  
 40  21  42  1   
 41  21  43  1   
 42  21  44  1   
 43  22  24  ar  
 44  22  45  1   
 45  23  25  ar  
 46  23  46  1   
 47  24  25  ar  
 48  24  26  1   
 49  25  47  1   
 50  26  48  1   
 51  26  49  1   
 52  26  50  1   
@<TRIPOS>SUBSTRUCTURE
  1 ****  11 GROUP 4 **** **** 0

# MOE 2024.06 (io_trps.svl 2023.06)
