@<TRIPOS>MOLECULE
NONAME
32 33 1 0 0 
SMALL
USER_CHARGES


@<TRIPOS>ATOM
  1 O        0.3110    -0.1940     1.3940 O.2   1 <1>  -0.5770 
  2 C        1.1740    -0.7490     0.7450 C.2   1 <1>   0.9950 
  3 N        2.2290    -0.0060     0.3060 N.pl3 1 <1>  -0.7350 
  4 C        1.1230    -2.1470     0.4280 C.2   1 <1>   0.0420 
  5 C        2.4640     1.2890     0.4880 C.cat 1 <1>   1.0680 
  6 O        2.1090    -2.6700    -0.2860 O.3   1 <1>  -0.0320 
  7 C        0.2160    -3.1020     0.7270 C.2   1 <1>  -0.1620 
  8 N        1.7010     2.1380     1.1510 N.pl3 1 <1>  -0.7060 
  9 N        3.5340     1.9270     0.0130 N.pl3 1 <1>  -0.7690 
 10 N        1.8430    -3.9400    -0.4440 N.2   1 <1>  -0.4190 
 11 C        0.7360    -4.2280     0.1390 C.2   1 <1>   0.0960 
 12 C        2.2860     3.3810     1.1130 C.2   1 <1>   0.1890 
 13 C        3.4240     3.2520     0.4080 C.2   1 <1>   0.1890 
 14 C        4.6820     1.4240    -0.7910 C.3   1 <1>   0.2640 
 15 C        0.1130    -5.6200     0.1620 C.3   1 <1>   0.0890 
 16 C       -1.2600    -5.6160    -0.5210 C.3   1 <1>  -0.2510 
 17 C       -0.0060    -6.1430     1.5980 C.3   1 <1>  -0.2510 
 18 H        2.9100    -0.5280    -0.2280 H     1 <1>   0.4410 
 19 H       -0.7000    -3.0330     1.2860 H     1 <1>   0.1380 
 20 H        0.8230     1.8500     1.6000 H     1 <1>   0.4410 
 21 H        1.8590     4.2540     1.5840 H     1 <1>   0.1380 
 22 H        4.1570     4.0060     0.1610 H     1 <1>   0.1380 
 23 H        4.5840     0.3720    -0.9920 H     1 <1>   0.0670 
 24 H        5.6020     1.5890    -0.2560 H     1 <1>   0.0670 
 25 H        4.7280     1.9520    -1.7290 H     1 <1>   0.0670 
 26 H        0.7590    -6.2850    -0.3860 H     1 <1>   0.0670 
 27 H       -1.9480    -4.9820     0.0100 H     1 <1>   0.0670 
 28 H       -1.6620    -6.6130    -0.5520 H     1 <1>   0.0670 
 29 H       -1.1660    -5.2540    -1.5290 H     1 <1>   0.0670 
 30 H       -0.6650    -5.5210     2.1780 H     1 <1>   0.0670 
 31 H        0.9630    -6.1490     2.0660 H     1 <1>   0.0670 
 32 H       -0.3900    -7.1470     1.5980 H     1 <1>   0.0670 
@<TRIPOS>BOND
  1   1   2  2   
  2   2   3  1   
  3   2   4  1   
  4   3   5  ar  
  5   3  18  1   
  6   4   6  1   
  7   4   7  2   
  8   5   8  ar  
  9   5   9  ar  
 10   6  10  1   
 11   7  11  1   
 12   7  19  1   
 13   8  12  1   
 14   8  20  1   
 15   9  13  1   
 16   9  14  1   
 17  10  11  2   
 18  11  15  1   
 19  12  13  2   
 20  12  21  1   
 21  13  22  1   
 22  14  23  1   
 23  14  24  1   
 24  14  25  1   
 25  15  16  1   
 26  15  17  1   
 27  15  26  1   
 28  16  27  1   
 29  16  28  1   
 30  16  29  1   
 31  17  30  1   
 32  17  31  1   
 33  17  32  1   
@<TRIPOS>SUBSTRUCTURE
  1 ****   2 GROUP 4 **** **** 0

# MOE 2024.06 (io_trps.svl 2023.06)
