@<TRIPOS>MOLECULE
NONAME
44 47 1 0 0 
SMALL
USER_CHARGES


@<TRIPOS>ATOM
  1 CL      -0.1930     2.5010    -2.6250 Cl    1 <1>  -0.1770 
  2 C       -1.5140     2.4290    -1.4800 C.ar  1 <1>   0.1770 
  3 C       -2.2460     3.5690    -1.1580 C.ar  1 <1>  -0.1440 
  4 C       -1.7920     1.2010    -0.9090 C.ar  1 <1>  -0.1500 
  5 C       -3.2780     3.4520    -0.2350 C.ar  1 <1>  -0.1500 
  6 C       -1.9640     4.9410    -1.7720 C.3   1 <1>   0.0450 
  7 C       -2.8230     1.0970     0.0060 C.ar  1 <1>   0.0830 
  8 C       -3.5630     2.2300     0.3510 C.ar  1 <1>   0.0830 
  9 C       -1.6260     5.9890    -0.7210 C.2   1 <1>   0.5690 
 10 O       -3.0970    -0.1150     0.5500 O.3   1 <1>  -0.3630 
 11 O       -4.5660     2.1600     1.2620 O.3   1 <1>  -0.3630 
 12 O       -2.4750     6.8060    -0.4460 O.2   1 <1>  -0.5700 
 13 N       -0.4010     6.0080    -0.1190 N.am  1 <1>  -0.6600 
 14 C       -4.3370    -0.2510     1.2180 C.3   1 <1>   0.1200 
 15 C       -4.6250     0.9960     2.0650 C.3   1 <1>   0.1200 
 16 C       -0.0430     7.0220     0.9010 C.3   1 <1>   0.4010 
 17 C        0.6490     4.9670    -0.2290 C.3   1 <1>   0.1400 
 18 C        0.4920     8.2900     0.2220 C.2   1 <1>   0.1080 
 19 C        0.9950     6.2980     1.7620 C.3   1 <1>  -0.1600 
 20 C        1.7100     5.3540     0.7970 C.3   1 <1>  -0.1600 
 21 N        1.7280     8.6590     0.1500 N.2   1 <1>  -0.4100 
 22 C       -0.3250     9.2230    -0.4150 C.2   1 <1>  -0.1500 
 23 O        1.7380     9.7840    -0.5040 O.3   1 <1>  -0.0190 
 24 C        0.5350    10.1510    -0.8560 C.2   1 <1>  -0.0400 
 25 C        0.3300    11.4350    -1.6300 C.3   1 <1>  -0.0600 
 26 H       -1.2170     0.3330    -1.1730 H     1 <1>   0.1500 
 27 H       -3.8670     4.3090     0.0440 H     1 <1>   0.1500 
 28 H       -2.8410     5.2640    -2.3010 H     1 <1>   0.0800 
 29 H       -1.1650     4.9100    -2.4860 H     1 <1>   0.0800 
 30 H       -4.2870    -1.1290     1.8360 H     1 <1>   0.0800 
 31 H       -5.1050    -0.3840     0.4760 H     1 <1>   0.0800 
 32 H       -5.6060     0.9450     2.5020 H     1 <1>   0.0800 
 33 H       -3.8940     1.0930     2.8490 H     1 <1>   0.0800 
 34 H       -0.9030     7.2780     1.4950 H     1 <1>   0.0800 
 35 H        1.0600     4.9410    -1.2230 H     1 <1>   0.0800 
 36 H        0.2310     4.0070     0.0220 H     1 <1>   0.0800 
 37 H        0.4780     5.7280     2.5120 H     1 <1>   0.0800 
 38 H        1.6690     6.9790     2.2500 H     1 <1>   0.0800 
 39 H        2.5050     5.8800     0.2950 H     1 <1>   0.0800 
 40 H        2.1210     4.4930     1.2930 H     1 <1>   0.0800 
 41 H       -1.3940     9.1700    -0.5100 H     1 <1>   0.1500 
 42 H       -0.7150    11.5800    -1.8370 H     1 <1>   0.0800 
 43 H        0.8680    11.3890    -2.5590 H     1 <1>   0.0800 
 44 H        0.6930    12.2680    -1.0560 H     1 <1>   0.0800 
@<TRIPOS>BOND
  1   1   2  1   
  2   2   3  ar  
  3   2   4  ar  
  4   3   5  ar  
  5   3   6  1   
  6   4   7  ar  
  7   4  26  1   
  8   5   8  ar  
  9   5  27  1   
 10   6   9  1   
 11   6  28  1   
 12   6  29  1   
 13   7   8  ar  
 14   7  10  1   
 15   8  11  1   
 16   9  12  2   
 17   9  13  am  
 18  10  14  1   
 19  11  15  1   
 20  13  16  1   
 21  13  17  1   
 22  14  15  1   
 23  14  30  1   
 24  14  31  1   
 25  15  32  1   
 26  15  33  1   
 27  16  18  1   
 28  16  19  1   
 29  16  34  1   
 30  17  20  1   
 31  17  35  1   
 32  17  36  1   
 33  18  21  2   
 34  18  22  1   
 35  19  20  1   
 36  19  37  1   
 37  19  38  1   
 38  20  39  1   
 39  20  40  1   
 40  21  23  1   
 41  22  24  2   
 42  22  41  1   
 43  23  24  1   
 44  24  25  1   
 45  25  42  1   
 46  25  43  1   
 47  25  44  1   
@<TRIPOS>SUBSTRUCTURE
  1 ****   9 GROUP 4 **** **** 0

# MOE 2024.06 (io_trps.svl 2023.06)
