@<TRIPOS>MOLECULE
NONAME
51 53 1 0 0 
SMALL
USER_CHARGES


@<TRIPOS>ATOM
  1 O        0.8420     0.4320     0.5820 O.2   1 <1>  -0.5700 
  2 C        1.5670     0.4320    -0.3990 C.2   1 <1>   0.5440 
  3 N        1.4750     1.4820    -1.2750 N.am  1 <1>  -0.7300 
  4 C        2.5030    -0.6410    -0.6480 C.ar  1 <1>   0.0860 
  5 C        0.5690     2.6520    -1.1320 C.3   1 <1>   0.0600 
  6 C        2.1670    -1.9850    -0.3910 C.ar  1 <1>   0.4100 
  7 C        3.7710    -0.3830    -1.1530 C.ar  1 <1>  -0.1500 
  8 N        2.9820    -3.0170    -0.6110 N.ar  1 <1>  -0.6200 
  9 N        0.9330    -2.3120     0.1130 N.pl3 1 <1>  -0.8690 
 10 C        4.6130    -1.4480    -1.3800 C.ar  1 <1>  -0.1500 
 11 C        4.1730    -2.7280    -1.0960 C.ar  1 <1>   0.1600 
 12 C        0.6580    -3.5810     0.7930 C.3   1 <1>   0.3040 
 13 C       -0.7680    -3.6120     1.3790 C.3   1 <1>  -0.1900 
 14 C       -1.2880    -2.4100     2.1120 C.3   1 <1>  -0.2000 
 15 C       -1.8880    -2.8010     0.7880 C.3   1 <1>  -0.2000 
 16 C       -1.1050    -4.9890     1.9510 C.3   1 <1>   0.4380 
 17 N       -1.5190    -5.8650     0.8310 N.4   1 <1>  -0.9590 
 18 C       -2.8230    -6.5690     1.0630 C.3   1 <1>   0.3430 
 19 C       -0.4770    -6.8230     0.3360 C.3   1 <1>   0.3430 
 20 C       -3.2380    -7.4150    -0.1670 C.3   1 <1>   0.1100 
 21 C       -0.9360    -7.5050    -0.9770 C.3   1 <1>   0.1100 
 22 N       -2.3420    -7.1890    -1.3230 N.3   1 <1>  -0.8100 
 23 C       -2.7840    -7.9370    -2.5070 C.3   1 <1>   0.0300 
 24 H        1.9890     1.4290    -2.1560 H     1 <1>   0.3700 
 25 H        0.0750     2.6340    -0.1750 H     1 <1>   0.0800 
 26 H       -0.1780     2.6300    -1.9060 H     1 <1>   0.0800 
 27 H        1.1360     3.5630    -1.2100 H     1 <1>   0.0800 
 28 H        4.0910     0.6240    -1.3550 H     1 <1>   0.1500 
 29 H        0.4160    -1.5070     0.5040 H     1 <1>   0.4000 
 30 H        5.6040    -1.2930    -1.7710 H     1 <1>   0.1500 
 31 H        4.8400    -3.5530    -1.2790 H     1 <1>   0.1500 
 32 H        1.3840    -3.7220     1.5760 H     1 <1>   0.0800 
 33 H        0.7830    -4.3660     0.0690 H     1 <1>   0.0800 
 34 H       -0.7060    -1.5020     2.1510 H     1 <1>   0.1000 
 35 H       -1.8910    -2.5300     2.9960 H     1 <1>   0.1000 
 36 H       -2.8990    -3.1690     0.7930 H     1 <1>   0.1000 
 37 H       -1.7020    -2.1600    -0.0590 H     1 <1>   0.1000 
 38 H       -1.9240    -4.8800     2.6430 H     1 <1>   0.0800 
 39 H       -0.2630    -5.4030     2.4810 H     1 <1>   0.0800 
 40 H       -1.7110    -5.2590     0.0150 H     1 <1>   0.4500 
 41 H       -3.5950    -5.8430     1.2570 H     1 <1>   0.0800 
 42 H       -2.7520    -7.2110     1.9250 H     1 <1>   0.0800 
 43 H       -0.2940    -7.5800     1.0800 H     1 <1>   0.0800 
 44 H        0.4540    -6.3120     0.1540 H     1 <1>   0.0800 
 45 H       -4.2480    -7.1590    -0.4390 H     1 <1>   0.0800 
 46 H       -3.2300    -8.4590     0.1010 H     1 <1>   0.0800 
 47 H       -0.8100    -8.5710    -0.8810 H     1 <1>   0.0800 
 48 H       -0.2970    -7.1760    -1.7800 H     1 <1>   0.0800 
 49 H       -3.7870    -7.6480    -2.7720 H     1 <1>   0.0800 
 50 H       -2.7640    -8.9980    -2.3190 H     1 <1>   0.0800 
 51 H       -2.1410    -7.7170    -3.3420 H     1 <1>   0.0800 
@<TRIPOS>BOND
  1   1   2  2   
  2   2   3  am  
  3   2   4  1   
  4   3   5  1   
  5   3  24  1   
  6   4   6  ar  
  7   4   7  ar  
  8   5  25  1   
  9   5  26  1   
 10   5  27  1   
 11   6   8  ar  
 12   6   9  1   
 13   7  10  ar  
 14   7  28  1   
 15   8  11  ar  
 16   9  12  1   
 17   9  29  1   
 18  10  11  ar  
 19  10  30  1   
 20  11  31  1   
 21  12  13  1   
 22  12  32  1   
 23  12  33  1   
 24  13  14  1   
 25  13  15  1   
 26  13  16  1   
 27  14  15  1   
 28  14  34  1   
 29  14  35  1   
 30  15  36  1   
 31  15  37  1   
 32  16  17  1   
 33  16  38  1   
 34  16  39  1   
 35  17  18  1   
 36  17  19  1   
 37  17  40  1   
 38  18  20  1   
 39  18  41  1   
 40  18  42  1   
 41  19  21  1   
 42  19  43  1   
 43  19  44  1   
 44  20  22  1   
 45  20  45  1   
 46  20  46  1   
 47  21  22  1   
 48  21  47  1   
 49  21  48  1   
 50  22  23  1   
 51  23  49  1   
 52  23  50  1   
 53  23  51  1   
@<TRIPOS>SUBSTRUCTURE
  1 ****  12 GROUP 4 **** **** 0

# MOE 2024.06 (io_trps.svl 2023.06)
