@<TRIPOS>MOLECULE
NONAME
29 30 1 0 0 
SMALL
USER_CHARGES


@<TRIPOS>ATOM
  1 CL      -0.1690    -0.2710    -0.2430 Cl    1 <1>  -0.1230 
  2 C        1.5700    -0.5110    -0.1820 C.2   1 <1>   0.1230 
  3 C        2.5630     0.4710    -0.1050 C.2   1 <1>   0.2030 
  4 C        2.1880    -1.7030    -0.2030 C.2   1 <1>  -0.3020 
  5 N        3.7530    -0.1180    -0.0800 N.2   1 <1>  -0.7070 
  6 C        2.3610     1.9070    -0.0580 C.2   1 <1>   0.7160 
  7 N        3.5060    -1.4380    -0.1400 N.pl3 1 <1>   0.3140 
  8 O        1.2540     2.4190    -0.0830 O.2   1 <1>  -0.5700 
  9 N        3.4830     2.6870     0.0160 N.am  1 <1>  -0.4930 
 10 C        4.5840    -2.4360    -0.1350 C.3   1 <1>   0.0160 
 11 C        3.6380     4.0950     0.0760 C.2   1 <1>   0.0630 
 12 C        4.8400     4.8030     0.1520 C.2   1 <1>   0.1080 
 13 C        2.6880     5.0520     0.0740 C.2   1 <1>  -0.3020 
 14 N        4.6560     6.0870     0.1930 N.2   1 <1>  -0.7070 
 15 C        6.2190     4.1840     0.1840 C.3   1 <1>  -0.0590 
 16 N        3.3220     6.2400     0.1450 N.pl3 1 <1>   0.3140 
 17 C        2.6890     7.5620     0.1680 C.3   1 <1>   0.0160 
 18 H        1.7730    -2.6920    -0.2570 H     1 <1>   0.1500 
 19 H        4.3390     2.1300     0.0290 H     1 <1>   0.3700 
 20 H        4.5350    -3.0130    -1.0390 H     1 <1>   0.0800 
 21 H        4.4670    -3.0790     0.7170 H     1 <1>   0.0800 
 22 H        5.5320    -1.9330    -0.0790 H     1 <1>   0.0800 
 23 H        1.6210     4.9490     0.0260 H     1 <1>   0.1500 
 24 H        6.3110     3.5450     1.0420 H     1 <1>   0.0800 
 25 H        6.9630     4.9570     0.2450 H     1 <1>   0.0800 
 26 H        6.3830     3.6130    -0.7100 H     1 <1>   0.0800 
 27 H        1.9540     7.5880     0.9500 H     1 <1>   0.0800 
 28 H        2.2230     7.7440    -0.7820 H     1 <1>   0.0800 
 29 H        3.4400     8.3080     0.3520 H     1 <1>   0.0800 
@<TRIPOS>BOND
  1   1   2  1   
  2   2   3  1   
  3   2   4  2   
  4   3   5  2   
  5   3   6  1   
  6   4   7  1   
  7   4  18  1   
  8   5   7  1   
  9   6   8  2   
 10   6   9  am  
 11   7  10  1   
 12   9  11  1   
 13   9  19  1   
 14  10  20  1   
 15  10  21  1   
 16  10  22  1   
 17  11  12  1   
 18  11  13  2   
 19  12  14  2   
 20  12  15  1   
 21  13  16  1   
 22  13  23  1   
 23  14  16  1   
 24  15  24  1   
 25  15  25  1   
 26  15  26  1   
 27  16  17  1   
 28  17  27  1   
 29  17  28  1   
 30  17  29  1   
@<TRIPOS>SUBSTRUCTURE
  1 ****   9 GROUP 4 **** **** 0

# MOE 2024.06 (io_trps.svl 2023.06)
