@<TRIPOS>MOLECULE
NONAME
34 36 1 0 0 
SMALL
USER_CHARGES


@<TRIPOS>ATOM
  1 F       -0.1760    -0.5080     0.0230 F     1 <1>  -0.1900 
  2 C       -0.2870    -1.8010     0.1670 C.ar  1 <1>   0.1900 
  3 C        0.1940    -2.6430    -0.8250 C.ar  1 <1>  -0.1440 
  4 C       -0.8830    -2.2810     1.3180 C.ar  1 <1>  -0.1500 
  5 C        0.0620    -4.0100    -0.6320 C.ar  1 <1>  -0.1500 
  6 C        0.8400    -2.0940    -2.0870 C.3   1 <1>  -0.0960 
  7 C       -1.0020    -3.6490     1.4840 C.ar  1 <1>  -0.1500 
  8 C       -0.5340    -4.5400     0.5140 C.ar  1 <1>   0.0860 
  9 C       -0.6440    -5.9750     0.6860 C.2   1 <1>   0.5440 
 10 O        0.3740    -6.6430     0.7110 O.2   1 <1>  -0.5700 
 11 N       -1.8600    -6.5900     0.8460 N.am  1 <1>  -0.6600 
 12 C       -3.1770    -5.9610     0.7770 C.3   1 <1>   0.2350 
 13 C       -2.0800    -8.0370     0.8450 C.3   1 <1>   0.2350 
 14 C       -4.0810    -6.8770    -0.0440 C.3   1 <1>  -0.2420 
 15 C       -3.3320    -8.3070     0.0040 C.3   1 <1>  -0.2420 
 16 C       -5.1490    -5.8540    -0.4340 C.2   1 <1>   0.9470 
 17 C       -4.6310    -8.0930    -0.6380 C.3   1 <1>  -0.2000 
 18 C       -3.1100    -9.7910    -0.3010 C.2   1 <1>   0.9470 
 19 O       -5.0750    -5.2660    -1.5200 O.co2 1 <1>  -0.9000 
 20 O       -6.0100    -5.5530     0.4050 O.co2 1 <1>  -0.9000 
 21 O       -2.6290   -10.1390    -1.3880 O.co2 1 <1>  -0.9000 
 22 O       -3.3620   -10.6180     0.5860 O.co2 1 <1>  -0.9000 
 23 H       -1.2460    -1.5950     2.0610 H     1 <1>   0.1500 
 24 H        0.4190    -4.7020    -1.3760 H     1 <1>   0.1500 
 25 H        1.1560    -2.8920    -2.7360 H     1 <1>   0.0800 
 26 H        1.6980    -1.4990    -1.8310 H     1 <1>   0.0800 
 27 H        0.1360    -1.4790    -2.6190 H     1 <1>   0.0800 
 28 H       -1.4630    -4.0460     2.3720 H     1 <1>   0.1500 
 29 H       -3.5720    -5.8990     1.7760 H     1 <1>   0.0800 
 30 H       -3.1250    -4.9700     0.3580 H     1 <1>   0.0800 
 31 H       -1.2180    -8.5660     0.4730 H     1 <1>   0.0800 
 32 H       -2.2680    -8.3500     1.8570 H     1 <1>   0.0800 
 33 H       -4.6830    -8.1570    -1.7130 H     1 <1>   0.1000 
 34 H       -5.5000    -8.5330    -0.1780 H     1 <1>   0.1000 
@<TRIPOS>BOND
  1   1   2  1   
  2   2   3  ar  
  3   2   4  ar  
  4   3   5  ar  
  5   3   6  1   
  6   4   7  ar  
  7   4  23  1   
  8   5   8  ar  
  9   5  24  1   
 10   6  25  1   
 11   6  26  1   
 12   6  27  1   
 13   7   8  ar  
 14   7  28  1   
 15   8   9  1   
 16   9  10  2   
 17   9  11  am  
 18  11  12  1   
 19  11  13  1   
 20  12  14  1   
 21  12  29  1   
 22  12  30  1   
 23  13  15  1   
 24  13  31  1   
 25  13  32  1   
 26  14  15  1   
 27  14  16  1   
 28  14  17  1   
 29  15  17  1   
 30  15  18  1   
 31  16  19  ar  
 32  16  20  ar  
 33  17  33  1   
 34  17  34  1   
 35  18  21  ar  
 36  18  22  ar  
@<TRIPOS>SUBSTRUCTURE
  1 ****  11 GROUP 4 **** **** 0

# MOE 2024.06 (io_trps.svl 2023.06)
