@<TRIPOS>MOLECULE
NONAME
41 42 1 0 0 
SMALL
USER_CHARGES


@<TRIPOS>ATOM
  1 S        0.7540    -0.0200    -0.5570 S.o2  1 <1>   1.3330 
  2 O        0.7310    -0.0940    -2.0000 O.2   1 <1>  -0.6500 
  3 O        2.0200     0.1270     0.1280 O.2   1 <1>  -0.6500 
  4 N       -0.0250    -1.3990     0.0540 N.am  1 <1>  -0.8490 
  5 C       -0.3050     1.3240    -0.0290 C.3   1 <1>  -0.0550 
  6 C        0.9090    -2.5000     0.3030 C.3   1 <1>   0.1160 
  7 C       -1.1300    -1.8660    -0.7910 C.3   1 <1>   0.1160 
  8 C        0.2040     2.7080    -0.4840 C.3   1 <1>  -0.0800 
  9 C       -0.7370     3.8680    -0.1540 C.3   1 <1>   0.2000 
 10 C        1.5450     3.1150     0.1440 C.3   1 <1>   0.2090 
 11 O       -1.1850     3.7260     1.1510 O.3   1 <1>  -0.6800 
 12 C        0.1760     5.0900    -0.2150 C.3   1 <1>   0.2090 
 13 N        1.4870     4.5940     0.2900 N.pl3 1 <1>  -0.8380 
 14 C        2.6130     5.3930     0.2600 C.ar  1 <1>   0.4100 
 15 N        2.4770     6.6240    -0.1860 N.ar  1 <1>  -0.6200 
 16 C        3.8450     4.9280     0.6900 C.ar  1 <1>  -0.1500 
 17 C        3.5810     7.3410    -0.1950 C.ar  1 <1>   0.7220 
 18 C        4.9160     5.7780     0.6280 C.ar  1 <1>   0.1600 
 19 S        3.3790     9.0090    -0.8100 S.3   1 <1>  -0.3310 
 20 N        4.8070     7.0110     0.1790 N.ar  1 <1>  -0.6200 
 21 C        5.0610     9.7680    -0.7030 C.3   1 <1>  -0.0100 
 22 H       -1.2880     1.1750    -0.4290 H     1 <1>   0.0800 
 23 H       -0.3850     1.3040     1.0410 H     1 <1>   0.0800 
 24 H        0.3860    -3.3500     0.7070 H     1 <1>   0.0800 
 25 H        1.6560    -2.1960     1.0180 H     1 <1>   0.0800 
 26 H        1.4030    -2.7880    -0.6110 H     1 <1>   0.0800 
 27 H       -1.6390    -2.6860    -0.3130 H     1 <1>   0.0800 
 28 H       -0.7590    -2.1950    -1.7490 H     1 <1>   0.0800 
 29 H       -1.8390    -1.0730    -0.9490 H     1 <1>   0.0800 
 30 H        0.3400     2.6900    -1.5520 H     1 <1>   0.0800 
 31 H       -1.5890     3.9370    -0.8090 H     1 <1>   0.0800 
 32 H        2.3700     2.8180    -0.4830 H     1 <1>   0.0800 
 33 H        1.6600     2.6730     1.1190 H     1 <1>   0.0800 
 34 H       -0.4450     3.9770     1.7450 H     1 <1>   0.4000 
 35 H       -0.1960     5.9050     0.3830 H     1 <1>   0.0800 
 36 H        0.2890     5.4190    -1.2340 H     1 <1>   0.0800 
 37 H        3.9530     3.9310     1.0660 H     1 <1>   0.1500 
 38 H        5.8880     5.4470     0.9540 H     1 <1>   0.1500 
 39 H        4.9880    10.7790    -1.0610 H     1 <1>   0.0800 
 40 H        5.7250     9.1860    -1.3160 H     1 <1>   0.0800 
 41 H        5.3680     9.7440     0.3270 H     1 <1>   0.0800 
@<TRIPOS>BOND
  1   1   2  2   
  2   1   3  2   
  3   1   4  am  
  4   1   5  1   
  5   4   6  1   
  6   4   7  1   
  7   5   8  1   
  8   5  22  1   
  9   5  23  1   
 10   6  24  1   
 11   6  25  1   
 12   6  26  1   
 13   7  27  1   
 14   7  28  1   
 15   7  29  1   
 16   8   9  1   
 17   8  10  1   
 18   8  30  1   
 19   9  11  1   
 20   9  12  1   
 21   9  31  1   
 22  10  13  1   
 23  10  32  1   
 24  10  33  1   
 25  11  34  1   
 26  12  13  1   
 27  12  35  1   
 28  12  36  1   
 29  13  14  1   
 30  14  15  ar  
 31  14  16  ar  
 32  15  17  ar  
 33  16  18  ar  
 34  16  37  1   
 35  17  19  1   
 36  17  20  ar  
 37  18  20  ar  
 38  18  38  1   
 39  19  21  1   
 40  21  39  1   
 41  21  40  1   
 42  21  41  1   
@<TRIPOS>SUBSTRUCTURE
  1 ****  10 GROUP 4 **** **** 0

# MOE 2024.06 (io_trps.svl 2023.06)
