@<TRIPOS>MOLECULE
NONAME
37 38 1 0 0 
SMALL
USER_CHARGES


@<TRIPOS>ATOM
  1 CL       2.0880     1.5630    -1.1480 Cl    1 <1>  -0.1770 
  2 C        2.9910     0.4060    -0.1940 C.ar  1 <1>   0.1770 
  3 C        4.1460     0.7940     0.4860 C.ar  1 <1>   0.0820 
  4 C        2.5380    -0.8990    -0.1420 C.ar  1 <1>  -0.1500 
  5 O        4.6080     2.0650     0.4450 O.3   1 <1>  -0.3630 
  6 C        4.8680    -0.1450     1.2120 C.ar  1 <1>  -0.1500 
  7 C        3.2710    -1.8070     0.5980 C.ar  1 <1>   0.1900 
  8 C        3.8690     3.0600     1.1470 C.3   1 <1>   0.2610 
  9 C        4.4270    -1.4580     1.2740 C.ar  1 <1>  -0.1500 
 10 F        2.8570    -3.0440     0.6600 F     1 <1>  -0.1900 
 11 C        3.7340     4.3300     0.2920 C.2   1 <1>   0.5690 
 12 C        4.6020     3.3220     2.4680 C.3   1 <1>  -0.2400 
 13 O        3.0260     5.2330     0.6770 O.2   1 <1>  -0.5700 
 14 N        4.4360     4.4440    -0.8690 N.am  1 <1>  -0.7300 
 15 C        4.3510     5.5580    -1.8460 C.3   1 <1>   0.1400 
 16 C        5.6290     6.4090    -1.8410 C.3   1 <1>   0.0200 
 17 C        5.8800     7.1920    -0.5600 C.2   1 <1>   0.0070 
 18 N        6.9030     7.9480    -0.3710 N.2   1 <1>  -0.3380 
 19 N        5.0800     7.1940     0.5150 N.pl3 1 <1>   0.0330 
 20 N        6.7960     8.4660     0.8630 N.2   1 <1>  -0.3380 
 21 C        5.7040     8.0010     1.3710 C.2   1 <1>   0.2710 
 22 N        5.2510     8.3100     2.6360 N.pl3 1 <1>  -0.8840 
 23 H        1.6470    -1.2000    -0.6620 H     1 <1>   0.1500 
 24 H        5.7660     0.1550     1.7240 H     1 <1>   0.1500 
 25 H        2.8810     2.6850     1.3480 H     1 <1>   0.0800 
 26 H        4.9680    -2.2010     1.8330 H     1 <1>   0.1500 
 27 H        5.5940     3.6910     2.2770 H     1 <1>   0.0800 
 28 H        4.6560     2.4220     3.0520 H     1 <1>   0.0800 
 29 H        4.0690     4.0640     3.0370 H     1 <1>   0.0800 
 30 H        5.0250     3.6460    -1.1330 H     1 <1>   0.3700 
 31 H        3.5000     6.1800    -1.6220 H     1 <1>   0.0800 
 32 H        4.2030     5.1430    -2.8280 H     1 <1>   0.0800 
 33 H        5.5650     7.1190    -2.6460 H     1 <1>   0.0800 
 34 H        6.4790     5.7810    -2.0390 H     1 <1>   0.0800 
 35 H        4.2220     6.6560     0.6730 H     1 <1>   0.2700 
 36 H        5.8470     9.0170     3.0760 H     1 <1>   0.4000 
 37 H        4.2670     8.5800     2.6900 H     1 <1>   0.4000 
@<TRIPOS>BOND
  1   1   2  1   
  2   2   3  ar  
  3   2   4  ar  
  4   3   5  1   
  5   3   6  ar  
  6   4   7  ar  
  7   4  23  1   
  8   5   8  1   
  9   6   9  ar  
 10   6  24  1   
 11   7   9  ar  
 12   7  10  1   
 13   8  11  1   
 14   8  12  1   
 15   8  25  1   
 16   9  26  1   
 17  11  13  2   
 18  11  14  am  
 19  12  27  1   
 20  12  28  1   
 21  12  29  1   
 22  14  15  1   
 23  14  30  1   
 24  15  16  1   
 25  15  31  1   
 26  15  32  1   
 27  16  17  1   
 28  16  33  1   
 29  16  34  1   
 30  17  18  2   
 31  17  19  1   
 32  18  20  1   
 33  19  21  1   
 34  19  35  1   
 35  20  21  2   
 36  21  22  1   
 37  22  36  1   
 38  22  37  1   
@<TRIPOS>SUBSTRUCTURE
  1 ****   8 GROUP 4 **** **** 0

# MOE 2024.06 (io_trps.svl 2023.06)
