@<TRIPOS>MOLECULE
NONAME
44 46 1 0 0 
SMALL
USER_CHARGES


@<TRIPOS>ATOM
  1 CL       1.7970     1.7210    -1.3530 Cl    1 <1>  -0.1770 
  2 C        2.3080     0.2610    -0.5450 C.ar  1 <1>   0.1770 
  3 C        2.1870    -0.9500    -1.2030 C.ar  1 <1>  -0.1500 
  4 C        2.8220     0.3370     0.7340 C.ar  1 <1>  -0.1500 
  5 C        2.5840    -2.1260    -0.5790 C.ar  1 <1>  -0.1440 
  6 C        3.2200    -0.8280     1.3630 C.ar  1 <1>  -0.1500 
  7 C        3.1090    -2.0500     0.7160 C.ar  1 <1>   0.0830 
  8 C        2.4350    -3.4240    -1.3670 C.3   1 <1>   0.4870 
  9 O        3.4790    -3.1380     1.4240 O.3   1 <1>  -0.3630 
 10 N        1.6850    -4.4700    -0.6290 N.4   1 <1>  -0.9590 
 11 C        4.7020    -3.8090     1.1040 C.3   1 <1>   0.0140 
 12 C        1.5870    -5.7340    -1.4330 C.3   1 <1>   0.3430 
 13 C        0.4080    -4.0340     0.0140 C.3   1 <1>   0.3430 
 14 C        4.4240    -5.0800     0.3250 C.2   1 <1>   0.9060 
 15 C        0.8430    -6.8530    -0.6760 C.3   1 <1>   0.2090 
 16 C       -0.2950    -5.1930     0.7530 C.3   1 <1>   0.2090 
 17 O        4.8250    -5.1830    -0.8370 O.co2 1 <1>  -0.9000 
 18 O        3.5760    -5.8690     0.7600 O.co2 1 <1>  -0.9000 
 19 N       -0.4810    -6.3670    -0.1530 N.pl3 1 <1>  -0.8380 
 20 C       -1.4500    -7.3030     0.1880 C.ar  1 <1>   0.4100 
 21 N       -1.0280    -8.5270     0.4750 N.ar  1 <1>  -0.6200 
 22 C       -2.8120    -6.9550     0.2320 C.ar  1 <1>   0.1600 
 23 C       -2.0140    -9.3420     0.8100 C.ar  1 <1>   0.1600 
 24 N       -3.7990    -7.7640     0.5680 N.ar  1 <1>  -0.6200 
 25 C       -3.3520    -8.9770     0.8580 C.ar  1 <1>   0.1600 
 26 H        1.7850    -0.9510    -2.2000 H     1 <1>   0.1500 
 27 H        2.9060     1.2900     1.2250 H     1 <1>   0.1500 
 28 H        3.6200    -0.7970     2.3620 H     1 <1>   0.1500 
 29 H        3.4110    -3.7870    -1.6360 H     1 <1>   0.0800 
 30 H        1.9160    -3.2100    -2.2850 H     1 <1>   0.0800 
 31 H        2.3250    -4.7790     0.1460 H     1 <1>   0.4500 
 32 H        5.1870    -4.0690     2.0240 H     1 <1>   0.0800 
 33 H        5.3320    -3.1550     0.5310 H     1 <1>   0.0800 
 34 H        2.5820    -6.0820    -1.6640 H     1 <1>   0.0800 
 35 H        1.0690    -5.5420    -2.3560 H     1 <1>   0.0800 
 36 H       -0.2600    -3.6500    -0.7370 H     1 <1>   0.0800 
 37 H        0.6130    -3.2440     0.7180 H     1 <1>   0.0800 
 38 H        1.4540    -7.1960     0.1430 H     1 <1>   0.0800 
 39 H        0.6900    -7.6860    -1.3410 H     1 <1>   0.0800 
 40 H       -1.2460    -4.8540     1.1250 H     1 <1>   0.0800 
 41 H        0.3050    -5.4890     1.5980 H     1 <1>   0.0800 
 42 H       -3.0720    -5.9490    -0.0340 H     1 <1>   0.1500 
 43 H       -1.7460   -10.3540     1.0600 H     1 <1>   0.1500 
 44 H       -4.0820    -9.7130     1.1450 H     1 <1>   0.1500 
@<TRIPOS>BOND
  1   1   2  1   
  2   2   3  ar  
  3   2   4  ar  
  4   3   5  ar  
  5   3  26  1   
  6   4   6  ar  
  7   4  27  1   
  8   5   7  ar  
  9   5   8  1   
 10   6   7  ar  
 11   6  28  1   
 12   7   9  1   
 13   8  10  1   
 14   8  29  1   
 15   8  30  1   
 16   9  11  1   
 17  10  12  1   
 18  10  13  1   
 19  10  31  1   
 20  11  14  1   
 21  11  32  1   
 22  11  33  1   
 23  12  15  1   
 24  12  34  1   
 25  12  35  1   
 26  13  16  1   
 27  13  36  1   
 28  13  37  1   
 29  14  17  ar  
 30  14  18  ar  
 31  15  19  1   
 32  15  38  1   
 33  15  39  1   
 34  16  19  1   
 35  16  40  1   
 36  16  41  1   
 37  19  20  1   
 38  20  21  ar  
 39  20  22  ar  
 40  21  23  ar  
 41  22  24  ar  
 42  22  42  1   
 43  23  25  ar  
 44  23  43  1   
 45  24  25  ar  
 46  25  44  1   
@<TRIPOS>SUBSTRUCTURE
  1 ****  10 GROUP 4 **** **** 0

# MOE 2024.06 (io_trps.svl 2023.06)
