@<TRIPOS>MOLECULE
NONAME
41 44 1 0 0 
SMALL
USER_CHARGES


@<TRIPOS>ATOM
  1 S        0.1370    -0.8530     0.7460 S.3   1 <1>  -0.4600 
  2 C       -1.2110     0.3090     0.3540 C.3   1 <1>   0.2510 
  3 C       -0.7520    -2.4170     0.4790 C.3   1 <1>   0.2510 
  4 C       -2.3600    -0.6060     0.0000 C.2   1 <1>   0.1080 
  5 C       -2.1320    -1.9640     0.0620 C.2   1 <1>  -0.1810 
  6 N       -3.5650    -0.3100    -0.3650 N.2   1 <1>  -0.7070 
  7 C       -3.3020    -2.5460    -0.2900 C.2   1 <1>  -0.0880 
  8 N       -4.1630    -1.5140    -0.5480 N.pl3 1 <1>   0.3140 
  9 N       -3.5420    -3.9390    -0.3810 N.am  1 <1>  -0.4940 
 10 C       -5.5390    -1.5640    -1.0620 C.3   1 <1>   0.0160 
 11 C       -4.6500    -4.7070    -0.0950 C.2   1 <1>   0.6300 
 12 O       -5.6930    -4.1650     0.2330 O.2   1 <1>  -0.5700 
 13 C       -4.5470    -6.1600    -0.1820 C.2   1 <1>   0.4360 
 14 N       -3.4030    -6.7120    -0.5130 N.2   1 <1>  -0.5760 
 15 C       -5.6960    -6.9730     0.0970 C.2   1 <1>  -0.1360 
 16 C       -3.3610    -8.0750    -0.5790 C.2   1 <1>   0.3120 
 17 C       -5.6500    -8.3330     0.0300 C.2   1 <1>  -0.1690 
 18 N       -2.3160    -8.7780    -0.8850 N.2   1 <1>  -0.5650 
 19 N       -4.4300    -8.8860    -0.3240 N.pl3 1 <1>   0.6010 
 20 C       -6.8150    -9.2880     0.3020 C.3   1 <1>   0.0580 
 21 C       -2.8000   -10.0150    -0.8000 C.2   1 <1>   0.3660 
 22 N       -4.0480   -10.1490    -0.4700 N.2   1 <1>  -0.7070 
 23 C       -7.4420    -9.7360    -1.0220 C.3   1 <1>  -0.2400 
 24 C       -7.8920    -8.6690     1.2030 C.3   1 <1>  -0.2400 
 25 H       -0.9080     0.9180    -0.4770 H     1 <1>   0.0800 
 26 H       -1.4200     0.8990     1.2270 H     1 <1>   0.0800 
 27 H       -0.7610    -2.9600     1.4070 H     1 <1>   0.0800 
 28 H       -0.2450    -2.9620    -0.2970 H     1 <1>   0.0800 
 29 H       -2.7180    -4.5140    -0.5870 H     1 <1>   0.3700 
 30 H       -5.7570    -0.6460    -1.5750 H     1 <1>   0.0800 
 31 H       -6.2150    -1.6840    -0.2360 H     1 <1>   0.0800 
 32 H       -5.6370    -2.3890    -1.7400 H     1 <1>   0.0800 
 33 H       -6.6020    -6.4550     0.3590 H     1 <1>   0.1500 
 34 H       -6.4350   -10.1580     0.8120 H     1 <1>   0.0800 
 35 H       -2.1640   -10.8640    -1.0010 H     1 <1>   0.1500 
 36 H       -7.8270    -8.8910    -1.5650 H     1 <1>   0.0800 
 37 H       -8.2480   -10.4250    -0.8390 H     1 <1>   0.0800 
 38 H       -6.7090   -10.2330    -1.6320 H     1 <1>   0.0800 
 39 H       -8.3910    -7.8540     0.7090 H     1 <1>   0.0800 
 40 H       -7.4520    -8.3100     2.1170 H     1 <1>   0.0800 
 41 H       -8.6290    -9.4100     1.4540 H     1 <1>   0.0800 
@<TRIPOS>BOND
  1   1   2  1   
  2   1   3  1   
  3   2   4  1   
  4   2  25  1   
  5   2  26  1   
  6   3   5  1   
  7   3  27  1   
  8   3  28  1   
  9   4   5  1   
 10   4   6  2   
 11   5   7  2   
 12   6   8  1   
 13   7   8  1   
 14   7   9  1   
 15   8  10  1   
 16   9  11  am  
 17   9  29  1   
 18  10  30  1   
 19  10  31  1   
 20  10  32  1   
 21  11  12  2   
 22  11  13  1   
 23  13  14  2   
 24  13  15  1   
 25  14  16  1   
 26  15  17  2   
 27  15  33  1   
 28  16  18  2   
 29  16  19  1   
 30  17  19  1   
 31  17  20  1   
 32  18  21  1   
 33  19  22  1   
 34  20  23  1   
 35  20  24  1   
 36  20  34  1   
 37  21  22  2   
 38  21  35  1   
 39  23  36  1   
 40  23  37  1   
 41  23  38  1   
 42  24  39  1   
 43  24  40  1   
 44  24  41  1   
@<TRIPOS>SUBSTRUCTURE
  1 ****  11 GROUP 4 **** **** 0

# MOE 2024.06 (io_trps.svl 2023.06)
