@<TRIPOS>MOLECULE
NONAME
51 54 1 0 0 
SMALL
USER_CHARGES


@<TRIPOS>ATOM
  1 F       -1.1560    -0.4850    -1.6670 F     1 <1>  -0.1900 
  2 C       -2.2970     0.1320    -1.4980 C.ar  1 <1>   0.1900 
  3 C       -2.4600     1.4880    -1.8010 C.ar  1 <1>   0.0830 
  4 C       -3.3400    -0.6280    -1.0060 C.ar  1 <1>  -0.1500 
  5 O       -1.5140     2.3400    -2.2900 O.3   1 <1>  -0.3630 
  6 C       -3.7100     2.0470    -1.5900 C.ar  1 <1>  -0.1500 
  7 C       -4.5740    -0.0380    -0.8080 C.ar  1 <1>  -0.1500 
  8 C       -0.1760     1.9550    -2.5200 C.3   1 <1>   0.0400 
  9 C       -4.7900     1.3130    -1.0920 C.ar  1 <1>   0.0530 
 10 C       -6.0760     1.9390    -0.8930 C.2   1 <1>   0.0870 
 11 O       -6.3970     3.0190    -1.5600 O.3   1 <1>  -0.0190 
 12 C       -7.1440     1.6350    -0.1100 C.2   1 <1>  -0.0860 
 13 N       -7.5980     3.4540    -1.2850 N.2   1 <1>  -0.4100 
 14 C       -8.0700     2.6410    -0.4050 C.2   1 <1>   0.3720 
 15 C       -7.3300     0.5600     0.8110 C.2   1 <1>   0.7160 
 16 N       -9.3470     2.7600     0.1660 N.pl3 1 <1>  -0.8210 
 17 O       -6.6310     0.5150     1.8080 O.2   1 <1>  -0.5700 
 18 N       -8.2430    -0.4500     0.5880 N.am  1 <1>  -0.6600 
 19 C       -9.3410     3.0950     1.6170 C.3   1 <1>   0.1290 
 20 C      -10.3190     3.5950    -0.5950 C.3   1 <1>   0.1290 
 21 C       -9.1690    -0.4480    -0.5950 C.3   1 <1>   0.1400 
 22 C       -8.3820    -1.6000     1.5430 C.3   1 <1>   0.1400 
 23 C       -9.3670    -1.8680    -1.1650 C.3   1 <1>  -0.0800 
 24 C       -8.6420    -2.9280     0.8010 C.3   1 <1>  -0.0800 
 25 C       -9.8930    -2.7710    -0.0560 C.3   1 <1>  -0.1600 
 26 C       -8.0170    -2.5090    -1.5250 C.3   1 <1>  -0.1600 
 27 C       -7.5430    -3.2050    -0.2380 C.3   1 <1>  -0.1600 
 28 H       -3.1840    -1.6680    -0.7810 H     1 <1>   0.1500 
 29 H       -3.8420     3.0900    -1.8190 H     1 <1>   0.1500 
 30 H       -5.3770    -0.6430    -0.4280 H     1 <1>   0.1500 
 31 H        0.3620     2.8140    -2.8780 H     1 <1>   0.0800 
 32 H       -0.1580     1.1790    -3.2640 H     1 <1>   0.0800 
 33 H        0.2550     1.6150    -1.5950 H     1 <1>   0.0800 
 34 H      -10.3190     2.9280     2.0340 H     1 <1>   0.0800 
 35 H       -9.0680     4.1270     1.7540 H     1 <1>   0.0800 
 36 H       -8.6360     2.4790     2.1470 H     1 <1>   0.0800 
 37 H      -11.3100     3.4570    -0.2010 H     1 <1>   0.0800 
 38 H      -10.3160     3.3040    -1.6310 H     1 <1>   0.0800 
 39 H      -10.0470     4.6350    -0.5250 H     1 <1>   0.0800 
 40 H      -10.1190    -0.0440    -0.2880 H     1 <1>   0.0800 
 41 H       -8.7840     0.1830    -1.3760 H     1 <1>   0.0800 
 42 H       -7.4880    -1.7010     2.1340 H     1 <1>   0.0800 
 43 H       -9.1980    -1.3940     2.2130 H     1 <1>   0.0800 
 44 H      -10.0340    -1.8380    -2.0100 H     1 <1>   0.0800 
 45 H       -8.7370    -3.7340     1.5070 H     1 <1>   0.0800 
 46 H      -10.1960    -3.7230    -0.4580 H     1 <1>   0.0800 
 47 H      -10.7160    -2.3320     0.4830 H     1 <1>   0.0800 
 48 H       -8.1570    -3.2430    -2.3000 H     1 <1>   0.0800 
 49 H       -7.3060    -1.7760    -1.8670 H     1 <1>   0.0800 
 50 H       -6.5870    -2.8330     0.0880 H     1 <1>   0.0800 
 51 H       -7.4630    -4.2640    -0.4110 H     1 <1>   0.0800 
@<TRIPOS>BOND
  1   1   2  1   
  2   2   3  ar  
  3   2   4  ar  
  4   3   5  1   
  5   3   6  ar  
  6   4   7  ar  
  7   4  28  1   
  8   5   8  1   
  9   6   9  ar  
 10   6  29  1   
 11   7   9  ar  
 12   7  30  1   
 13   8  31  1   
 14   8  32  1   
 15   8  33  1   
 16   9  10  1   
 17  10  11  1   
 18  10  12  2   
 19  11  13  1   
 20  12  14  1   
 21  12  15  1   
 22  13  14  2   
 23  14  16  1   
 24  15  17  2   
 25  15  18  am  
 26  16  19  1   
 27  16  20  1   
 28  18  21  1   
 29  18  22  1   
 30  19  34  1   
 31  19  35  1   
 32  19  36  1   
 33  20  37  1   
 34  20  38  1   
 35  20  39  1   
 36  21  23  1   
 37  21  40  1   
 38  21  41  1   
 39  22  24  1   
 40  22  42  1   
 41  22  43  1   
 42  23  25  1   
 43  23  26  1   
 44  23  44  1   
 45  24  25  1   
 46  24  27  1   
 47  24  45  1   
 48  25  46  1   
 49  25  47  1   
 50  26  27  1   
 51  26  48  1   
 52  26  49  1   
 53  27  50  1   
 54  27  51  1   
@<TRIPOS>SUBSTRUCTURE
  1 ****  12 GROUP 4 **** **** 0

# MOE 2024.06 (io_trps.svl 2023.06)
