@<TRIPOS>MOLECULE
NONAME
55 57 1 0 0 
SMALL
USER_CHARGES


@<TRIPOS>ATOM
  1 F        0.2710    -0.9530     0.7480 F     1 <1>  -0.1900 
  2 C       -0.4700    -1.9670     0.3780 C.ar  1 <1>   0.1900 
  3 C        0.0360    -3.0070    -0.4100 C.ar  1 <1>   0.0820 
  4 C       -1.7830    -1.9560     0.8040 C.ar  1 <1>  -0.1500 
  5 O        1.3080    -3.1290    -0.8900 O.3   1 <1>  -0.3630 
  6 C       -0.8300    -4.0330    -0.7510 C.ar  1 <1>  -0.1500 
  7 C       -2.6200    -2.9960     0.4440 C.ar  1 <1>  -0.1500 
  8 C        2.3350    -2.2110    -0.5890 C.3   1 <1>   0.0400 
  9 C       -2.1650    -4.0600    -0.3390 C.ar  1 <1>   0.0530 
 10 C       -3.0330    -5.1510    -0.7180 C.2   1 <1>   0.0870 
 11 O       -2.7590    -5.8790    -1.7760 O.3   1 <1>  -0.0190 
 12 C       -4.1780    -5.6520    -0.1900 C.2   1 <1>  -0.2330 
 13 N       -3.6420    -6.8210    -1.9890 N.2   1 <1>  -0.4100 
 14 C       -4.5100    -6.7020    -1.0470 C.2   1 <1>   0.3720 
 15 C       -4.9110    -5.2570     0.9640 C.2   1 <1>   1.0330 
 16 N       -5.6210    -7.5440    -0.9490 N.pl3 1 <1>  -0.8210 
 17 O       -5.7600    -4.3520     0.8880 O.co2 1 <1>  -0.9000 
 18 O       -4.7110    -5.8010     2.0630 O.co2 1 <1>  -0.9000 
 19 C       -6.9150    -6.8300    -1.0770 C.3   1 <1>   0.2090 
 20 C       -5.5980    -8.4050     0.2550 C.3   1 <1>   0.2090 
 21 C       -8.0370    -7.8570    -1.2410 C.3   1 <1>  -0.1600 
 22 C       -6.6830    -9.4770     0.1280 C.3   1 <1>  -0.1600 
 23 C       -8.0850    -8.8520    -0.0580 C.3   1 <1>  -0.0800 
 24 C       -9.1880    -9.9210    -0.2560 C.3   1 <1>   0.2000 
 25 O      -10.3930    -9.2730    -0.4360 O.3   1 <1>  -0.6800 
 26 C       -9.3230   -10.9070     0.9250 C.3   1 <1>  -0.1600 
 27 C      -10.4520   -11.9570     0.7970 C.3   1 <1>  -0.0800 
 28 C      -11.7980   -11.4450     1.3330 C.3   1 <1>  -0.2400 
 29 C      -10.0740   -13.2290     1.5680 C.3   1 <1>  -0.2400 
 30 H       -2.1500    -1.1480     1.4100 H     1 <1>   0.1500 
 31 H       -0.4530    -4.8390    -1.3530 H     1 <1>   0.1500 
 32 H       -3.6450    -2.9760     0.7750 H     1 <1>   0.1500 
 33 H        3.2380    -2.5530    -1.0600 H     1 <1>   0.0800 
 34 H        2.4700    -2.1750     0.4780 H     1 <1>   0.0800 
 35 H        2.0650    -1.2450    -0.9780 H     1 <1>   0.0800 
 36 H       -6.8810    -6.1780    -1.9340 H     1 <1>   0.0800 
 37 H       -7.0980    -6.2300    -0.2020 H     1 <1>   0.0800 
 38 H       -5.7770    -7.8150     1.1380 H     1 <1>   0.0800 
 39 H       -4.6280    -8.8650     0.3470 H     1 <1>   0.0800 
 40 H       -7.8820    -8.3890    -2.1630 H     1 <1>   0.0800 
 41 H       -8.9680    -7.3260    -1.3200 H     1 <1>   0.0800 
 42 H       -6.6500   -10.0730     1.0200 H     1 <1>   0.0800 
 43 H       -6.4430   -10.1070    -0.7100 H     1 <1>   0.0800 
 44 H       -8.3080    -8.2970     0.8380 H     1 <1>   0.0800 
 45 H       -8.9900   -10.4730    -1.1600 H     1 <1>   0.0800 
 46 H      -10.6070    -8.7620     0.3660 H     1 <1>   0.4000 
 47 H       -9.4220   -10.3640     1.8480 H     1 <1>   0.0800 
 48 H       -8.3960   -11.4440     0.9830 H     1 <1>   0.0800 
 49 H      -10.5690   -12.2200    -0.2420 H     1 <1>   0.0800 
 50 H      -11.7060   -11.1360     2.3590 H     1 <1>   0.0800 
 51 H      -12.5380   -12.2230     1.2770 H     1 <1>   0.0800 
 52 H      -12.1570   -10.6170     0.7530 H     1 <1>   0.0800 
 53 H       -9.9290   -13.0110     2.6120 H     1 <1>   0.0800 
 54 H       -9.1670   -13.6530     1.1750 H     1 <1>   0.0800 
 55 H      -10.8520   -13.9660     1.4770 H     1 <1>   0.0800 
@<TRIPOS>BOND
  1   1   2  1   
  2   2   3  ar  
  3   2   4  ar  
  4   3   5  1   
  5   3   6  ar  
  6   4   7  ar  
  7   4  30  1   
  8   5   8  1   
  9   6   9  ar  
 10   6  31  1   
 11   7   9  ar  
 12   7  32  1   
 13   8  33  1   
 14   8  34  1   
 15   8  35  1   
 16   9  10  1   
 17  10  11  1   
 18  10  12  2   
 19  11  13  1   
 20  12  14  1   
 21  12  15  1   
 22  13  14  2   
 23  14  16  1   
 24  15  17  ar  
 25  15  18  ar  
 26  16  19  1   
 27  16  20  1   
 28  19  21  1   
 29  19  36  1   
 30  19  37  1   
 31  20  22  1   
 32  20  38  1   
 33  20  39  1   
 34  21  23  1   
 35  21  40  1   
 36  21  41  1   
 37  22  23  1   
 38  22  42  1   
 39  22  43  1   
 40  23  24  1   
 41  23  44  1   
 42  24  25  1   
 43  24  26  1   
 44  24  45  1   
 45  25  46  1   
 46  26  27  1   
 47  26  47  1   
 48  26  48  1   
 49  27  28  1   
 50  27  29  1   
 51  27  49  1   
 52  28  50  1   
 53  28  51  1   
 54  28  52  1   
 55  29  53  1   
 56  29  54  1   
 57  29  55  1   
@<TRIPOS>SUBSTRUCTURE
  1 ****  12 GROUP 4 **** **** 0

# MOE 2024.06 (io_trps.svl 2023.06)
