@<TRIPOS>MOLECULE
NONAME
43 45 1 0 0 
SMALL
USER_CHARGES


@<TRIPOS>ATOM
  1 O        0.6450     0.1380     0.1510 O.3   1 <1>  -0.6800 
  2 C        1.8690    -0.0460    -0.4820 C.3   1 <1>   0.2000 
  3 C        2.5640    -1.3010     0.0420 C.3   1 <1>  -0.0800 
  4 C        2.8430     1.0900    -0.1740 C.3   1 <1>   0.2090 
  5 C        4.0500    -1.0310    -0.2150 C.3   1 <1>   0.2090 
  6 C        2.0450    -2.6000    -0.5970 C.3   1 <1>  -0.0170 
  7 N        4.1780     0.4450    -0.2100 N.pl3 1 <1>  -0.8380 
  8 C        2.7870    -3.8210    -0.0750 C.ar  1 <1>   0.1660 
  9 C        5.3420     1.1130     0.0820 C.ar  1 <1>   0.7200 
 10 N        3.8660    -4.1860    -0.7470 N.ar  1 <1>  -0.6200 
 11 C        2.3210    -4.4900     1.0560 C.ar  1 <1>   0.1600 
 12 N        5.2500     2.4280     0.2550 N.ar  1 <1>  -0.6200 
 13 N        6.4510     0.3860     0.1580 N.ar  1 <1>  -0.6200 
 14 C        4.4450    -5.2510    -0.2180 C.ar  1 <1>   0.1600 
 15 N        2.8960    -5.5580     1.5840 N.ar  1 <1>  -0.6200 
 16 C        6.3610     3.0700     0.5240 C.ar  1 <1>   0.1670 
 17 C        7.5480     1.0470     0.4250 C.ar  1 <1>   0.1600 
 18 C        3.9750    -5.9150     0.9090 C.ar  1 <1>   0.1600 
 19 C        7.5730     2.4100     0.6210 C.ar  1 <1>  -0.1430 
 20 C        6.2230     4.5760     0.7160 C.3   1 <1>  -0.0170 
 21 C        8.8910     3.1120     0.9230 C.3   1 <1>  -0.0970 
 22 C        6.2730     5.3170    -0.6250 C.3   1 <1>  -0.2400 
 23 H       -0.0010    -0.5300    -0.1440 H     1 <1>   0.4000 
 24 H        1.7090    -0.0960    -1.5460 H     1 <1>   0.0800 
 25 H        2.4350    -1.3460     1.1100 H     1 <1>   0.0800 
 26 H        2.6670     1.4870     0.8110 H     1 <1>   0.0800 
 27 H        2.7820     1.8720    -0.9100 H     1 <1>   0.0800 
 28 H        4.3520    -1.4030    -1.1800 H     1 <1>   0.0800 
 29 H        4.6660    -1.4810     0.5460 H     1 <1>   0.0800 
 30 H        2.1600    -2.5530    -1.6660 H     1 <1>   0.0800 
 31 H        0.9970    -2.7090    -0.3870 H     1 <1>   0.0800 
 32 H        1.4360    -4.1260     1.5460 H     1 <1>   0.1500 
 33 H        5.3340    -5.6170    -0.7000 H     1 <1>   0.1500 
 34 H        8.4600     0.4790     0.4890 H     1 <1>   0.1500 
 35 H        4.5150    -6.7740     1.2640 H     1 <1>   0.1500 
 36 H        5.2810     4.7770     1.1950 H     1 <1>   0.0800 
 37 H        6.9930     4.9480     1.3660 H     1 <1>   0.0800 
 38 H        9.7200     2.4350     0.8160 H     1 <1>   0.0800 
 39 H        8.8860     3.4860     1.9310 H     1 <1>   0.0800 
 40 H        9.0400     3.9330     0.2440 H     1 <1>   0.0800 
 41 H        5.4770     4.9710    -1.2620 H     1 <1>   0.0800 
 42 H        7.2100     5.1360    -1.1190 H     1 <1>   0.0800 
 43 H        6.1560     6.3750    -0.4700 H     1 <1>   0.0800 
@<TRIPOS>BOND
  1   1   2  1   
  2   1  23  1   
  3   2   3  1   
  4   2   4  1   
  5   2  24  1   
  6   3   5  1   
  7   3   6  1   
  8   3  25  1   
  9   4   7  1   
 10   4  26  1   
 11   4  27  1   
 12   5   7  1   
 13   5  28  1   
 14   5  29  1   
 15   6   8  1   
 16   6  30  1   
 17   6  31  1   
 18   7   9  1   
 19   8  10  ar  
 20   8  11  ar  
 21   9  12  ar  
 22   9  13  ar  
 23  10  14  ar  
 24  11  15  ar  
 25  11  32  1   
 26  12  16  ar  
 27  13  17  ar  
 28  14  18  ar  
 29  14  33  1   
 30  15  18  ar  
 31  16  19  ar  
 32  16  20  1   
 33  17  19  ar  
 34  17  34  1   
 35  18  35  1   
 36  19  21  1   
 37  20  22  1   
 38  20  36  1   
 39  20  37  1   
 40  21  38  1   
 41  21  39  1   
 42  21  40  1   
 43  22  41  1   
 44  22  42  1   
 45  22  43  1   
@<TRIPOS>SUBSTRUCTURE
  1 ****   5 GROUP 4 **** **** 0

# MOE 2024.06 (io_trps.svl 2023.06)
