@<TRIPOS>MOLECULE
NONAME
40 42 1 0 0 
SMALL
USER_CHARGES


@<TRIPOS>ATOM
  1 S        0.5040     0.0280     0.7460 S.o2  1 <1>   1.3330 
  2 O       -0.3650     0.0590     1.9000 O.2   1 <1>  -0.6500 
  3 O        1.9340     0.1440     0.9220 O.2   1 <1>  -0.6500 
  4 N        0.2030    -1.4040    -0.1150 N.am  1 <1>  -0.8490 
  5 C       -0.0540     1.2970    -0.3880 C.3   1 <1>  -0.0550 
  6 C        1.2710    -1.7550    -1.0570 C.3   1 <1>   0.1160 
  7 C       -0.0700    -2.5380     0.7730 C.3   1 <1>   0.1160 
  8 C        0.0480     2.7160     0.1950 C.3   1 <1>  -0.0800 
  9 C       -0.4910     3.7740    -0.7610 C.3   1 <1>   0.2000 
 10 C        1.4790     3.1760     0.4750 C.3   1 <1>   0.2090 
 11 O       -1.8720     3.8480    -0.6560 O.3   1 <1>  -0.6800 
 12 C        0.1940     5.0760    -0.3480 C.3   1 <1>   0.2090 
 13 N        1.4550     4.6560     0.3190 N.pl3 1 <1>  -0.8380 
 14 C        2.6240     5.3860     0.1690 C.ar  1 <1>   0.4100 
 15 N        3.7360     4.7140    -0.0720 N.ar  1 <1>  -0.6200 
 16 C        2.6830     6.7720     0.2600 C.ar  1 <1>   0.0400 
 17 C        4.8440     5.4340    -0.2160 C.ar  1 <1>   0.4700 
 18 S        1.4070     7.9610     0.5980 S.3   1 <1>  -0.0800 
 19 C        3.8810     7.4170     0.0920 C.ar  1 <1>   0.2560 
 20 N        4.9980     6.7430    -0.1570 N.ar  1 <1>  -0.5660 
 21 C        2.5500     9.2970     0.4850 C.2   1 <1>  -0.1100 
 22 C        3.7870     8.8420     0.2180 C.2   1 <1>  -0.1500 
 23 H        0.5180     1.2440    -1.2940 H     1 <1>   0.0800 
 24 H       -1.0800     1.1050    -0.6370 H     1 <1>   0.0800 
 25 H        0.9850    -2.6160    -1.6360 H     1 <1>   0.0800 
 26 H        2.1830    -1.9760    -0.5270 H     1 <1>   0.0800 
 27 H        1.4550    -0.9380    -1.7330 H     1 <1>   0.0800 
 28 H       -0.2730    -3.4240     0.1970 H     1 <1>   0.0800 
 29 H       -0.9340    -2.3290     1.3830 H     1 <1>   0.0800 
 30 H        0.7730    -2.7180     1.4200 H     1 <1>   0.0800 
 31 H       -0.4910     2.7650     1.1260 H     1 <1>   0.0800 
 32 H       -0.2390     3.5450    -1.7820 H     1 <1>   0.0800 
 33 H        2.1590     2.7450    -0.2410 H     1 <1>   0.0800 
 34 H        1.7970     2.9060     1.4690 H     1 <1>   0.0800 
 35 H       -2.1350     4.0140     0.2710 H     1 <1>   0.4000 
 36 H       -0.4120     5.6170     0.3580 H     1 <1>   0.0800 
 37 H        0.4000     5.6880    -1.2090 H     1 <1>   0.0800 
 38 H        5.7380     4.8660    -0.4100 H     1 <1>   0.1500 
 39 H        2.1630    10.2900     0.6340 H     1 <1>   0.1500 
 40 H        4.6710     9.4410     0.0980 H     1 <1>   0.1500 
@<TRIPOS>BOND
  1   1   2  2   
  2   1   3  2   
  3   1   4  am  
  4   1   5  1   
  5   4   6  1   
  6   4   7  1   
  7   5   8  1   
  8   5  23  1   
  9   5  24  1   
 10   6  25  1   
 11   6  26  1   
 12   6  27  1   
 13   7  28  1   
 14   7  29  1   
 15   7  30  1   
 16   8   9  1   
 17   8  10  1   
 18   8  31  1   
 19   9  11  1   
 20   9  12  1   
 21   9  32  1   
 22  10  13  1   
 23  10  33  1   
 24  10  34  1   
 25  11  35  1   
 26  12  13  1   
 27  12  36  1   
 28  12  37  1   
 29  13  14  1   
 30  14  15  ar  
 31  14  16  ar  
 32  15  17  ar  
 33  16  18  1   
 34  16  19  ar  
 35  17  20  ar  
 36  17  38  1   
 37  18  21  1   
 38  19  20  ar  
 39  19  22  1   
 40  21  22  2   
 41  21  39  1   
 42  22  40  1   
@<TRIPOS>SUBSTRUCTURE
  1 ****  10 GROUP 4 **** **** 0

# MOE 2024.06 (io_trps.svl 2023.06)
