@<TRIPOS>MOLECULE
NONAME
33 34 1 0 0 
SMALL
USER_CHARGES


@<TRIPOS>ATOM
  1 N        6.9130    -0.4320    -1.4020 N.2   1 <1>  -0.5650 
  2 C        7.9190    -1.2390    -0.9670 C.ar  1 <1>   0.2270 
  3 C        5.9470    -0.6400    -0.5670 C.2   1 <1>   0.0060 
  4 C        7.5200    -1.9410     0.1540 C.ar  1 <1>  -0.1520 
  5 C        9.1990    -1.4170    -1.4890 C.ar  1 <1>  -0.1500 
  6 N        6.2430    -1.5530     0.4070 N.pl3 1 <1>   0.0480 
  7 C        4.6060     0.0810    -0.6800 C.3   1 <1>   0.6030 
  8 C        8.3890    -2.8370     0.7850 C.ar  1 <1>  -0.1500 
  9 C       10.0590    -2.2980    -0.8720 C.ar  1 <1>  -0.1500 
 10 C        5.4240    -2.0730     1.5240 C.3   1 <1>   0.0160 
 11 N        4.5890     0.6880    -2.0170 N.4   1 <1>  -0.8530 
 12 C        4.4300     1.1840     0.3940 C.3   1 <1>  -0.0800 
 13 C        9.6520    -3.0070     0.2650 C.ar  1 <1>  -0.1500 
 14 C        3.0370     1.8370     0.3300 C.3   1 <1>  -0.2400 
 15 C        5.5140     2.2800     0.3580 C.3   1 <1>  -0.2400 
 16 H        9.4900    -0.8620    -2.3610 H     1 <1>   0.1500 
 17 H        3.8030    -0.6330    -0.5940 H     1 <1>   0.0800 
 18 H        8.0780    -3.3810     1.6600 H     1 <1>   0.1500 
 19 H       11.0520    -2.4500    -1.2590 H     1 <1>   0.1500 
 20 H        4.3870    -1.8360     1.3780 H     1 <1>   0.0800 
 21 H        5.7680    -1.6400     2.4460 H     1 <1>   0.0800 
 22 H        5.5350    -3.1420     1.5750 H     1 <1>   0.0800 
 23 H        5.5970     0.7750    -2.2400 H     1 <1>   0.4500 
 24 H        4.1520     1.6080    -2.0110 H     1 <1>   0.4500 
 25 H        4.1890     0.0580    -2.7140 H     1 <1>   0.4500 
 26 H        4.5040     0.7020     1.3540 H     1 <1>   0.0800 
 27 H       10.3440    -3.6900     0.7290 H     1 <1>   0.1500 
 28 H        2.9030     2.4160    -0.5660 H     1 <1>   0.0800 
 29 H        2.9050     2.5000     1.1690 H     1 <1>   0.0800 
 30 H        2.2610     1.0920     0.3810 H     1 <1>   0.0800 
 31 H        5.4800     2.8540    -0.5510 H     1 <1>   0.0800 
 32 H        6.4990     1.8530     0.4560 H     1 <1>   0.0800 
 33 H        5.3770     2.9610     1.1820 H     1 <1>   0.0800 
@<TRIPOS>BOND
  1   1   2  1   
  2   1   3  2   
  3   2   4  ar  
  4   2   5  ar  
  5   3   6  1   
  6   3   7  1   
  7   4   6  1   
  8   4   8  ar  
  9   5   9  ar  
 10   5  16  1   
 11   6  10  1   
 12   7  11  1   
 13   7  12  1   
 14   7  17  1   
 15   8  13  ar  
 16   8  18  1   
 17   9  13  ar  
 18   9  19  1   
 19  10  20  1   
 20  10  21  1   
 21  10  22  1   
 22  11  23  1   
 23  11  24  1   
 24  11  25  1   
 25  12  14  1   
 26  12  15  1   
 27  12  26  1   
 28  13  27  1   
 29  14  28  1   
 30  14  29  1   
 31  14  30  1   
 32  15  31  1   
 33  15  32  1   
 34  15  33  1   
@<TRIPOS>SUBSTRUCTURE
  1 ****   3 GROUP 4 **** **** 0

# MOE 2024.06 (io_trps.svl 2023.06)
