@<TRIPOS>MOLECULE
NONAME
48 51 1 0 0 
SMALL
USER_CHARGES


@<TRIPOS>ATOM
  1 F       -1.9240    -1.8450    -1.5940 F     1 <1>  -0.1900 
  2 C       -2.8950    -1.0470    -1.2440 C.ar  1 <1>   0.1900 
  3 C       -3.5080    -0.2750    -2.2110 C.ar  1 <1>  -0.1500 
  4 C       -3.2760    -1.0010     0.0830 C.ar  1 <1>  -0.1500 
  5 C       -4.5440     0.5610    -1.8310 C.ar  1 <1>  -0.1500 
  6 C       -4.3130    -0.1590     0.4460 C.ar  1 <1>  -0.1500 
  7 C       -4.9750     0.6220    -0.5050 C.ar  1 <1>   0.0540 
  8 C       -6.0960     1.4590    -0.1430 C.2   1 <1>   0.2350 
  9 N       -6.1410     2.7450    -0.3530 N.2   1 <1>  -0.7070 
 10 C       -7.2870     1.0110     0.4390 C.2   1 <1>  -0.1810 
 11 N       -7.3320     3.1490     0.1150 N.pl3 1 <1>   0.3000 
 12 C       -8.0490     2.1140     0.5930 C.2   1 <1>  -0.3020 
 13 C       -7.6130    -0.4270     0.7820 C.3   1 <1>   0.5240 
 14 N       -7.5200    -1.2450    -0.4570 N.4   1 <1>  -0.9590 
 15 C       -8.5920    -0.8500    -1.4270 C.3   1 <1>   0.3430 
 16 C       -7.7120    -2.6970    -0.1600 C.3   1 <1>   0.3430 
 17 C       -9.7020    -1.8920    -1.2610 C.3   1 <1>   0.2000 
 18 C       -8.9020    -3.1660    -1.0050 C.3   1 <1>  -0.0800 
 19 O      -10.4420    -1.5670    -0.1260 O.3   1 <1>  -0.6800 
 20 C       -9.6640    -4.3500    -0.3760 C.3   1 <1>   0.0200 
 21 C       -8.6940    -5.4460     0.0220 C.2   1 <1>  -0.0400 
 22 O       -7.7610    -5.8220    -0.8110 O.3   1 <1>  -0.0190 
 23 C       -8.5570    -6.1650     1.1460 C.2   1 <1>  -0.1500 
 24 N       -6.9950    -6.7370    -0.3000 N.2   1 <1>  -0.4100 
 25 C       -7.4560    -6.9750     0.8760 C.2   1 <1>   0.1080 
 26 C       -6.8740    -7.9980     1.8270 C.3   1 <1>  -0.0590 
 27 H       -3.1720    -0.3250    -3.2320 H     1 <1>   0.1500 
 28 H       -2.7600    -1.6050     0.8090 H     1 <1>   0.1500 
 29 H       -5.0240     1.1870    -2.5650 H     1 <1>   0.1500 
 30 H       -4.6030    -0.0920     1.4810 H     1 <1>   0.1500 
 31 H       -7.6240     4.1370     0.0920 H     1 <1>   0.2700 
 32 H       -9.0380     2.2330     1.0020 H     1 <1>   0.1500 
 33 H       -8.6080    -0.4890     1.1920 H     1 <1>   0.0800 
 34 H       -6.9130    -0.7870     1.5180 H     1 <1>   0.0800 
 35 H       -6.5930    -1.0730    -0.8720 H     1 <1>   0.4500 
 36 H       -8.9620     0.1470    -1.2510 H     1 <1>   0.0800 
 37 H       -8.2040    -0.9080    -2.4310 H     1 <1>   0.0800 
 38 H       -6.8290    -3.2700    -0.3970 H     1 <1>   0.0800 
 39 H       -7.9440    -2.8330     0.8840 H     1 <1>   0.0800 
 40 H      -10.3580    -1.9420    -2.1140 H     1 <1>   0.0800 
 41 H       -8.5030    -3.5000    -1.9480 H     1 <1>   0.0800 
 42 H      -11.3370    -1.9700    -0.1580 H     1 <1>   0.4000 
 43 H      -10.3680    -4.7460    -1.0870 H     1 <1>   0.0800 
 44 H      -10.2070    -4.0460     0.5010 H     1 <1>   0.0800 
 45 H       -9.1290    -6.1540     2.0560 H     1 <1>   0.1500 
 46 H       -6.6010    -7.5280     2.7530 H     1 <1>   0.0800 
 47 H       -5.9990    -8.4470     1.3930 H     1 <1>   0.0800 
 48 H       -7.5980    -8.7690     2.0200 H     1 <1>   0.0800 
@<TRIPOS>BOND
  1   1   2  1   
  2   2   3  ar  
  3   2   4  ar  
  4   3   5  ar  
  5   3  27  1   
  6   4   6  ar  
  7   4  28  1   
  8   5   7  ar  
  9   5  29  1   
 10   6   7  ar  
 11   6  30  1   
 12   7   8  1   
 13   8   9  2   
 14   8  10  1   
 15   9  11  1   
 16  10  12  2   
 17  10  13  1   
 18  11  12  1   
 19  11  31  1   
 20  12  32  1   
 21  13  14  1   
 22  13  33  1   
 23  13  34  1   
 24  14  15  1   
 25  14  16  1   
 26  14  35  1   
 27  15  17  1   
 28  15  36  1   
 29  15  37  1   
 30  16  18  1   
 31  16  38  1   
 32  16  39  1   
 33  17  18  1   
 34  17  19  1   
 35  17  40  1   
 36  18  20  1   
 37  18  41  1   
 38  19  42  1   
 39  20  21  1   
 40  20  43  1   
 41  20  44  1   
 42  21  22  1   
 43  21  23  2   
 44  22  24  1   
 45  23  25  1   
 46  23  45  1   
 47  24  25  2   
 48  25  26  1   
 49  26  46  1   
 50  26  47  1   
 51  26  48  1   
@<TRIPOS>SUBSTRUCTURE
  1 ****  14 GROUP 4 **** **** 0

# MOE 2024.06 (io_trps.svl 2023.06)
