@<TRIPOS>MOLECULE
NONAME
48 51 1 0 0 
SMALL
USER_CHARGES


@<TRIPOS>ATOM
  1 O        4.3230    -1.4750    -0.5050 O.2   1 <1>  -0.5700 
  2 C        3.1310    -1.2850    -0.3340 C.2   1 <1>   0.5440 
  3 N        2.5720    -0.2690    -1.0760 N.am  1 <1>  -0.6600 
  4 C        2.4090    -1.9960     0.7030 C.ar  1 <1>   0.0860 
  5 C        3.0640     0.0420    -2.4590 C.3   1 <1>   0.1400 
  6 C        1.7720     0.7940    -0.4230 C.3   1 <1>   0.1400 
  7 C        1.1100    -2.4860     0.5200 C.ar  1 <1>   0.0830 
  8 C        3.0140    -2.2140     1.9440 C.ar  1 <1>  -0.1500 
  9 C        4.3770     0.8560    -2.4580 C.3   1 <1>   0.3430 
 10 C        2.7090     1.7680     0.3080 C.3   1 <1>  -0.1600 
 11 O        0.4990    -2.3400    -0.6840 O.3   1 <1>  -0.3630 
 12 C        0.4440    -3.1340     1.5640 C.ar  1 <1>   0.0830 
 13 C        2.3590    -2.8680     2.9700 C.ar  1 <1>  -0.1500 
 14 N        4.7200     1.3230    -1.0820 N.4   1 <1>  -0.9590 
 15 C        3.8170     2.3840    -0.5570 C.3   1 <1>   0.3430 
 16 C       -0.6490    -3.1260    -0.9440 C.3   1 <1>   0.1200 
 17 O       -0.8270    -3.5900     1.4200 O.3   1 <1>  -0.3630 
 18 C        1.0680    -3.3270     2.7810 C.ar  1 <1>  -0.1500 
 19 C        6.1620     1.5680    -0.8670 C.3   1 <1>   0.5240 
 20 C       -1.5560    -3.1510     0.2910 C.3   1 <1>   0.1200 
 21 C        6.4020     1.5080     0.6240 C.2   1 <1>  -0.1810 
 22 C        6.4450     0.4100     1.4100 C.2   1 <1>  -0.0100 
 23 C        6.6140     2.5960     1.4850 C.2   1 <1>  -0.1500 
 24 O        6.6530     0.7470     2.6650 O.3   1 <1>  -0.2800 
 25 C        6.7590     2.0590     2.7150 C.2   1 <1>  -0.0100 
 26 H        2.3040     0.5770    -3.0010 H     1 <1>   0.0800 
 27 H        3.2310    -0.8840    -2.9850 H     1 <1>   0.0800 
 28 H        1.0860     0.3520     0.2810 H     1 <1>   0.0800 
 29 H        1.1870     1.3150    -1.1620 H     1 <1>   0.0800 
 30 H        4.0200    -1.8650     2.1050 H     1 <1>   0.1500 
 31 H        4.2990     1.6890    -3.1370 H     1 <1>   0.0800 
 32 H        5.1600     0.2080    -2.8180 H     1 <1>   0.0800 
 33 H        3.1520     1.2740     1.1550 H     1 <1>   0.0800 
 34 H        2.1090     2.5690     0.7020 H     1 <1>   0.0800 
 35 H        2.8500    -3.0230     3.9170 H     1 <1>   0.1500 
 36 H        4.5160     0.4730    -0.5160 H     1 <1>   0.4500 
 37 H        4.3810     3.0720     0.0530 H     1 <1>   0.0800 
 38 H        3.3840     2.9400    -1.3720 H     1 <1>   0.0800 
 39 H       -0.3260    -4.1220    -1.1920 H     1 <1>   0.0800 
 40 H       -1.1620    -2.7000    -1.7880 H     1 <1>   0.0800 
 41 H        0.5440    -3.8350     3.5720 H     1 <1>   0.1500 
 42 H        6.4540     2.5250    -1.2640 H     1 <1>   0.0800 
 43 H        6.7410     0.7950    -1.3460 H     1 <1>   0.0800 
 44 H       -2.3810    -3.8250     0.1470 H     1 <1>   0.0800 
 45 H       -1.9360    -2.1670     0.4990 H     1 <1>   0.0800 
 46 H        6.3360    -0.6370     1.1700 H     1 <1>   0.1500 
 47 H        6.6560     3.6360     1.2110 H     1 <1>   0.1500 
 48 H        6.9410     2.5270     3.6680 H     1 <1>   0.1500 
@<TRIPOS>BOND
  1   1   2  2   
  2   2   3  am  
  3   2   4  1   
  4   3   5  1   
  5   3   6  1   
  6   4   7  ar  
  7   4   8  ar  
  8   5   9  1   
  9   5  26  1   
 10   5  27  1   
 11   6  10  1   
 12   6  28  1   
 13   6  29  1   
 14   7  11  1   
 15   7  12  ar  
 16   8  13  ar  
 17   8  30  1   
 18   9  14  1   
 19   9  31  1   
 20   9  32  1   
 21  10  15  1   
 22  10  33  1   
 23  10  34  1   
 24  11  16  1   
 25  12  17  1   
 26  12  18  ar  
 27  13  18  ar  
 28  13  35  1   
 29  14  15  1   
 30  14  19  1   
 31  14  36  1   
 32  15  37  1   
 33  15  38  1   
 34  16  20  1   
 35  16  39  1   
 36  16  40  1   
 37  17  20  1   
 38  18  41  1   
 39  19  21  1   
 40  19  42  1   
 41  19  43  1   
 42  20  44  1   
 43  20  45  1   
 44  21  22  2   
 45  21  23  1   
 46  22  24  1   
 47  22  46  1   
 48  23  25  2   
 49  23  47  1   
 50  24  25  1   
 51  25  48  1   
@<TRIPOS>SUBSTRUCTURE
  1 ****   2 GROUP 4 **** **** 0

# MOE 2024.06 (io_trps.svl 2023.06)
