@<TRIPOS>MOLECULE
NONAME
54 58 1 0 0 
SMALL
USER_CHARGES


@<TRIPOS>ATOM
  1 F       -2.5570    -5.3980     3.6090 F     1 <1>  -0.1900 
  2 C       -1.8510    -5.1780     2.5310 C.ar  1 <1>   0.1900 
  3 C       -0.6620    -5.8430     2.3670 C.ar  1 <1>  -0.1500 
  4 C       -2.3620    -4.2820     1.5880 C.ar  1 <1>  -0.1500 
  5 C        0.0620    -5.6140     1.1900 C.ar  1 <1>   0.0000 
  6 C       -1.6450    -4.0410     0.4390 C.ar  1 <1>  -0.1500 
  7 C       -0.4300    -4.7090     0.2520 C.ar  1 <1>  -0.1520 
  8 C        1.2760    -6.1160     0.6650 C.2   1 <1>  -0.1810 
  9 N        0.4740    -4.6230    -0.7760 N.pl3 1 <1>   0.0330 
 10 C        1.4990    -5.4910    -0.5210 C.2   1 <1>  -0.3320 
 11 C        2.1160    -7.1830     1.3690 C.3   1 <1>   0.0820 
 12 C        2.6630    -5.6140    -1.4920 C.3   1 <1>  -0.0600 
 13 C        1.2790    -8.3980     1.7610 C.2   1 <1>   0.5690 
 14 O        1.2180    -8.6770     2.9330 O.2   1 <1>  -0.5700 
 15 N        0.5500    -9.1090     0.8340 N.am  1 <1>  -0.6600 
 16 C        0.5010    -8.8070    -0.6310 C.3   1 <1>   0.1400 
 17 C       -0.5950    -9.9740     1.2700 C.3   1 <1>   0.1400 
 18 C       -0.7880    -8.0210    -0.9900 C.3   1 <1>   0.4230 
 19 C       -1.9450    -9.4300     0.7410 C.3   1 <1>   0.3430 
 20 N       -1.8100    -8.0560     0.1300 N.4   1 <1>  -0.9590 
 21 C       -1.3870    -8.5200    -2.3210 C.3   1 <1>   0.1200 
 22 C       -3.0890    -7.3960    -0.2860 C.3   1 <1>   0.5180 
 23 O       -2.5590    -7.8200    -2.6230 O.3   1 <1>  -0.5600 
 24 C       -4.1330    -7.5280     0.8410 C.3   1 <1>  -0.1950 
 25 C       -3.5710    -7.9280    -1.6590 C.3   1 <1>   0.1200 
 26 C       -5.0870    -8.6770     1.0000 C.3   1 <1>  -0.2000 
 27 C       -5.6010    -7.3160     0.6240 C.3   1 <1>  -0.2000 
 28 H       -0.2920    -6.5080     3.1270 H     1 <1>   0.1500 
 29 H       -3.2980    -3.7880     1.7840 H     1 <1>   0.1500 
 30 H       -2.0000    -3.3420    -0.3000 H     1 <1>   0.1500 
 31 H        0.4160    -3.9640    -1.5610 H     1 <1>   0.2700 
 32 H        2.5390    -6.7540     2.2600 H     1 <1>   0.0800 
 33 H        2.9290    -7.5090     0.7510 H     1 <1>   0.0800 
 34 H        3.3960    -6.3150    -1.1380 H     1 <1>   0.0800 
 35 H        3.1460    -4.6590    -1.6050 H     1 <1>   0.0800 
 36 H        2.3160    -5.9380    -2.4570 H     1 <1>   0.0800 
 37 H        1.3660    -8.2520    -0.9440 H     1 <1>   0.0800 
 38 H        0.5240    -9.7400    -1.1680 H     1 <1>   0.0800 
 39 H       -0.4420   -10.9770     0.9120 H     1 <1>   0.0800 
 40 H       -0.6420   -10.0290     2.3440 H     1 <1>   0.0800 
 41 H       -0.4990    -6.9950    -1.1480 H     1 <1>   0.0800 
 42 H       -2.6420    -9.4040     1.5620 H     1 <1>   0.0800 
 43 H       -2.3360   -10.1150     0.0070 H     1 <1>   0.0800 
 44 H       -1.4010    -7.4620     0.8680 H     1 <1>   0.4500 
 45 H       -1.6150    -9.5710    -2.2810 H     1 <1>   0.0800 
 46 H       -0.6940    -8.3500    -3.1270 H     1 <1>   0.0800 
 47 H       -2.8950    -6.3430    -0.4170 H     1 <1>   0.0800 
 48 H       -3.7590    -7.0880     1.7490 H     1 <1>   0.1000 
 49 H       -4.4050    -7.3450    -2.0070 H     1 <1>   0.0800 
 50 H       -3.8770    -8.9570    -1.5960 H     1 <1>   0.0800 
 51 H       -5.1720    -9.4530     0.2590 H     1 <1>   0.1000 
 52 H       -5.3130    -9.0390     1.9900 H     1 <1>   0.1000 
 53 H       -6.1580    -6.7600     1.3620 H     1 <1>   0.1000 
 54 H       -6.0140    -7.1900    -0.3630 H     1 <1>   0.1000 
@<TRIPOS>BOND
  1   1   2  1   
  2   2   3  ar  
  3   2   4  ar  
  4   3   5  ar  
  5   3  28  1   
  6   4   6  ar  
  7   4  29  1   
  8   5   7  ar  
  9   5   8  1   
 10   6   7  ar  
 11   6  30  1   
 12   7   9  1   
 13   8  10  2   
 14   8  11  1   
 15   9  10  1   
 16   9  31  1   
 17  10  12  1   
 18  11  13  1   
 19  11  32  1   
 20  11  33  1   
 21  12  34  1   
 22  12  35  1   
 23  12  36  1   
 24  13  14  2   
 25  13  15  am  
 26  15  16  1   
 27  15  17  1   
 28  16  18  1   
 29  16  37  1   
 30  16  38  1   
 31  17  19  1   
 32  17  39  1   
 33  17  40  1   
 34  18  20  1   
 35  18  21  1   
 36  18  41  1   
 37  19  20  1   
 38  19  42  1   
 39  19  43  1   
 40  20  22  1   
 41  20  44  1   
 42  21  23  1   
 43  21  45  1   
 44  21  46  1   
 45  22  24  1   
 46  22  25  1   
 47  22  47  1   
 48  23  25  1   
 49  24  26  1   
 50  24  27  1   
 51  24  48  1   
 52  25  49  1   
 53  25  50  1   
 54  26  27  1   
 55  26  51  1   
 56  26  52  1   
 57  27  53  1   
 58  27  54  1   
@<TRIPOS>SUBSTRUCTURE
  1 ****  20 GROUP 4 **** **** 0

# MOE 2024.06 (io_trps.svl 2023.06)
