@<TRIPOS>MOLECULE
NONAME
57 60 1 0 0 
SMALL
USER_CHARGES


@<TRIPOS>ATOM
  1 S       -1.9920     1.2910     0.9150 S.3   1 <1>  -0.1580 
  2 C       -2.5030     0.0720    -0.3090 C.ar  1 <1>   0.1020 
  3 C       -2.9950     1.0000     2.3810 C.2   1 <1>   0.1960 
  4 C       -2.6690    -1.2580     0.0400 C.ar  1 <1>  -0.1500 
  5 C       -2.7140     0.4970    -1.6080 C.ar  1 <1>  -0.1500 
  6 O       -3.9490     0.0990     2.3270 O.3   1 <1>  -0.2800 
  7 C       -2.9450     1.6090     3.5810 C.2   1 <1>  -0.1500 
  8 C       -3.0810    -2.1660    -0.9200 C.ar  1 <1>  -0.1500 
  9 C       -3.1260    -0.4170    -2.5630 C.ar  1 <1>  -0.1500 
 10 C       -4.5590     0.1100     3.5010 C.2   1 <1>  -0.0400 
 11 C       -3.9830     1.0220     4.3220 C.2   1 <1>  -0.1500 
 12 C       -3.3200    -1.7470    -2.2210 C.ar  1 <1>  -0.1430 
 13 C       -5.7440    -0.8200     3.7160 C.3   1 <1>   0.5230 
 14 C       -3.7670    -2.7400    -3.2800 C.3   1 <1>  -0.0960 
 15 N       -6.5210    -0.8830     2.4510 N.4   1 <1>  -0.9590 
 16 C       -7.9960    -0.8640     2.5850 C.3   1 <1>   0.3430 
 17 C       -6.0260    -1.9200     1.5020 C.3   1 <1>   0.3430 
 18 C       -8.6420    -0.5680     1.2210 C.3   1 <1>  -0.1600 
 19 C       -6.7920    -1.8560     0.1740 C.3   1 <1>  -0.1600 
 20 C       -7.6610    -0.5920     0.0300 C.3   1 <1>   0.2800 
 21 O       -6.8440     0.5470     0.1850 O.3   1 <1>  -0.5600 
 22 C       -8.4090    -0.5460    -1.3260 C.3   1 <1>  -0.1600 
 23 C       -6.0840     0.9410    -0.9240 C.3   1 <1>   0.1200 
 24 C       -8.4300     0.8530    -1.9470 C.3   1 <1>   0.2800 
 25 C       -6.9980     1.3820    -2.0790 C.3   1 <1>  -0.1600 
 26 O       -9.0890     1.6840    -1.0800 O.3   1 <1>  -0.6800 
 27 C       -9.1940     0.9000    -3.2660 C.3   1 <1>  -0.2400 
 28 H       -2.4620    -1.5790     1.0440 H     1 <1>   0.1500 
 29 H       -2.5560     1.5290    -1.8670 H     1 <1>   0.1500 
 30 H       -2.2760     2.3830     3.9130 H     1 <1>   0.1500 
 31 H       -3.2010    -3.2030    -0.6570 H     1 <1>   0.1500 
 32 H       -3.2900    -0.0890    -3.5750 H     1 <1>   0.1500 
 33 H       -4.2320     1.2870     5.3360 H     1 <1>   0.1500 
 34 H       -6.3540    -0.4350     4.5160 H     1 <1>   0.0800 
 35 H       -5.3970    -1.8030     3.9860 H     1 <1>   0.0800 
 36 H       -4.1940    -3.6170    -2.8280 H     1 <1>   0.0800 
 37 H       -2.9220    -3.0370    -3.8760 H     1 <1>   0.0800 
 38 H       -4.5040    -2.2940    -3.9230 H     1 <1>   0.0800 
 39 H       -6.2960     0.0010     1.9480 H     1 <1>   0.4500 
 40 H       -8.2940    -0.1030     3.2880 H     1 <1>   0.0800 
 41 H       -8.3400    -1.8180     2.9500 H     1 <1>   0.0800 
 42 H       -6.1280    -2.9030     1.9340 H     1 <1>   0.0800 
 43 H       -4.9810    -1.7470     1.3040 H     1 <1>   0.0800 
 44 H       -9.1380     0.3850     1.2620 H     1 <1>   0.0800 
 45 H       -9.4130    -1.3010     1.0660 H     1 <1>   0.0800 
 46 H       -7.4270    -2.7210     0.1110 H     1 <1>   0.0800 
 47 H       -6.0940    -1.9360    -0.6390 H     1 <1>   0.0800 
 48 H       -9.4140    -0.9150    -1.2270 H     1 <1>   0.0800 
 49 H       -7.9190    -1.2030    -2.0220 H     1 <1>   0.0800 
 50 H       -5.4640     0.1150    -1.2260 H     1 <1>   0.0800 
 51 H       -5.4430     1.7510    -0.6200 H     1 <1>   0.0800 
 52 H       -6.5630     1.0120    -2.9900 H     1 <1>   0.0800 
 53 H       -7.0070     2.4550    -2.1580 H     1 <1>   0.0800 
 54 H       -8.4980     1.8240    -0.3130 H     1 <1>   0.4000 
 55 H       -8.7300     0.2570    -3.9910 H     1 <1>   0.0800 
 56 H       -9.2010     1.9020    -3.6560 H     1 <1>   0.0800 
 57 H      -10.2090     0.5740    -3.1220 H     1 <1>   0.0800 
@<TRIPOS>BOND
  1   1   2  1   
  2   1   3  1   
  3   2   4  ar  
  4   2   5  ar  
  5   3   6  1   
  6   3   7  2   
  7   4   8  ar  
  8   4  28  1   
  9   5   9  ar  
 10   5  29  1   
 11   6  10  1   
 12   7  11  1   
 13   7  30  1   
 14   8  12  ar  
 15   8  31  1   
 16   9  12  ar  
 17   9  32  1   
 18  10  11  2   
 19  10  13  1   
 20  11  33  1   
 21  12  14  1   
 22  13  15  1   
 23  13  34  1   
 24  13  35  1   
 25  14  36  1   
 26  14  37  1   
 27  14  38  1   
 28  15  16  1   
 29  15  17  1   
 30  15  39  1   
 31  16  18  1   
 32  16  40  1   
 33  16  41  1   
 34  17  19  1   
 35  17  42  1   
 36  17  43  1   
 37  18  20  1   
 38  18  44  1   
 39  18  45  1   
 40  19  20  1   
 41  19  46  1   
 42  19  47  1   
 43  20  21  1   
 44  20  22  1   
 45  21  23  1   
 46  22  24  1   
 47  22  48  1   
 48  22  49  1   
 49  23  25  1   
 50  23  50  1   
 51  23  51  1   
 52  24  25  1   
 53  24  26  1   
 54  24  27  1   
 55  25  52  1   
 56  25  53  1   
 57  26  54  1   
 58  27  55  1   
 59  27  56  1   
 60  27  57  1   
@<TRIPOS>SUBSTRUCTURE
  1 ****  21 GROUP 4 **** **** 0

# MOE 2024.06 (io_trps.svl 2023.06)
