@<TRIPOS>MOLECULE
NONAME
49 51 1 0 0 
SMALL
USER_CHARGES


@<TRIPOS>ATOM
  1 O       -3.0930     0.6970    -2.5650 O.2   1 <1>  -0.5700 
  2 C       -3.1440     0.6880    -1.3490 C.2   1 <1>   0.5440 
  3 N       -2.7710     1.8210    -0.6470 N.am  1 <1>  -0.6600 
  4 C       -3.5920    -0.5090    -0.6810 C.ar  1 <1>   0.0860 
  5 C       -2.5820     3.1300    -1.3290 C.3   1 <1>   0.1400 
  6 C       -2.3660     1.7950     0.7890 C.3   1 <1>   0.0600 
  7 C       -4.5710    -0.4600     0.3100 C.ar  1 <1>   0.1600 
  8 C       -3.0790    -1.7630    -0.9960 C.ar  1 <1>  -0.1500 
  9 C       -3.7240     4.0710    -0.9520 C.3   1 <1>  -0.2400 
 10 N       -5.0420    -1.4900     0.9920 N.ar  1 <1>  -0.6200 
 11 C       -3.5570    -2.8470    -0.3020 C.ar  1 <1>  -0.1500 
 12 C       -4.5320    -2.6670     0.6760 C.ar  1 <1>   0.4100 
 13 N       -5.0500    -3.7000     1.3850 N.pl3 1 <1>  -0.8690 
 14 C       -5.6790    -4.8500     0.6990 C.3   1 <1>   0.2890 
 15 C       -7.1840    -4.6810     0.6190 C.3   1 <1>  -0.0800 
 16 C       -5.5420    -6.1470     1.4820 C.3   1 <1>   0.1200 
 17 C       -7.6830    -6.1260     0.6170 C.3   1 <1>   0.1200 
 18 C       -7.6390    -3.8570    -0.5960 C.3   1 <1>  -0.0170 
 19 O       -6.6620    -6.9140     1.1520 O.3   1 <1>  -0.5600 
 20 C       -9.1560    -3.7630    -0.6510 C.ar  1 <1>  -0.1430 
 21 C       -9.8530    -2.8870     0.1550 C.ar  1 <1>  -0.1500 
 22 C       -9.9130    -4.5430    -1.5020 C.ar  1 <1>  -0.1500 
 23 C      -11.2350    -2.8380     0.0790 C.ar  1 <1>   0.1600 
 24 C      -11.2920    -4.4170    -1.5000 C.ar  1 <1>   0.1600 
 25 N      -11.9720    -3.5840    -0.7280 N.ar  1 <1>  -0.6200 
 26 H       -1.6360     3.5560    -1.0400 H     1 <1>   0.0800 
 27 H       -2.5670     3.0010    -2.3980 H     1 <1>   0.0800 
 28 H       -1.4580     2.3560     0.9240 H     1 <1>   0.0800 
 29 H       -2.1880     0.7870     1.1210 H     1 <1>   0.0800 
 30 H       -3.1410     2.2320     1.3950 H     1 <1>   0.0800 
 31 H       -4.9870     0.5040     0.5450 H     1 <1>   0.1500 
 32 H       -2.3300    -1.8610    -1.7630 H     1 <1>   0.1500 
 33 H       -3.7260     4.2650     0.1040 H     1 <1>   0.0800 
 34 H       -4.6650     3.6390    -1.2430 H     1 <1>   0.0800 
 35 H       -3.6050     5.0050    -1.4700 H     1 <1>   0.0800 
 36 H       -3.1840    -3.8340    -0.4970 H     1 <1>   0.1500 
 37 H       -5.6180    -3.3500     2.1600 H     1 <1>   0.4000 
 38 H       -5.2590    -4.9900    -0.2820 H     1 <1>   0.0800 
 39 H       -7.5420    -4.2170     1.5210 H     1 <1>   0.0800 
 40 H       -5.5720    -5.9630     2.5410 H     1 <1>   0.0800 
 41 H       -4.6530    -6.6890     1.2170 H     1 <1>   0.0800 
 42 H       -7.8720    -6.4790    -0.3820 H     1 <1>   0.0800 
 43 H       -8.5700    -6.2450     1.2160 H     1 <1>   0.0800 
 44 H       -7.2680    -4.2990    -1.5040 H     1 <1>   0.0800 
 45 H       -7.2280    -2.8640    -0.5280 H     1 <1>   0.0800 
 46 H       -9.3340    -2.2410     0.8410 H     1 <1>   0.1500 
 47 H       -9.4470    -5.2480    -2.1660 H     1 <1>   0.1500 
 48 H      -11.7620    -2.1490     0.7170 H     1 <1>   0.1500 
 49 H      -11.8670    -5.0330    -2.1690 H     1 <1>   0.1500 
@<TRIPOS>BOND
  1   1   2  2   
  2   2   3  am  
  3   2   4  1   
  4   3   5  1   
  5   3   6  1   
  6   4   7  ar  
  7   4   8  ar  
  8   5   9  1   
  9   5  26  1   
 10   5  27  1   
 11   6  28  1   
 12   6  29  1   
 13   6  30  1   
 14   7  10  ar  
 15   7  31  1   
 16   8  11  ar  
 17   8  32  1   
 18   9  33  1   
 19   9  34  1   
 20   9  35  1   
 21  10  12  ar  
 22  11  12  ar  
 23  11  36  1   
 24  12  13  1   
 25  13  14  1   
 26  13  37  1   
 27  14  15  1   
 28  14  16  1   
 29  14  38  1   
 30  15  17  1   
 31  15  18  1   
 32  15  39  1   
 33  16  19  1   
 34  16  40  1   
 35  16  41  1   
 36  17  19  1   
 37  17  42  1   
 38  17  43  1   
 39  18  20  1   
 40  18  44  1   
 41  18  45  1   
 42  20  21  ar  
 43  20  22  ar  
 44  21  23  ar  
 45  21  46  1   
 46  22  24  ar  
 47  22  47  1   
 48  23  25  ar  
 49  23  48  1   
 50  24  25  ar  
 51  24  49  1   
@<TRIPOS>SUBSTRUCTURE
  1 ****  10 GROUP 4 **** **** 0

# MOE 2024.06 (io_trps.svl 2023.06)
