@<TRIPOS>MOLECULE
NONAME
55 58 1 0 0 
SMALL
USER_CHARGES


@<TRIPOS>ATOM
  1 F       -1.9880    -0.3170     2.0510 F     1 <1>  -0.1900 
  2 C       -2.7990    -1.0120     1.3010 C.ar  1 <1>   0.1900 
  3 C       -3.2420    -2.2380     1.7540 C.ar  1 <1>  -0.1500 
  4 C       -3.1860    -0.4970     0.0800 C.ar  1 <1>  -0.1500 
  5 C       -4.1020    -2.9720     0.9540 C.ar  1 <1>  -0.1500 
  6 C       -4.0460    -1.2400    -0.7110 C.ar  1 <1>  -0.1500 
  7 C       -4.5090    -2.4820    -0.2870 C.ar  1 <1>  -0.1430 
  8 C       -5.4600    -3.2700    -1.1940 C.3   1 <1>   0.2440 
  9 C       -6.9030    -3.1510    -0.6940 C.2   1 <1>  -0.0400 
 10 C       -5.0080    -4.7360    -1.3320 C.3   1 <1>  -0.1600 
 11 O       -7.9000    -3.4750    -1.5010 O.3   1 <1>  -0.2800 
 12 C       -7.3940    -2.7060     0.4840 C.2   1 <1>  -0.1500 
 13 C       -5.7160    -5.4950    -2.4630 C.3   1 <1>   0.2090 
 14 C       -9.0320    -3.1980    -0.8820 C.2   1 <1>  -0.0100 
 15 C       -8.7880    -2.7380     0.3620 C.2   1 <1>  -0.1500 
 16 N       -6.1880    -6.8090    -1.9670 N.pl3 1 <1>  -0.8690 
 17 C       -7.2110    -7.1460    -1.1760 C.ar  1 <1>   0.7710 
 18 N       -7.3650    -8.4330    -0.9420 N.ar  1 <1>  -0.6200 
 19 N       -8.0130    -6.2050    -0.6500 N.ar  1 <1>  -0.1790 
 20 C       -8.3480    -8.8060    -0.1420 C.ar  1 <1>   0.4100 
 21 C       -9.0400    -6.5430     0.1630 C.ar  1 <1>   0.2110 
 22 N       -8.4880   -10.1340     0.1150 N.pl3 1 <1>  -0.8380 
 23 C       -9.2240    -7.8580     0.4260 C.ar  1 <1>  -0.1500 
 24 C       -8.9930   -10.6970     1.4030 C.3   1 <1>   0.2090 
 25 C       -8.0060   -11.1870    -0.8330 C.3   1 <1>   0.2090 
 26 C      -10.1680   -11.6310     1.1170 C.3   1 <1>  -0.1600 
 27 C       -9.1530   -12.1510    -1.1430 C.3   1 <1>  -0.1600 
 28 C       -9.7350   -12.7290     0.1470 C.3   1 <1>   0.2000 
 29 O      -10.8360   -13.4920    -0.1710 O.3   1 <1>  -0.6800 
 30 H       -2.9180    -2.6040     2.7120 H     1 <1>   0.1500 
 31 H       -2.8210     0.4640    -0.2380 H     1 <1>   0.1500 
 32 H       -4.4480    -3.9230     1.3160 H     1 <1>   0.1500 
 33 H       -4.3500    -0.8340    -1.6620 H     1 <1>   0.1500 
 34 H       -5.4230    -2.8200    -2.1720 H     1 <1>   0.0800 
 35 H       -5.1470    -5.2400    -0.3930 H     1 <1>   0.0800 
 36 H       -3.9520    -4.7420    -1.5420 H     1 <1>   0.0800 
 37 H       -6.8580    -2.3540     1.3510 H     1 <1>   0.1500 
 38 H       -5.0230    -5.6540    -3.2740 H     1 <1>   0.0800 
 39 H       -6.5460    -4.9410    -2.8680 H     1 <1>   0.0800 
 40 H       -9.9670    -3.3450    -1.3990 H     1 <1>   0.1500 
 41 H       -9.4860    -2.4200     1.1190 H     1 <1>   0.1500 
 42 H       -5.6320    -7.6110    -2.2890 H     1 <1>   0.4000 
 43 H       -7.8090    -5.2330    -0.9000 H     1 <1>   0.4570 
 44 H       -9.6710    -5.7670     0.5650 H     1 <1>   0.1500 
 45 H      -10.0330    -8.1950     1.0450 H     1 <1>   0.1500 
 46 H       -9.2920    -9.9210     2.0830 H     1 <1>   0.0800 
 47 H       -8.1990   -11.2520     1.8750 H     1 <1>   0.0800 
 48 H       -7.1840   -11.7200    -0.3840 H     1 <1>   0.0800 
 49 H       -7.6580   -10.7510    -1.7530 H     1 <1>   0.0800 
 50 H      -10.9760   -11.0560     0.7000 H     1 <1>   0.0800 
 51 H      -10.4980   -12.0770     2.0380 H     1 <1>   0.0800 
 52 H       -8.7840   -12.9500    -1.7600 H     1 <1>   0.0800 
 53 H       -9.9090   -11.6150    -1.6880 H     1 <1>   0.0800 
 54 H       -9.0150   -13.3770     0.6190 H     1 <1>   0.0800 
 55 H      -11.4950   -12.9500    -0.6430 H     1 <1>   0.4000 
@<TRIPOS>BOND
  1   1   2  1   
  2   2   3  ar  
  3   2   4  ar  
  4   3   5  ar  
  5   3  30  1   
  6   4   6  ar  
  7   4  31  1   
  8   5   7  ar  
  9   5  32  1   
 10   6   7  ar  
 11   6  33  1   
 12   7   8  1   
 13   8   9  1   
 14   8  10  1   
 15   8  34  1   
 16   9  11  1   
 17   9  12  2   
 18  10  13  1   
 19  10  35  1   
 20  10  36  1   
 21  11  14  1   
 22  12  15  1   
 23  12  37  1   
 24  13  16  1   
 25  13  38  1   
 26  13  39  1   
 27  14  15  2   
 28  14  40  1   
 29  15  41  1   
 30  16  17  1   
 31  16  42  1   
 32  17  18  ar  
 33  17  19  ar  
 34  18  20  ar  
 35  19  21  ar  
 36  19  43  1   
 37  20  22  1   
 38  20  23  ar  
 39  21  23  ar  
 40  21  44  1   
 41  22  24  1   
 42  22  25  1   
 43  23  45  1   
 44  24  26  1   
 45  24  46  1   
 46  24  47  1   
 47  25  27  1   
 48  25  48  1   
 49  25  49  1   
 50  26  28  1   
 51  26  50  1   
 52  26  51  1   
 53  27  28  1   
 54  27  52  1   
 55  27  53  1   
 56  28  29  1   
 57  28  54  1   
 58  29  55  1   
@<TRIPOS>SUBSTRUCTURE
  1 ****  19 GROUP 4 **** **** 0

# MOE 2024.06 (io_trps.svl 2023.06)
