@<TRIPOS>MOLECULE
NONAME
40 41 1 0 0 
SMALL
USER_CHARGES


@<TRIPOS>ATOM
  1 O       -0.7750    -0.4230     0.9910 O.co2 1 <1>  -0.9000 
  2 C       -1.8820    -0.4960     0.4420 C.2   1 <1>   0.9060 
  3 O       -2.4360    -1.5810     0.2160 O.co2 1 <1>  -0.9000 
  4 C       -2.6370     0.8180     0.1070 C.3   1 <1>   0.0840 
  5 N       -1.9800     1.8040    -0.8080 N.3   1 <1>  -0.8100 
  6 C       -4.0040     0.6000    -0.5460 C.3   1 <1>  -0.1600 
  7 C       -3.0150     2.4540    -1.6300 C.3   1 <1>   0.1100 
  8 C       -0.9340     2.6090    -0.1410 C.3   1 <1>   0.2900 
  9 C       -4.3740     1.9770    -1.0790 C.3   1 <1>   0.4230 
 10 C       -1.4560     3.9120     0.4630 C.2   1 <1>   0.0060 
 11 N       -4.8320     2.8830     0.0280 N.4   1 <1>  -0.9590 
 12 N       -2.4940     4.0550     1.2170 N.2   1 <1>  -0.3380 
 13 N       -0.8670     5.0870     0.2420 N.pl3 1 <1>   0.0330 
 14 C       -5.8600     2.3180     0.9500 C.3   1 <1>   0.2630 
 15 C       -5.2410     4.2360    -0.4460 C.3   1 <1>   0.2630 
 16 N       -2.6280     5.3560     1.4700 N.2   1 <1>  -0.3380 
 17 C       -1.6440     5.9540     0.8920 C.2   1 <1>   0.0060 
 18 C       -1.3850     7.4490     0.9390 C.3   1 <1>   0.0200 
 19 C       -1.5530     8.0930    -0.4420 C.3   1 <1>  -0.2400 
 20 H       -2.7960     1.2950     1.0570 H     1 <1>   0.0800 
 21 H       -4.7090     0.1430     0.1210 H     1 <1>   0.0800 
 22 H       -3.8710    -0.0750    -1.3740 H     1 <1>   0.0800 
 23 H       -2.9170     3.5230    -1.6440 H     1 <1>   0.0800 
 24 H       -2.9040     2.0900    -2.6360 H     1 <1>   0.0800 
 25 H       -0.4590     2.0220     0.6280 H     1 <1>   0.0800 
 26 H       -0.1800     2.8350    -0.8730 H     1 <1>   0.0800 
 27 H       -5.1210     1.9160    -1.8530 H     1 <1>   0.0800 
 28 H       -3.9640     3.0380     0.5890 H     1 <1>   0.4500 
 29 H       -0.0220     5.2790    -0.2990 H     1 <1>   0.2700 
 30 H       -6.7410     2.0320     0.4000 H     1 <1>   0.0800 
 31 H       -6.1310     3.0490     1.6930 H     1 <1>   0.0800 
 32 H       -5.4690     1.4530     1.4610 H     1 <1>   0.0800 
 33 H       -6.1130     4.1690    -1.0740 H     1 <1>   0.0800 
 34 H       -4.4390     4.6970    -0.9990 H     1 <1>   0.0800 
 35 H       -5.4620     4.8680     0.4000 H     1 <1>   0.0800 
 36 H       -2.0780     7.9020     1.6280 H     1 <1>   0.0800 
 37 H       -0.3920     7.6300     1.3100 H     1 <1>   0.0800 
 38 H       -2.5470     7.9170    -0.8130 H     1 <1>   0.0800 
 39 H       -0.8420     7.6910    -1.1410 H     1 <1>   0.0800 
 40 H       -1.3990     9.1560    -0.3700 H     1 <1>   0.0800 
@<TRIPOS>BOND
  1   1   2  ar  
  2   2   3  ar  
  3   2   4  1   
  4   4   5  1   
  5   4   6  1   
  6   4  20  1   
  7   5   7  1   
  8   5   8  1   
  9   6   9  1   
 10   6  21  1   
 11   6  22  1   
 12   7   9  1   
 13   7  23  1   
 14   7  24  1   
 15   8  10  1   
 16   8  25  1   
 17   8  26  1   
 18   9  11  1   
 19   9  27  1   
 20  10  12  2   
 21  10  13  1   
 22  11  14  1   
 23  11  15  1   
 24  11  28  1   
 25  12  16  1   
 26  13  17  1   
 27  13  29  1   
 28  14  30  1   
 29  14  31  1   
 30  14  32  1   
 31  15  33  1   
 32  15  34  1   
 33  15  35  1   
 34  16  17  2   
 35  17  18  1   
 36  18  19  1   
 37  18  36  1   
 38  18  37  1   
 39  19  38  1   
 40  19  39  1   
 41  19  40  1   
@<TRIPOS>SUBSTRUCTURE
  1 ****  12 GROUP 4 **** **** 0

# MOE 2024.06 (io_trps.svl 2023.06)
