@<TRIPOS>MOLECULE
NONAME
48 50 1 0 0 
SMALL
USER_CHARGES


@<TRIPOS>ATOM
  1 CL      -1.0630    -3.2210    -2.0130 Cl    1 <1>  -0.1770 
  2 C       -2.0590    -2.8100    -0.6360 C.ar  1 <1>   0.1770 
  3 C       -2.5600    -1.5240    -0.4730 C.ar  1 <1>   0.0820 
  4 C       -2.3560    -3.8070     0.2740 C.ar  1 <1>  -0.1500 
  5 O       -2.2920    -0.5360    -1.3530 O.3   1 <1>  -0.3630 
  6 C       -3.3820    -1.2490     0.6080 C.ar  1 <1>  -0.1500 
  7 C       -3.1860    -3.5320     1.3530 C.ar  1 <1>  -0.1430 
  8 C       -0.9970     0.0510    -1.2730 C.3   1 <1>   0.1810 
  9 C       -3.6910    -2.2480     1.5170 C.ar  1 <1>  -0.1500 
 10 C       -3.5470    -4.6410     2.3200 C.3   1 <1>   0.4870 
 11 C       -0.7930     1.1120    -2.3470 C.2   1 <1>   0.5690 
 12 N       -4.5420    -5.4940     1.6340 N.4   1 <1>  -0.9590 
 13 O        0.2620     1.6880    -2.4070 O.2   1 <1>  -0.5700 
 14 N       -1.7740     1.4130    -3.2230 N.am  1 <1>  -0.8000 
 15 C       -5.9230    -4.9320     1.5540 C.3   1 <1>   0.3430 
 16 C       -4.6730    -6.8890     2.1070 C.3   1 <1>   0.3430 
 17 C       -6.8560    -6.1440     1.4080 C.3   1 <1>   0.2000 
 18 C       -5.9590    -7.3910     1.4470 C.3   1 <1>  -0.0800 
 19 O       -7.7330    -6.1830     2.4860 O.3   1 <1>  -0.6800 
 20 C       -5.7190    -8.0060     0.0420 C.3   1 <1>  -0.0170 
 21 C       -4.7250    -7.2720    -0.8580 C.ar  1 <1>   0.1670 
 22 N       -5.0180    -6.0220    -1.1890 N.ar  1 <1>  -0.6200 
 23 C       -3.5700    -7.9230    -1.2910 C.ar  1 <1>   0.1600 
 24 C       -4.1250    -5.4940    -2.0160 C.ar  1 <1>   0.1600 
 25 N       -2.6510    -7.3740    -2.0640 N.ar  1 <1>  -0.6200 
 26 C       -2.9750    -6.1490    -2.4370 C.ar  1 <1>   0.1600 
 27 H       -1.9380    -4.7870     0.1180 H     1 <1>   0.1500 
 28 H       -3.7760    -0.2550     0.7310 H     1 <1>   0.1500 
 29 H       -0.8900     0.5020    -0.3040 H     1 <1>   0.0800 
 30 H       -0.2560    -0.7160    -1.3930 H     1 <1>   0.0800 
 31 H       -4.3320    -2.0080     2.3510 H     1 <1>   0.1500 
 32 H       -3.9530    -4.2390     3.2340 H     1 <1>   0.0800 
 33 H       -2.6620    -5.2120     2.5520 H     1 <1>   0.0800 
 34 H       -4.2580    -5.5500     0.6360 H     1 <1>   0.4500 
 35 H       -1.6240     2.1250    -3.9380 H     1 <1>   0.3700 
 36 H       -2.6750     0.9330    -3.2130 H     1 <1>   0.3700 
 37 H       -6.1740    -4.3840     2.4460 H     1 <1>   0.0800 
 38 H       -6.0110    -4.2870     0.6940 H     1 <1>   0.0800 
 39 H       -3.8200    -7.4870     1.8290 H     1 <1>   0.0800 
 40 H       -4.7870    -6.9020     3.1790 H     1 <1>   0.0800 
 41 H       -7.4470    -6.0760     0.5090 H     1 <1>   0.0800 
 42 H       -6.4110    -8.1570     2.0550 H     1 <1>   0.0800 
 43 H       -7.3070    -6.4270     3.3300 H     1 <1>   0.4000 
 44 H       -6.6590    -8.0770    -0.4790 H     1 <1>   0.0800 
 45 H       -5.3750    -9.0170     0.1770 H     1 <1>   0.0800 
 46 H       -3.3910    -8.9410    -0.9890 H     1 <1>   0.1500 
 47 H       -4.3050    -4.4950    -2.3770 H     1 <1>   0.1500 
 48 H       -2.2990    -5.6410    -3.1040 H     1 <1>   0.1500 
@<TRIPOS>BOND
  1   1   2  1   
  2   2   3  ar  
  3   2   4  ar  
  4   3   5  1   
  5   3   6  ar  
  6   4   7  ar  
  7   4  27  1   
  8   5   8  1   
  9   6   9  ar  
 10   6  28  1   
 11   7   9  ar  
 12   7  10  1   
 13   8  11  1   
 14   8  29  1   
 15   8  30  1   
 16   9  31  1   
 17  10  12  1   
 18  10  32  1   
 19  10  33  1   
 20  11  13  2   
 21  11  14  am  
 22  12  15  1   
 23  12  16  1   
 24  12  34  1   
 25  14  35  1   
 26  14  36  1   
 27  15  17  1   
 28  15  37  1   
 29  15  38  1   
 30  16  18  1   
 31  16  39  1   
 32  16  40  1   
 33  17  18  1   
 34  17  19  1   
 35  17  41  1   
 36  18  20  1   
 37  18  42  1   
 38  19  43  1   
 39  20  21  1   
 40  20  44  1   
 41  20  45  1   
 42  21  22  ar  
 43  21  23  ar  
 44  22  24  ar  
 45  23  25  ar  
 46  23  46  1   
 47  24  26  ar  
 48  24  47  1   
 49  25  26  ar  
 50  26  48  1   
@<TRIPOS>SUBSTRUCTURE
  1 ****   4 GROUP 4 **** **** 0

# MOE 2024.06 (io_trps.svl 2023.06)
