@<TRIPOS>MOLECULE
NONAME
54 57 1 0 0 
SMALL
USER_CHARGES


@<TRIPOS>ATOM
  1 O       -1.7660    -1.6330     2.7150 O.2   1 <1>  -0.5700 
  2 C       -2.3010    -0.7950     2.0320 C.2   1 <1>   0.5690 
  3 N       -2.9990    -1.1240     0.8950 N.am  1 <1>  -0.6600 
  4 C       -2.1830     0.6420     2.4840 C.3   1 <1>  -0.1790 
  5 C       -3.0350    -2.5270     0.4110 C.3   1 <1>   0.1400 
  6 C       -3.7740    -0.1730     0.0620 C.3   1 <1>   0.1400 
  7 C       -4.4840    -3.0090     0.4160 C.3   1 <1>  -0.1600 
  8 C       -5.2380    -0.6180     0.0480 C.3   1 <1>  -0.1600 
  9 C       -5.3820    -2.0770    -0.4110 C.3   1 <1>   0.4230 
 10 N       -6.8020    -2.5080    -0.2790 N.4   1 <1>  -0.9590 
 11 C       -7.8230    -1.7030    -1.0090 C.3   1 <1>   0.3430 
 12 C       -7.0840    -3.9280    -0.6520 C.3   1 <1>   0.3430 
 13 C       -9.0800    -2.5690    -0.9330 C.3   1 <1>   0.2000 
 14 C       -8.5240    -3.9740    -1.1860 C.3   1 <1>  -0.0800 
 15 O       -9.5660    -2.4820     0.3680 O.3   1 <1>  -0.6800 
 16 C       -9.3560    -5.1580    -0.6440 C.3   1 <1>  -0.0170 
 17 C       -8.5960    -6.4650    -0.8460 C.ar  1 <1>  -0.1440 
 18 C       -7.7630    -7.0430     0.1460 C.ar  1 <1>   0.0000 
 19 C       -8.6910    -7.1110    -2.0440 C.ar  1 <1>  -0.1500 
 20 C       -7.0450    -8.2140    -0.2050 C.ar  1 <1>   0.3100 
 21 C       -7.5920    -6.5370     1.4580 C.ar  1 <1>  -0.1500 
 22 C       -7.9560    -8.2800    -2.2780 C.ar  1 <1>   0.1600 
 23 N       -7.1510    -8.8120    -1.4160 N.ar  1 <1>  -0.6200 
 24 C       -6.1750    -8.7890     0.7350 C.ar  1 <1>  -0.1500 
 25 C       -6.7380    -7.1250     2.3520 C.ar  1 <1>  -0.1500 
 26 C       -6.0150    -8.2620     1.9860 C.ar  1 <1>  -0.1500 
 27 H       -1.7450     1.2370     1.7050 H     1 <1>   0.0800 
 28 H       -1.5500     0.6970     3.3510 H     1 <1>   0.0800 
 29 H       -3.1510     1.0260     2.7420 H     1 <1>   0.0800 
 30 H       -2.6220    -2.5700    -0.5830 H     1 <1>   0.0800 
 31 H       -2.4380    -3.1680     1.0400 H     1 <1>   0.0800 
 32 H       -3.7050     0.8300     0.4450 H     1 <1>   0.0800 
 33 H       -3.3710    -0.1720    -0.9370 H     1 <1>   0.0800 
 34 H       -4.8190    -3.0460     1.4380 H     1 <1>   0.0800 
 35 H       -4.4960    -4.0060     0.0150 H     1 <1>   0.0800 
 36 H       -5.7740     0.0380    -0.6130 H     1 <1>   0.0800 
 37 H       -5.6340    -0.5020     1.0420 H     1 <1>   0.0800 
 38 H       -5.0810    -2.1430    -1.4440 H     1 <1>   0.0800 
 39 H       -7.0720    -2.4220     0.7130 H     1 <1>   0.4500 
 40 H       -7.9870    -0.7420    -0.5510 H     1 <1>   0.0800 
 41 H       -7.5290    -1.5740    -2.0380 H     1 <1>   0.0800 
 42 H       -6.4050    -4.2670    -1.4160 H     1 <1>   0.0800 
 43 H       -6.9720    -4.5580     0.2130 H     1 <1>   0.0800 
 44 H       -9.8480    -2.2630    -1.6240 H     1 <1>   0.0800 
 45 H       -8.4440    -4.1040    -2.2510 H     1 <1>   0.0800 
 46 H      -10.4970    -2.7880     0.4230 H     1 <1>   0.4000 
 47 H      -10.2870    -5.2060    -1.1830 H     1 <1>   0.0800 
 48 H       -9.6110    -5.0300     0.3900 H     1 <1>   0.0800 
 49 H       -9.3180    -6.7490    -2.8390 H     1 <1>   0.1500 
 50 H       -8.1440    -5.6770     1.7810 H     1 <1>   0.1500 
 51 H       -8.0620    -8.7620    -3.2360 H     1 <1>   0.1500 
 52 H       -5.6360    -9.6700     0.4350 H     1 <1>   0.1500 
 53 H       -6.6160    -6.7310     3.3470 H     1 <1>   0.1500 
 54 H       -5.3450    -8.7160     2.6970 H     1 <1>   0.1500 
@<TRIPOS>BOND
  1   1   2  2   
  2   2   3  am  
  3   2   4  1   
  4   3   5  1   
  5   3   6  1   
  6   4  27  1   
  7   4  28  1   
  8   4  29  1   
  9   5   7  1   
 10   5  30  1   
 11   5  31  1   
 12   6   8  1   
 13   6  32  1   
 14   6  33  1   
 15   7   9  1   
 16   7  34  1   
 17   7  35  1   
 18   8   9  1   
 19   8  36  1   
 20   8  37  1   
 21   9  10  1   
 22   9  38  1   
 23  10  11  1   
 24  10  12  1   
 25  10  39  1   
 26  11  13  1   
 27  11  40  1   
 28  11  41  1   
 29  12  14  1   
 30  12  42  1   
 31  12  43  1   
 32  13  14  1   
 33  13  15  1   
 34  13  44  1   
 35  14  16  1   
 36  14  45  1   
 37  15  46  1   
 38  16  17  1   
 39  16  47  1   
 40  16  48  1   
 41  17  18  ar  
 42  17  19  ar  
 43  18  20  ar  
 44  18  21  ar  
 45  19  22  ar  
 46  19  49  1   
 47  20  23  ar  
 48  20  24  ar  
 49  21  25  ar  
 50  21  50  1   
 51  22  23  ar  
 52  22  51  1   
 53  24  26  ar  
 54  24  52  1   
 55  25  26  ar  
 56  25  53  1   
 57  26  54  1   
@<TRIPOS>SUBSTRUCTURE
  1 ****  12 GROUP 4 **** **** 0

# MOE 2024.06 (io_trps.svl 2023.06)
