@<TRIPOS>MOLECULE
NONAME
49 52 1 0 0 
SMALL
USER_CHARGES


@<TRIPOS>ATOM
  1 F       -2.1780     1.0170    -1.7340 F     1 <1>  -0.3400 
  2 C       -2.9360     0.8990    -0.6550 C.3   1 <1>   1.3000 
  3 F       -2.9550    -0.3840    -0.3100 F     1 <1>  -0.3400 
  4 F       -2.3650     1.5870     0.3250 F     1 <1>  -0.3400 
  5 O       -4.2420     1.3700    -0.9260 O.3   1 <1>  -0.3630 
  6 C       -5.1490     1.2940     0.0690 C.ar  1 <1>   0.0820 
  7 C       -5.9580     0.1730     0.1750 C.ar  1 <1>  -0.1500 
  8 C       -5.2820     2.3400     0.9670 C.ar  1 <1>  -0.1500 
  9 C       -6.9000     0.0890     1.1900 C.ar  1 <1>  -0.1440 
 10 C       -6.2150     2.2550     1.9840 C.ar  1 <1>  -0.1500 
 11 C       -7.0190     1.1330     2.0990 C.ar  1 <1>  -0.1500 
 12 C       -7.7910    -1.1330     1.2970 C.3   1 <1>   0.4870 
 13 N       -8.8690    -0.9930     0.2840 N.4   1 <1>  -0.9590 
 14 C       -9.8710     0.0480     0.7040 C.3   1 <1>   0.3430 
 15 C       -9.5270    -2.2950    -0.0130 C.3   1 <1>   0.3430 
 16 C      -10.9340     0.2980    -0.3810 C.3   1 <1>   0.1430 
 17 C      -10.5380    -2.1100    -1.1480 C.3   1 <1>  -0.1600 
 18 C      -11.9810     1.2270     0.1860 C.ar  1 <1>   0.1670 
 19 C      -11.5860    -1.0320    -0.8160 C.3   1 <1>  -0.1600 
 20 C      -10.3850     1.1050    -1.5880 C.3   1 <1>  -0.1600 
 21 N      -12.5490     1.0780     1.3570 N.ar  1 <1>  -0.6200 
 22 C      -12.2590     2.2570    -0.6610 C.ar  1 <1>  -0.1430 
 23 C      -11.4450     2.1730    -1.9280 C.3   1 <1>  -0.0170 
 24 C      -13.4270     2.0290     1.6470 C.ar  1 <1>   0.7200 
 25 C      -13.1940     3.1790    -0.2540 C.ar  1 <1>   0.1600 
 26 N      -13.7910     3.0690     0.9110 N.ar  1 <1>  -0.6200 
 27 N      -14.0390     1.9170     2.8270 N.pl3 1 <1>  -0.9000 
 28 H       -5.8320    -0.6220    -0.5390 H     1 <1>   0.1500 
 29 H       -4.6590     3.2140     0.8740 H     1 <1>   0.1500 
 30 H       -6.3130     3.0650     2.6890 H     1 <1>   0.1500 
 31 H       -7.7330     1.0900     2.9050 H     1 <1>   0.1500 
 32 H       -8.2090    -1.2120     2.2870 H     1 <1>   0.0800 
 33 H       -7.2040    -2.0150     1.0980 H     1 <1>   0.0800 
 34 H       -8.4160    -0.6510    -0.5730 H     1 <1>   0.4500 
 35 H       -9.3760     0.9790     0.9230 H     1 <1>   0.0800 
 36 H      -10.3740    -0.2760     1.6010 H     1 <1>   0.0800 
 37 H      -10.0370    -2.6560     0.8660 H     1 <1>   0.0800 
 38 H       -8.7900    -3.0280    -0.3050 H     1 <1>   0.0800 
 39 H      -11.0420    -3.0460    -1.3190 H     1 <1>   0.0800 
 40 H      -10.0170    -1.8630    -2.0560 H     1 <1>   0.0800 
 41 H      -12.2310    -0.8680    -1.6640 H     1 <1>   0.0800 
 42 H      -12.2060    -1.3930    -0.0130 H     1 <1>   0.0800 
 43 H      -10.1710     0.4910    -2.4450 H     1 <1>   0.0800 
 44 H       -9.4820     1.6180    -1.3030 H     1 <1>   0.0800 
 45 H      -12.0730     1.8460    -2.7390 H     1 <1>   0.0800 
 46 H      -10.9940     3.1190    -2.1760 H     1 <1>   0.0800 
 47 H      -13.4540     4.0120    -0.8860 H     1 <1>   0.1500 
 48 H      -14.8710     2.4930     2.9290 H     1 <1>   0.4000 
 49 H      -14.0870     0.9830     3.2210 H     1 <1>   0.4000 
@<TRIPOS>BOND
  1   1   2  1   
  2   2   3  1   
  3   2   4  1   
  4   2   5  1   
  5   5   6  1   
  6   6   7  ar  
  7   6   8  ar  
  8   7   9  ar  
  9   7  28  1   
 10   8  10  ar  
 11   8  29  1   
 12   9  11  ar  
 13   9  12  1   
 14  10  11  ar  
 15  10  30  1   
 16  11  31  1   
 17  12  13  1   
 18  12  32  1   
 19  12  33  1   
 20  13  14  1   
 21  13  15  1   
 22  13  34  1   
 23  14  16  1   
 24  14  35  1   
 25  14  36  1   
 26  15  17  1   
 27  15  37  1   
 28  15  38  1   
 29  16  18  1   
 30  16  19  1   
 31  16  20  1   
 32  17  19  1   
 33  17  39  1   
 34  17  40  1   
 35  18  21  ar  
 36  18  22  ar  
 37  19  41  1   
 38  19  42  1   
 39  20  23  1   
 40  20  43  1   
 41  20  44  1   
 42  21  24  ar  
 43  22  23  1   
 44  22  25  ar  
 45  23  45  1   
 46  23  46  1   
 47  24  26  ar  
 48  24  27  1   
 49  25  26  ar  
 50  25  47  1   
 51  27  48  1   
 52  27  49  1   
@<TRIPOS>SUBSTRUCTURE
  1 ****  14 GROUP 4 **** **** 0

# MOE 2024.06 (io_trps.svl 2023.06)
