@<TRIPOS>MOLECULE
NONAME
42 43 1 0 0 
SMALL
USER_CHARGES


@<TRIPOS>ATOM
  1 O       -2.0460    -0.0430     2.8660 O.2   1 <1>  -0.5700 
  2 C       -2.4200     0.6830     1.9740 C.2   1 <1>   0.5690 
  3 N       -3.4380     0.3090     1.1320 N.am  1 <1>  -0.6600 
  4 C       -1.7220     2.0330     1.8460 C.3   1 <1>   0.0440 
  5 C       -4.0270    -1.0680     1.2250 C.3   1 <1>   0.3210 
  6 C       -3.9540     1.1460    -0.0070 C.3   1 <1>   0.1400 
  7 C       -0.8030     2.1110     0.6310 C.ar  1 <1>  -0.1440 
  8 C       -3.9270    -1.8080    -0.1040 C.2   1 <1>   0.0460 
  9 C       -5.4040     1.5850     0.2280 C.3   1 <1>   0.1200 
 10 C       -0.8890     3.1770    -0.2530 C.ar  1 <1>  -0.1500 
 11 C        0.1330     1.1140     0.4010 C.ar  1 <1>  -0.1500 
 12 N       -5.0060    -1.9490    -0.9040 N.2   1 <1>  -0.5650 
 13 C       -2.8330    -2.3780    -0.6620 C.2   1 <1>  -0.3320 
 14 O       -5.5100     2.1660     1.4840 O.3   1 <1>  -0.6800 
 15 C       -0.0620     3.2450    -1.3620 C.ar  1 <1>  -0.1440 
 16 C        0.9640     1.1780    -0.7030 C.ar  1 <1>  -0.1500 
 17 C       -4.5490    -2.6030    -1.9220 C.2   1 <1>   0.0360 
 18 N       -3.2350    -2.8950    -1.8360 N.pl3 1 <1>   0.0330 
 19 C       -1.4020    -2.4540    -0.1580 C.3   1 <1>  -0.0600 
 20 C        0.8660     2.2410    -1.5830 C.ar  1 <1>  -0.1500 
 21 C       -0.1630     4.4130    -2.3260 C.3   1 <1>  -0.0970 
 22 H       -1.1320     2.1970     2.7290 H     1 <1>   0.0800 
 23 H       -2.4660     2.8060     1.8150 H     1 <1>   0.0800 
 24 H       -5.0600    -0.9980     1.5140 H     1 <1>   0.0800 
 25 H       -3.5210    -1.6510     1.9730 H     1 <1>   0.0800 
 26 H       -3.8940     0.5920    -0.9270 H     1 <1>   0.0800 
 27 H       -3.3550     2.0250    -0.1450 H     1 <1>   0.0800 
 28 H       -6.0670     0.7380     0.1830 H     1 <1>   0.0800 
 29 H       -5.7090     2.3070    -0.5080 H     1 <1>   0.0800 
 30 H       -1.6040     3.9610    -0.0790 H     1 <1>   0.1500 
 31 H        0.2190     0.2850     1.0830 H     1 <1>   0.1500 
 32 H       -5.1020     1.5630     2.1390 H     1 <1>   0.4000 
 33 H        1.6890     0.4020    -0.8750 H     1 <1>   0.1500 
 34 H       -5.1450    -2.8960    -2.7680 H     1 <1>   0.1500 
 35 H       -2.6680    -3.3980    -2.5230 H     1 <1>   0.2700 
 36 H       -1.3180    -1.9890     0.8080 H     1 <1>   0.0800 
 37 H       -0.7440    -1.9410    -0.8370 H     1 <1>   0.0800 
 38 H       -1.0910    -3.4790    -0.0710 H     1 <1>   0.0800 
 39 H        1.5170     2.2840    -2.4380 H     1 <1>   0.1500 
 40 H       -1.1510     4.8370    -2.3050 H     1 <1>   0.0800 
 41 H        0.0460     4.0900    -3.3300 H     1 <1>   0.0800 
 42 H        0.5470     5.1730    -2.0510 H     1 <1>   0.0800 
@<TRIPOS>BOND
  1   1   2  2   
  2   2   3  am  
  3   2   4  1   
  4   3   5  1   
  5   3   6  1   
  6   4   7  1   
  7   4  22  1   
  8   4  23  1   
  9   5   8  1   
 10   5  24  1   
 11   5  25  1   
 12   6   9  1   
 13   6  26  1   
 14   6  27  1   
 15   7  10  ar  
 16   7  11  ar  
 17   8  12  1   
 18   8  13  2   
 19   9  14  1   
 20   9  28  1   
 21   9  29  1   
 22  10  15  ar  
 23  10  30  1   
 24  11  16  ar  
 25  11  31  1   
 26  12  17  2   
 27  13  18  1   
 28  13  19  1   
 29  14  32  1   
 30  15  20  ar  
 31  15  21  1   
 32  16  20  ar  
 33  16  33  1   
 34  17  18  1   
 35  17  34  1   
 36  18  35  1   
 37  19  36  1   
 38  19  37  1   
 39  19  38  1   
 40  20  39  1   
 41  21  40  1   
 42  21  41  1   
 43  21  42  1   
@<TRIPOS>SUBSTRUCTURE
  1 ****   3 GROUP 4 **** **** 0

# MOE 2024.06 (io_trps.svl 2023.06)
