@<TRIPOS>MOLECULE
NONAME
48 50 1 0 0 
SMALL
USER_CHARGES


@<TRIPOS>ATOM
  1 O       -1.3000     0.3490     2.5370 O.2   1 <1>  -0.5700 
  2 C       -1.9100     0.9120     1.6470 C.2   1 <1>   0.5440 
  3 N       -3.0010     0.2840     1.0960 N.am  1 <1>  -0.6600 
  4 C       -1.4850     2.2140     1.1910 C.ar  1 <1>   0.0860 
  5 C       -3.8480     0.8350     0.0070 C.3   1 <1>   0.1400 
  6 C       -3.3720    -1.1220     1.3870 C.3   1 <1>   0.1400 
  7 C       -0.9220     2.4380    -0.0760 C.ar  1 <1>   0.0830 
  8 C       -1.6600     3.3180     2.0250 C.ar  1 <1>  -0.1500 
  9 C       -4.9630    -0.1970    -0.1720 C.3   1 <1>   0.2000 
 10 C       -4.3260    -1.5220     0.2530 C.3   1 <1>  -0.0800 
 11 O       -0.6610     1.4430    -0.9560 O.3   1 <1>  -0.3630 
 12 C       -0.6060     3.7210    -0.4940 C.ar  1 <1>  -0.1500 
 13 C       -1.3300     4.5940     1.6120 C.ar  1 <1>  -0.1500 
 14 O       -5.9800     0.1020     0.7190 O.3   1 <1>  -0.6800 
 15 C       -3.5660    -2.1680    -0.9220 C.3   1 <1>   0.0210 
 16 C        0.1030     0.3280    -0.5380 C.3   1 <1>   0.0400 
 17 C       -0.8070     4.8080     0.3460 C.ar  1 <1>   0.0830 
 18 C       -2.8910    -3.4620    -0.5110 C.2   1 <1>   0.1080 
 19 O       -0.5200     6.0850     0.0100 O.3   1 <1>  -0.3630 
 20 N       -3.5520    -4.5050    -0.1170 N.2   1 <1>  -0.7070 
 21 C       -1.5170    -3.6750    -0.5010 C.2   1 <1>  -0.1500 
 22 C        0.0320     6.4150    -1.2450 C.3   1 <1>   0.0400 
 23 N       -2.6070    -5.4230     0.1590 N.pl3 1 <1>   0.3000 
 24 C       -1.3650    -4.9430    -0.0650 C.2   1 <1>  -0.3320 
 25 C       -0.0910    -5.7380     0.1560 C.3   1 <1>  -0.0600 
 26 H       -4.2370     1.8070     0.2570 H     1 <1>   0.0800 
 27 H       -3.2630     0.9020    -0.8940 H     1 <1>   0.0800 
 28 H       -2.4980    -1.7490     1.4410 H     1 <1>   0.0800 
 29 H       -3.8820    -1.1600     2.3350 H     1 <1>   0.0800 
 30 H       -2.0670     3.1630     3.0100 H     1 <1>   0.1500 
 31 H       -5.3770    -0.2090    -1.1660 H     1 <1>   0.0800 
 32 H       -5.0670    -2.2210     0.6010 H     1 <1>   0.0800 
 33 H       -0.1960     3.8430    -1.4780 H     1 <1>   0.1500 
 34 H       -1.4740     5.4360     2.2650 H     1 <1>   0.1500 
 35 H       -5.5970     0.1960     1.6140 H     1 <1>   0.4000 
 36 H       -2.8240    -1.4930    -1.3080 H     1 <1>   0.0800 
 37 H       -4.2580    -2.3910    -1.7150 H     1 <1>   0.0800 
 38 H        0.6170    -0.0660    -1.3950 H     1 <1>   0.0800 
 39 H       -0.5550    -0.4210    -0.1350 H     1 <1>   0.0800 
 40 H        0.8160     0.6420     0.2060 H     1 <1>   0.0800 
 41 H       -0.7610    -2.9650    -0.7830 H     1 <1>   0.1500 
 42 H        0.1740     7.4800    -1.2780 H     1 <1>   0.0800 
 43 H       -0.6520     6.1130    -2.0180 H     1 <1>   0.0800 
 44 H        0.9790     5.9160    -1.3510 H     1 <1>   0.0800 
 45 H       -2.8410    -6.3630     0.4970 H     1 <1>   0.2700 
 46 H        0.7670    -5.1380    -0.0900 H     1 <1>   0.0800 
 47 H       -0.0860    -6.6150    -0.4670 H     1 <1>   0.0800 
 48 H       -0.0140    -6.0370     1.1860 H     1 <1>   0.0800 
@<TRIPOS>BOND
  1   1   2  2   
  2   2   3  am  
  3   2   4  1   
  4   3   5  1   
  5   3   6  1   
  6   4   7  ar  
  7   4   8  ar  
  8   5   9  1   
  9   5  26  1   
 10   5  27  1   
 11   6  10  1   
 12   6  28  1   
 13   6  29  1   
 14   7  11  1   
 15   7  12  ar  
 16   8  13  ar  
 17   8  30  1   
 18   9  10  1   
 19   9  14  1   
 20   9  31  1   
 21  10  15  1   
 22  10  32  1   
 23  11  16  1   
 24  12  17  ar  
 25  12  33  1   
 26  13  17  ar  
 27  13  34  1   
 28  14  35  1   
 29  15  18  1   
 30  15  36  1   
 31  15  37  1   
 32  16  38  1   
 33  16  39  1   
 34  16  40  1   
 35  17  19  1   
 36  18  20  2   
 37  18  21  1   
 38  19  22  1   
 39  20  23  1   
 40  21  24  2   
 41  21  41  1   
 42  22  42  1   
 43  22  43  1   
 44  22  44  1   
 45  23  24  1   
 46  23  45  1   
 47  24  25  1   
 48  25  46  1   
 49  25  47  1   
 50  25  48  1   
@<TRIPOS>SUBSTRUCTURE
  1 ****   3 GROUP 4 **** **** 0

# MOE 2024.06 (io_trps.svl 2023.06)
