@<TRIPOS>MOLECULE
NONAME
46 48 1 0 0 
SMALL
USER_CHARGES


@<TRIPOS>ATOM
  1 F        1.1400     0.2250     1.4350 F     1 <1>  -0.1900 
  2 C        2.0320     1.0670     0.9540 C.ar  1 <1>   0.1900 
  3 C        3.2870     0.6470     0.5160 C.ar  1 <1>   0.4100 
  4 C        1.7160     2.3950     0.8960 C.ar  1 <1>   0.1600 
  5 N        4.1380     1.5440     0.0560 N.ar  1 <1>  -0.6200 
  6 N        3.7320    -0.6740     0.5410 N.pl3 1 <1>  -0.8380 
  7 N        2.5680     3.2900     0.4390 N.ar  1 <1>  -0.6200 
  8 C        3.7480     2.8150     0.0410 C.ar  1 <1>   0.7200 
  9 C        2.8360    -1.8330     0.3190 C.3   1 <1>   0.2090 
 10 C        5.1380    -1.0360     0.2320 C.3   1 <1>   0.2090 
 11 N        4.6550     3.7370    -0.4340 N.pl3 1 <1>  -0.8380 
 12 C        3.7140    -2.8930    -0.3350 C.3   1 <1>  -0.1600 
 13 C        5.1310    -2.5540     0.1190 C.3   1 <1>  -0.1600 
 14 C        5.8160     3.3210    -1.2660 C.3   1 <1>   0.3900 
 15 C        4.6890     5.1260     0.0890 C.3   1 <1>   0.2090 
 16 C        7.0880     3.2890    -0.4390 C.2   1 <1>  -0.1810 
 17 C        4.1000     6.0700    -0.9540 C.3   1 <1>  -0.2400 
 18 C        7.2810     2.5530     0.7240 C.2   1 <1>   0.1390 
 19 C        8.2620     3.9290    -0.6340 C.2   1 <1>  -0.3020 
 20 N        8.4740     2.7110     1.2140 N.2   1 <1>  -0.7070 
 21 N        9.0820     3.5650     0.3720 N.pl3 1 <1>   0.3140 
 22 C       10.4720     4.0140     0.5870 C.3   1 <1>   0.0960 
 23 C       11.4430     3.2810    -0.3470 C.3   1 <1>  -0.2400 
 24 H        0.7510     2.7310     1.2310 H     1 <1>   0.1500 
 25 H        2.0050    -1.5700    -0.3130 H     1 <1>   0.0800 
 26 H        2.4740    -2.1810     1.2710 H     1 <1>   0.0800 
 27 H        5.7990    -0.6950     1.0100 H     1 <1>   0.0800 
 28 H        5.4250    -0.5940    -0.7070 H     1 <1>   0.0800 
 29 H        3.6400    -2.7940    -1.4030 H     1 <1>   0.0800 
 30 H        3.4180    -3.8870    -0.0510 H     1 <1>   0.0800 
 31 H        5.3160    -2.9740     1.0920 H     1 <1>   0.0800 
 32 H        5.8800    -2.9060    -0.5670 H     1 <1>   0.0800 
 33 H        5.9340     4.0180    -2.0760 H     1 <1>   0.0800 
 34 H        5.6470     2.3510    -1.7030 H     1 <1>   0.0800 
 35 H        5.7030     5.4110     0.3160 H     1 <1>   0.0800 
 36 H        4.1220     5.1940     1.0020 H     1 <1>   0.0800 
 37 H        4.6850     6.0520    -1.8550 H     1 <1>   0.0800 
 38 H        4.0900     7.0730    -0.5690 H     1 <1>   0.0800 
 39 H        3.0890     5.7780    -1.1770 H     1 <1>   0.0800 
 40 H        6.5290     1.9250     1.1730 H     1 <1>   0.1500 
 41 H        8.5570     4.6050    -1.4140 H     1 <1>   0.1500 
 42 H       10.7310     3.8190     1.6120 H     1 <1>   0.0800 
 43 H       10.5180     5.0740     0.4180 H     1 <1>   0.0800 
 44 H       11.3920     2.2200    -0.1690 H     1 <1>   0.0800 
 45 H       12.4490     3.6110    -0.1600 H     1 <1>   0.0800 
 46 H       11.2000     3.4810    -1.3750 H     1 <1>   0.0800 
@<TRIPOS>BOND
  1   1   2  1   
  2   2   3  ar  
  3   2   4  ar  
  4   3   5  ar  
  5   3   6  1   
  6   4   7  ar  
  7   4  24  1   
  8   5   8  ar  
  9   6   9  1   
 10   6  10  1   
 11   7   8  ar  
 12   8  11  1   
 13   9  12  1   
 14   9  25  1   
 15   9  26  1   
 16  10  13  1   
 17  10  27  1   
 18  10  28  1   
 19  11  14  1   
 20  11  15  1   
 21  12  13  1   
 22  12  29  1   
 23  12  30  1   
 24  13  31  1   
 25  13  32  1   
 26  14  16  1   
 27  14  33  1   
 28  14  34  1   
 29  15  17  1   
 30  15  35  1   
 31  15  36  1   
 32  16  18  1   
 33  16  19  2   
 34  17  37  1   
 35  17  38  1   
 36  17  39  1   
 37  18  20  2   
 38  18  40  1   
 39  19  21  1   
 40  19  41  1   
 41  20  21  1   
 42  21  22  1   
 43  22  23  1   
 44  22  42  1   
 45  22  43  1   
 46  23  44  1   
 47  23  45  1   
 48  23  46  1   
@<TRIPOS>SUBSTRUCTURE
  1 ****   5 GROUP 4 **** **** 0

# MOE 2024.06 (io_trps.svl 2023.06)
