@<TRIPOS>MOLECULE
NONAME
55 57 1 0 0 
SMALL
USER_CHARGES


@<TRIPOS>ATOM
  1 O        0.0770     0.9390    -1.2690 O.2   1 <1>  -0.5700 
  2 C       -0.0570     2.0610    -0.8380 C.2   1 <1>   0.5690 
  3 N       -1.1430     2.4410    -0.0920 N.am  1 <1>  -0.6600 
  4 C        1.0370     3.0740    -1.1690 C.3   1 <1>   0.1810 
  5 C       -1.3040     3.8860     0.3310 C.3   1 <1>   0.3640 
  6 C       -2.0530     1.3910     0.4670 C.3   1 <1>   0.2200 
  7 O        1.0670     4.1500    -0.2690 O.3   1 <1>  -0.5600 
  8 C       -2.6320     4.4510    -0.1810 C.ar  1 <1>  -0.1440 
  9 C       -0.1680     4.8280    -0.1590 C.3   1 <1>   0.2610 
 10 C       -3.3220     1.2600    -0.3740 C.3   1 <1>  -0.2400 
 11 C       -2.3870     1.6290     1.9410 C.3   1 <1>  -0.2400 
 12 C       -3.4800     5.1220     0.6880 C.ar  1 <1>  -0.1500 
 13 C       -2.9990     4.3240    -1.5150 C.ar  1 <1>  -0.1500 
 14 C       -0.0220     6.0870     0.7220 C.2   1 <1>   0.5690 
 15 C       -4.6760     5.6520     0.2350 C.ar  1 <1>  -0.1500 
 16 C       -4.1930     4.8540    -1.9700 C.ar  1 <1>  -0.1500 
 17 O       -0.6400     6.1500     1.7630 O.2   1 <1>  -0.5700 
 18 N        0.7810     7.1370     0.3340 N.am  1 <1>  -0.6600 
 19 C       -5.0330     5.5180    -1.0950 C.ar  1 <1>  -0.1500 
 20 C        0.9760     8.2970     1.2620 C.3   1 <1>   0.3200 
 21 C        1.5760     7.1660    -0.9330 C.3   1 <1>   0.0600 
 22 C        2.3860     8.8630     1.2070 C.2   1 <1>  -0.0400 
 23 O        3.4030     8.1310     1.5770 O.3   1 <1>  -0.0190 
 24 C        2.8580    10.0600     0.8250 C.2   1 <1>  -0.1500 
 25 N        4.5300     8.7710     1.4570 N.2   1 <1>  -0.4100 
 26 C        4.2330     9.9380     1.0070 C.2   1 <1>   0.1080 
 27 C        5.2520    11.0260     0.7200 C.3   1 <1>   0.0210 
 28 C        5.4720    11.2010    -0.7860 C.3   1 <1>  -0.2400 
 29 H        0.8890     3.4570    -2.1620 H     1 <1>   0.0800 
 30 H        1.9940     2.5870    -1.1240 H     1 <1>   0.0800 
 31 H       -1.3020     3.9060     1.4050 H     1 <1>   0.0800 
 32 H       -1.5420     0.4430     0.4160 H     1 <1>   0.0800 
 33 H       -0.4270     5.1660    -1.1440 H     1 <1>   0.0800 
 34 H       -3.9680     2.1080    -0.2420 H     1 <1>   0.0800 
 35 H       -3.8630     0.3830    -0.0730 H     1 <1>   0.0800 
 36 H       -3.0660     1.1570    -1.4130 H     1 <1>   0.0800 
 37 H       -3.0130     2.4930     2.0650 H     1 <1>   0.0800 
 38 H       -1.4830     1.7440     2.5120 H     1 <1>   0.0800 
 39 H       -2.9200     0.7790     2.3270 H     1 <1>   0.0800 
 40 H       -3.2120     5.2420     1.7240 H     1 <1>   0.1500 
 41 H       -2.3600     3.8000    -2.2050 H     1 <1>   0.1500 
 42 H       -5.3260     6.1700     0.9180 H     1 <1>   0.1500 
 43 H       -4.4710     4.7460    -3.0040 H     1 <1>   0.1500 
 44 H       -5.9630     5.9300    -1.4470 H     1 <1>   0.1500 
 45 H        0.2740     9.0670     0.9980 H     1 <1>   0.0800 
 46 H        0.7760     8.0000     2.2770 H     1 <1>   0.0800 
 47 H        1.5830     8.1630    -1.3400 H     1 <1>   0.0800 
 48 H        1.1650     6.5060    -1.6740 H     1 <1>   0.0800 
 49 H        2.5890     6.8650    -0.7280 H     1 <1>   0.0800 
 50 H        2.3370    10.9260     0.4610 H     1 <1>   0.1500 
 51 H        4.9110    11.9500     1.1510 H     1 <1>   0.0800 
 52 H        6.1830    10.7640     1.1910 H     1 <1>   0.0800 
 53 H        4.5550    11.4860    -1.2690 H     1 <1>   0.0800 
 54 H        5.8180    10.2770    -1.2150 H     1 <1>   0.0800 
 55 H        6.2110    11.9630    -0.9650 H     1 <1>   0.0800 
@<TRIPOS>BOND
  1   1   2  2   
  2   2   3  am  
  3   2   4  1   
  4   3   5  1   
  5   3   6  1   
  6   4   7  1   
  7   4  29  1   
  8   4  30  1   
  9   5   8  1   
 10   5   9  1   
 11   5  31  1   
 12   6  10  1   
 13   6  11  1   
 14   6  32  1   
 15   7   9  1   
 16   8  12  ar  
 17   8  13  ar  
 18   9  14  1   
 19   9  33  1   
 20  10  34  1   
 21  10  35  1   
 22  10  36  1   
 23  11  37  1   
 24  11  38  1   
 25  11  39  1   
 26  12  15  ar  
 27  12  40  1   
 28  13  16  ar  
 29  13  41  1   
 30  14  17  2   
 31  14  18  am  
 32  15  19  ar  
 33  15  42  1   
 34  16  19  ar  
 35  16  43  1   
 36  18  20  1   
 37  18  21  1   
 38  19  44  1   
 39  20  22  1   
 40  20  45  1   
 41  20  46  1   
 42  21  47  1   
 43  21  48  1   
 44  21  49  1   
 45  22  23  1   
 46  22  24  2   
 47  23  25  1   
 48  24  26  1   
 49  24  50  1   
 50  25  26  2   
 51  26  27  1   
 52  27  28  1   
 53  27  51  1   
 54  27  52  1   
 55  28  53  1   
 56  28  54  1   
 57  28  55  1   
@<TRIPOS>SUBSTRUCTURE
  1 ****  14 GROUP 4 **** **** 0

# MOE 2024.06 (io_trps.svl 2023.06)
