@<TRIPOS>MOLECULE
NONAME
43 44 1 0 0 
SMALL
USER_CHARGES


@<TRIPOS>ATOM
  1 O        3.6250     0.2690    -0.5820 O.2   1 <1>  -0.5700 
  2 C        2.6380    -0.2010    -0.0470 C.2   1 <1>   0.5440 
  3 N        1.8270     0.6390     0.6670 N.am  1 <1>  -0.7300 
  4 C        2.3240    -1.6140    -0.1680 C.ar  1 <1>   0.0860 
  5 C        2.0430     2.0980     0.8010 C.3   1 <1>   0.1400 
  6 C        2.7290    -2.3430    -1.2860 C.ar  1 <1>  -0.1500 
  7 C        1.6110    -2.3030     0.8160 C.ar  1 <1>  -0.1500 
  8 C        3.0200     2.3690     1.9420 C.3   1 <1>  -0.0990 
  9 C        2.4290    -3.6860    -1.4250 C.ar  1 <1>  -0.1500 
 10 C        1.3070    -3.6460     0.6810 C.ar  1 <1>  -0.1500 
 11 C        3.5670     3.7730     1.8180 C.2   1 <1>   0.5690 
 12 C        1.7110    -4.3460    -0.4420 C.ar  1 <1>  -0.1430 
 13 O        3.0120     4.6500     2.4350 O.2   1 <1>  -0.5700 
 14 N        4.6400     4.0250     1.0090 N.am  1 <1>  -0.6600 
 15 C        1.3810    -5.8200    -0.5920 C.3   1 <1>  -0.0970 
 16 C        5.2020     5.3860     0.8260 C.3   1 <1>   0.1400 
 17 C        5.3320     3.0520     0.1280 C.3   1 <1>   0.1400 
 18 C        6.0690     5.2920    -0.4280 C.3   1 <1>   0.2000 
 19 C        6.4890     3.8260    -0.4970 C.3   1 <1>  -0.1600 
 20 O        7.1840     6.1200    -0.3000 O.3   1 <1>  -0.5600 
 21 C        7.8890     6.3410    -1.4800 C.3   1 <1>   0.0400 
 22 H        0.9570     0.2780     1.0610 H     1 <1>   0.3700 
 23 H        1.1080     2.5980     0.9860 H     1 <1>   0.0800 
 24 H        2.4450     2.4760    -0.1240 H     1 <1>   0.0800 
 25 H        3.2900    -1.8430    -2.0570 H     1 <1>   0.1500 
 26 H        1.2960    -1.7870     1.7040 H     1 <1>   0.1500 
 27 H        3.8320     1.6680     1.9200 H     1 <1>   0.0800 
 28 H        2.5140     2.2700     2.8840 H     1 <1>   0.0800 
 29 H        2.7580    -4.2160    -2.3020 H     1 <1>   0.1500 
 30 H        0.7560    -4.1490     1.4580 H     1 <1>   0.1500 
 31 H        1.2680    -6.0760    -1.6300 H     1 <1>   0.0800 
 32 H        0.4630    -6.0540    -0.0840 H     1 <1>   0.0800 
 33 H        2.1720    -6.4140    -0.1710 H     1 <1>   0.0800 
 34 H        5.8060     5.6340     1.6820 H     1 <1>   0.0800 
 35 H        4.4160     6.1100     0.7050 H     1 <1>   0.0800 
 36 H        4.6530     2.7160    -0.6380 H     1 <1>   0.0800 
 37 H        5.6890     2.2040     0.6870 H     1 <1>   0.0800 
 38 H        5.4910     5.5850    -1.2870 H     1 <1>   0.0800 
 39 H        6.6720     3.5000    -1.5040 H     1 <1>   0.0800 
 40 H        7.3700     3.6690     0.1020 H     1 <1>   0.0800 
 41 H        8.7050     7.0080    -1.2610 H     1 <1>   0.0800 
 42 H        7.2360     6.7950    -2.2060 H     1 <1>   0.0800 
 43 H        8.2770     5.4080    -1.8480 H     1 <1>   0.0800 
@<TRIPOS>BOND
  1   1   2  2   
  2   2   3  am  
  3   2   4  1   
  4   3   5  1   
  5   3  22  1   
  6   4   6  ar  
  7   4   7  ar  
  8   5   8  1   
  9   5  23  1   
 10   5  24  1   
 11   6   9  ar  
 12   6  25  1   
 13   7  10  ar  
 14   7  26  1   
 15   8  11  1   
 16   8  27  1   
 17   8  28  1   
 18   9  12  ar  
 19   9  29  1   
 20  10  12  ar  
 21  10  30  1   
 22  11  13  2   
 23  11  14  am  
 24  12  15  1   
 25  14  16  1   
 26  14  17  1   
 27  15  31  1   
 28  15  32  1   
 29  15  33  1   
 30  16  18  1   
 31  16  34  1   
 32  16  35  1   
 33  17  19  1   
 34  17  36  1   
 35  17  37  1   
 36  18  19  1   
 37  18  20  1   
 38  18  38  1   
 39  19  39  1   
 40  19  40  1   
 41  20  21  1   
 42  21  41  1   
 43  21  42  1   
 44  21  43  1   
@<TRIPOS>SUBSTRUCTURE
  1 ****   1 GROUP 4 **** **** 0

# MOE 2024.06 (io_trps.svl 2023.06)
