@<TRIPOS>MOLECULE
NONAME
48 50 1 0 0 
SMALL
USER_CHARGES


@<TRIPOS>ATOM
  1 O        0.5410     4.3560     3.2620 O.2   1 <1>  -0.5700 
  2 C        0.4810     4.4130     2.0550 C.2   1 <1>   0.5690 
  3 N       -0.6970     4.6970     1.4050 N.am  1 <1>  -0.6600 
  4 C        1.7700     4.1380     1.2890 C.3   1 <1>   0.0440 
  5 C       -1.9880     4.7790     2.1390 C.3   1 <1>   0.1400 
  6 C       -0.8750     4.7680    -0.0700 C.3   1 <1>   0.1400 
  7 C        1.7020     2.8570     0.4600 C.ar  1 <1>  -0.1440 
  8 C       -2.8680     3.5980     1.7160 C.3   1 <1>  -0.1600 
  9 C       -1.7270     3.5780    -0.5190 C.3   1 <1>  -0.1600 
 10 C        2.0650     2.8620    -0.8800 C.ar  1 <1>  -0.1500 
 11 C        1.2680     1.6750     1.0450 C.ar  1 <1>  -0.1500 
 12 C       -3.0940     3.5500     0.1930 C.3   1 <1>   0.2800 
 13 C        1.9790     1.7020    -1.6300 C.ar  1 <1>  -0.1500 
 14 C        1.1820     0.5130     0.3000 C.ar  1 <1>  -0.1500 
 15 O       -3.8040     4.7240    -0.1270 O.3   1 <1>  -0.5600 
 16 C       -3.9150     2.2960    -0.2000 C.3   1 <1>  -0.1600 
 17 C        1.5360     0.5330    -1.0390 C.ar  1 <1>   0.0820 
 18 C       -4.4340     4.7840    -1.3750 C.3   1 <1>   0.1200 
 19 C       -5.3950     2.6000    -0.4460 C.3   1 <1>   0.2800 
 20 O        1.4540    -0.5840    -1.7770 O.3   1 <1>  -0.5320 
 21 C       -5.5220     3.7040    -1.4980 C.3   1 <1>  -0.1600 
 22 O       -5.9240     3.0920     0.7180 O.3   1 <1>  -0.6800 
 23 C       -6.2020     1.3560    -0.8050 C.3   1 <1>  -0.2400 
 24 H        2.5750     4.0460     1.9950 H     1 <1>   0.0800 
 25 H        1.9870     4.9860     0.6680 H     1 <1>   0.0800 
 26 H       -2.4750     5.7090     1.9010 H     1 <1>   0.0800 
 27 H       -1.8260     4.7500     3.2030 H     1 <1>   0.0800 
 28 H        0.0680     4.7580    -0.5820 H     1 <1>   0.0800 
 29 H       -1.3750     5.6890    -0.3180 H     1 <1>   0.0800 
 30 H       -3.8100     3.6570     2.2290 H     1 <1>   0.0800 
 31 H       -2.3850     2.6940     2.0380 H     1 <1>   0.0800 
 32 H       -1.1900     2.6740    -0.2920 H     1 <1>   0.0800 
 33 H       -1.8510     3.6060    -1.5840 H     1 <1>   0.0800 
 34 H        2.4140     3.7650    -1.3490 H     1 <1>   0.1500 
 35 H        0.9920     1.6600     2.0870 H     1 <1>   0.1500 
 36 H        2.2560     1.6960    -2.6690 H     1 <1>   0.1500 
 37 H        0.8430    -0.3950     0.7640 H     1 <1>   0.1500 
 38 H       -3.8180     1.5290     0.5470 H     1 <1>   0.0800 
 39 H       -3.5100     1.8810    -1.1050 H     1 <1>   0.0800 
 40 H       -3.6900     4.6680    -2.1420 H     1 <1>   0.0800 
 41 H       -4.8710     5.7630    -1.4720 H     1 <1>   0.0800 
 42 H        1.1660    -1.3590    -1.2640 H     1 <1>   0.4500 
 43 H       -5.4390     3.2730    -2.4790 H     1 <1>   0.0800 
 44 H       -6.4980     4.1540    -1.4420 H     1 <1>   0.0800 
 45 H       -5.4450     3.9280     0.9050 H     1 <1>   0.4000 
 46 H       -5.8280     0.9180    -1.7120 H     1 <1>   0.0800 
 47 H       -7.2350     1.6130    -0.9500 H     1 <1>   0.0800 
 48 H       -6.1280     0.6260    -0.0190 H     1 <1>   0.0800 
@<TRIPOS>BOND
  1   1   2  2   
  2   2   3  am  
  3   2   4  1   
  4   3   5  1   
  5   3   6  1   
  6   4   7  1   
  7   4  24  1   
  8   4  25  1   
  9   5   8  1   
 10   5  26  1   
 11   5  27  1   
 12   6   9  1   
 13   6  28  1   
 14   6  29  1   
 15   7  10  ar  
 16   7  11  ar  
 17   8  12  1   
 18   8  30  1   
 19   8  31  1   
 20   9  12  1   
 21   9  32  1   
 22   9  33  1   
 23  10  13  ar  
 24  10  34  1   
 25  11  14  ar  
 26  11  35  1   
 27  12  15  1   
 28  12  16  1   
 29  13  17  ar  
 30  13  36  1   
 31  14  17  ar  
 32  14  37  1   
 33  15  18  1   
 34  16  19  1   
 35  16  38  1   
 36  16  39  1   
 37  17  20  1   
 38  18  21  1   
 39  18  40  1   
 40  18  41  1   
 41  19  21  1   
 42  19  22  1   
 43  19  23  1   
 44  20  42  1   
 45  21  43  1   
 46  21  44  1   
 47  22  45  1   
 48  23  46  1   
 49  23  47  1   
 50  23  48  1   
@<TRIPOS>SUBSTRUCTURE
  1 ****   9 GROUP 4 **** **** 0

# MOE 2024.06 (io_trps.svl 2023.06)
