@<TRIPOS>MOLECULE
NONAME
52 54 1 0 0 
SMALL
USER_CHARGES


@<TRIPOS>ATOM
  1 O        3.4750    -2.6190    -1.8760 O.2   1 <1>  -0.5700 
  2 C        2.6490    -2.5610    -0.9820 C.2   1 <1>   0.5440 
  3 N        1.8060    -1.4670    -0.9470 N.am  1 <1>  -0.6600 
  4 C        2.6040    -3.6360     0.0040 C.ar  1 <1>   0.3960 
  5 C        0.9270    -1.1010     0.1870 C.3   1 <1>   0.1400 
  6 C        1.9010    -0.3540    -1.9210 C.3   1 <1>   0.1400 
  7 N        1.4300    -4.1800     0.3760 N.ar  1 <1>  -0.6200 
  8 C        3.8170    -4.0890     0.5270 C.ar  1 <1>   0.1600 
  9 C        0.3080     0.2360    -0.2080 C.3   1 <1>  -0.1600 
 10 C        1.2920     0.8440    -1.2020 C.3   1 <1>  -0.1600 
 11 C        1.5500    -5.1640     1.2470 C.ar  1 <1>   0.4100 
 12 N        3.9530    -5.0580     1.4210 N.ar  1 <1>  -0.6200 
 13 N        0.3770    -5.7900     1.6370 N.pl3 1 <1>  -0.8690 
 14 C        2.7910    -5.5760     1.7580 C.ar  1 <1>   0.1600 
 15 C       -0.9740    -5.4020     1.0920 C.3   1 <1>   0.2890 
 16 C       -2.0130    -6.4310     1.5340 C.3   1 <1>   0.2000 
 17 C       -1.0550    -5.5240    -0.4500 C.3   1 <1>   0.3430 
 18 O       -3.3010    -5.9300     1.2950 O.3   1 <1>  -0.5600 
 19 C       -1.7650    -7.5680     0.5420 C.3   1 <1>   0.3430 
 20 N       -1.5600    -6.9020    -0.7830 N.4   1 <1>  -0.9590 
 21 C       -3.8810    -5.2460     2.3660 C.3   1 <1>   0.0400 
 22 C       -0.7400    -7.6190    -1.7890 C.3   1 <1>   0.4230 
 23 C       -1.4840    -8.8800    -2.2150 C.3   1 <1>  -0.2400 
 24 C        0.6550    -7.9590    -1.2620 C.3   1 <1>  -0.2400 
 25 H        0.1670    -1.8460     0.3450 H     1 <1>   0.0800 
 26 H        1.5230    -0.9900     1.0770 H     1 <1>   0.0800 
 27 H        2.9240    -0.1670    -2.2030 H     1 <1>   0.0800 
 28 H        1.3270    -0.6050    -2.7960 H     1 <1>   0.0800 
 29 H        4.7210    -3.6180     0.1780 H     1 <1>   0.1500 
 30 H       -0.6350     0.0560    -0.6940 H     1 <1>   0.0800 
 31 H        0.1450     0.8700     0.6460 H     1 <1>   0.0800 
 32 H        2.0710     1.3660    -0.6750 H     1 <1>   0.0800 
 33 H        0.8180     1.5220    -1.8890 H     1 <1>   0.0800 
 34 H        0.3620    -6.0180     2.6370 H     1 <1>   0.4000 
 35 H        2.8010    -6.3790     2.4710 H     1 <1>   0.1500 
 36 H       -1.2180    -4.4070     1.4220 H     1 <1>   0.0800 
 37 H       -1.9200    -6.7450     2.5590 H     1 <1>   0.0800 
 38 H       -0.0970    -5.3360    -0.9030 H     1 <1>   0.0800 
 39 H       -1.7560    -4.7940    -0.8180 H     1 <1>   0.0800 
 40 H       -2.5910    -8.2590     0.5230 H     1 <1>   0.0800 
 41 H       -0.8690    -8.0880     0.8350 H     1 <1>   0.0800 
 42 H       -2.5030    -6.7720    -1.1760 H     1 <1>   0.4500 
 43 H       -4.8510    -4.8960     2.0560 H     1 <1>   0.0800 
 44 H       -3.2670    -4.4060     2.6410 H     1 <1>   0.0800 
 45 H       -3.9970    -5.9180     3.2000 H     1 <1>   0.0800 
 46 H       -0.6280    -6.9860    -2.6560 H     1 <1>   0.0800 
 47 H       -1.5780    -9.5770    -1.4010 H     1 <1>   0.0800 
 48 H       -0.9390    -9.3670    -3.0040 H     1 <1>   0.0800 
 49 H       -2.4600    -8.6340    -2.5940 H     1 <1>   0.0800 
 50 H        0.6180    -8.6520    -0.4420 H     1 <1>   0.0800 
 51 H        1.1850    -7.0740    -0.9610 H     1 <1>   0.0800 
 52 H        1.2260    -8.4200    -2.0480 H     1 <1>   0.0800 
@<TRIPOS>BOND
  1   1   2  2   
  2   2   3  am  
  3   2   4  1   
  4   3   5  1   
  5   3   6  1   
  6   4   7  ar  
  7   4   8  ar  
  8   5   9  1   
  9   5  25  1   
 10   5  26  1   
 11   6  10  1   
 12   6  27  1   
 13   6  28  1   
 14   7  11  ar  
 15   8  12  ar  
 16   8  29  1   
 17   9  10  1   
 18   9  30  1   
 19   9  31  1   
 20  10  32  1   
 21  10  33  1   
 22  11  13  1   
 23  11  14  ar  
 24  12  14  ar  
 25  13  15  1   
 26  13  34  1   
 27  14  35  1   
 28  15  16  1   
 29  15  17  1   
 30  15  36  1   
 31  16  18  1   
 32  16  19  1   
 33  16  37  1   
 34  17  20  1   
 35  17  38  1   
 36  17  39  1   
 37  18  21  1   
 38  19  20  1   
 39  19  40  1   
 40  19  41  1   
 41  20  22  1   
 42  20  42  1   
 43  21  43  1   
 44  21  44  1   
 45  21  45  1   
 46  22  23  1   
 47  22  24  1   
 48  22  46  1   
 49  23  47  1   
 50  23  48  1   
 51  23  49  1   
 52  24  50  1   
 53  24  51  1   
 54  24  52  1   
@<TRIPOS>SUBSTRUCTURE
  1 ****   7 GROUP 4 **** **** 0

# MOE 2024.06 (io_trps.svl 2023.06)
