@<TRIPOS>MOLECULE
NONAME
54 57 1 0 0 
SMALL
USER_CHARGES


@<TRIPOS>ATOM
  1 O        2.5240    -1.0300     1.9780 O.co2 1 <1>  -0.9000 
  2 C        1.7630    -0.1560     1.5310 C.2   1 <1>   0.9060 
  3 O        0.6480     0.0260     2.0170 O.co2 1 <1>  -0.9000 
  4 C        2.1680     0.6440     0.2750 C.3   1 <1>  -0.1060 
  5 C        3.4340     0.0330    -0.3550 C.3   1 <1>   0.4230 
  6 C        2.4320     2.1170     0.7040 C.3   1 <1>  -0.1600 
  7 C        1.0700     0.5690    -0.8260 C.3   1 <1>  -0.1600 
  8 N        3.2700    -1.4520    -0.4970 N.4   1 <1>  -0.9590 
  9 C        4.6930     0.5070     0.4050 C.3   1 <1>   0.1100 
 10 C        3.6400     2.7450    -0.0030 C.3   1 <1>   0.1100 
 11 C        1.2000    -0.6880    -1.7190 C.3   1 <1>  -0.1600 
 12 C        1.9240    -1.8550    -1.0270 C.3   1 <1>   0.3430 
 13 C        4.4030    -2.1750    -1.1250 C.3   1 <1>   0.2630 
 14 N        4.8810     1.9770     0.2710 N.3   1 <1>  -0.8100 
 15 C        5.9670     2.3390    -0.6640 C.3   1 <1>   0.2900 
 16 C        6.2660     3.8320    -0.6760 C.2   1 <1>  -0.0400 
 17 O        6.4320     4.4030    -1.8660 O.3   1 <1>  -0.2800 
 18 C        6.4040     4.7340     0.3190 C.2   1 <1>  -0.1810 
 19 C        6.6730     5.6970    -1.6560 C.ar  1 <1>   0.1400 
 20 C        6.6690     5.9740    -0.3020 C.ar  1 <1>   0.0000 
 21 C        6.3100     4.5510     1.8230 C.3   1 <1>  -0.0590 
 22 C        6.9020     6.6820    -2.6060 C.ar  1 <1>  -0.1500 
 23 C        6.9010     7.2800     0.1290 C.ar  1 <1>  -0.1500 
 24 C        7.1300     7.9720    -2.1690 C.ar  1 <1>  -0.1500 
 25 C        7.1310     8.2750    -0.8030 C.ar  1 <1>  -0.1430 
 26 C        7.3860     9.7050    -0.3660 C.3   1 <1>  -0.0970 
 27 H        3.5250     0.4400    -1.3460 H     1 <1>   0.0800 
 28 H        2.6280     2.1560     1.7630 H     1 <1>   0.0800 
 29 H        1.5540     2.7160     0.5390 H     1 <1>   0.0800 
 30 H        0.0990     0.5830    -0.3590 H     1 <1>   0.0800 
 31 H        1.1210     1.4380    -1.4590 H     1 <1>   0.0800 
 32 H        3.2040    -1.7130     0.5250 H     1 <1>   0.4500 
 33 H        5.5670    -0.0050     0.0500 H     1 <1>   0.0800 
 34 H        4.5780     0.2790     1.4510 H     1 <1>   0.0800 
 35 H        3.7650     3.7570     0.3440 H     1 <1>   0.0800 
 36 H        3.4530     2.7810    -1.0630 H     1 <1>   0.0800 
 37 H        1.7360    -0.4400    -2.6180 H     1 <1>   0.0800 
 38 H        0.2170    -1.0110    -2.0150 H     1 <1>   0.0800 
 39 H        2.0220    -2.6840    -1.7070 H     1 <1>   0.0800 
 40 H        1.3150    -2.1790    -0.1950 H     1 <1>   0.0800 
 41 H        4.5160    -1.8680    -2.1520 H     1 <1>   0.0800 
 42 H        4.2240    -3.2370    -1.0950 H     1 <1>   0.0800 
 43 H        5.3170    -1.9700    -0.5940 H     1 <1>   0.0800 
 44 H        6.8690     1.8210    -0.3880 H     1 <1>   0.0800 
 45 H        5.6940     2.0330    -1.6590 H     1 <1>   0.0800 
 46 H        7.2190     4.8840     2.2890 H     1 <1>   0.0800 
 47 H        6.1550     3.5170     2.0710 H     1 <1>   0.0800 
 48 H        5.4870     5.1240     2.2090 H     1 <1>   0.0800 
 49 H        6.8970     6.4270    -3.6490 H     1 <1>   0.1500 
 50 H        6.8980     7.4900     1.1830 H     1 <1>   0.1500 
 51 H        7.3090     8.7540    -2.8860 H     1 <1>   0.1500 
 52 H        8.3520    10.0270    -0.7130 H     1 <1>   0.0800 
 53 H        7.3610     9.7900     0.7060 H     1 <1>   0.0800 
 54 H        6.6340    10.3530    -0.7780 H     1 <1>   0.0800 
@<TRIPOS>BOND
  1   1   2  ar  
  2   2   3  ar  
  3   2   4  1   
  4   4   5  1   
  5   4   6  1   
  6   4   7  1   
  7   5   8  1   
  8   5   9  1   
  9   5  27  1   
 10   6  10  1   
 11   6  28  1   
 12   6  29  1   
 13   7  11  1   
 14   7  30  1   
 15   7  31  1   
 16   8  12  1   
 17   8  13  1   
 18   8  32  1   
 19   9  14  1   
 20   9  33  1   
 21   9  34  1   
 22  10  14  1   
 23  10  35  1   
 24  10  36  1   
 25  11  12  1   
 26  11  37  1   
 27  11  38  1   
 28  12  39  1   
 29  12  40  1   
 30  13  41  1   
 31  13  42  1   
 32  13  43  1   
 33  14  15  1   
 34  15  16  1   
 35  15  44  1   
 36  15  45  1   
 37  16  17  1   
 38  16  18  2   
 39  17  19  1   
 40  18  20  1   
 41  18  21  1   
 42  19  20  ar  
 43  19  22  ar  
 44  20  23  ar  
 45  21  46  1   
 46  21  47  1   
 47  21  48  1   
 48  22  24  ar  
 49  22  49  1   
 50  23  25  ar  
 51  23  50  1   
 52  24  25  ar  
 53  24  51  1   
 54  25  26  1   
 55  26  52  1   
 56  26  53  1   
 57  26  54  1   
@<TRIPOS>SUBSTRUCTURE
  1 ****  10 GROUP 4 **** **** 0

# MOE 2024.06 (io_trps.svl 2023.06)
