@<TRIPOS>MOLECULE
NONAME
54 56 1 0 0 
SMALL
USER_CHARGES


@<TRIPOS>ATOM
  1 O       -0.1990     1.4070    -1.2200 O.2   1 <1>  -0.5700 
  2 C       -0.5680     2.5480    -1.0700 C.2   1 <1>   0.5690 
  3 N       -1.2970     2.9810     0.0090 N.am  1 <1>  -0.6600 
  4 C       -0.2040     3.5560    -2.1560 C.3   1 <1>   0.1810 
  5 C       -1.7420     4.4130     0.1030 C.3   1 <1>   0.3640 
  6 C       -1.6490     2.1420     1.1890 C.3   1 <1>   0.2200 
  7 O        0.0100     4.8350    -1.6200 O.3   1 <1>  -0.5600 
  8 C       -3.2690     4.4730     0.0130 C.ar  1 <1>  -0.1440 
  9 C       -1.1220     5.3770    -0.9500 C.3   1 <1>   0.2610 
 10 C       -0.3810     1.7210     1.9290 C.3   1 <1>  -0.2400 
 11 C       -2.5030     0.9390     0.7860 C.3   1 <1>  -0.2400 
 12 C       -3.9650     3.7570    -0.9530 C.ar  1 <1>  -0.1500 
 13 C       -3.9820     5.2630     0.9040 C.ar  1 <1>  -0.1500 
 14 C       -0.7500     6.7030    -0.2740 C.2   1 <1>   0.5690 
 15 C       -5.3460     3.8250    -1.0230 C.ar  1 <1>  -0.1500 
 16 C       -5.3620     5.3330     0.8350 C.ar  1 <1>  -0.1500 
 17 O       -1.5790     7.2970     0.3740 O.2   1 <1>  -0.5700 
 18 N        0.5170     7.1780    -0.4090 N.am  1 <1>  -0.7300 
 19 C       -6.0460     4.6140    -0.1290 C.ar  1 <1>  -0.1500 
 20 C        1.0460     8.4220     0.1630 C.3   1 <1>   0.2200 
 21 C        1.5730     9.3050    -0.9740 C.3   1 <1>  -0.1600 
 22 C        2.1540     8.0750     1.1630 C.3   1 <1>  -0.1600 
 23 C        2.2380    10.5790    -0.4260 C.3   1 <1>  -0.1600 
 24 C        2.8210     9.3450     1.7170 C.3   1 <1>  -0.1600 
 25 C        3.3390    10.2310     0.5800 C.3   1 <1>   0.2000 
 26 O        3.8130    11.4020     1.1250 O.3   1 <1>  -0.6800 
 27 H       -0.9880     3.6090    -2.8880 H     1 <1>   0.0800 
 28 H        0.7060     3.2460    -2.6370 H     1 <1>   0.0800 
 29 H       -1.4500     4.7680     1.0770 H     1 <1>   0.0800 
 30 H       -2.2390     2.7350     1.8680 H     1 <1>   0.0800 
 31 H       -1.8570     5.5970    -1.7030 H     1 <1>   0.0800 
 32 H        0.2180     1.0660     1.3220 H     1 <1>   0.0800 
 33 H       -0.6430     1.1960     2.8300 H     1 <1>   0.0800 
 34 H        0.1990     2.5850     2.1960 H     1 <1>   0.0800 
 35 H       -1.9480     0.2540     0.1720 H     1 <1>   0.0800 
 36 H       -3.3780     1.2650     0.2550 H     1 <1>   0.0800 
 37 H       -2.8220     0.4120     1.6660 H     1 <1>   0.0800 
 38 H       -3.4390     3.1330    -1.6540 H     1 <1>   0.1500 
 39 H       -3.4680     5.8380     1.6560 H     1 <1>   0.1500 
 40 H       -5.8760     3.2640    -1.7730 H     1 <1>   0.1500 
 41 H       -5.9040     5.9510     1.5300 H     1 <1>   0.1500 
 42 H        1.1660     6.6130    -0.9640 H     1 <1>   0.3700 
 43 H       -7.1190     4.6690    -0.1820 H     1 <1>   0.1500 
 44 H        0.2570     8.9460     0.6790 H     1 <1>   0.0800 
 45 H        2.2940     8.7550    -1.5530 H     1 <1>   0.0800 
 46 H        0.7560     9.5800    -1.6180 H     1 <1>   0.0800 
 47 H        1.7330     7.5110     1.9770 H     1 <1>   0.0800 
 48 H        2.9010     7.4700     0.6790 H     1 <1>   0.0800 
 49 H        1.4870    11.1840     0.0510 H     1 <1>   0.0800 
 50 H        2.6630    11.1380    -1.2410 H     1 <1>   0.0800 
 51 H        3.6420     9.0680     2.3560 H     1 <1>   0.0800 
 52 H        2.1000     9.8890     2.3020 H     1 <1>   0.0800 
 53 H        4.1610     9.7470     0.0780 H     1 <1>   0.0800 
 54 H        3.0930    11.8700     1.5860 H     1 <1>   0.4000 
@<TRIPOS>BOND
  1   1   2  2   
  2   2   3  am  
  3   2   4  1   
  4   3   5  1   
  5   3   6  1   
  6   4   7  1   
  7   4  27  1   
  8   4  28  1   
  9   5   8  1   
 10   5   9  1   
 11   5  29  1   
 12   6  10  1   
 13   6  11  1   
 14   6  30  1   
 15   7   9  1   
 16   8  12  ar  
 17   8  13  ar  
 18   9  14  1   
 19   9  31  1   
 20  10  32  1   
 21  10  33  1   
 22  10  34  1   
 23  11  35  1   
 24  11  36  1   
 25  11  37  1   
 26  12  15  ar  
 27  12  38  1   
 28  13  16  ar  
 29  13  39  1   
 30  14  17  2   
 31  14  18  am  
 32  15  19  ar  
 33  15  40  1   
 34  16  19  ar  
 35  16  41  1   
 36  18  20  1   
 37  18  42  1   
 38  19  43  1   
 39  20  21  1   
 40  20  22  1   
 41  20  44  1   
 42  21  23  1   
 43  21  45  1   
 44  21  46  1   
 45  22  24  1   
 46  22  47  1   
 47  22  48  1   
 48  23  25  1   
 49  23  49  1   
 50  23  50  1   
 51  24  25  1   
 52  24  51  1   
 53  24  52  1   
 54  25  26  1   
 55  25  53  1   
 56  26  54  1   
@<TRIPOS>SUBSTRUCTURE
  1 ****   9 GROUP 4 **** **** 0

# MOE 2024.06 (io_trps.svl 2023.06)
