@<TRIPOS>MOLECULE
NONAME
55 57 1 0 0 
SMALL
USER_CHARGES


@<TRIPOS>ATOM
  1 S       -1.2690     0.1770     0.4840 S.o2  1 <1>   1.3330 
  2 O       -2.1650     1.2920     0.2920 O.2   1 <1>  -0.6500 
  3 O        0.1520     0.3550     0.3180 O.2   1 <1>  -0.6500 
  4 N       -1.7810    -1.0660    -0.6090 N.am  1 <1>  -0.6930 
  5 C       -1.5720    -0.5470     2.0820 C.3   1 <1>  -0.1350 
  6 C       -1.0340    -2.2190    -0.8300 C.ar  1 <1>   0.1990 
  7 C       -3.1750    -0.9650    -1.1460 C.3   1 <1>   0.2570 
  8 C       -1.5280    -3.4700    -0.4770 C.ar  1 <1>  -0.1500 
  9 C        0.2270    -2.1440    -1.4190 C.ar  1 <1>  -0.1500 
 10 C       -4.2840    -0.9960    -0.0770 C.2   1 <1>   0.5690 
 11 C       -0.7610    -4.5900    -0.7210 C.ar  1 <1>   0.1900 
 12 C        0.9860    -3.2790    -1.6560 C.ar  1 <1>  -0.1500 
 13 O       -4.2570    -1.9090     0.7190 O.2   1 <1>  -0.5700 
 14 N       -5.2840    -0.0510    -0.0280 N.am  1 <1>  -0.6600 
 15 F       -1.2320    -5.7610    -0.3870 F     1 <1>  -0.1900 
 16 C        0.4900    -4.5230    -1.3050 C.ar  1 <1>  -0.1500 
 17 C       -6.4290    -0.2240     0.9180 C.3   1 <1>   0.1400 
 18 C       -5.3080     1.1830    -0.8770 C.3   1 <1>   0.1400 
 19 C       -7.7200     0.2670     0.2620 C.3   1 <1>  -0.1600 
 20 C       -6.2090     2.2500    -0.2550 C.3   1 <1>  -0.1600 
 21 C       -7.6660     1.7690    -0.1230 C.3   1 <1>   0.2800 
 22 O       -8.2220     1.9130    -1.4040 O.3   1 <1>  -0.5600 
 23 C       -8.4200     2.6870     0.8790 C.3   1 <1>  -0.1600 
 24 C       -9.5780     1.5890    -1.5890 C.3   1 <1>   0.1200 
 25 C       -9.7570     3.2190     0.3510 C.3   1 <1>   0.2800 
 26 C      -10.4630     2.1330    -0.4550 C.3   1 <1>  -0.1600 
 27 O       -9.4760     4.2470    -0.5110 O.3   1 <1>  -0.6800 
 28 C      -10.6350     3.7960     1.4570 C.3   1 <1>  -0.2400 
 29 H       -1.2350     0.1160     2.8530 H     1 <1>   0.0800 
 30 H       -1.0450    -1.4770     2.1730 H     1 <1>   0.0800 
 31 H       -2.6180    -0.7280     2.2230 H     1 <1>   0.0800 
 32 H       -3.3510    -1.7900    -1.8120 H     1 <1>   0.0800 
 33 H       -3.2410    -0.0720    -1.7350 H     1 <1>   0.0800 
 34 H       -2.4910    -3.5740    -0.0140 H     1 <1>   0.1500 
 35 H        0.6160    -1.1790    -1.6940 H     1 <1>   0.1500 
 36 H        1.9580    -3.1920    -2.1110 H     1 <1>   0.1500 
 37 H        1.0560    -5.4210    -1.4770 H     1 <1>   0.1500 
 38 H       -6.2310     0.3310     1.8200 H     1 <1>   0.0800 
 39 H       -6.5390    -1.2620     1.1820 H     1 <1>   0.0800 
 40 H       -5.6760     0.9340    -1.8590 H     1 <1>   0.0800 
 41 H       -4.3170     1.5900    -0.9710 H     1 <1>   0.0800 
 42 H       -8.5450     0.0720     0.9210 H     1 <1>   0.0800 
 43 H       -7.8610    -0.3350    -0.6180 H     1 <1>   0.0800 
 44 H       -6.1780     3.1470    -0.8470 H     1 <1>   0.0800 
 45 H       -5.8030     2.4930     0.7110 H     1 <1>   0.0800 
 46 H       -7.8130     3.5270     1.1670 H     1 <1>   0.0800 
 47 H       -8.5960     2.1380     1.7850 H     1 <1>   0.0800 
 48 H       -9.6770     0.5210    -1.6760 H     1 <1>   0.0800 
 49 H       -9.8750     2.0310    -2.5250 H     1 <1>   0.0800 
 50 H      -10.7160     1.3210     0.2010 H     1 <1>   0.0800 
 51 H      -11.3860     2.5070    -0.8600 H     1 <1>   0.0800 
 52 H       -8.8940     3.8750    -1.2080 H     1 <1>   0.4000 
 53 H      -10.9010     3.0290     2.1610 H     1 <1>   0.0800 
 54 H      -11.5370     4.2050     1.0400 H     1 <1>   0.0800 
 55 H      -10.1070     4.5730     1.9810 H     1 <1>   0.0800 
@<TRIPOS>BOND
  1   1   2  2   
  2   1   3  2   
  3   1   4  am  
  4   1   5  1   
  5   4   6  1   
  6   4   7  1   
  7   5  29  1   
  8   5  30  1   
  9   5  31  1   
 10   6   8  ar  
 11   6   9  ar  
 12   7  10  1   
 13   7  32  1   
 14   7  33  1   
 15   8  11  ar  
 16   8  34  1   
 17   9  12  ar  
 18   9  35  1   
 19  10  13  2   
 20  10  14  am  
 21  11  15  1   
 22  11  16  ar  
 23  12  16  ar  
 24  12  36  1   
 25  14  17  1   
 26  14  18  1   
 27  16  37  1   
 28  17  19  1   
 29  17  38  1   
 30  17  39  1   
 31  18  20  1   
 32  18  40  1   
 33  18  41  1   
 34  19  21  1   
 35  19  42  1   
 36  19  43  1   
 37  20  21  1   
 38  20  44  1   
 39  20  45  1   
 40  21  22  1   
 41  21  23  1   
 42  22  24  1   
 43  23  25  1   
 44  23  46  1   
 45  23  47  1   
 46  24  26  1   
 47  24  48  1   
 48  24  49  1   
 49  25  26  1   
 50  25  27  1   
 51  25  28  1   
 52  26  50  1   
 53  26  51  1   
 54  27  52  1   
 55  28  53  1   
 56  28  54  1   
 57  28  55  1   
@<TRIPOS>SUBSTRUCTURE
  1 ****  14 GROUP 4 **** **** 0

# MOE 2024.06 (io_trps.svl 2023.06)
