@<TRIPOS>MOLECULE
NONAME
57 61 1 0 0 
SMALL
USER_CHARGES


@<TRIPOS>ATOM
  1 O       -0.8530     1.3880     0.9000 O.3   1 <1>  -0.3630 
  2 C       -0.8810     1.3170    -0.4570 C.ar  1 <1>   0.0830 
  3 C       -1.7400     0.6500     1.7120 C.3   1 <1>   0.0400 
  4 C       -0.1170     2.2460    -1.1780 C.ar  1 <1>   0.0000 
  5 C       -1.6450     0.3650    -1.1280 C.ar  1 <1>  -0.1500 
  6 C        0.7060     3.2470    -0.5330 C.ar  1 <1>   0.3100 
  7 C       -0.1640     2.1880    -2.5710 C.ar  1 <1>  -0.1500 
  8 C       -1.6660     0.3280    -2.5100 C.ar  1 <1>  -0.1500 
  9 N        0.5590     4.5250    -0.9100 N.ar  1 <1>  -0.3100 
 10 C        1.6410     2.8940     0.4280 C.ar  1 <1>  -0.1500 
 11 C       -0.9250     1.2440    -3.2320 C.ar  1 <1>  -0.1500 
 12 N        1.2880     5.4720    -0.3720 N.ar  1 <1>  -0.3100 
 13 C        2.4040     3.8840     0.9910 C.ar  1 <1>  -0.1500 
 14 C        2.2000     5.1810     0.5630 C.ar  1 <1>   0.4100 
 15 N        2.9610     6.1960     1.1060 N.pl3 1 <1>  -0.8690 
 16 C        2.9430     7.6080     0.6620 C.3   1 <1>   0.2890 
 17 C        4.2190     7.9570    -0.1700 C.3   1 <1>   0.0000 
 18 C        2.7350     8.4390     1.9310 C.3   1 <1>  -0.2400 
 19 C        4.1920     9.4440    -0.6180 C.3   1 <1>  -0.1600 
 20 C        5.5400     7.7160     0.6110 C.3   1 <1>  -0.1600 
 21 C        4.2570     7.0830    -1.4540 C.3   1 <1>  -0.1600 
 22 C        5.4180     9.7650    -1.4840 C.3   1 <1>   0.2800 
 23 C        6.7710     8.0520    -0.2560 C.3   1 <1>  -0.0800 
 24 C        5.4800     7.4130    -2.3310 C.3   1 <1>  -0.0800 
 25 O        5.3630    11.0850    -1.8610 O.3   1 <1>  -0.6800 
 26 C        6.7040     9.5320    -0.6800 C.3   1 <1>  -0.1600 
 27 C        5.4160     8.8940    -2.7450 C.3   1 <1>  -0.1600 
 28 C        6.7620     7.1650    -1.5150 C.3   1 <1>  -0.1600 
 29 H       -1.5810     0.9470     2.7330 H     1 <1>   0.0800 
 30 H       -1.5280    -0.3980     1.5990 H     1 <1>   0.0800 
 31 H       -2.7500     0.8750     1.4190 H     1 <1>   0.0800 
 32 H       -2.2300    -0.3580    -0.5940 H     1 <1>   0.1500 
 33 H        0.4080     2.9000    -3.1410 H     1 <1>   0.1500 
 34 H       -2.2580    -0.4100    -3.0230 H     1 <1>   0.1500 
 35 H        1.7540     1.8660     0.7190 H     1 <1>   0.1500 
 36 H       -0.9410     1.2220    -4.3080 H     1 <1>   0.1500 
 37 H        3.1380     3.6670     1.7420 H     1 <1>   0.1500 
 38 H        3.7620     5.9430     1.6820 H     1 <1>   0.4000 
 39 H        2.0850     7.7730     0.0310 H     1 <1>   0.0800 
 40 H        3.5630     8.3400     2.6050 H     1 <1>   0.0800 
 41 H        1.8410     8.1060     2.4280 H     1 <1>   0.0800 
 42 H        2.6000     9.4760     1.6890 H     1 <1>   0.0800 
 43 H        4.2000    10.0890     0.2410 H     1 <1>   0.0800 
 44 H        3.2960     9.6340    -1.1830 H     1 <1>   0.0800 
 45 H        5.6050     6.6870     0.9170 H     1 <1>   0.0800 
 46 H        5.5660     8.3220     1.4990 H     1 <1>   0.0800 
 47 H        3.3550     7.2320    -2.0230 H     1 <1>   0.0800 
 48 H        4.2950     6.0410    -1.1920 H     1 <1>   0.0800 
 49 H        7.6720     7.8760     0.3060 H     1 <1>   0.0800 
 50 H        5.4770     6.7900    -3.2080 H     1 <1>   0.0800 
 51 H        5.3830    11.6480    -1.0680 H     1 <1>   0.4000 
 52 H        6.7170    10.1570     0.1940 H     1 <1>   0.0800 
 53 H        7.5600     9.7710    -1.2870 H     1 <1>   0.0800 
 54 H        6.2660     9.1380    -3.3580 H     1 <1>   0.0800 
 55 H        4.5220     9.0760    -3.3140 H     1 <1>   0.0800 
 56 H        6.8170     6.1280    -1.2310 H     1 <1>   0.0800 
 57 H        7.6250     7.3820    -2.1210 H     1 <1>   0.0800 
@<TRIPOS>BOND
  1   1   2  1   
  2   1   3  1   
  3   2   4  ar  
  4   2   5  ar  
  5   3  29  1   
  6   3  30  1   
  7   3  31  1   
  8   4   6  1   
  9   4   7  ar  
 10   5   8  ar  
 11   5  32  1   
 12   6   9  ar  
 13   6  10  ar  
 14   7  11  ar  
 15   7  33  1   
 16   8  11  ar  
 17   8  34  1   
 18   9  12  ar  
 19  10  13  ar  
 20  10  35  1   
 21  11  36  1   
 22  12  14  ar  
 23  13  14  ar  
 24  13  37  1   
 25  14  15  1   
 26  15  16  1   
 27  15  38  1   
 28  16  17  1   
 29  16  18  1   
 30  16  39  1   
 31  17  19  1   
 32  17  20  1   
 33  17  21  1   
 34  18  40  1   
 35  18  41  1   
 36  18  42  1   
 37  19  22  1   
 38  19  43  1   
 39  19  44  1   
 40  20  23  1   
 41  20  45  1   
 42  20  46  1   
 43  21  24  1   
 44  21  47  1   
 45  21  48  1   
 46  22  25  1   
 47  22  26  1   
 48  22  27  1   
 49  23  26  1   
 50  23  28  1   
 51  23  49  1   
 52  24  27  1   
 53  24  28  1   
 54  24  50  1   
 55  25  51  1   
 56  26  52  1   
 57  26  53  1   
 58  27  54  1   
 59  27  55  1   
 60  28  56  1   
 61  28  57  1   
@<TRIPOS>SUBSTRUCTURE
  1 ****  12 GROUP 4 **** **** 0

# MOE 2024.06 (io_trps.svl 2023.06)
