@<TRIPOS>MOLECULE
NONAME
46 48 1 0 0 
SMALL
USER_CHARGES


@<TRIPOS>ATOM
  1 O        0.4970    -0.6580    -1.4800 O.3   1 <1>  -0.0190 
  2 N        0.1800    -1.9200    -1.4890 N.2   1 <1>  -0.4100 
  3 C        1.1050    -0.3110    -0.3760 C.2   1 <1>  -0.0400 
  4 C        0.5920    -2.3980    -0.3660 C.2   1 <1>   0.1080 
  5 C        1.1980    -1.4040     0.4000 C.2   1 <1>  -0.1500 
  6 C        1.5510     1.1340    -0.1910 C.3   1 <1>   0.1000 
  7 C        0.4170    -3.8540     0.0410 C.3   1 <1>   0.5240 
  8 C        2.6540     1.4780    -1.1970 C.3   1 <1>  -0.2400 
  9 C        2.0450     1.3910     1.2380 C.3   1 <1>  -0.2400 
 10 N       -0.7970    -4.4170    -0.6280 N.4   1 <1>  -0.9590 
 11 C       -2.0360    -3.8640     0.0040 C.3   1 <1>   0.3430 
 12 C       -0.8660    -5.9040    -0.5080 C.3   1 <1>   0.3430 
 13 C       -2.4920    -4.9350     0.9980 C.3   1 <1>   0.2000 
 14 C       -2.1610    -6.2260     0.2470 C.3   1 <1>  -0.0800 
 15 O       -1.6990    -4.8380     2.1400 O.3   1 <1>  -0.6800 
 16 C       -2.0600    -7.5080     1.0970 C.3   1 <1>  -0.0170 
 17 C       -1.5890    -8.6680     0.2360 C.ar  1 <1>  -0.1440 
 18 C       -2.4070    -9.2520    -0.7110 C.ar  1 <1>  -0.1500 
 19 C       -0.3170    -9.1940     0.3510 C.ar  1 <1>  -0.1500 
 20 C       -1.9200   -10.2890    -1.4900 C.ar  1 <1>   0.1600 
 21 C        0.0710   -10.2340    -0.4770 C.ar  1 <1>   0.1600 
 22 N       -0.6970   -10.7840    -1.4010 N.ar  1 <1>  -0.6200 
 23 H        1.6340    -1.5060     1.3780 H     1 <1>   0.1500 
 24 H        0.7030     1.7720    -0.3770 H     1 <1>   0.0800 
 25 H        0.3200    -3.9280     1.1120 H     1 <1>   0.0800 
 26 H        1.2910    -4.4020    -0.2650 H     1 <1>   0.0800 
 27 H        3.5100     0.8450    -1.0480 H     1 <1>   0.0800 
 28 H        2.9570     2.5040    -1.0860 H     1 <1>   0.0800 
 29 H        2.2950     1.3380    -2.2020 H     1 <1>   0.0800 
 30 H        2.9070     0.7860     1.4570 H     1 <1>   0.0800 
 31 H        1.2690     1.1640     1.9460 H     1 <1>   0.0800 
 32 H        2.3160     2.4260     1.3550 H     1 <1>   0.0800 
 33 H       -0.7450    -4.0910    -1.6070 H     1 <1>   0.4500 
 34 H       -1.8640    -2.9180     0.4920 H     1 <1>   0.0800 
 35 H       -2.7950    -3.7360    -0.7500 H     1 <1>   0.0800 
 36 H       -0.8650    -6.3780    -1.4780 H     1 <1>   0.0800 
 37 H       -0.0230    -6.2680     0.0560 H     1 <1>   0.0800 
 38 H       -3.5290    -4.8350     1.2730 H     1 <1>   0.0800 
 39 H       -2.9260    -6.3810    -0.4940 H     1 <1>   0.0800 
 40 H       -2.1220    -5.2900     2.9020 H     1 <1>   0.4000 
 41 H       -3.0220    -7.7450     1.5200 H     1 <1>   0.0800 
 42 H       -1.3700    -7.3740     1.9110 H     1 <1>   0.0800 
 43 H       -3.4190    -8.9200    -0.8540 H     1 <1>   0.1500 
 44 H        0.3800    -8.8160     1.0770 H     1 <1>   0.1500 
 45 H       -2.5700   -10.7360    -2.2250 H     1 <1>   0.1500 
 46 H        1.0660   -10.6370    -0.3750 H     1 <1>   0.1500 
@<TRIPOS>BOND
  1   1   2  1   
  2   1   3  1   
  3   2   4  2   
  4   3   5  2   
  5   3   6  1   
  6   4   5  1   
  7   4   7  1   
  8   5  23  1   
  9   6   8  1   
 10   6   9  1   
 11   6  24  1   
 12   7  10  1   
 13   7  25  1   
 14   7  26  1   
 15   8  27  1   
 16   8  28  1   
 17   8  29  1   
 18   9  30  1   
 19   9  31  1   
 20   9  32  1   
 21  10  11  1   
 22  10  12  1   
 23  10  33  1   
 24  11  13  1   
 25  11  34  1   
 26  11  35  1   
 27  12  14  1   
 28  12  36  1   
 29  12  37  1   
 30  13  14  1   
 31  13  15  1   
 32  13  38  1   
 33  14  16  1   
 34  14  39  1   
 35  15  40  1   
 36  16  17  1   
 37  16  41  1   
 38  16  42  1   
 39  17  18  ar  
 40  17  19  ar  
 41  18  20  ar  
 42  18  43  1   
 43  19  21  ar  
 44  19  44  1   
 45  20  22  ar  
 46  20  45  1   
 47  21  22  ar  
 48  21  46  1   
@<TRIPOS>SUBSTRUCTURE
  1 ****  10 GROUP 4 **** **** 0

# MOE 2024.06 (io_trps.svl 2023.06)
