@<TRIPOS>MOLECULE
NONAME
57 60 1 0 0 
SMALL
USER_CHARGES


@<TRIPOS>ATOM
  1 O        3.2190     1.2490    -2.3160 O.2   1 <1>  -0.5700 
  2 C        2.6550     2.2190    -1.8160 C.2   1 <1>   0.6300 
  3 N        3.3980     3.1990    -1.1880 N.am  1 <1>  -0.4690 
  4 C        1.2280     2.3900    -1.8300 C.2   1 <1>   0.3900 
  5 C        2.7090     4.2420    -0.6060 C.2   1 <1>  -0.0410 
  6 C        4.8930     3.1670    -1.1500 C.3   1 <1>   0.2010 
  7 N        0.5870     3.3710    -1.2870 N.2   1 <1>  -0.6210 
  8 C        1.3400     4.3330    -0.6400 C.2   1 <1>   0.1430 
  9 C        5.4420     2.9420     0.2600 C.2   1 <1>   0.5690 
 10 C        0.6220     5.4250    -0.0140 C.ar  1 <1>   0.0280 
 11 O        5.8870     3.8850     0.8600 O.2   1 <1>  -0.5700 
 12 N        5.4520     1.7270     0.8710 N.am  1 <1>  -0.7300 
 13 C       -0.5200     5.9710    -0.6000 C.ar  1 <1>  -0.1500 
 14 C        1.0450     5.9760     1.1970 C.ar  1 <1>  -0.1500 
 15 C        4.9410     0.4280     0.3780 C.3   1 <1>   0.1400 
 16 C       -1.2030     7.0220    -0.0150 C.ar  1 <1>  -0.1500 
 17 C        0.3680     7.0270     1.7870 C.ar  1 <1>  -0.1500 
 18 C        5.9360    -0.6910     0.7200 C.3   1 <1>  -0.0800 
 19 C       -0.7580     7.5550     1.1820 C.ar  1 <1>  -0.1500 
 20 C        7.3530    -0.4090     0.1660 C.3   1 <1>   0.4230 
 21 C        5.3920    -2.0570     0.2560 C.3   1 <1>  -0.1600 
 22 N        8.2650    -1.5400     0.5280 N.4   1 <1>  -0.9590 
 23 C        7.4040    -0.1350    -1.3560 C.3   1 <1>  -0.1600 
 24 C        6.4150    -3.1730     0.5160 C.3   1 <1>  -0.1600 
 25 C        7.7990    -2.8370    -0.0450 C.3   1 <1>   0.3430 
 26 C        9.7050    -1.2830     0.1870 C.3   1 <1>   0.3430 
 27 C        8.8020    -0.2950    -1.9770 C.3   1 <1>  -0.1600 
 28 C        9.8870    -0.2130    -0.9000 C.3   1 <1>  -0.1600 
 29 H        0.6710     1.6260    -2.3390 H     1 <1>   0.0600 
 30 H        3.2940     5.0040    -0.1170 H     1 <1>   0.1500 
 31 H        5.2720     2.4090    -1.8080 H     1 <1>   0.0800 
 32 H        5.2610     4.1120    -1.5070 H     1 <1>   0.0800 
 33 H        5.6680     1.7780     1.8710 H     1 <1>   0.3700 
 34 H       -0.8750     5.5630    -1.5300 H     1 <1>   0.1500 
 35 H        1.9110     5.5740     1.6910 H     1 <1>   0.1500 
 36 H        3.9880     0.2290     0.8400 H     1 <1>   0.0800 
 37 H        4.7920     0.4630    -0.6850 H     1 <1>   0.0800 
 38 H       -2.0800     7.4240    -0.4900 H     1 <1>   0.1500 
 39 H        0.7150     7.4350     2.7210 H     1 <1>   0.1500 
 40 H        6.0090    -0.7210     1.7930 H     1 <1>   0.0800 
 41 H       -1.2870     8.3730     1.6390 H     1 <1>   0.1500 
 42 H        7.7200     0.4800     0.6560 H     1 <1>   0.0800 
 43 H        4.4780    -2.2830     0.7800 H     1 <1>   0.0800 
 44 H        5.1570    -2.0280    -0.7950 H     1 <1>   0.0800 
 45 H        8.2100    -1.6420     1.5480 H     1 <1>   0.4500 
 46 H        6.7110    -0.7600    -1.8890 H     1 <1>   0.0800 
 47 H        7.0830     0.8790    -1.5110 H     1 <1>   0.0800 
 48 H        6.0660    -4.0850     0.0610 H     1 <1>   0.0800 
 49 H        6.4960    -3.3580     1.5730 H     1 <1>   0.0800 
 50 H        7.7480    -2.7660    -1.1190 H     1 <1>   0.0800 
 51 H        8.4890    -3.6250     0.2110 H     1 <1>   0.0800 
 52 H       10.2370    -0.9660     1.0700 H     1 <1>   0.0800 
 53 H       10.1590    -2.2010    -0.1500 H     1 <1>   0.0800 
 54 H        8.8700    -1.2500    -2.4720 H     1 <1>   0.0800 
 55 H        8.9620     0.4660    -2.7240 H     1 <1>   0.0800 
 56 H        9.8720     0.7630    -0.4440 H     1 <1>   0.0800 
 57 H       10.8580    -0.3330    -1.3490 H     1 <1>   0.0800 
@<TRIPOS>BOND
  1   1   2  2   
  2   2   3  am  
  3   2   4  1   
  4   3   5  1   
  5   3   6  1   
  6   4   7  2   
  7   4  29  1   
  8   5   8  2   
  9   5  30  1   
 10   6   9  1   
 11   6  31  1   
 12   6  32  1   
 13   7   8  1   
 14   8  10  1   
 15   9  11  2   
 16   9  12  am  
 17  10  13  ar  
 18  10  14  ar  
 19  12  15  1   
 20  12  33  1   
 21  13  16  ar  
 22  13  34  1   
 23  14  17  ar  
 24  14  35  1   
 25  15  18  1   
 26  15  36  1   
 27  15  37  1   
 28  16  19  ar  
 29  16  38  1   
 30  17  19  ar  
 31  17  39  1   
 32  18  20  1   
 33  18  21  1   
 34  18  40  1   
 35  19  41  1   
 36  20  22  1   
 37  20  23  1   
 38  20  42  1   
 39  21  24  1   
 40  21  43  1   
 41  21  44  1   
 42  22  25  1   
 43  22  26  1   
 44  22  45  1   
 45  23  27  1   
 46  23  46  1   
 47  23  47  1   
 48  24  25  1   
 49  24  48  1   
 50  24  49  1   
 51  25  50  1   
 52  25  51  1   
 53  26  28  1   
 54  26  52  1   
 55  26  53  1   
 56  27  28  1   
 57  27  54  1   
 58  27  55  1   
 59  28  56  1   
 60  28  57  1   
@<TRIPOS>SUBSTRUCTURE
  1 ****   6 GROUP 4 **** **** 0

# MOE 2024.06 (io_trps.svl 2023.06)
