@<TRIPOS>MOLECULE
NONAME
46 48 1 0 0 
SMALL
USER_CHARGES


@<TRIPOS>ATOM
  1 O        1.9150     2.5090     1.0310 O.co2 1 <1>  -0.9000 
  2 C        1.2600     2.6900    -0.0040 C.2   1 <1>   0.9060 
  3 O        1.8000     2.5980    -1.1090 O.co2 1 <1>  -0.9000 
  4 C       -0.1420     3.3100     0.1040 C.3   1 <1>   0.0380 
  5 C       -1.2860     2.3200     0.3900 C.ar  1 <1>  -0.1440 
  6 C        0.0110     4.3450     1.2070 C.3   1 <1>   0.3430 
  7 C       -0.4470     4.2200    -1.0970 C.3   1 <1>  -0.1600 
  8 C       -1.0730     0.9480     0.3370 C.ar  1 <1>  -0.1500 
  9 C       -2.5610     2.7780     0.7060 C.ar  1 <1>  -0.1500 
 10 N        0.6950     5.5220     0.5760 N.4   1 <1>  -0.9590 
 11 C        0.5030     5.3950    -0.9030 C.3   1 <1>   0.3430 
 12 C       -2.1010     0.0590     0.5980 C.ar  1 <1>  -0.1500 
 13 C       -3.5910     1.8910     0.9680 C.ar  1 <1>  -0.1500 
 14 C        2.1450     5.4740     0.8960 C.3   1 <1>   0.5230 
 15 C       -3.3620     0.5290     0.9150 C.ar  1 <1>  -0.1500 
 16 C        2.7780     6.7600     0.4240 C.2   1 <1>  -0.3320 
 17 N        3.9730     6.8320    -0.2110 N.pl3 1 <1>   0.0480 
 18 C        2.3230     8.0290     0.5350 C.2   1 <1>   0.0770 
 19 C        4.1400     8.1540    -0.4490 C.2   1 <1>   0.0360 
 20 C        4.9550     5.7830    -0.6170 C.3   1 <1>   0.1760 
 21 N        3.1750     8.9000    -0.0210 N.2   1 <1>  -0.5650 
 22 C        4.4180     4.9590    -1.7910 C.3   1 <1>  -0.2400 
 23 C        5.3610     4.8850     0.5600 C.3   1 <1>  -0.2400 
 24 H        0.5680     3.9490     2.0420 H     1 <1>   0.0800 
 25 H       -0.9650     4.6380     1.5520 H     1 <1>   0.0800 
 26 H       -1.4610     4.5720    -1.0800 H     1 <1>   0.0800 
 27 H       -0.2730     3.7220    -2.0360 H     1 <1>   0.0800 
 28 H       -0.1030     0.5450     0.0920 H     1 <1>   0.1500 
 29 H       -2.7760     3.8300     0.7500 H     1 <1>   0.1500 
 30 H        0.3190     6.4050     0.9250 H     1 <1>   0.4500 
 31 H        0.1090     6.3010    -1.3340 H     1 <1>   0.0800 
 32 H        1.4450     5.1590    -1.3760 H     1 <1>   0.0800 
 33 H       -1.9140    -0.9990     0.5530 H     1 <1>   0.1500 
 34 H       -4.5720     2.2580     1.2110 H     1 <1>   0.1500 
 35 H        2.6020     4.6360     0.3970 H     1 <1>   0.0800 
 36 H        2.2970     5.3540     1.9570 H     1 <1>   0.0800 
 37 H       -4.1600    -0.1640     1.1180 H     1 <1>   0.1500 
 38 H        1.4140     8.3830     0.9930 H     1 <1>   0.1500 
 39 H        5.0100     8.5360    -0.9550 H     1 <1>   0.1500 
 40 H        5.8400     6.2940    -0.9530 H     1 <1>   0.0800 
 41 H        3.5670     4.3730    -1.4980 H     1 <1>   0.0800 
 42 H        5.1760     4.2790    -2.1360 H     1 <1>   0.0800 
 43 H        4.1430     5.6000    -2.6090 H     1 <1>   0.0800 
 44 H        4.5710     4.2110     0.8410 H     1 <1>   0.0800 
 45 H        5.6480     5.4810     1.4080 H     1 <1>   0.0800 
 46 H        6.2040     4.2820     0.2730 H     1 <1>   0.0800 
@<TRIPOS>BOND
  1   1   2  ar  
  2   2   3  ar  
  3   2   4  1   
  4   4   5  1   
  5   4   6  1   
  6   4   7  1   
  7   5   8  ar  
  8   5   9  ar  
  9   6  10  1   
 10   6  24  1   
 11   6  25  1   
 12   7  11  1   
 13   7  26  1   
 14   7  27  1   
 15   8  12  ar  
 16   8  28  1   
 17   9  13  ar  
 18   9  29  1   
 19  10  11  1   
 20  10  14  1   
 21  10  30  1   
 22  11  31  1   
 23  11  32  1   
 24  12  15  ar  
 25  12  33  1   
 26  13  15  ar  
 27  13  34  1   
 28  14  16  1   
 29  14  35  1   
 30  14  36  1   
 31  15  37  1   
 32  16  17  1   
 33  16  18  2   
 34  17  19  1   
 35  17  20  1   
 36  18  21  1   
 37  18  38  1   
 38  19  21  2   
 39  19  39  1   
 40  20  22  1   
 41  20  23  1   
 42  20  40  1   
 43  22  41  1   
 44  22  42  1   
 45  22  43  1   
 46  23  44  1   
 47  23  45  1   
 48  23  46  1   
@<TRIPOS>SUBSTRUCTURE
  1 ****  10 GROUP 4 **** **** 0

# MOE 2024.06 (io_trps.svl 2023.06)
