@<TRIPOS>MOLECULE
NONAME
51 53 1 0 0 
SMALL
USER_CHARGES


@<TRIPOS>ATOM
  1 F        2.0480     1.4880     1.0260 F     1 <1>  -0.1900 
  2 C        2.3750     0.3260     0.5240 C.ar  1 <1>   0.1900 
  3 C        3.4010     0.2630    -0.4030 C.ar  1 <1>  -0.1440 
  4 C        1.6900    -0.7930     0.9490 C.ar  1 <1>  -0.1500 
  5 C        3.7420    -0.9820    -0.9150 C.ar  1 <1>  -0.1500 
  6 C        4.1180     1.5250    -0.8400 C.3   1 <1>   0.4870 
  7 C        2.0450    -2.0260     0.4310 C.ar  1 <1>  -0.1500 
  8 C        3.0740    -2.1360    -0.5040 C.ar  1 <1>  -0.1440 
  9 N        4.8520     2.1020     0.3230 N.4   1 <1>  -0.9590 
 10 C        3.4820    -3.5010    -1.0920 C.3   1 <1>   1.1630 
 11 C        5.2980     3.4970     0.0100 C.3   1 <1>   0.3430 
 12 C        5.9530     1.1880     0.7700 C.3   1 <1>   0.2630 
 13 F        4.7950    -3.6840    -1.0310 F     1 <1>  -0.3400 
 14 F        3.1490    -3.6040    -2.3710 F     1 <1>  -0.3400 
 15 F        2.9300    -4.5350    -0.4700 F     1 <1>  -0.3400 
 16 C        5.7920     4.2630     1.2500 C.3   1 <1>  -0.0800 
 17 C        5.6350     5.7680     0.9710 C.3   1 <1>   0.1400 
 18 C        7.3150     4.0990     1.4400 C.3   1 <1>  -0.0990 
 19 N        6.9100     6.1130     0.3170 N.am  1 <1>  -0.6600 
 20 C        7.8670     5.1970     0.5780 C.2   1 <1>   0.5690 
 21 C        7.1700     7.4060    -0.3740 C.3   1 <1>   0.2200 
 22 O        8.9970     5.1930     0.1630 O.2   1 <1>  -0.5700 
 23 C        7.0550     8.5840     0.6020 C.3   1 <1>  -0.1600 
 24 C        6.1400     7.6670    -1.4750 C.3   1 <1>  -0.1600 
 25 C        5.8990     9.4670     0.1150 C.3   1 <1>  -0.1600 
 26 C        5.1050     8.6170    -0.8720 C.3   1 <1>  -0.1600 
 27 H        0.8950    -0.7040     1.6700 H     1 <1>   0.1500 
 28 H        4.5320    -1.0670    -1.6460 H     1 <1>   0.1500 
 29 H        3.3870     2.2310    -1.2010 H     1 <1>   0.0800 
 30 H        4.8040     1.3050    -1.6430 H     1 <1>   0.0800 
 31 H        1.5070    -2.9010     0.7640 H     1 <1>   0.1500 
 32 H        4.1500     2.1500     1.0790 H     1 <1>   0.4500 
 33 H        4.4600     4.0360    -0.4030 H     1 <1>   0.0800 
 34 H        6.0740     3.4860    -0.7400 H     1 <1>   0.0800 
 35 H        6.7230     1.1290     0.0170 H     1 <1>   0.0800 
 36 H        5.5700     0.1970     0.9500 H     1 <1>   0.0800 
 37 H        6.3910     1.5490     1.6860 H     1 <1>   0.0800 
 38 H        5.2270     3.9880     2.1240 H     1 <1>   0.0800 
 39 H        5.5450     6.3230     1.8890 H     1 <1>   0.0800 
 40 H        4.7930     5.9810     0.3370 H     1 <1>   0.0800 
 41 H        7.7110     3.1530     1.1280 H     1 <1>   0.0800 
 42 H        7.6010     4.2940     2.4580 H     1 <1>   0.0800 
 43 H        8.1590     7.3800    -0.8040 H     1 <1>   0.0800 
 44 H        7.9690     9.1510     0.5970 H     1 <1>   0.0800 
 45 H        6.8770     8.2460     1.6070 H     1 <1>   0.0800 
 46 H        5.7050     6.7650    -1.8650 H     1 <1>   0.0800 
 47 H        6.6370     8.1790    -2.2800 H     1 <1>   0.0800 
 48 H        6.3020    10.3210    -0.4020 H     1 <1>   0.0800 
 49 H        5.2860     9.8130     0.9290 H     1 <1>   0.0800 
 50 H        4.3510     8.0630    -0.3430 H     1 <1>   0.0800 
 51 H        4.6280     9.2210    -1.6250 H     1 <1>   0.0800 
@<TRIPOS>BOND
  1   1   2  1   
  2   2   3  ar  
  3   2   4  ar  
  4   3   5  ar  
  5   3   6  1   
  6   4   7  ar  
  7   4  27  1   
  8   5   8  ar  
  9   5  28  1   
 10   6   9  1   
 11   6  29  1   
 12   6  30  1   
 13   7   8  ar  
 14   7  31  1   
 15   8  10  1   
 16   9  11  1   
 17   9  12  1   
 18   9  32  1   
 19  10  13  1   
 20  10  14  1   
 21  10  15  1   
 22  11  16  1   
 23  11  33  1   
 24  11  34  1   
 25  12  35  1   
 26  12  36  1   
 27  12  37  1   
 28  16  17  1   
 29  16  18  1   
 30  16  38  1   
 31  17  19  1   
 32  17  39  1   
 33  17  40  1   
 34  18  20  1   
 35  18  41  1   
 36  18  42  1   
 37  19  20  am  
 38  19  21  1   
 39  20  22  2   
 40  21  23  1   
 41  21  24  1   
 42  21  43  1   
 43  23  25  1   
 44  23  44  1   
 45  23  45  1   
 46  24  26  1   
 47  24  46  1   
 48  24  47  1   
 49  25  26  1   
 50  25  48  1   
 51  25  49  1   
 52  26  50  1   
 53  26  51  1   
@<TRIPOS>SUBSTRUCTURE
  1 ****   9 GROUP 4 **** **** 0

# MOE 2024.06 (io_trps.svl 2023.06)
