@<TRIPOS>MOLECULE
NONAME
53 55 1 0 0 
SMALL
USER_CHARGES


@<TRIPOS>ATOM
  1 O        0.4710     0.1940     1.1160 O.2   1 <1>  -0.5700 
  2 C        0.5510    -1.0090     1.0180 C.2   1 <1>   0.5690 
  3 N       -0.3970    -1.7850     1.5950 N.am  1 <1>  -0.7300 
  4 C        1.7370    -1.6530     0.2490 C.3   1 <1>   0.2510 
  5 C       -0.3950    -3.2630     1.5090 C.3   1 <1>   0.1400 
  6 N        1.7210    -3.1570     0.1800 N.3   1 <1>  -0.8100 
  7 C        3.0620    -1.1950     0.8850 C.3   1 <1>  -0.0990 
  8 C        0.3520    -3.7220     0.2470 C.3   1 <1>   0.1100 
  9 C        2.5640    -3.6920    -0.9100 C.3   1 <1>   0.1900 
 10 C        3.6190     0.0030     0.1560 C.2   1 <1>   0.5690 
 11 C        1.8620    -3.6850    -2.2710 C.3   1 <1>  -0.2400 
 12 C        3.0330    -5.0960    -0.5390 C.3   1 <1>  -0.2400 
 13 O        4.6350    -0.1240    -0.4810 O.2   1 <1>  -0.5700 
 14 N        2.9640     1.1870     0.2360 N.am  1 <1>  -0.7300 
 15 C        3.3550     2.4380    -0.4630 C.3   1 <1>   0.1400 
 16 C        4.6550     2.9950     0.1150 C.3   1 <1>   0.1200 
 17 O        4.8880     4.2700    -0.4450 O.3   1 <1>  -0.3630 
 18 C        5.9730     5.0260    -0.1170 C.ar  1 <1>   0.0820 
 19 C        6.0590     6.3340    -0.6700 C.ar  1 <1>   0.3100 
 20 C        6.9620     4.5530     0.7210 C.ar  1 <1>  -0.1500 
 21 N        5.0810     6.8060    -1.4990 N.ar  1 <1>  -0.6200 
 22 C        7.1820     7.1280    -0.3340 C.ar  1 <1>   0.0000 
 23 C        8.0620     5.3490     1.0430 C.ar  1 <1>  -0.1500 
 24 C        5.2070     8.0050    -1.9780 C.ar  1 <1>   0.1600 
 25 C        7.2770     8.4220    -0.8750 C.ar  1 <1>  -0.1500 
 26 C        8.1690     6.6100     0.5260 C.ar  1 <1>  -0.1500 
 27 C        6.2840     8.8540    -1.6980 C.ar  1 <1>  -0.1500 
 28 H       -1.1270    -1.3240     2.1400 H     1 <1>   0.3700 
 29 H        1.6830    -1.2750    -0.7570 H     1 <1>   0.0800 
 30 H       -1.4090    -3.6210     1.4740 H     1 <1>   0.0800 
 31 H        0.0840    -3.6730     2.3800 H     1 <1>   0.0800 
 32 H        3.7980    -1.9760     0.8580 H     1 <1>   0.0800 
 33 H        2.9110    -0.9380     1.9160 H     1 <1>   0.0800 
 34 H       -0.2160    -3.4180    -0.6160 H     1 <1>   0.0800 
 35 H        0.3990    -4.7960     0.2540 H     1 <1>   0.0800 
 36 H        3.4470    -3.0810    -0.9990 H     1 <1>   0.0800 
 37 H        1.0530    -4.3930    -2.3000 H     1 <1>   0.0800 
 38 H        2.5670    -3.9640    -3.0330 H     1 <1>   0.0800 
 39 H        1.4920    -2.7050    -2.5080 H     1 <1>   0.0800 
 40 H        2.2170    -5.7940    -0.5300 H     1 <1>   0.0800 
 41 H        3.4990    -5.0800     0.4300 H     1 <1>   0.0800 
 42 H        3.7580    -5.4370    -1.2560 H     1 <1>   0.0800 
 43 H        2.0400     1.2030     0.6980 H     1 <1>   0.3700 
 44 H        2.5690     3.1640    -0.3470 H     1 <1>   0.0800 
 45 H        3.4900     2.2310    -1.5110 H     1 <1>   0.0800 
 46 H        5.4790     2.3530    -0.1430 H     1 <1>   0.0800 
 47 H        4.5730     3.1060     1.1810 H     1 <1>   0.0800 
 48 H        6.9230     3.5690     1.1490 H     1 <1>   0.1500 
 49 H        8.8200     4.9560     1.6990 H     1 <1>   0.1500 
 50 H        4.4340     8.3700    -2.6320 H     1 <1>   0.1500 
 51 H        8.1220     9.0420    -0.6330 H     1 <1>   0.1500 
 52 H        9.0160     7.2260     0.7710 H     1 <1>   0.1500 
 53 H        6.3050     9.8340    -2.1400 H     1 <1>   0.1500 
@<TRIPOS>BOND
  1   1   2  2   
  2   2   3  am  
  3   2   4  1   
  4   3   5  1   
  5   3  28  1   
  6   4   6  1   
  7   4   7  1   
  8   4  29  1   
  9   5   8  1   
 10   5  30  1   
 11   5  31  1   
 12   6   8  1   
 13   6   9  1   
 14   7  10  1   
 15   7  32  1   
 16   7  33  1   
 17   8  34  1   
 18   8  35  1   
 19   9  11  1   
 20   9  12  1   
 21   9  36  1   
 22  10  13  2   
 23  10  14  am  
 24  11  37  1   
 25  11  38  1   
 26  11  39  1   
 27  12  40  1   
 28  12  41  1   
 29  12  42  1   
 30  14  15  1   
 31  14  43  1   
 32  15  16  1   
 33  15  44  1   
 34  15  45  1   
 35  16  17  1   
 36  16  46  1   
 37  16  47  1   
 38  17  18  1   
 39  18  19  ar  
 40  18  20  ar  
 41  19  21  ar  
 42  19  22  ar  
 43  20  23  ar  
 44  20  48  1   
 45  21  24  ar  
 46  22  25  ar  
 47  22  26  ar  
 48  23  26  ar  
 49  23  49  1   
 50  24  27  ar  
 51  24  50  1   
 52  25  27  ar  
 53  25  51  1   
 54  26  52  1   
 55  27  53  1   
@<TRIPOS>SUBSTRUCTURE
  1 ****  15 GROUP 4 **** **** 0

# MOE 2024.06 (io_trps.svl 2023.06)
