@<TRIPOS>MOLECULE
NONAME
51 54 1 0 0 
SMALL
USER_CHARGES


@<TRIPOS>ATOM
  1 O        2.5100    -0.3620    -3.9350 O.2   1 <1>  -0.5700 
  2 C        2.5230    -1.0200    -2.9140 C.2   1 <1>   0.7160 
  3 N        1.7820    -2.1590    -2.8680 N.am  1 <1>  -0.4900 
  4 C        3.2480    -0.7070    -1.7400 C.2   1 <1>  -0.0860 
  5 C        1.7390    -2.9550    -1.7410 C.2   1 <1>   0.4490 
  6 C        3.1660    -1.5390    -0.6670 C.2   1 <1>  -0.0260 
  7 C        4.1080     0.3110    -1.3340 C.2   1 <1>   0.1390 
  8 N        2.3940    -2.6870    -0.6600 N.2   1 <1>  -0.5760 
  9 C        0.8620    -4.2210    -1.7870 C.3   1 <1>   0.4040 
 10 N        3.9550    -1.0060     0.2980 N.pl3 1 <1>   0.3140 
 11 N        4.5330     0.1410    -0.1200 N.2   1 <1>  -0.7070 
 12 N        0.5130    -4.7580    -0.4190 N.4   1 <1>  -0.9590 
 13 C        4.2110    -1.5320     1.6440 C.3   1 <1>   0.0160 
 14 C        0.1000    -6.1950    -0.5040 C.3   1 <1>   0.3430 
 15 C       -0.4800    -3.8730     0.2690 C.3   1 <1>   0.2630 
 16 C       -0.0390    -6.8730     0.8690 C.3   1 <1>  -0.0800 
 17 C        0.1390    -8.3650     0.6400 C.3   1 <1>   0.2090 
 18 C       -1.4780    -6.8210     1.4100 C.3   1 <1>  -0.1600 
 19 N       -1.1490    -8.7390     0.0290 N.pl3 1 <1>  -0.8380 
 20 C       -2.2180    -7.9530     0.6910 C.3   1 <1>   0.2090 
 21 C       -1.4310   -10.0640    -0.3240 C.ar  1 <1>   0.1000 
 22 C       -0.6350   -11.1390     0.0690 C.ar  1 <1>  -0.1500 
 23 C       -2.5460   -10.3360    -1.1120 C.ar  1 <1>  -0.1500 
 24 C       -0.9480   -12.4340    -0.3050 C.ar  1 <1>  -0.1500 
 25 C       -2.8640   -11.6280    -1.4870 C.ar  1 <1>  -0.1500 
 26 C       -2.0640   -12.6820    -1.0840 C.ar  1 <1>  -0.1500 
 27 H        1.2870    -2.3560    -3.7360 H     1 <1>   0.3700 
 28 H        4.3900     1.1460    -1.9570 H     1 <1>   0.1500 
 29 H        1.4040    -4.9710    -2.3360 H     1 <1>   0.0800 
 30 H       -0.0440    -4.0030    -2.3270 H     1 <1>   0.0800 
 31 H        1.3940    -4.6930     0.1210 H     1 <1>   0.4500 
 32 H        3.8900    -2.5540     1.7000 H     1 <1>   0.0800 
 33 H        3.6750    -0.9370     2.3580 H     1 <1>   0.0800 
 34 H        5.2650    -1.4710     1.8460 H     1 <1>   0.0800 
 35 H        0.8460    -6.7350    -1.0660 H     1 <1>   0.0800 
 36 H       -0.8310    -6.2920    -1.0410 H     1 <1>   0.0800 
 37 H       -1.4280    -3.9010    -0.2430 H     1 <1>   0.0800 
 38 H       -0.1240    -2.8550     0.2880 H     1 <1>   0.0800 
 39 H       -0.6260    -4.1970     1.2870 H     1 <1>   0.0800 
 40 H        0.6940    -6.5110     1.5680 H     1 <1>   0.0800 
 41 H        0.2600    -8.8800     1.5790 H     1 <1>   0.0800 
 42 H        0.9620    -8.6020    -0.0140 H     1 <1>   0.0800 
 43 H       -1.9780    -5.8840     1.2600 H     1 <1>   0.0800 
 44 H       -1.4770    -7.0370     2.4650 H     1 <1>   0.0800 
 45 H       -2.8920    -7.5640    -0.0530 H     1 <1>   0.0800 
 46 H       -2.7660    -8.5700     1.3850 H     1 <1>   0.0800 
 47 H        0.2350   -10.9810     0.6750 H     1 <1>   0.1500 
 48 H       -3.1680    -9.5250    -1.4390 H     1 <1>   0.1500 
 49 H       -0.3230   -13.2510     0.0100 H     1 <1>   0.1500 
 50 H       -3.7310   -11.8140    -2.0960 H     1 <1>   0.1500 
 51 H       -2.3080   -13.6880    -1.3750 H     1 <1>   0.1500 
@<TRIPOS>BOND
  1   1   2  2   
  2   2   3  am  
  3   2   4  1   
  4   3   5  1   
  5   3  27  1   
  6   4   6  2   
  7   4   7  1   
  8   5   8  2   
  9   5   9  1   
 10   6   8  1   
 11   6  10  1   
 12   7  11  2   
 13   7  28  1   
 14   9  12  1   
 15   9  29  1   
 16   9  30  1   
 17  10  11  1   
 18  10  13  1   
 19  12  14  1   
 20  12  15  1   
 21  12  31  1   
 22  13  32  1   
 23  13  33  1   
 24  13  34  1   
 25  14  16  1   
 26  14  35  1   
 27  14  36  1   
 28  15  37  1   
 29  15  38  1   
 30  15  39  1   
 31  16  17  1   
 32  16  18  1   
 33  16  40  1   
 34  17  19  1   
 35  17  41  1   
 36  17  42  1   
 37  18  20  1   
 38  18  43  1   
 39  18  44  1   
 40  19  20  1   
 41  19  21  1   
 42  20  45  1   
 43  20  46  1   
 44  21  22  ar  
 45  21  23  ar  
 46  22  24  ar  
 47  22  47  1   
 48  23  25  ar  
 49  23  48  1   
 50  24  26  ar  
 51  24  49  1   
 52  25  26  ar  
 53  25  50  1   
 54  26  51  1   
@<TRIPOS>SUBSTRUCTURE
  1 ****  12 GROUP 4 **** **** 0

# MOE 2024.06 (io_trps.svl 2023.06)
