@<TRIPOS>MOLECULE
NONAME
45 47 1 0 0 
SMALL
USER_CHARGES


@<TRIPOS>ATOM
  1 S       -0.8510    -1.0560     2.2810 S.3   1 <1>  -0.0800 
  2 C       -1.1440    -1.9280     0.7850 C.2   1 <1>  -0.1400 
  3 C       -1.0700     0.4880     1.4810 C.2   1 <1>  -0.1100 
  4 C       -1.3820    -1.0620    -0.2230 C.2   1 <1>  -0.1500 
  5 C       -1.0760    -3.4390     0.8960 C.3   1 <1>   0.5230 
  6 C       -1.3400     0.3120     0.1760 C.2   1 <1>  -0.1500 
  7 N       -1.8370    -4.0610    -0.2190 N.4   1 <1>  -0.9590 
  8 C       -3.3120    -3.7740     0.0070 C.3   1 <1>   0.3430 
  9 C       -1.4620    -5.5110    -0.3020 C.3   1 <1>   0.3430 
 10 C       -4.3120    -4.5820    -0.8430 C.3   1 <1>   0.2090 
 11 C       -1.8970    -6.1320    -1.6360 C.3   1 <1>  -0.1600 
 12 N       -4.1260    -6.0340    -0.6000 N.pl3 1 <1>  -0.8380 
 13 C       -3.2940    -6.7600    -1.5800 C.3   1 <1>   0.2090 
 14 C       -5.1210    -6.7290     0.0600 C.ar  1 <1>   0.4100 
 15 N       -6.0720    -7.2140    -0.7190 N.ar  1 <1>  -0.6200 
 16 C       -5.0960    -6.8870     1.4500 C.ar  1 <1>   0.0730 
 17 C       -7.0510    -7.8790    -0.1280 C.ar  1 <1>   0.1670 
 18 C       -4.0170    -6.3230     2.1980 C.1   1 <1>   0.4840 
 19 C       -6.1250    -7.5800     2.0450 C.ar  1 <1>  -0.1500 
 20 C       -7.1480    -8.0910     1.2530 C.ar  1 <1>  -0.1790 
 21 C       -8.0990    -8.4280    -1.0800 C.3   1 <1>  -0.0960 
 22 N       -3.1230    -5.8010     2.6850 N.1   1 <1>  -0.5570 
 23 C       -8.2370    -8.8080     1.8890 C.2   1 <1>   0.9790 
 24 O       -8.0080    -9.4950     2.8980 O.co2 1 <1>  -0.9000 
 25 O       -9.4060    -8.7240     1.4770 O.co2 1 <1>  -0.9000 
 26 H       -0.9700     1.3770     2.0810 H     1 <1>   0.1500 
 27 H       -1.5840    -1.3050    -1.2510 H     1 <1>   0.1500 
 28 H       -1.4950    -3.7530     1.8400 H     1 <1>   0.0800 
 29 H       -0.0430    -3.7450     0.8680 H     1 <1>   0.0800 
 30 H       -1.5120     1.1040    -0.5340 H     1 <1>   0.1500 
 31 H       -1.5350    -3.6010    -1.0830 H     1 <1>   0.4500 
 32 H       -3.4960    -2.7260    -0.1610 H     1 <1>   0.0800 
 33 H       -3.5490    -3.9670     1.0400 H     1 <1>   0.0800 
 34 H       -1.8950    -6.0610     0.5180 H     1 <1>   0.0800 
 35 H       -0.3900    -5.5990    -0.2280 H     1 <1>   0.0800 
 36 H       -4.1910    -4.3560    -1.8880 H     1 <1>   0.0800 
 37 H       -5.3160    -4.3030    -0.5660 H     1 <1>   0.0800 
 38 H       -1.2080    -6.9180    -1.8890 H     1 <1>   0.0800 
 39 H       -1.8460    -5.4080    -2.4280 H     1 <1>   0.0800 
 40 H       -3.2190    -7.7900    -1.2700 H     1 <1>   0.0800 
 41 H       -3.7650    -6.7410    -2.5490 H     1 <1>   0.0800 
 42 H       -6.1590    -7.7380     3.1110 H     1 <1>   0.1500 
 43 H       -7.7530    -8.3910    -2.0960 H     1 <1>   0.0800 
 44 H       -8.9990    -7.8470    -0.9960 H     1 <1>   0.0800 
 45 H       -8.3250    -9.4490    -0.8330 H     1 <1>   0.0800 
@<TRIPOS>BOND
  1   1   2  1   
  2   1   3  1   
  3   2   4  2   
  4   2   5  1   
  5   3   6  2   
  6   3  26  1   
  7   4   6  1   
  8   4  27  1   
  9   5   7  1   
 10   5  28  1   
 11   5  29  1   
 12   6  30  1   
 13   7   8  1   
 14   7   9  1   
 15   7  31  1   
 16   8  10  1   
 17   8  32  1   
 18   8  33  1   
 19   9  11  1   
 20   9  34  1   
 21   9  35  1   
 22  10  12  1   
 23  10  36  1   
 24  10  37  1   
 25  11  13  1   
 26  11  38  1   
 27  11  39  1   
 28  12  13  1   
 29  12  14  1   
 30  13  40  1   
 31  13  41  1   
 32  14  15  ar  
 33  14  16  ar  
 34  15  17  ar  
 35  16  18  1   
 36  16  19  ar  
 37  17  20  ar  
 38  17  21  1   
 39  18  22  3   
 40  19  20  ar  
 41  19  42  1   
 42  20  23  1   
 43  21  43  1   
 44  21  44  1   
 45  21  45  1   
 46  23  24  ar  
 47  23  25  ar  
@<TRIPOS>SUBSTRUCTURE
  1 ****  12 GROUP 4 **** **** 0

# MOE 2024.06 (io_trps.svl 2023.06)
