@<TRIPOS>MOLECULE
NONAME
38 40 1 0 0 
SMALL
USER_CHARGES


@<TRIPOS>ATOM
  1 O        2.0790    -0.0240     0.2450 O.co2 1 <1>  -0.9000 
  2 C        1.4220    -0.9310    -0.2590 C.2   1 <1>   0.9060 
  3 O        0.9560    -0.9110    -1.4100 O.co2 1 <1>  -0.9000 
  4 C        1.0640    -2.1710     0.5630 C.3   1 <1>   0.2370 
  5 N       -0.0950    -2.8930    -0.0910 N.4   1 <1>  -0.9590 
  6 C       -0.0810    -4.3860     0.0270 C.3   1 <1>   0.3430 
  7 C       -1.4120    -2.2870     0.2920 C.3   1 <1>   0.3430 
  8 C       -1.3410    -5.0310    -0.5950 C.3   1 <1>   0.3440 
  9 C       -2.6010    -3.0430    -0.3430 C.3   1 <1>   0.2950 
 10 O       -2.5010    -4.4180    -0.0900 O.3   1 <1>  -0.5600 
 11 C       -1.3650    -6.5190    -0.2720 C.ar  1 <1>  -0.1440 
 12 C       -3.9340    -2.5670     0.2380 C.3   1 <1>  -0.1950 
 13 C       -0.8220    -7.4250    -1.1730 C.ar  1 <1>  -0.1500 
 14 C       -1.9030    -6.9900     0.9180 C.ar  1 <1>  -0.1500 
 15 C       -5.2130    -2.7400    -0.5180 C.3   1 <1>  -0.2000 
 16 C       -4.6340    -1.3670    -0.3210 C.3   1 <1>  -0.2000 
 17 C       -0.8100    -8.7790    -0.8850 C.ar  1 <1>  -0.1500 
 18 C       -1.8910    -8.3440     1.2060 C.ar  1 <1>  -0.1500 
 19 C       -1.3430    -9.2390     0.3060 C.ar  1 <1>  -0.1500 
 20 H        0.8220    -1.8670     1.5650 H     1 <1>   0.0800 
 21 H        1.9350    -2.7980     0.5850 H     1 <1>   0.0800 
 22 H        0.0580    -2.5880    -1.0830 H     1 <1>   0.4500 
 23 H        0.7950    -4.7840    -0.4560 H     1 <1>   0.0800 
 24 H       -0.0410    -4.6660     1.0650 H     1 <1>   0.0800 
 25 H       -1.5250    -2.3130     1.3620 H     1 <1>   0.0800 
 26 H       -1.4400    -1.2550    -0.0200 H     1 <1>   0.0800 
 27 H       -1.3350    -4.8980    -1.6630 H     1 <1>   0.0800 
 28 H       -2.6010    -2.8940    -1.4100 H     1 <1>   0.0800 
 29 H       -3.9820    -2.7040     1.3050 H     1 <1>   0.1000 
 30 H       -0.4050    -7.0910    -2.1070 H     1 <1>   0.1500 
 31 H       -2.3410    -6.3080     1.6270 H     1 <1>   0.1500 
 32 H       -5.1840    -3.1840    -1.4990 H     1 <1>   0.1000 
 33 H       -6.0990    -3.0160     0.0280 H     1 <1>   0.1000 
 34 H       -5.1370    -0.6940     0.3520 H     1 <1>   0.1000 
 35 H       -4.2340    -0.8600    -1.1840 H     1 <1>   0.1000 
 36 H       -0.3890    -9.4780    -1.5870 H     1 <1>   0.1500 
 37 H       -2.3130    -8.7020     2.1300 H     1 <1>   0.1500 
 38 H       -1.3350   -10.2920     0.5290 H     1 <1>   0.1500 
@<TRIPOS>BOND
  1   1   2  ar  
  2   2   3  ar  
  3   2   4  1   
  4   4   5  1   
  5   4  20  1   
  6   4  21  1   
  7   5   6  1   
  8   5   7  1   
  9   5  22  1   
 10   6   8  1   
 11   6  23  1   
 12   6  24  1   
 13   7   9  1   
 14   7  25  1   
 15   7  26  1   
 16   8  10  1   
 17   8  11  1   
 18   8  27  1   
 19   9  10  1   
 20   9  12  1   
 21   9  28  1   
 22  11  13  ar  
 23  11  14  ar  
 24  12  15  1   
 25  12  16  1   
 26  12  29  1   
 27  13  17  ar  
 28  13  30  1   
 29  14  18  ar  
 30  14  31  1   
 31  15  16  1   
 32  15  32  1   
 33  15  33  1   
 34  16  34  1   
 35  16  35  1   
 36  17  19  ar  
 37  17  36  1   
 38  18  19  ar  
 39  18  37  1   
 40  19  38  1   
@<TRIPOS>SUBSTRUCTURE
  1 ****   8 GROUP 4 **** **** 0

# MOE 2024.06 (io_trps.svl 2023.06)
