@<TRIPOS>MOLECULE
NONAME
57 59 1 0 0 
SMALL
USER_CHARGES


@<TRIPOS>ATOM
  1 O        0.7030     0.2390    -1.2680 O.2   1 <1>  -0.5700 
  2 C        1.4860    -0.0110    -0.3700 C.2   1 <1>   0.5440 
  3 N        1.0300    -0.7010     0.7390 N.am  1 <1>  -0.6600 
  4 C        2.8690     0.4130    -0.4990 C.ar  1 <1>   0.0860 
  5 C        1.9240    -1.4170     1.6900 C.3   1 <1>   0.0600 
  6 C       -0.4240    -0.9320     0.9660 C.3   1 <1>   0.0600 
  7 C        3.5910     0.1490    -1.6620 C.ar  1 <1>  -0.1500 
  8 C        3.5260     1.1030     0.5190 C.ar  1 <1>  -0.1500 
  9 C        4.9120     0.5350    -1.7970 C.ar  1 <1>  -0.1500 
 10 C        4.8480     1.4900     0.3920 C.ar  1 <1>  -0.1500 
 11 C        5.5540     1.2050    -0.7670 C.ar  1 <1>  -0.1430 
 12 C        7.0060     1.6290    -0.9030 C.3   1 <1>   0.3530 
 13 N        7.0580     3.1030    -0.9230 N.pl3 1 <1>  -0.8690 
 14 C        8.0380     3.9460    -0.5730 C.ar  1 <1>   0.4100 
 15 N        7.7100     5.2160    -0.5900 N.ar  1 <1>  -0.6200 
 16 C        9.3270     3.5100    -0.2160 C.ar  1 <1>  -0.1500 
 17 C        8.6320     6.1090    -0.2570 C.ar  1 <1>   0.7710 
 18 C       10.2560     4.4340     0.1290 C.ar  1 <1>   0.2180 
 19 N        9.8720     5.7320     0.1020 N.ar  1 <1>  -0.1790 
 20 N        8.3250     7.4360    -0.2690 N.pl3 1 <1>  -0.8380 
 21 C       11.6820     4.0890     0.5400 C.3   1 <1>  -0.0170 
 22 C        6.9180     7.9170    -0.4770 C.3   1 <1>   0.2090 
 23 C        9.2620     8.5850    -0.0700 C.3   1 <1>   0.2090 
 24 C       12.7190     4.6570    -0.4390 C.3   1 <1>  -0.2400 
 25 C        6.4610     8.6780     0.7710 C.3   1 <1>  -0.1600 
 26 C        8.8620     9.3440     1.1990 C.3   1 <1>  -0.1600 
 27 C        7.4100     9.8350     1.1180 C.3   1 <1>  -0.1600 
 28 H        2.9270    -1.4780     1.3050 H     1 <1>   0.0800 
 29 H        1.5620    -2.4190     1.8450 H     1 <1>   0.0800 
 30 H        1.9390    -0.8990     2.6330 H     1 <1>   0.0800 
 31 H       -1.0120    -0.2400     0.3870 H     1 <1>   0.0800 
 32 H       -0.6600    -0.7910     2.0060 H     1 <1>   0.0800 
 33 H       -0.6810    -1.9340     0.6730 H     1 <1>   0.0800 
 34 H        3.0950    -0.3650    -2.4680 H     1 <1>   0.1500 
 35 H        2.9850     1.3390     1.4180 H     1 <1>   0.1500 
 36 H        5.4330     0.3120    -2.7130 H     1 <1>   0.1500 
 37 H        5.3260     2.0220     1.1970 H     1 <1>   0.1500 
 38 H        7.4240     1.2430    -1.8170 H     1 <1>   0.0800 
 39 H        7.5710     1.2460    -0.0710 H     1 <1>   0.0800 
 40 H        6.1590     3.5230    -1.1840 H     1 <1>   0.4000 
 41 H        9.5460     2.4600    -0.2290 H     1 <1>   0.1500 
 42 H       10.4970     6.4820     0.3620 H     1 <1>   0.4570 
 43 H       11.7940     3.0180     0.5750 H     1 <1>   0.0800 
 44 H       11.8750     4.4620     1.5310 H     1 <1>   0.0800 
 45 H        6.2320     7.1080    -0.6640 H     1 <1>   0.0800 
 46 H        6.8880     8.5700    -1.3330 H     1 <1>   0.0800 
 47 H        9.1890     9.2480    -0.9170 H     1 <1>   0.0800 
 48 H       10.2870     8.2690     0.0020 H     1 <1>   0.0800 
 49 H       12.5380     4.2910    -1.4350 H     1 <1>   0.0800 
 50 H       13.7060     4.3450    -0.1440 H     1 <1>   0.0800 
 51 H       12.7010     5.7320    -0.4550 H     1 <1>   0.0800 
 52 H        6.4070     7.9900     1.5970 H     1 <1>   0.0800 
 53 H        5.4700     9.0640     0.6060 H     1 <1>   0.0800 
 54 H        9.5150    10.1890     1.3320 H     1 <1>   0.0800 
 55 H        8.9790     8.7010     2.0540 H     1 <1>   0.0800 
 56 H        7.1190    10.2760     2.0570 H     1 <1>   0.0800 
 57 H        7.3320    10.5960     0.3590 H     1 <1>   0.0800 
@<TRIPOS>BOND
  1   1   2  2   
  2   2   3  am  
  3   2   4  1   
  4   3   5  1   
  5   3   6  1   
  6   4   7  ar  
  7   4   8  ar  
  8   5  28  1   
  9   5  29  1   
 10   5  30  1   
 11   6  31  1   
 12   6  32  1   
 13   6  33  1   
 14   7   9  ar  
 15   7  34  1   
 16   8  10  ar  
 17   8  35  1   
 18   9  11  ar  
 19   9  36  1   
 20  10  11  ar  
 21  10  37  1   
 22  11  12  1   
 23  12  13  1   
 24  12  38  1   
 25  12  39  1   
 26  13  14  1   
 27  13  40  1   
 28  14  15  ar  
 29  14  16  ar  
 30  15  17  ar  
 31  16  18  ar  
 32  16  41  1   
 33  17  19  ar  
 34  17  20  1   
 35  18  19  ar  
 36  18  21  1   
 37  19  42  1   
 38  20  22  1   
 39  20  23  1   
 40  21  24  1   
 41  21  43  1   
 42  21  44  1   
 43  22  25  1   
 44  22  45  1   
 45  22  46  1   
 46  23  26  1   
 47  23  47  1   
 48  23  48  1   
 49  24  49  1   
 50  24  50  1   
 51  24  51  1   
 52  25  27  1   
 53  25  52  1   
 54  25  53  1   
 55  26  27  1   
 56  26  54  1   
 57  26  55  1   
 58  27  56  1   
 59  27  57  1   
@<TRIPOS>SUBSTRUCTURE
  1 ****  13 GROUP 4 **** **** 0

# MOE 2024.06 (io_trps.svl 2023.06)
