@<TRIPOS>MOLECULE
NONAME
37 38 1 0 0 
SMALL
USER_CHARGES


@<TRIPOS>ATOM
  1 O       -0.0250    -0.2790    -0.2830 O.2   1 <1>  -0.5700 
  2 C        0.7360    -1.1970    -0.4730 C.2   1 <1>   0.5690 
  3 N        2.0840    -1.0380    -0.4000 N.am  1 <1>  -0.7300 
  4 C        0.1700    -2.5650    -0.8270 C.3   1 <1>  -0.0190 
  5 C        2.7720     0.2200    -0.0540 C.3   1 <1>   0.1400 
  6 C       -1.2480    -2.7530    -0.3000 C.3   1 <1>   0.2090 
  7 C        0.9270    -3.7640    -0.2490 C.3   1 <1>  -0.1600 
  8 C        3.8250    -0.0790     1.0050 C.3   1 <1>  -0.2400 
  9 N       -1.4180    -4.2250    -0.1190 N.pl3 1 <1>  -0.8380 
 10 C       -0.0960    -4.8940    -0.2430 C.3   1 <1>   0.2090 
 11 C       -2.5980    -4.8460     0.1580 C.ar  1 <1>   0.1000 
 12 C       -2.7180    -6.2440     0.1680 C.ar  1 <1>  -0.1500 
 13 C       -3.7630    -4.1210     0.4500 C.ar  1 <1>  -0.1500 
 14 C       -3.9110    -6.8600     0.4500 C.ar  1 <1>   0.2180 
 15 C       -4.9420    -4.7580     0.7280 C.ar  1 <1>   0.2110 
 16 N       -5.0060    -6.1120     0.7260 N.ar  1 <1>  -0.1790 
 17 C       -4.0500    -8.3740     0.4620 C.3   1 <1>  -0.0970 
 18 H        2.6960    -1.8310    -0.5900 H     1 <1>   0.3700 
 19 H        0.1380    -2.6460    -1.8980 H     1 <1>   0.0800 
 20 H        2.0630     0.9390     0.3230 H     1 <1>   0.0800 
 21 H        3.2350     0.6290    -0.9370 H     1 <1>   0.0800 
 22 H       -1.9690    -2.3540    -0.9920 H     1 <1>   0.0800 
 23 H       -1.3570    -2.2680     0.6560 H     1 <1>   0.0800 
 24 H        1.2210    -3.5610     0.7660 H     1 <1>   0.0800 
 25 H        1.7960    -4.0220    -0.8270 H     1 <1>   0.0800 
 26 H        3.3600    -0.4850     1.8860 H     1 <1>   0.0800 
 27 H        4.3280     0.8310     1.2780 H     1 <1>   0.0800 
 28 H        4.5560    -0.7720     0.6290 H     1 <1>   0.0800 
 29 H        0.0770    -5.5680     0.5790 H     1 <1>   0.0800 
 30 H       -0.0600    -5.4340    -1.1740 H     1 <1>   0.0800 
 31 H       -1.8510    -6.8360    -0.0550 H     1 <1>   0.1500 
 32 H       -3.7250    -3.0470     0.4600 H     1 <1>   0.1500 
 33 H       -5.8340    -4.1950     0.9530 H     1 <1>   0.1500 
 34 H       -5.8940    -6.5800     0.9350 H     1 <1>   0.4570 
 35 H       -3.1100    -8.8420     0.2280 H     1 <1>   0.0800 
 36 H       -4.7720    -8.6910    -0.2690 H     1 <1>   0.0800 
 37 H       -4.3590    -8.7150     1.4350 H     1 <1>   0.0800 
@<TRIPOS>BOND
  1   1   2  2   
  2   2   3  am  
  3   2   4  1   
  4   3   5  1   
  5   3  18  1   
  6   4   6  1   
  7   4   7  1   
  8   4  19  1   
  9   5   8  1   
 10   5  20  1   
 11   5  21  1   
 12   6   9  1   
 13   6  22  1   
 14   6  23  1   
 15   7  10  1   
 16   7  24  1   
 17   7  25  1   
 18   8  26  1   
 19   8  27  1   
 20   8  28  1   
 21   9  10  1   
 22   9  11  1   
 23  10  29  1   
 24  10  30  1   
 25  11  12  ar  
 26  11  13  ar  
 27  12  14  ar  
 28  12  31  1   
 29  13  15  ar  
 30  13  32  1   
 31  14  16  ar  
 32  14  17  1   
 33  15  16  ar  
 34  15  33  1   
 35  16  34  1   
 36  17  35  1   
 37  17  36  1   
 38  17  37  1   
@<TRIPOS>SUBSTRUCTURE
  1 ****   9 GROUP 4 **** **** 0

# MOE 2024.06 (io_trps.svl 2023.06)
