@<TRIPOS>MOLECULE
NONAME
38 41 1 0 0 
SMALL
USER_CHARGES


@<TRIPOS>ATOM
  1 O       -0.4610    -0.8820    -1.7960 O.2   1 <1>  -0.5700 
  2 C       -1.3850    -1.0600    -1.0360 C.2   1 <1>   0.5690 
  3 N       -1.7310    -0.1350    -0.0860 N.am  1 <1>  -0.6600 
  4 C       -2.1950    -2.3320    -1.2070 C.3   1 <1>  -0.0190 
  5 C       -2.9030    -0.3470     0.8250 C.3   1 <1>   0.2200 
  6 C       -0.9060     1.0760     0.1760 C.3   1 <1>   0.0600 
  7 C       -2.2040    -3.2380     0.0420 C.3   1 <1>   0.1200 
  8 C       -3.5910    -2.0000    -1.7500 C.3   1 <1>   0.2090 
  9 C       -2.7660    -1.6180     1.7040 C.3   1 <1>   0.1200 
 10 C       -4.2290    -0.3100     0.0360 C.3   1 <1>   0.2090 
 11 O       -1.8510    -2.5610     1.2130 O.3   1 <1>  -0.5600 
 12 N       -4.5410    -1.5860    -0.6790 N.pl3 1 <1>  -0.8220 
 13 C       -5.5800    -2.3920    -0.2640 C.2   1 <1>   0.5620 
 14 O       -5.8180    -3.5310    -0.9070 O.3   1 <1>  -0.2800 
 15 N       -6.3610    -2.1610     0.7360 N.2   1 <1>  -0.5650 
 16 C       -6.8380    -4.0800    -0.2780 C.ar  1 <1>   0.1400 
 17 C       -7.1860    -3.2370     0.7460 C.ar  1 <1>   0.2270 
 18 C       -7.5010    -5.2720    -0.5220 C.ar  1 <1>  -0.1500 
 19 C       -8.2430    -3.5720     1.5840 C.ar  1 <1>  -0.1500 
 20 C       -8.5530    -5.6060     0.3130 C.ar  1 <1>  -0.1500 
 21 C       -8.9220    -4.7580     1.3620 C.ar  1 <1>  -0.1500 
 22 H       -1.7140    -2.8950    -1.9860 H     1 <1>   0.0800 
 23 H       -2.9480     0.4900     1.5000 H     1 <1>   0.0800 
 24 H       -1.5080     1.9600     0.0660 H     1 <1>   0.0800 
 25 H       -0.0830     1.1330    -0.5160 H     1 <1>   0.0800 
 26 H       -0.5080     1.0330     1.1750 H     1 <1>   0.0800 
 27 H       -1.4660    -4.0100    -0.0870 H     1 <1>   0.0800 
 28 H       -3.1580    -3.7130     0.1880 H     1 <1>   0.0800 
 29 H       -3.9730    -2.8660    -2.2620 H     1 <1>   0.0800 
 30 H       -3.5160    -1.2120    -2.4800 H     1 <1>   0.0800 
 31 H       -3.7170    -2.0990     1.8510 H     1 <1>   0.0800 
 32 H       -2.4030    -1.3230     2.6720 H     1 <1>   0.0800 
 33 H       -4.1960     0.4970    -0.6740 H     1 <1>   0.0800 
 34 H       -5.0220    -0.0840     0.7280 H     1 <1>   0.0800 
 35 H       -7.1960    -5.9040    -1.3360 H     1 <1>   0.1500 
 36 H       -8.5110    -2.9070     2.3840 H     1 <1>   0.1500 
 37 H       -9.0950    -6.5230     0.1580 H     1 <1>   0.1500 
 38 H       -9.7430    -5.0350     2.0000 H     1 <1>   0.1500 
@<TRIPOS>BOND
  1   1   2  2   
  2   2   3  am  
  3   2   4  1   
  4   3   5  1   
  5   3   6  1   
  6   4   7  1   
  7   4   8  1   
  8   4  22  1   
  9   5   9  1   
 10   5  10  1   
 11   5  23  1   
 12   6  24  1   
 13   6  25  1   
 14   6  26  1   
 15   7  11  1   
 16   7  27  1   
 17   7  28  1   
 18   8  12  1   
 19   8  29  1   
 20   8  30  1   
 21   9  11  1   
 22   9  31  1   
 23   9  32  1   
 24  10  12  1   
 25  10  33  1   
 26  10  34  1   
 27  12  13  1   
 28  13  14  1   
 29  13  15  2   
 30  14  16  1   
 31  15  17  1   
 32  16  17  ar  
 33  16  18  ar  
 34  17  19  ar  
 35  18  20  ar  
 36  18  35  1   
 37  19  21  ar  
 38  19  36  1   
 39  20  21  ar  
 40  20  37  1   
 41  21  38  1   
@<TRIPOS>SUBSTRUCTURE
  1 ****  12 GROUP 4 **** **** 0

# MOE 2024.06 (io_trps.svl 2023.06)
