@<TRIPOS>MOLECULE
NONAME
51 53 1 0 0 
SMALL
USER_CHARGES


@<TRIPOS>ATOM
  1 F       -0.4480    -0.1400     0.5980 F     1 <1>  -0.1900 
  2 C       -1.6960     0.2470     0.5240 C.ar  1 <1>   0.1900 
  3 C       -2.0570     1.4970     0.0080 C.ar  1 <1>   0.0830 
  4 C       -2.6440    -0.6450     0.9880 C.ar  1 <1>  -0.1500 
  5 O       -1.2200     2.4590    -0.4760 O.3   1 <1>  -0.3630 
  6 C       -3.4050     1.8130    -0.0250 C.ar  1 <1>  -0.1500 
  7 C       -3.9810    -0.2970     0.9410 C.ar  1 <1>  -0.1500 
  8 C        0.1780     2.2910    -0.5590 C.3   1 <1>   0.0400 
  9 C       -4.3910     0.9350     0.4290 C.ar  1 <1>   0.0530 
 10 C       -5.7810     1.3130     0.3830 C.2   1 <1>   0.0870 
 11 O       -6.1280     2.5120     0.7750 O.3   1 <1>  -0.0190 
 12 C       -6.9220     0.6710     0.0050 C.2   1 <1>  -0.0860 
 13 N       -7.4140     2.7210     0.7060 N.2   1 <1>  -0.4100 
 14 C       -7.9170     1.6290     0.2500 C.2   1 <1>   0.3720 
 15 C       -7.1270    -0.6430    -0.5290 C.2   1 <1>   0.7160 
 16 N       -9.2950     1.4640     0.0370 N.pl3 1 <1>  -0.8210 
 17 O       -6.2020    -1.4010    -0.7440 O.2   1 <1>  -0.5700 
 18 N       -8.3860    -1.0870    -0.7870 N.am  1 <1>  -0.7300 
 19 C      -10.1040     1.6810     1.2690 C.3   1 <1>   0.1290 
 20 C       -9.7990     2.3000    -1.0870 C.3   1 <1>   0.1290 
 21 C       -8.7850    -2.4250    -1.2830 C.3   1 <1>   0.1400 
 22 C       -9.3020    -3.2990    -0.1290 C.3   1 <1>   0.0000 
 23 C      -10.0900    -4.5400    -0.6460 C.3   1 <1>   0.0000 
 24 C      -10.6320    -2.7660     0.4850 C.3   1 <1>   0.0000 
 25 C       -8.1770    -3.6140     0.8870 C.3   1 <1>   0.1200 
 26 C      -11.2320    -4.1900     0.3450 C.3   1 <1>   0.0000 
 27 O       -8.6040    -4.4450     1.9140 O.3   1 <1>  -0.6800 
 28 H       -2.3380    -1.5990     1.3780 H     1 <1>   0.1500 
 29 H       -3.6970     2.7710    -0.4180 H     1 <1>   0.1500 
 30 H       -4.7180    -0.9910     1.3040 H     1 <1>   0.1500 
 31 H        0.5960     3.1800    -0.9950 H     1 <1>   0.0800 
 32 H        0.3930     1.4430    -1.1850 H     1 <1>   0.0800 
 33 H        0.5740     2.1500     0.4310 H     1 <1>   0.0800 
 34 H       -9.1350    -0.4080    -0.5760 H     1 <1>   0.3700 
 35 H       -9.6840     1.1170     2.0860 H     1 <1>   0.0800 
 36 H      -11.1160     1.3550     1.1080 H     1 <1>   0.0800 
 37 H      -10.1040     2.7250     1.5360 H     1 <1>   0.0800 
 38 H       -9.1980     2.1330    -1.9650 H     1 <1>   0.0800 
 39 H       -9.7470     3.3440    -0.8260 H     1 <1>   0.0800 
 40 H      -10.8190     2.0410    -1.3130 H     1 <1>   0.0800 
 41 H       -7.9420    -2.9060    -1.7510 H     1 <1>   0.0800 
 42 H       -9.5500    -2.3000    -2.0310 H     1 <1>   0.0800 
 43 H       -9.6170    -5.4840    -0.4410 H     1 <1>   0.0000 
 44 H      -10.4090    -4.4460    -1.6700 H     1 <1>   0.0000 
 45 H      -11.1360    -2.0570    -0.1490 H     1 <1>   0.0000 
 46 H      -10.5460    -2.4320     1.5040 H     1 <1>   0.0000 
 47 H       -7.8070    -2.7070     1.3330 H     1 <1>   0.0800 
 48 H       -7.3580    -4.1060     0.3910 H     1 <1>   0.0800 
 49 H      -11.1810    -4.7560     1.2590 H     1 <1>   0.0000 
 50 H      -12.2080    -4.2000    -0.1060 H     1 <1>   0.0000 
 51 H       -9.3600    -4.0440     2.3850 H     1 <1>   0.4000 
@<TRIPOS>BOND
  1   1   2  1   
  2   2   3  ar  
  3   2   4  ar  
  4   3   5  1   
  5   3   6  ar  
  6   4   7  ar  
  7   4  28  1   
  8   5   8  1   
  9   6   9  ar  
 10   6  29  1   
 11   7   9  ar  
 12   7  30  1   
 13   8  31  1   
 14   8  32  1   
 15   8  33  1   
 16   9  10  1   
 17  10  11  1   
 18  10  12  2   
 19  11  13  1   
 20  12  14  1   
 21  12  15  1   
 22  13  14  2   
 23  14  16  1   
 24  15  17  2   
 25  15  18  am  
 26  16  19  1   
 27  16  20  1   
 28  18  21  1   
 29  18  34  1   
 30  19  35  1   
 31  19  36  1   
 32  19  37  1   
 33  20  38  1   
 34  20  39  1   
 35  20  40  1   
 36  21  22  1   
 37  21  41  1   
 38  21  42  1   
 39  22  23  1   
 40  22  24  1   
 41  22  25  1   
 42  23  26  1   
 43  23  43  1   
 44  23  44  1   
 45  24  26  1   
 46  24  45  1   
 47  24  46  1   
 48  25  27  1   
 49  25  47  1   
 50  25  48  1   
 51  26  49  1   
 52  26  50  1   
 53  27  51  1   
@<TRIPOS>SUBSTRUCTURE
  1 ****  12 GROUP 4 **** **** 0

# MOE 2024.06 (io_trps.svl 2023.06)
