@<TRIPOS>MOLECULE
NONAME
37 38 1 0 0 
SMALL
USER_CHARGES


@<TRIPOS>ATOM
  1 F       -1.6610     2.9860    -1.6450 F     1 <1>  -0.1900 
  2 C       -1.8250     2.8970    -0.3500 C.ar  1 <1>   0.1900 
  3 C       -0.7210     2.7510     0.4880 C.ar  1 <1>  -0.1440 
  4 C       -3.1210     2.9610     0.1230 C.ar  1 <1>  -0.1500 
  5 C       -0.9500     2.6760     1.8590 C.ar  1 <1>  -0.1500 
  6 C        0.7160     2.6790    -0.0260 C.3   1 <1>   0.4330 
  7 C       -3.2990     2.8770     1.4880 C.ar  1 <1>   0.1900 
  8 C       -2.2390     2.7380     2.3650 C.ar  1 <1>  -0.1500 
  9 N        0.9950     3.8500    -0.8650 N.pl3 1 <1>  -0.8690 
 10 C        0.9730     1.4240    -0.8530 C.3   1 <1>  -0.2400 
 11 F       -4.5110     2.9340     1.9690 F     1 <1>  -0.1900 
 12 C        1.6560     4.9710    -0.4340 C.ar  1 <1>   0.4100 
 13 N        2.4300     4.8550     0.6250 N.ar  1 <1>  -0.6200 
 14 C        1.5150     6.1860    -1.0930 C.ar  1 <1>  -0.1430 
 15 C        3.0520     5.9500     1.0120 C.ar  1 <1>   0.4770 
 16 C        2.2140     7.2500    -0.5850 C.ar  1 <1>   0.1600 
 17 C        0.6320     6.3610    -2.3250 C.3   1 <1>  -0.0170 
 18 N        2.9920     7.1520     0.4730 N.ar  1 <1>  -0.6200 
 19 C        3.9390     5.8160     2.2260 C.3   1 <1>  -0.0970 
 20 C       -0.8250     6.6020    -1.9200 C.3   1 <1>  -0.2400 
 21 H       -3.9570     3.0720    -0.5420 H     1 <1>   0.1500 
 22 H       -0.1220     2.5750     2.5410 H     1 <1>   0.1500 
 23 H        1.3900     2.6600     0.8130 H     1 <1>   0.0800 
 24 H       -2.4230     2.6810     3.4240 H     1 <1>   0.1500 
 25 H        0.2600     3.9970    -1.5570 H     1 <1>   0.4000 
 26 H        0.3570     1.4050    -1.7320 H     1 <1>   0.0800 
 27 H        0.7600     0.5530    -0.2630 H     1 <1>   0.0800 
 28 H        2.0060     1.3950    -1.1460 H     1 <1>   0.0800 
 29 H        2.1400     8.2170    -1.0520 H     1 <1>   0.1500 
 30 H        0.7010     5.4910    -2.9550 H     1 <1>   0.0800 
 31 H        0.9810     7.1990    -2.9040 H     1 <1>   0.0800 
 32 H        4.2770     4.8020     2.3290 H     1 <1>   0.0800 
 33 H        3.3830     6.0940     3.1010 H     1 <1>   0.0800 
 34 H        4.7930     6.4590     2.1290 H     1 <1>   0.0800 
 35 H       -1.1950     5.7780    -1.3360 H     1 <1>   0.0800 
 36 H       -1.4400     6.7090    -2.7950 H     1 <1>   0.0800 
 37 H       -0.9030     7.4980    -1.3300 H     1 <1>   0.0800 
@<TRIPOS>BOND
  1   1   2  1   
  2   2   3  ar  
  3   2   4  ar  
  4   3   5  ar  
  5   3   6  1   
  6   4   7  ar  
  7   4  21  1   
  8   5   8  ar  
  9   5  22  1   
 10   6   9  1   
 11   6  10  1   
 12   6  23  1   
 13   7   8  ar  
 14   7  11  1   
 15   8  24  1   
 16   9  12  1   
 17   9  25  1   
 18  10  26  1   
 19  10  27  1   
 20  10  28  1   
 21  12  13  ar  
 22  12  14  ar  
 23  13  15  ar  
 24  14  16  ar  
 25  14  17  1   
 26  15  18  ar  
 27  15  19  1   
 28  16  18  ar  
 29  16  29  1   
 30  17  20  1   
 31  17  30  1   
 32  17  31  1   
 33  19  32  1   
 34  19  33  1   
 35  19  34  1   
 36  20  35  1   
 37  20  36  1   
 38  20  37  1   
@<TRIPOS>SUBSTRUCTURE
  1 ****   9 GROUP 4 **** **** 0

# MOE 2024.06 (io_trps.svl 2023.06)
