@<TRIPOS>MOLECULE
NONAME
47 49 1 0 0 
SMALL
USER_CHARGES


@<TRIPOS>ATOM
  1 F        0.0190     0.3340     0.6480 F     1 <1>  -0.1900 
  2 C        1.0300    -0.4890     0.6680 C.ar  1 <1>   0.1900 
  3 C        2.2970     0.0060     0.4340 C.ar  1 <1>  -0.1500 
  4 C        0.7890    -1.8250     0.9180 C.ar  1 <1>  -0.1500 
  5 C        3.3810    -0.8680     0.4500 C.ar  1 <1>  -0.1440 
  6 C        1.8600    -2.7060     0.9300 C.ar  1 <1>  -0.1440 
  7 C        3.1430    -2.2200     0.7030 C.ar  1 <1>  -0.1500 
  8 C        4.8150    -0.3660     0.2030 C.3   1 <1>   1.1640 
  9 C        1.6180    -4.1820     1.1960 C.3   1 <1>   0.4870 
 10 F        4.8660     0.8420    -0.3420 F     1 <1>  -0.3400 
 11 F        5.4820    -1.1740    -0.6120 F     1 <1>  -0.3400 
 12 F        5.5170    -0.3070     1.3260 F     1 <1>  -0.3400 
 13 N        1.7210    -4.9380    -0.0860 N.4   1 <1>  -0.9590 
 14 C        0.6220    -4.5570    -1.0320 C.3   1 <1>   0.3430 
 15 C        1.5560    -6.4020     0.1750 C.3   1 <1>   0.3430 
 16 C       -0.5030    -5.5600    -0.7780 C.3   1 <1>   0.2000 
 17 C        0.2720    -6.8540    -0.5340 C.3   1 <1>  -0.0800 
 18 O       -1.1540    -5.1800     0.4030 O.3   1 <1>  -0.5600 
 19 C       -0.4940    -7.9480     0.2340 C.3   1 <1>   0.0200 
 20 C       -2.5490    -5.1670     0.3360 C.3   1 <1>   0.0400 
 21 C        0.3680    -9.1820     0.4200 C.2   1 <1>  -0.0400 
 22 O        1.4260    -9.1270     1.1840 O.3   1 <1>  -0.0190 
 23 C        0.2800   -10.4280    -0.0700 C.2   1 <1>  -0.1500 
 24 N        2.0610   -10.2580     1.2170 N.2   1 <1>  -0.4100 
 25 C        1.3910   -11.0660     0.4760 C.2   1 <1>   0.1080 
 26 C        1.7660   -12.5120     0.2370 C.3   1 <1>  -0.0590 
 27 H        2.4190     1.0600     0.2480 H     1 <1>   0.1500 
 28 H       -0.2210    -2.1510     1.1000 H     1 <1>   0.1500 
 29 H        3.9820    -2.8980     0.7280 H     1 <1>   0.1500 
 30 H        0.6400    -4.3200     1.6300 H     1 <1>   0.0800 
 31 H        2.3520    -4.5430     1.8980 H     1 <1>   0.0800 
 32 H        2.6360    -4.7340    -0.5060 H     1 <1>   0.4500 
 33 H        0.2830    -3.5450    -0.8890 H     1 <1>   0.0800 
 34 H        0.9680    -4.6700    -2.0460 H     1 <1>   0.0800 
 35 H        2.4020    -6.9640    -0.1900 H     1 <1>   0.0800 
 36 H        1.4610    -6.5800     1.2350 H     1 <1>   0.0800 
 37 H       -1.1990    -5.6170    -1.6000 H     1 <1>   0.0800 
 38 H        0.5600    -7.2590    -1.4890 H     1 <1>   0.0800 
 39 H       -1.3800    -8.2200    -0.3120 H     1 <1>   0.0800 
 40 H       -0.7990    -7.5950     1.2040 H     1 <1>   0.0800 
 41 H       -2.9310    -4.8900     1.3030 H     1 <1>   0.0800 
 42 H       -2.9080    -6.1490     0.0770 H     1 <1>   0.0800 
 43 H       -2.8670    -4.4440    -0.3960 H     1 <1>   0.0800 
 44 H       -0.4470   -10.8680    -0.7270 H     1 <1>   0.1500 
 45 H        0.9730   -13.1550     0.5730 H     1 <1>   0.0800 
 46 H        2.6620   -12.7540     0.7790 H     1 <1>   0.0800 
 47 H        1.9380   -12.6780    -0.8110 H     1 <1>   0.0800 
@<TRIPOS>BOND
  1   1   2  1   
  2   2   3  ar  
  3   2   4  ar  
  4   3   5  ar  
  5   3  27  1   
  6   4   6  ar  
  7   4  28  1   
  8   5   7  ar  
  9   5   8  1   
 10   6   7  ar  
 11   6   9  1   
 12   7  29  1   
 13   8  10  1   
 14   8  11  1   
 15   8  12  1   
 16   9  13  1   
 17   9  30  1   
 18   9  31  1   
 19  13  14  1   
 20  13  15  1   
 21  13  32  1   
 22  14  16  1   
 23  14  33  1   
 24  14  34  1   
 25  15  17  1   
 26  15  35  1   
 27  15  36  1   
 28  16  17  1   
 29  16  18  1   
 30  16  37  1   
 31  17  19  1   
 32  17  38  1   
 33  18  20  1   
 34  19  21  1   
 35  19  39  1   
 36  19  40  1   
 37  20  41  1   
 38  20  42  1   
 39  20  43  1   
 40  21  22  1   
 41  21  23  2   
 42  22  24  1   
 43  23  25  1   
 44  23  44  1   
 45  24  25  2   
 46  25  26  1   
 47  26  45  1   
 48  26  46  1   
 49  26  47  1   
@<TRIPOS>SUBSTRUCTURE
  1 ****  13 GROUP 4 **** **** 0

# MOE 2024.06 (io_trps.svl 2023.06)
