@<TRIPOS>MOLECULE
NONAME
46 49 1 0 0 
SMALL
USER_CHARGES


@<TRIPOS>ATOM
  1 O        1.3790    -1.1330     0.2950 O.2   1 <1>  -0.5700 
  2 C        2.4500    -0.5870     0.2410 C.2   1 <1>   0.5690 
  3 N        2.6220     0.7280     0.0310 N.am  1 <1>  -0.7300 
  4 C        3.7780    -1.2770     0.3830 C.3   1 <1>  -0.0990 
  5 C        4.0230     1.1250    -0.1020 C.3   1 <1>   0.3000 
  6 C        4.7240    -0.0740     0.5840 C.3   1 <1>  -0.1860 
  7 C        4.2820     1.2600    -1.6160 C.3   1 <1>  -0.1600 
  8 C        4.2730     2.4700     0.6150 C.3   1 <1>  -0.1600 
  9 C        6.1460    -0.2340     0.1250 C.2   1 <1>   0.9060 
 10 C        5.6760     1.7960    -1.9700 C.3   1 <1>   0.3430 
 11 C        5.1980     3.4270    -0.1470 C.3   1 <1>   0.3430 
 12 O        6.4050    -0.9030    -0.8720 O.co2 1 <1>  -0.9000 
 13 O        6.9810     0.5370     0.6130 O.co2 1 <1>  -0.9000 
 14 N        6.2310     2.6580    -0.8870 N.4   1 <1>  -0.9590 
 15 C        7.4330     3.3980    -1.3570 C.3   1 <1>   0.4860 
 16 C        7.7620     4.5890    -0.4690 C.ar  1 <1>  -0.1440 
 17 C        8.4200     4.4090     0.7730 C.ar  1 <1>   0.0000 
 18 C        7.4060     5.8450    -0.8920 C.ar  1 <1>  -0.1500 
 19 C        8.6800     5.5460     1.5780 C.ar  1 <1>   0.3100 
 20 C        8.8440     3.1620     1.2760 C.ar  1 <1>  -0.1500 
 21 C        7.6740     6.9650    -0.1020 C.ar  1 <1>  -0.1500 
 22 N        9.2820     5.4760     2.7920 N.ar  1 <1>  -0.6200 
 23 C        8.2950     6.8090     1.1060 C.ar  1 <1>  -0.1500 
 24 C        9.4460     3.1190     2.4950 C.ar  1 <1>  -0.1500 
 25 C        9.6400     4.3030     3.2150 C.ar  1 <1>   0.1600 
 26 H        1.8330     1.3400    -0.1690 H     1 <1>   0.3700 
 27 H        3.9970    -1.8130    -0.5230 H     1 <1>   0.0800 
 28 H        3.7880    -1.9460     1.2230 H     1 <1>   0.0800 
 29 H        4.7670     0.1050     1.6410 H     1 <1>   0.0800 
 30 H        3.5560     1.9290    -2.0400 H     1 <1>   0.0800 
 31 H        4.1600     0.3060    -2.0990 H     1 <1>   0.0800 
 32 H        4.7080     2.2980     1.5830 H     1 <1>   0.0800 
 33 H        3.3420     2.9810     0.7810 H     1 <1>   0.0800 
 34 H        5.6130     2.3480    -2.8930 H     1 <1>   0.0800 
 35 H        6.3450     0.9630    -2.1290 H     1 <1>   0.0800 
 36 H        5.6590     4.0980     0.5610 H     1 <1>   0.0800 
 37 H        4.6240     4.0130    -0.8450 H     1 <1>   0.0800 
 38 H        6.6180     1.9680    -0.1880 H     1 <1>   0.4500 
 39 H        7.2560     3.7590    -2.3560 H     1 <1>   0.0800 
 40 H        8.2760     2.7260    -1.3940 H     1 <1>   0.0800 
 41 H        6.9150     6.0040    -1.8380 H     1 <1>   0.1500 
 42 H        8.7010     2.2520     0.7220 H     1 <1>   0.1500 
 43 H        7.3900     7.9440    -0.4510 H     1 <1>   0.1500 
 44 H        8.5100     7.6570     1.7320 H     1 <1>   0.1500 
 45 H        9.7770     2.1870     2.9190 H     1 <1>   0.1500 
 46 H       10.1180     4.2340     4.1770 H     1 <1>   0.1500 
@<TRIPOS>BOND
  1   1   2  2   
  2   2   3  am  
  3   2   4  1   
  4   3   5  1   
  5   3  26  1   
  6   4   6  1   
  7   4  27  1   
  8   4  28  1   
  9   5   6  1   
 10   5   7  1   
 11   5   8  1   
 12   6   9  1   
 13   6  29  1   
 14   7  10  1   
 15   7  30  1   
 16   7  31  1   
 17   8  11  1   
 18   8  32  1   
 19   8  33  1   
 20   9  12  ar  
 21   9  13  ar  
 22  10  14  1   
 23  10  34  1   
 24  10  35  1   
 25  11  14  1   
 26  11  36  1   
 27  11  37  1   
 28  14  15  1   
 29  14  38  1   
 30  15  16  1   
 31  15  39  1   
 32  15  40  1   
 33  16  17  ar  
 34  16  18  ar  
 35  17  19  ar  
 36  17  20  ar  
 37  18  21  ar  
 38  18  41  1   
 39  19  22  ar  
 40  19  23  ar  
 41  20  24  ar  
 42  20  42  1   
 43  21  23  ar  
 44  21  43  1   
 45  22  25  ar  
 46  23  44  1   
 47  24  25  ar  
 48  24  45  1   
 49  25  46  1   
@<TRIPOS>SUBSTRUCTURE
  1 ****  14 GROUP 4 **** **** 0

# MOE 2024.06 (io_trps.svl 2023.06)
