@<TRIPOS>MOLECULE
NONAME
41 42 1 0 0 
SMALL
USER_CHARGES


@<TRIPOS>ATOM
  1 O       -0.6430     0.6490    -1.4280 O.2   1 <1>  -0.5700 
  2 C       -1.4430     1.1280    -0.6330 C.2   1 <1>   0.6160 
  3 N       -2.1960     0.3160     0.1970 N.am  1 <1>  -0.4690 
  4 C       -1.6110     2.5320    -0.5400 C.2   1 <1>  -0.1360 
  5 C       -3.0860     0.8820     1.0880 C.2   1 <1>  -0.0410 
  6 C       -2.0640    -1.1610     0.1300 C.3   1 <1>   0.1400 
  7 C       -2.4760     3.1160     0.3480 C.2   1 <1>   0.0140 
  8 C       -3.2320     2.2290     1.1720 C.2   1 <1>  -0.1500 
  9 C       -3.0930    -1.7260    -0.8480 C.3   1 <1>  -0.2400 
 10 C       -2.6510     4.5500     0.4750 C.2   1 <1>   0.6160 
 11 O       -3.6800     5.0050     0.9330 O.2   1 <1>  -0.5700 
 12 N       -1.6330     5.3910     0.0950 N.am  1 <1>  -0.4940 
 13 C       -1.5250     6.8030     0.0780 C.2   1 <1>  -0.0880 
 14 N       -2.5030     7.7230    -0.1670 N.pl3 1 <1>   0.3140 
 15 C       -0.3840     7.5080     0.2740 C.2   1 <1>  -0.1810 
 16 N       -2.0110     8.9820    -0.1370 N.2   1 <1>  -0.7070 
 17 C       -3.9100     7.5060    -0.5270 C.3   1 <1>   0.0160 
 18 C       -0.7530     8.8420     0.1280 C.2   1 <1>   0.1080 
 19 C        1.0030     6.9740     0.5910 C.3   1 <1>   0.0210 
 20 C        0.1680    10.0350     0.2560 C.3   1 <1>  -0.0590 
 21 C        1.7760     6.6890    -0.6980 C.3   1 <1>  -0.2400 
 22 H       -1.0160     3.1050    -1.2230 H     1 <1>   0.1500 
 23 H       -3.6590     0.2140     1.7100 H     1 <1>   0.1500 
 24 H       -2.2190    -1.5790     1.1090 H     1 <1>   0.0800 
 25 H       -1.0690    -1.4270    -0.1890 H     1 <1>   0.0800 
 26 H       -3.9300     2.6630     1.8700 H     1 <1>   0.1500 
 27 H       -4.0900    -1.4790    -0.5310 H     1 <1>   0.0800 
 28 H       -3.0010    -2.7960    -0.8930 H     1 <1>   0.0800 
 29 H       -2.9200    -1.3290    -1.8330 H     1 <1>   0.0800 
 30 H       -0.7460     4.9210    -0.0770 H     1 <1>   0.3700 
 31 H       -3.9920     6.6270    -1.1360 H     1 <1>   0.0800 
 32 H       -4.2690     8.3580    -1.0720 H     1 <1>   0.0800 
 33 H       -4.4840     7.3860     0.3720 H     1 <1>   0.0800 
 34 H        0.9160     6.0720     1.1700 H     1 <1>   0.0800 
 35 H        1.5380     7.6910     1.1880 H     1 <1>   0.0800 
 36 H        1.0840     9.8560    -0.2740 H     1 <1>   0.0800 
 37 H        0.3810    10.2160     1.2920 H     1 <1>   0.0800 
 38 H       -0.3080    10.9060    -0.1580 H     1 <1>   0.0800 
 39 H        1.2530     5.9640    -1.2950 H     1 <1>   0.0800 
 40 H        2.7550     6.3100    -0.4670 H     1 <1>   0.0800 
 41 H        1.8820     7.5920    -1.2730 H     1 <1>   0.0800 
@<TRIPOS>BOND
  1   1   2  2   
  2   2   3  am  
  3   2   4  1   
  4   3   5  1   
  5   3   6  1   
  6   4   7  2   
  7   4  22  1   
  8   5   8  2   
  9   5  23  1   
 10   6   9  1   
 11   6  24  1   
 12   6  25  1   
 13   7   8  1   
 14   7  10  1   
 15   8  26  1   
 16   9  27  1   
 17   9  28  1   
 18   9  29  1   
 19  10  11  2   
 20  10  12  am  
 21  12  13  1   
 22  12  30  1   
 23  13  14  1   
 24  13  15  2   
 25  14  16  1   
 26  14  17  1   
 27  15  18  1   
 28  15  19  1   
 29  16  18  2   
 30  17  31  1   
 31  17  32  1   
 32  17  33  1   
 33  18  20  1   
 34  19  21  1   
 35  19  34  1   
 36  19  35  1   
 37  20  36  1   
 38  20  37  1   
 39  20  38  1   
 40  21  39  1   
 41  21  40  1   
 42  21  41  1   
@<TRIPOS>SUBSTRUCTURE
  1 ****  12 GROUP 4 **** **** 0

# MOE 2024.06 (io_trps.svl 2023.06)
