@<TRIPOS>MOLECULE
NONAME
49 51 1 0 0 
SMALL
USER_CHARGES


@<TRIPOS>ATOM
  1 O       -0.4180     1.0000     0.1880 O.2   1 <1>  -0.5700 
  2 C       -0.3870     2.2040     0.1820 C.2   1 <1>   0.5690 
  3 N       -1.3590     2.9250     0.7790 N.am  1 <1>  -0.7300 
  4 C        0.7390     2.9440    -0.5380 C.3   1 <1>   0.1810 
  5 C       -1.4530     4.4060     0.7110 C.3   1 <1>   0.3640 
  6 O        0.9060     4.2570    -0.0520 O.3   1 <1>  -0.5600 
  7 C       -2.7990     4.7580     0.0790 C.ar  1 <1>  -0.1440 
  8 C       -0.2740     5.0590    -0.0680 C.3   1 <1>   0.2610 
  9 C       -3.2520     4.1110    -1.0660 C.ar  1 <1>  -0.1500 
 10 C       -3.5930     5.7440     0.6470 C.ar  1 <1>  -0.1500 
 11 C        0.0300     6.4480     0.5130 C.2   1 <1>   0.5690 
 12 C       -4.4740     4.4410    -1.6260 C.ar  1 <1>  -0.1500 
 13 C       -4.8150     6.0760     0.0880 C.ar  1 <1>  -0.1500 
 14 O       -0.8620     7.2480     0.6630 O.2   1 <1>  -0.5700 
 15 N        1.3120     6.7520     0.8550 N.am  1 <1>  -0.7300 
 16 C       -5.2570     5.4240    -1.0490 C.ar  1 <1>  -0.1500 
 17 C        1.7840     8.0340     1.4110 C.3   1 <1>   0.1400 
 18 C        2.6760     8.7250     0.3820 C.3   1 <1>  -0.1600 
 19 C        3.1280    10.1030     0.8770 C.3   1 <1>   0.0210 
 20 C        3.9920    10.7850    -0.1700 C.2   1 <1>  -0.1810 
 21 C        3.6410    11.6500    -1.1350 C.2   1 <1>  -0.0400 
 22 C        5.3700    10.6500    -0.3510 C.2   1 <1>   0.1080 
 23 O        4.7190    11.9750    -1.7980 O.3   1 <1>  -0.0190 
 24 C        2.3120    12.2490    -1.5450 C.3   1 <1>  -0.0600 
 25 N        5.7740    11.3750    -1.3310 N.2   1 <1>  -0.4100 
 26 C        6.2930     9.7820     0.4760 C.3   1 <1>  -0.0590 
 27 H       -2.1470     2.4310     1.2000 H     1 <1>   0.3700 
 28 H        0.5270     2.9910    -1.5910 H     1 <1>   0.0800 
 29 H        1.6630     2.4170    -0.3900 H     1 <1>   0.0800 
 30 H       -1.4370     4.7770     1.7220 H     1 <1>   0.0800 
 31 H       -0.5590     5.1910    -1.0950 H     1 <1>   0.0800 
 32 H       -2.6600     3.3410    -1.5300 H     1 <1>   0.1500 
 33 H       -3.2630     6.2700     1.5270 H     1 <1>   0.1500 
 34 H       -4.8160     3.9330    -2.5110 H     1 <1>   0.1500 
 35 H       -5.4190     6.8450     0.5370 H     1 <1>   0.1500 
 36 H        2.0150     6.0200     0.6980 H     1 <1>   0.3700 
 37 H       -6.2070     5.6830    -1.4840 H     1 <1>   0.1500 
 38 H        0.9380     8.6610     1.6440 H     1 <1>   0.0800 
 39 H        2.3300     7.8480     2.3210 H     1 <1>   0.0800 
 40 H        3.5390     8.1150     0.1820 H     1 <1>   0.0800 
 41 H        2.1250     8.8510    -0.5350 H     1 <1>   0.0800 
 42 H        3.6800    10.0090     1.7950 H     1 <1>   0.0800 
 43 H        2.2650    10.7150     1.0750 H     1 <1>   0.0800 
 44 H        1.5180    11.8700    -0.9290 H     1 <1>   0.0800 
 45 H        2.1050    11.9990    -2.5700 H     1 <1>   0.0800 
 46 H        2.3520    13.3190    -1.4490 H     1 <1>   0.0800 
 47 H        5.9900     8.7540     0.4060 H     1 <1>   0.0800 
 48 H        6.2650    10.0940     1.5040 H     1 <1>   0.0800 
 49 H        7.3010     9.8710     0.1140 H     1 <1>   0.0800 
@<TRIPOS>BOND
  1   1   2  2   
  2   2   3  am  
  3   2   4  1   
  4   3   5  1   
  5   3  27  1   
  6   4   6  1   
  7   4  28  1   
  8   4  29  1   
  9   5   7  1   
 10   5   8  1   
 11   5  30  1   
 12   6   8  1   
 13   7   9  ar  
 14   7  10  ar  
 15   8  11  1   
 16   8  31  1   
 17   9  12  ar  
 18   9  32  1   
 19  10  13  ar  
 20  10  33  1   
 21  11  14  2   
 22  11  15  am  
 23  12  16  ar  
 24  12  34  1   
 25  13  16  ar  
 26  13  35  1   
 27  15  17  1   
 28  15  36  1   
 29  16  37  1   
 30  17  18  1   
 31  17  38  1   
 32  17  39  1   
 33  18  19  1   
 34  18  40  1   
 35  18  41  1   
 36  19  20  1   
 37  19  42  1   
 38  19  43  1   
 39  20  21  2   
 40  20  22  1   
 41  21  23  1   
 42  21  24  1   
 43  22  25  2   
 44  22  26  1   
 45  23  25  1   
 46  24  44  1   
 47  24  45  1   
 48  24  46  1   
 49  26  47  1   
 50  26  48  1   
 51  26  49  1   
@<TRIPOS>SUBSTRUCTURE
  1 ****  11 GROUP 4 **** **** 0

# MOE 2024.06 (io_trps.svl 2023.06)
