@<TRIPOS>MOLECULE
NONAME
45 48 1 0 0 
SMALL
USER_CHARGES


@<TRIPOS>ATOM
  1 O       -0.4460     0.9030    -0.9520 O.2   1 <1>  -0.5700 
  2 C       -0.3590     2.0320    -0.5280 C.2   1 <1>   0.5690 
  3 N       -1.3880     2.6710     0.1130 N.am  1 <1>  -0.5090 
  4 C        0.9580     2.7720    -0.7620 C.3   1 <1>   0.1810 
  5 C       -1.3080     4.1250     0.4650 C.3   1 <1>   0.3640 
  6 C       -2.6390     1.9750     0.5060 C.3   1 <1>   0.0490 
  7 O        1.0940     3.9290     0.0270 O.3   1 <1>  -0.5600 
  8 C       -2.5230     4.8650    -0.0960 C.ar  1 <1>  -0.1440 
  9 C       -0.0120     4.8080    -0.0440 C.3   1 <1>   0.2610 
 10 C       -3.0340     1.9670     1.9500 C.3   1 <1>  -0.2000 
 11 C       -2.5620     0.7080     1.2970 C.3   1 <1>  -0.2000 
 12 C       -3.2220     5.7540     0.7090 C.ar  1 <1>   0.1600 
 13 C       -2.9510     4.6780    -1.3990 C.ar  1 <1>  -0.1500 
 14 C        0.2790     6.1180     0.7120 C.2   1 <1>   0.5690 
 15 N       -4.2840     6.4480     0.3290 N.ar  1 <1>  -0.6200 
 16 C       -4.0550     5.3930    -1.8090 C.ar  1 <1>  -0.1500 
 17 O       -0.2870     6.3160     1.7650 O.2   1 <1>  -0.5700 
 18 N        1.1500     7.0520     0.2000 N.am  1 <1>  -0.6600 
 19 C       -4.6750     6.2510    -0.9180 C.ar  1 <1>   0.1600 
 20 C        1.3980     8.3560     0.8900 C.3   1 <1>   0.1400 
 21 C        2.0680     6.8400    -0.9610 C.3   1 <1>   0.1400 
 22 C        2.8940     8.5250     1.2020 C.3   1 <1>   0.1200 
 23 C        3.5270     7.0860    -0.5400 C.3   1 <1>   0.1200 
 24 O        3.6630     8.3500     0.0450 O.3   1 <1>  -0.5600 
 25 H        1.0330     3.0520    -1.7960 H     1 <1>   0.0800 
 26 H        1.7770     2.1180    -0.5220 H     1 <1>   0.0800 
 27 H       -1.3260     4.1840     1.5390 H     1 <1>   0.0800 
 28 H       -3.4120     2.0580    -0.2400 H     1 <1>   0.1000 
 29 H       -0.1510     5.0630    -1.0790 H     1 <1>   0.0800 
 30 H       -2.3950     2.4130     2.6910 H     1 <1>   0.1000 
 31 H       -4.0780     2.0490     2.1990 H     1 <1>   0.1000 
 32 H       -3.2780    -0.0670     1.0920 H     1 <1>   0.1000 
 33 H       -1.5900     0.3170     1.5450 H     1 <1>   0.1000 
 34 H       -2.8910     5.9110     1.7230 H     1 <1>   0.1500 
 35 H       -2.4560     3.9970    -2.0700 H     1 <1>   0.1500 
 36 H       -4.4360     5.2880    -2.8080 H     1 <1>   0.1500 
 37 H       -5.5380     6.8050    -1.2480 H     1 <1>   0.1500 
 38 H        1.0770     9.1610     0.2530 H     1 <1>   0.0800 
 39 H        0.8370     8.4190     1.8060 H     1 <1>   0.0800 
 40 H        1.9850     5.8430    -1.3500 H     1 <1>   0.0800 
 41 H        1.8090     7.5270    -1.7470 H     1 <1>   0.0800 
 42 H        3.2080     7.8060     1.9400 H     1 <1>   0.0800 
 43 H        3.0850     9.5140     1.5790 H     1 <1>   0.0800 
 44 H        4.1730     7.0510    -1.3980 H     1 <1>   0.0800 
 45 H        3.8480     6.3410     0.1670 H     1 <1>   0.0800 
@<TRIPOS>BOND
  1   1   2  2   
  2   2   3  am  
  3   2   4  1   
  4   3   5  1   
  5   3   6  1   
  6   4   7  1   
  7   4  25  1   
  8   4  26  1   
  9   5   8  1   
 10   5   9  1   
 11   5  27  1   
 12   6  10  1   
 13   6  11  1   
 14   6  28  1   
 15   7   9  1   
 16   8  12  ar  
 17   8  13  ar  
 18   9  14  1   
 19   9  29  1   
 20  10  11  1   
 21  10  30  1   
 22  10  31  1   
 23  11  32  1   
 24  11  33  1   
 25  12  15  ar  
 26  12  34  1   
 27  13  16  ar  
 28  13  35  1   
 29  14  17  2   
 30  14  18  am  
 31  15  19  ar  
 32  16  19  ar  
 33  16  36  1   
 34  18  20  1   
 35  18  21  1   
 36  19  37  1   
 37  20  22  1   
 38  20  38  1   
 39  20  39  1   
 40  21  23  1   
 41  21  40  1   
 42  21  41  1   
 43  22  24  1   
 44  22  42  1   
 45  22  43  1   
 46  23  24  1   
 47  23  44  1   
 48  23  45  1   
@<TRIPOS>SUBSTRUCTURE
  1 ****   9 GROUP 4 **** **** 0

# MOE 2024.06 (io_trps.svl 2023.06)
