@<TRIPOS>MOLECULE
NONAME
53 56 1 0 0 
SMALL
USER_CHARGES


@<TRIPOS>ATOM
  1 S       -1.5920     3.1910     1.3850 S.3   1 <1>  -0.0800 
  2 C       -1.7510     2.2090    -0.0470 C.2   1 <1>   0.1980 
  3 C       -2.8190     2.2280     2.1400 C.2   1 <1>  -0.1100 
  4 N       -2.6190     1.2870     0.0440 N.2   1 <1>  -0.5650 
  5 C       -0.8640     2.5490    -1.2220 C.3   1 <1>  -0.0600 
  6 C       -3.2610     1.2640     1.3000 C.2   1 <1>   0.1410 
  7 C       -4.2910     0.2870     1.6680 C.2   1 <1>   0.7160 
  8 O       -4.6260     0.2290     2.8400 O.2   1 <1>  -0.5700 
  9 N       -4.9330    -0.5670     0.7810 N.am  1 <1>  -0.6600 
 10 C       -4.9420    -0.3740    -0.7000 C.3   1 <1>   0.1400 
 11 C       -5.8090    -1.6720     1.2620 C.3   1 <1>   0.1400 
 12 C       -6.2580    -0.8610    -1.3220 C.3   1 <1>  -0.1600 
 13 C       -7.2750    -1.3490     0.9400 C.3   1 <1>  -0.1600 
 14 C       -7.4620    -0.5990    -0.4010 C.3   1 <1>   0.2800 
 15 O       -8.5540    -1.1780    -1.0640 O.3   1 <1>  -0.5600 
 16 C       -7.6570     0.9290    -0.1590 C.3   1 <1>   0.1400 
 17 C       -9.8270    -0.7100    -0.7540 C.3   1 <1>   0.1200 
 18 N       -8.0350     1.6880    -1.3890 N.am  1 <1>  -0.6600 
 19 C      -10.2190     0.4060    -1.7270 C.3   1 <1>  -0.0990 
 20 C       -9.1780     1.4510    -2.1080 C.2   1 <1>   0.5690 
 21 C       -7.0620     2.7320    -1.8290 C.3   1 <1>   0.2840 
 22 O       -9.4330     2.0960    -3.0980 O.2   1 <1>  -0.5700 
 23 C       -6.7610     3.7050    -0.6960 C.ar  1 <1>  -0.1440 
 24 C       -7.7750     4.4960    -0.1770 C.ar  1 <1>  -0.1500 
 25 C       -5.4810     3.8090    -0.1720 C.ar  1 <1>  -0.1500 
 26 C       -7.5150     5.3790     0.8570 C.ar  1 <1>  -0.1500 
 27 C       -5.2200     4.6920     0.8620 C.ar  1 <1>  -0.1500 
 28 C       -6.2370     5.4760     1.3780 C.ar  1 <1>  -0.1500 
 29 H       -3.1030     2.4620     3.1500 H     1 <1>   0.1500 
 30 H        0.1680     2.4660    -0.9340 H     1 <1>   0.0800 
 31 H       -1.0620     3.5520    -1.5510 H     1 <1>   0.0800 
 32 H       -1.0570     1.8690    -2.0320 H     1 <1>   0.0800 
 33 H       -4.1070    -0.8940    -1.1380 H     1 <1>   0.0800 
 34 H       -4.8360     0.6740    -0.9210 H     1 <1>   0.0800 
 35 H       -5.6910    -1.8370     2.3200 H     1 <1>   0.0800 
 36 H       -5.5190    -2.5790     0.7600 H     1 <1>   0.0800 
 37 H       -6.1820    -1.9160    -1.5130 H     1 <1>   0.0800 
 38 H       -6.4040    -0.3730    -2.2690 H     1 <1>   0.0800 
 39 H       -7.6760    -0.7660     1.7490 H     1 <1>   0.0800 
 40 H       -7.8140    -2.2800     0.9180 H     1 <1>   0.0800 
 41 H       -6.7490     1.3290     0.2530 H     1 <1>   0.0800 
 42 H       -8.4060     1.0990     0.5920 H     1 <1>   0.0800 
 43 H       -9.8690    -0.3920     0.2730 H     1 <1>   0.0800 
 44 H      -10.5080    -1.5360    -0.8700 H     1 <1>   0.0800 
 45 H      -11.0740     0.9210    -1.3330 H     1 <1>   0.0800 
 46 H      -10.5370    -0.0630    -2.6390 H     1 <1>   0.0800 
 47 H       -7.4480     3.2890    -2.6650 H     1 <1>   0.0800 
 48 H       -6.1570     2.2500    -2.1530 H     1 <1>   0.0800 
 49 H       -8.7700     4.4210    -0.5810 H     1 <1>   0.1500 
 50 H       -4.6800     3.2060    -0.5630 H     1 <1>   0.1500 
 51 H       -8.3070     5.9880     1.2540 H     1 <1>   0.1500 
 52 H       -4.2260     4.7700     1.2650 H     1 <1>   0.1500 
 53 H       -6.0340     6.1610     2.1820 H     1 <1>   0.1500 
@<TRIPOS>BOND
  1   1   2  1   
  2   1   3  1   
  3   2   4  2   
  4   2   5  1   
  5   3   6  2   
  6   3  29  1   
  7   4   6  1   
  8   5  30  1   
  9   5  31  1   
 10   5  32  1   
 11   6   7  1   
 12   7   8  2   
 13   7   9  am  
 14   9  10  1   
 15   9  11  1   
 16  10  12  1   
 17  10  33  1   
 18  10  34  1   
 19  11  13  1   
 20  11  35  1   
 21  11  36  1   
 22  12  14  1   
 23  12  37  1   
 24  12  38  1   
 25  13  14  1   
 26  13  39  1   
 27  13  40  1   
 28  14  15  1   
 29  14  16  1   
 30  15  17  1   
 31  16  18  1   
 32  16  41  1   
 33  16  42  1   
 34  17  19  1   
 35  17  43  1   
 36  17  44  1   
 37  18  20  am  
 38  18  21  1   
 39  19  20  1   
 40  19  45  1   
 41  19  46  1   
 42  20  22  2   
 43  21  23  1   
 44  21  47  1   
 45  21  48  1   
 46  23  24  ar  
 47  23  25  ar  
 48  24  26  ar  
 49  24  49  1   
 50  25  27  ar  
 51  25  50  1   
 52  26  28  ar  
 53  26  51  1   
 54  27  28  ar  
 55  27  52  1   
 56  28  53  1   
@<TRIPOS>SUBSTRUCTURE
  1 ****  16 GROUP 4 **** **** 0

# MOE 2024.06 (io_trps.svl 2023.06)
