@<TRIPOS>MOLECULE
NONAME
53 55 1 0 0 
SMALL
USER_CHARGES


@<TRIPOS>ATOM
  1 O        4.0200    -0.0280     1.0240 O.co2 1 <1>  -0.9000 
  2 C        3.8490     0.2560    -0.1780 C.2   1 <1>   1.0330 
  3 O        3.6020    -0.6740    -0.9690 O.co2 1 <1>  -0.9000 
  4 C        3.9580     1.6430    -0.6400 C.2   1 <1>  -0.2330 
  5 C        4.3800     2.1390    -1.8560 C.2   1 <1>  -0.3320 
  6 C        3.6460     2.7910     0.1180 C.2   1 <1>  -0.1810 
  7 N        4.3510     3.4860    -1.8410 N.pl3 1 <1>   0.0330 
  8 C        4.8280     1.3600    -3.0800 C.3   1 <1>  -0.0600 
  9 C        3.9480     3.9110    -0.6130 C.2   1 <1>  -0.2370 
 10 C        3.0470     2.7410     1.5130 C.3   1 <1>  -0.0590 
 11 C        3.9330     5.3160    -0.3100 C.2   1 <1>   0.7150 
 12 O        3.3620     6.0760    -1.0740 O.2   1 <1>  -0.5700 
 13 N        4.6010     5.8480     0.7770 N.am  1 <1>  -0.6600 
 14 C        5.5390     5.0450     1.6310 C.3   1 <1>   0.1400 
 15 C        4.5750     7.3150     1.0430 C.3   1 <1>   0.1400 
 16 C        7.0340     5.2870     1.3250 C.3   1 <1>   0.2000 
 17 C        5.4470     8.0680     0.0360 C.3   1 <1>   0.1200 
 18 O        7.3040     5.0640    -0.0240 O.3   1 <1>  -0.5600 
 19 C        7.9430     4.3010     2.0480 C.3   1 <1>  -0.1600 
 20 O        5.6340     9.3880     0.5010 O.3   1 <1>  -0.3630 
 21 C        7.5620     3.7100    -0.2490 C.3   1 <1>   0.1200 
 22 C        8.0350     3.1310     1.0810 C.3   1 <1>  -0.1600 
 23 C        6.4060    10.2650    -0.1870 C.ar  1 <1>   0.0820 
 24 C        6.5270    11.5400     0.3430 C.ar  1 <1>  -0.1500 
 25 C        7.0660     9.9520    -1.3730 C.ar  1 <1>  -0.1500 
 26 C        7.2980    12.4960    -0.2950 C.ar  1 <1>  -0.1500 
 27 C        7.8370    10.9090    -2.0100 C.ar  1 <1>  -0.1500 
 28 C        7.9540    12.1800    -1.4730 C.ar  1 <1>  -0.1500 
 29 H        4.5980     4.1170    -2.6100 H     1 <1>   0.2700 
 30 H        4.9130     0.3130    -2.8520 H     1 <1>   0.0800 
 31 H        5.7870     1.7110    -3.4140 H     1 <1>   0.0800 
 32 H        4.1090     1.4750    -3.8690 H     1 <1>   0.0800 
 33 H        2.1760     2.1120     1.5030 H     1 <1>   0.0800 
 34 H        2.7650     3.7220     1.8450 H     1 <1>   0.0800 
 35 H        3.7580     2.3190     2.2000 H     1 <1>   0.0800 
 36 H        5.3520     3.9960     1.5160 H     1 <1>   0.0800 
 37 H        5.3510     5.2780     2.6630 H     1 <1>   0.0800 
 38 H        4.9310     7.5060     2.0400 H     1 <1>   0.0800 
 39 H        3.5620     7.6700     0.9660 H     1 <1>   0.0800 
 40 H        7.3020     6.3000     1.5670 H     1 <1>   0.0800 
 41 H        4.9630     8.1090    -0.9230 H     1 <1>   0.0800 
 42 H        6.4130     7.6040    -0.0520 H     1 <1>   0.0800 
 43 H        7.5620     4.0120     3.0120 H     1 <1>   0.0800 
 44 H        8.9120     4.7510     2.1740 H     1 <1>   0.0800 
 45 H        8.3070     3.6250    -1.0200 H     1 <1>   0.0800 
 46 H        6.6510     3.2330    -0.5650 H     1 <1>   0.0800 
 47 H        7.3750     2.3310     1.3720 H     1 <1>   0.0800 
 48 H        9.0370     2.7480     1.0060 H     1 <1>   0.0800 
 49 H        6.0140    11.7770     1.2570 H     1 <1>   0.1500 
 50 H        6.9940     8.9750    -1.8130 H     1 <1>   0.1500 
 51 H        7.3860    13.4830     0.1240 H     1 <1>   0.1500 
 52 H        8.3480    10.6650    -2.9250 H     1 <1>   0.1500 
 53 H        8.5530    12.9220    -1.9700 H     1 <1>   0.1500 
@<TRIPOS>BOND
  1   1   2  ar  
  2   2   3  ar  
  3   2   4  1   
  4   4   5  2   
  5   4   6  1   
  6   5   7  1   
  7   5   8  1   
  8   6   9  2   
  9   6  10  1   
 10   7   9  1   
 11   7  29  1   
 12   8  30  1   
 13   8  31  1   
 14   8  32  1   
 15   9  11  1   
 16  10  33  1   
 17  10  34  1   
 18  10  35  1   
 19  11  12  2   
 20  11  13  am  
 21  13  14  1   
 22  13  15  1   
 23  14  16  1   
 24  14  36  1   
 25  14  37  1   
 26  15  17  1   
 27  15  38  1   
 28  15  39  1   
 29  16  18  1   
 30  16  19  1   
 31  16  40  1   
 32  17  20  1   
 33  17  41  1   
 34  17  42  1   
 35  18  21  1   
 36  19  22  1   
 37  19  43  1   
 38  19  44  1   
 39  20  23  1   
 40  21  22  1   
 41  21  45  1   
 42  21  46  1   
 43  22  47  1   
 44  22  48  1   
 45  23  24  ar  
 46  23  25  ar  
 47  24  26  ar  
 48  24  49  1   
 49  25  27  ar  
 50  25  50  1   
 51  26  28  ar  
 52  26  51  1   
 53  27  28  ar  
 54  27  52  1   
 55  28  53  1   
@<TRIPOS>SUBSTRUCTURE
  1 ****  13 GROUP 4 **** **** 0

# MOE 2024.06 (io_trps.svl 2023.06)
