@<TRIPOS>MOLECULE
NONAME
44 47 1 0 0 
SMALL
USER_CHARGES


@<TRIPOS>ATOM
  1 S       -0.6720     0.5380    -0.7030 S.o2  1 <1>   1.4470 
  2 O       -0.8520    -0.3220    -1.8520 O.2   1 <1>  -0.6500 
  3 O       -1.1520     1.8990    -0.7590 O.2   1 <1>  -0.6500 
  4 N       -1.4400    -0.2070     0.6150 N.am  1 <1>  -0.8490 
  5 C        1.0590     0.5470    -0.2080 C.ar  1 <1>  -0.0090 
  6 C       -1.2750    -1.6820     0.6650 C.3   1 <1>   0.1960 
  7 C       -2.8770     0.1260     0.7240 C.3   1 <1>   0.1960 
  8 C        1.4100     1.0970     1.0140 C.ar  1 <1>   0.1600 
  9 C        2.0700     0.0260    -0.9980 C.ar  1 <1>  -0.1500 
 10 C       -2.2500    -2.4760    -0.2460 C.3   1 <1>   0.3440 
 11 C       -3.7550    -0.6750    -0.2630 C.3   1 <1>   0.2950 
 12 N        2.6410     1.1610     1.5030 N.ar  1 <1>  -0.6200 
 13 C        3.3590     0.0860    -0.5110 C.ar  1 <1>  -0.1500 
 14 O       -3.5680    -2.0430    -0.0470 O.3   1 <1>  -0.5600 
 15 C       -2.1570    -3.9670     0.0600 C.ar  1 <1>  -0.1430 
 16 C       -5.2430    -0.3790    -0.0590 C.3   1 <1>  -0.1950 
 17 C        3.5870     0.6550     0.7300 C.ar  1 <1>   0.1600 
 18 C       -2.8750    -4.5370     1.1030 C.ar  1 <1>  -0.1500 
 19 C       -1.3300    -4.7760    -0.7080 C.ar  1 <1>  -0.1500 
 20 C       -6.2360    -0.6230    -1.1510 C.3   1 <1>  -0.2000 
 21 C       -5.8970     0.7830    -0.7410 C.3   1 <1>  -0.2000 
 22 C       -2.7640    -5.8890     1.3780 C.ar  1 <1>  -0.1500 
 23 C       -1.2180    -6.1280    -0.4340 C.ar  1 <1>  -0.1500 
 24 C       -1.9340    -6.6850     0.6100 C.ar  1 <1>  -0.1500 
 25 H       -0.2630    -1.9500     0.4160 H     1 <1>   0.0800 
 26 H       -1.4410    -2.0060     1.6780 H     1 <1>   0.0800 
 27 H       -3.2080    -0.0970     1.7230 H     1 <1>   0.0800 
 28 H       -3.0340     1.1800     0.5710 H     1 <1>   0.0800 
 29 H        0.6270     1.5090     1.6290 H     1 <1>   0.1500 
 30 H        1.8560    -0.4090    -1.9600 H     1 <1>   0.1500 
 31 H       -2.0150    -2.3270    -1.2840 H     1 <1>   0.0800 
 32 H       -3.4820    -0.4490    -1.2800 H     1 <1>   0.0800 
 33 H        4.1810    -0.3030    -1.0840 H     1 <1>   0.1500 
 34 H       -5.5630    -0.5950     0.9460 H     1 <1>   0.1000 
 35 H        4.5960     0.6980     1.1040 H     1 <1>   0.1500 
 36 H       -3.5290    -3.9260     1.7030 H     1 <1>   0.1500 
 37 H       -0.7690    -4.3580    -1.5260 H     1 <1>   0.1500 
 38 H       -5.8820    -0.9940    -2.0970 H     1 <1>   0.1000 
 39 H       -7.1970    -1.0290    -0.8850 H     1 <1>   0.1000 
 40 H       -6.6350     1.3540    -0.2060 H     1 <1>   0.1000 
 41 H       -5.3250     1.3880    -1.4250 H     1 <1>   0.1000 
 42 H       -3.3270    -6.3200     2.1880 H     1 <1>   0.1500 
 43 H       -0.5750    -6.7480    -1.0350 H     1 <1>   0.1500 
 44 H       -1.8490    -7.7370     0.8220 H     1 <1>   0.1500 
@<TRIPOS>BOND
  1   1   2  2   
  2   1   3  2   
  3   1   4  am  
  4   1   5  1   
  5   4   6  1   
  6   4   7  1   
  7   5   8  ar  
  8   5   9  ar  
  9   6  10  1   
 10   6  25  1   
 11   6  26  1   
 12   7  11  1   
 13   7  27  1   
 14   7  28  1   
 15   8  12  ar  
 16   8  29  1   
 17   9  13  ar  
 18   9  30  1   
 19  10  14  1   
 20  10  15  1   
 21  10  31  1   
 22  11  14  1   
 23  11  16  1   
 24  11  32  1   
 25  12  17  ar  
 26  13  17  ar  
 27  13  33  1   
 28  15  18  ar  
 29  15  19  ar  
 30  16  20  1   
 31  16  21  1   
 32  16  34  1   
 33  17  35  1   
 34  18  22  ar  
 35  18  36  1   
 36  19  23  ar  
 37  19  37  1   
 38  20  21  1   
 39  20  38  1   
 40  20  39  1   
 41  21  40  1   
 42  21  41  1   
 43  22  24  ar  
 44  22  42  1   
 45  23  24  ar  
 46  23  43  1   
 47  24  44  1   
@<TRIPOS>SUBSTRUCTURE
  1 ****   6 GROUP 4 **** **** 0

# MOE 2024.06 (io_trps.svl 2023.06)
