@<TRIPOS>MOLECULE
NONAME
49 51 1 0 0 
SMALL
USER_CHARGES


@<TRIPOS>ATOM
  1 O        1.2540    -0.1720     0.8250 O.co2 1 <1>  -0.9000 
  2 C        2.3830     0.2770     0.6030 C.2   1 <1>   0.9060 
  3 O        3.1710    -0.2640    -0.1820 O.co2 1 <1>  -0.9000 
  4 C        2.8380     1.5130     1.3540 C.3   1 <1>  -0.1220 
  5 C        2.7150     2.8180     0.5650 C.ar  1 <1>  -0.1440 
  6 C        2.1000     3.9260     1.1240 C.ar  1 <1>  -0.1500 
  7 C        3.2200     2.9000    -0.7210 C.ar  1 <1>  -0.1500 
  8 C        2.0020     5.1070     0.4100 C.ar  1 <1>  -0.1500 
  9 C        3.1210     4.0750    -1.4420 C.ar  1 <1>  -0.1500 
 10 C        2.5230     5.1890    -0.8740 C.ar  1 <1>  -0.1440 
 11 C        2.4590     6.4960    -1.6240 C.3   1 <1>   0.4870 
 12 N        3.5810     7.3110    -1.0940 N.4   1 <1>  -0.9590 
 13 C        3.3360     8.7740    -1.1700 C.3   1 <1>   0.4860 
 14 C        4.8890     6.8960    -1.6980 C.3   1 <1>   0.3430 
 15 C        2.1720     9.1030    -0.2560 C.ar  1 <1>  -0.1430 
 16 C        6.0620     7.0520    -0.7180 C.3   1 <1>   0.2000 
 17 C        0.9210     9.4180    -0.7520 C.ar  1 <1>  -0.1500 
 18 C        2.3030     9.0980     1.1210 C.ar  1 <1>  -0.1500 
 19 O        7.2160     6.6390    -1.3620 O.3   1 <1>  -0.5600 
 20 C        5.9660     6.1700     0.5220 C.3   1 <1>  -0.1600 
 21 C       -0.1150     9.6860     0.1280 C.ar  1 <1>   0.1600 
 22 C        1.2020     9.3810     1.9120 C.ar  1 <1>   0.1600 
 23 C        8.1430     6.1000    -0.4660 C.3   1 <1>   0.1200 
 24 C        7.4250     5.9470     0.8710 C.3   1 <1>  -0.1600 
 25 N        0.0000     9.6640     1.4440 N.ar  1 <1>  -0.6200 
 26 H        3.8640     1.3610     1.6260 H     1 <1>   0.0800 
 27 H        2.2610     1.5670     2.2560 H     1 <1>   0.0800 
 28 H        1.6910     3.8600     2.1170 H     1 <1>   0.1500 
 29 H        3.6850     2.0300    -1.1620 H     1 <1>   0.1500 
 30 H        1.5100     5.9480     0.8690 H     1 <1>   0.1500 
 31 H        3.5160     4.0920    -2.4430 H     1 <1>   0.1500 
 32 H        1.5100     6.9660    -1.4230 H     1 <1>   0.0800 
 33 H        2.5570     6.3370    -2.6860 H     1 <1>   0.0800 
 34 H        3.6070     7.0450    -0.1020 H     1 <1>   0.4500 
 35 H        3.1130     9.0680    -2.1830 H     1 <1>   0.0800 
 36 H        4.2090     9.3160    -0.8410 H     1 <1>   0.0800 
 37 H        5.0890     7.4710    -2.5870 H     1 <1>   0.0800 
 38 H        4.8460     5.8550    -1.9730 H     1 <1>   0.0800 
 39 H        6.2100     8.0830    -0.4450 H     1 <1>   0.0800 
 40 H        0.7260     9.4650    -1.8090 H     1 <1>   0.1500 
 41 H        3.2420     8.8840     1.6000 H     1 <1>   0.1500 
 42 H        5.5030     5.2280     0.2760 H     1 <1>   0.0800 
 43 H        5.4230     6.6350     1.3250 H     1 <1>   0.0800 
 44 H       -1.0880     9.9300    -0.2670 H     1 <1>   0.1500 
 45 H        1.3130     9.3760     2.9850 H     1 <1>   0.1500 
 46 H        8.9860     6.7670    -0.3940 H     1 <1>   0.0800 
 47 H        8.4630     5.1470    -0.8530 H     1 <1>   0.0800 
 48 H        7.5980     4.9780     1.3070 H     1 <1>   0.0800 
 49 H        7.7760     6.7030     1.5520 H     1 <1>   0.0800 
@<TRIPOS>BOND
  1   1   2  ar  
  2   2   3  ar  
  3   2   4  1   
  4   4   5  1   
  5   4  26  1   
  6   4  27  1   
  7   5   6  ar  
  8   5   7  ar  
  9   6   8  ar  
 10   6  28  1   
 11   7   9  ar  
 12   7  29  1   
 13   8  10  ar  
 14   8  30  1   
 15   9  10  ar  
 16   9  31  1   
 17  10  11  1   
 18  11  12  1   
 19  11  32  1   
 20  11  33  1   
 21  12  13  1   
 22  12  14  1   
 23  12  34  1   
 24  13  15  1   
 25  13  35  1   
 26  13  36  1   
 27  14  16  1   
 28  14  37  1   
 29  14  38  1   
 30  15  17  ar  
 31  15  18  ar  
 32  16  19  1   
 33  16  20  1   
 34  16  39  1   
 35  17  21  ar  
 36  17  40  1   
 37  18  22  ar  
 38  18  41  1   
 39  19  23  1   
 40  20  24  1   
 41  20  42  1   
 42  20  43  1   
 43  21  25  ar  
 44  21  44  1   
 45  22  25  ar  
 46  22  45  1   
 47  23  24  1   
 48  23  46  1   
 49  23  47  1   
 50  24  48  1   
 51  24  49  1   
@<TRIPOS>SUBSTRUCTURE
  1 ****  10 GROUP 4 **** **** 0

# MOE 2024.06 (io_trps.svl 2023.06)
