@<TRIPOS>MOLECULE
NONAME
42 44 1 0 0 
SMALL
USER_CHARGES


@<TRIPOS>ATOM
  1 O        0.1120    -0.4230     1.0150 O.2   1 <1>  -0.5700 
  2 C        0.0780    -1.6400     0.8910 C.2   1 <1>   0.6160 
  3 N        0.8370    -2.2770    -0.0800 N.am  1 <1>  -0.4690 
  4 C       -0.7340    -2.4510     1.7290 C.2   1 <1>  -0.1360 
  5 C        0.7810    -3.6430    -0.2230 C.2   1 <1>  -0.0410 
  6 C        1.7210    -1.4650    -0.9550 C.3   1 <1>   0.0600 
  7 C       -0.7840    -3.8010     1.5780 C.2   1 <1>  -0.1500 
  8 C       -0.0170    -4.4430     0.5570 C.2   1 <1>   0.0140 
  9 C       -0.0700    -5.8740     0.3670 C.2   1 <1>   0.6160 
 10 O        0.9490    -6.4830     0.0940 O.2   1 <1>  -0.5700 
 11 N       -1.2490    -6.5830     0.4590 N.am  1 <1>  -0.6600 
 12 C       -2.5820    -6.0140     0.1310 C.3   1 <1>   0.1400 
 13 C       -1.2780    -8.0640     0.3400 C.3   1 <1>   0.1400 
 14 C       -3.3690    -7.1800    -0.4630 C.3   1 <1>   0.2000 
 15 C       -2.7500    -8.4330     0.1500 C.3   1 <1>  -0.0800 
 16 O       -4.7150    -7.1040    -0.1470 O.3   1 <1>  -0.6800 
 17 C       -2.9630    -9.6900    -0.7060 C.3   1 <1>   0.0200 
 18 C       -2.2620   -10.8870    -0.0930 C.2   1 <1>  -0.0400 
 19 O       -2.6180   -11.3180     1.0880 O.3   1 <1>  -0.0190 
 20 C       -1.2630   -11.6650    -0.5330 C.2   1 <1>  -0.1500 
 21 N       -1.9070   -12.3410     1.4640 N.2   1 <1>  -0.4100 
 22 C       -1.0820   -12.5740     0.5070 C.2   1 <1>   0.1080 
 23 C       -0.0570   -13.6850     0.5180 C.3   1 <1>  -0.0590 
 24 H       -1.2940    -1.9340     2.4840 H     1 <1>   0.1500 
 25 H        1.3960    -4.0910    -0.9870 H     1 <1>   0.1500 
 26 H        2.2550    -2.0950    -1.6440 H     1 <1>   0.0800 
 27 H        2.4280    -0.9260    -0.3490 H     1 <1>   0.0800 
 28 H        1.1270    -0.7590    -1.5090 H     1 <1>   0.0800 
 29 H       -1.3860    -4.4150     2.2250 H     1 <1>   0.1500 
 30 H       -3.0500    -5.6650     1.0340 H     1 <1>   0.0800 
 31 H       -2.4940    -5.2100    -0.5800 H     1 <1>   0.0800 
 32 H       -0.6940    -8.3610    -0.5160 H     1 <1>   0.0800 
 33 H       -0.8670    -8.5240     1.2230 H     1 <1>   0.0800 
 34 H       -3.2700    -7.1750    -1.5360 H     1 <1>   0.0800 
 35 H       -3.1640    -8.5950     1.1300 H     1 <1>   0.0800 
 36 H       -4.8500    -7.2090     0.8150 H     1 <1>   0.4000 
 37 H       -2.5830    -9.5290    -1.6990 H     1 <1>   0.0800 
 38 H       -4.0160    -9.9010    -0.7820 H     1 <1>   0.0800 
 39 H       -0.7090   -11.6270    -1.4520 H     1 <1>   0.1500 
 40 H       -0.2280   -14.3480    -0.3090 H     1 <1>   0.0800 
 41 H       -0.1330   -14.2440     1.4340 H     1 <1>   0.0800 
 42 H        0.9310   -13.2700     0.4450 H     1 <1>   0.0800 
@<TRIPOS>BOND
  1   1   2  2   
  2   2   3  am  
  3   2   4  1   
  4   3   5  1   
  5   3   6  1   
  6   4   7  2   
  7   4  24  1   
  8   5   8  2   
  9   5  25  1   
 10   6  26  1   
 11   6  27  1   
 12   6  28  1   
 13   7   8  1   
 14   7  29  1   
 15   8   9  1   
 16   9  10  2   
 17   9  11  am  
 18  11  12  1   
 19  11  13  1   
 20  12  14  1   
 21  12  30  1   
 22  12  31  1   
 23  13  15  1   
 24  13  32  1   
 25  13  33  1   
 26  14  15  1   
 27  14  16  1   
 28  14  34  1   
 29  15  17  1   
 30  15  35  1   
 31  16  36  1   
 32  17  18  1   
 33  17  37  1   
 34  17  38  1   
 35  18  19  1   
 36  18  20  2   
 37  19  21  1   
 38  20  22  1   
 39  20  39  1   
 40  21  22  2   
 41  22  23  1   
 42  23  40  1   
 43  23  41  1   
 44  23  42  1   
@<TRIPOS>SUBSTRUCTURE
  1 ****  11 GROUP 4 **** **** 0

# MOE 2024.06 (io_trps.svl 2023.06)
