@<TRIPOS>MOLECULE
NONAME
45 47 1 0 0 
SMALL
USER_CHARGES


@<TRIPOS>ATOM
  1 O       -1.0240    -0.1050     0.1380 O.2   1 <1>  -0.5700 
  2 C       -1.7570     0.7460    -0.3410 C.2   1 <1>   0.7160 
  3 N       -2.9570     0.2910    -0.8590 N.am  1 <1>  -0.6600 
  4 C       -1.3690     2.1530    -0.3350 C.2   1 <1>   0.1410 
  5 C       -3.1140    -1.1300    -1.2630 C.3   1 <1>   0.1400 
  6 C       -4.2420     1.0070    -0.6320 C.3   1 <1>   0.1400 
  7 N       -1.9450     3.1080    -1.1330 N.2   1 <1>  -0.5650 
  8 C       -0.4080     2.7740     0.3950 C.2   1 <1>  -0.0400 
  9 C       -3.8650    -1.8900    -0.1490 C.3   1 <1>   0.4230 
 10 C       -5.0190     0.2670     0.4660 C.3   1 <1>  -0.1600 
 11 C       -1.3120     4.1810    -0.8370 C.2   1 <1>   0.3280 
 12 O       -0.3860     4.0320     0.0740 O.3   1 <1>  -0.2800 
 13 C        0.5780     2.2970     1.4460 C.3   1 <1>  -0.0600 
 14 N       -3.9160    -3.3980    -0.3580 N.4   1 <1>  -0.9590 
 15 C       -5.2480    -1.2450     0.1710 C.3   1 <1>   0.0000 
 16 C       -4.9650    -4.0930     0.4560 C.3   1 <1>   0.3430 
 17 C       -3.9930    -3.8520    -1.7860 C.3   1 <1>   0.2630 
 18 C       -5.8440    -1.9170     1.4440 C.3   1 <1>  -0.1600 
 19 C       -6.2130    -1.4150    -1.0380 C.3   1 <1>   0.1200 
 20 C       -5.2690    -3.3170     1.7360 C.3   1 <1>  -0.1600 
 21 O       -7.3870    -0.7000    -0.8630 O.3   1 <1>  -0.6800 
 22 H       -3.6470    -1.1620    -2.1950 H     1 <1>   0.0800 
 23 H       -2.1430    -1.5700    -1.4150 H     1 <1>   0.0800 
 24 H       -4.0680     2.0210    -0.3170 H     1 <1>   0.0800 
 25 H       -4.8070     1.0410    -1.5490 H     1 <1>   0.0800 
 26 H       -3.2710    -1.7320     0.7370 H     1 <1>   0.0800 
 27 H       -4.4580     0.3800     1.3790 H     1 <1>   0.0800 
 28 H       -5.9570     0.7710     0.6220 H     1 <1>   0.0800 
 29 H       -1.4720     5.1600    -1.2570 H     1 <1>   0.1500 
 30 H        0.4470     1.2540     1.6630 H     1 <1>   0.0800 
 31 H        0.4400     2.8570     2.3530 H     1 <1>   0.0800 
 32 H        1.5820     2.4510     1.0950 H     1 <1>   0.0800 
 33 H       -3.0100    -3.7310     0.0080 H     1 <1>   0.4500 
 34 H       -5.8750    -4.1770    -0.1160 H     1 <1>   0.0800 
 35 H       -4.6360    -5.0910     0.7030 H     1 <1>   0.0800 
 36 H       -4.9010    -3.4980    -2.2470 H     1 <1>   0.0800 
 37 H       -3.9810    -4.9290    -1.8360 H     1 <1>   0.0800 
 38 H       -3.1520    -3.4800    -2.3480 H     1 <1>   0.0800 
 39 H       -5.6620    -1.3090     2.3150 H     1 <1>   0.0800 
 40 H       -6.9140    -1.9920     1.3560 H     1 <1>   0.0800 
 41 H       -6.4860    -2.4440    -1.1850 H     1 <1>   0.0800 
 42 H       -5.7720    -1.0470    -1.9470 H     1 <1>   0.0800 
 43 H       -5.9780    -3.8710     2.3280 H     1 <1>   0.0800 
 44 H       -4.3690    -3.2340     2.3210 H     1 <1>   0.0800 
 45 H       -7.8960    -1.0040    -0.0860 H     1 <1>   0.4000 
@<TRIPOS>BOND
  1   1   2  2   
  2   2   3  am  
  3   2   4  1   
  4   3   5  1   
  5   3   6  1   
  6   4   7  1   
  7   4   8  2   
  8   5   9  1   
  9   5  22  1   
 10   5  23  1   
 11   6  10  1   
 12   6  24  1   
 13   6  25  1   
 14   7  11  2   
 15   8  12  1   
 16   8  13  1   
 17   9  14  1   
 18   9  15  1   
 19   9  26  1   
 20  10  15  1   
 21  10  27  1   
 22  10  28  1   
 23  11  12  1   
 24  11  29  1   
 25  13  30  1   
 26  13  31  1   
 27  13  32  1   
 28  14  16  1   
 29  14  17  1   
 30  14  33  1   
 31  15  18  1   
 32  15  19  1   
 33  16  20  1   
 34  16  34  1   
 35  16  35  1   
 36  17  36  1   
 37  17  37  1   
 38  17  38  1   
 39  18  20  1   
 40  18  39  1   
 41  18  40  1   
 42  19  21  1   
 43  19  41  1   
 44  19  42  1   
 45  20  43  1   
 46  20  44  1   
 47  21  45  1   
@<TRIPOS>SUBSTRUCTURE
  1 ****   3 GROUP 4 **** **** 0

# MOE 2024.06 (io_trps.svl 2023.06)
