@<TRIPOS>MOLECULE
NONAME
35 36 1 0 0 
SMALL
USER_CHARGES


@<TRIPOS>ATOM
  1 CL      -0.4840    -0.2910    -0.9690 Cl    1 <1>  -0.1770 
  2 C       -1.8410     0.6310    -0.3700 C.ar  1 <1>   0.1770 
  3 C       -2.8380     0.0110     0.3770 C.ar  1 <1>   0.0860 
  4 C       -1.8900     1.9770    -0.6790 C.ar  1 <1>  -0.1500 
  5 C       -2.7920    -1.3940     0.7050 C.2   1 <1>   0.5440 
  6 C       -3.9050     0.8040     0.8020 C.ar  1 <1>  -0.1500 
  7 C       -2.9590     2.7410    -0.2440 C.ar  1 <1>  -0.1500 
  8 O       -2.0140    -1.7830     1.5560 O.2   1 <1>  -0.5700 
  9 N       -3.6420    -2.2950     0.1050 N.am  1 <1>  -0.6600 
 10 C       -3.9730     2.1540     0.4960 C.ar  1 <1>  -0.1430 
 11 C       -3.8130    -3.6890     0.6430 C.3   1 <1>   0.1400 
 12 C       -4.5570    -1.9600    -1.0200 C.3   1 <1>   0.1400 
 13 C       -5.1470     2.9920     0.9690 C.3   1 <1>  -0.0970 
 14 C       -5.2540    -4.2270     0.4950 C.3   1 <1>   0.2000 
 15 C       -6.0200    -2.0170    -0.5520 C.3   1 <1>  -0.1600 
 16 O       -5.3920    -4.8880    -0.7160 O.3   1 <1>  -0.6800 
 17 C       -6.2850    -3.0900     0.5380 C.3   1 <1>  -0.1860 
 18 C       -7.6950    -3.6440     0.4790 C.2   1 <1>   0.9060 
 19 O       -8.5080    -3.2850     1.3330 O.co2 1 <1>  -0.9000 
 20 O       -7.9780    -4.4450    -0.4230 O.co2 1 <1>  -0.9000 
 21 H       -1.0980     2.4210    -1.2550 H     1 <1>   0.1500 
 22 H       -4.6840     0.3370     1.3800 H     1 <1>   0.1500 
 23 H       -3.0000     3.7900    -0.4830 H     1 <1>   0.1500 
 24 H       -3.1240    -4.3550     0.1540 H     1 <1>   0.0800 
 25 H       -3.5740    -3.6790     1.6920 H     1 <1>   0.0800 
 26 H       -4.3370    -0.9950    -1.4380 H     1 <1>   0.0800 
 27 H       -4.4100    -2.6910    -1.7980 H     1 <1>   0.0800 
 28 H       -5.5650     3.5410     0.1430 H     1 <1>   0.0800 
 29 H       -4.8200     3.6890     1.7200 H     1 <1>   0.0800 
 30 H       -5.9190     2.3720     1.3890 H     1 <1>   0.0800 
 31 H       -5.4610    -4.9470     1.2690 H     1 <1>   0.0800 
 32 H       -6.3230    -1.0560    -0.1780 H     1 <1>   0.0800 
 33 H       -6.6310    -2.2280    -1.4130 H     1 <1>   0.0800 
 34 H       -6.3820    -4.9390    -0.8750 H     1 <1>   0.4000 
 35 H       -6.1830    -2.6150     1.4950 H     1 <1>   0.0800 
@<TRIPOS>BOND
  1   1   2  1   
  2   2   3  ar  
  3   2   4  ar  
  4   3   5  1   
  5   3   6  ar  
  6   4   7  ar  
  7   4  21  1   
  8   5   8  2   
  9   5   9  am  
 10   6  10  ar  
 11   6  22  1   
 12   7  10  ar  
 13   7  23  1   
 14   9  11  1   
 15   9  12  1   
 16  10  13  1   
 17  11  14  1   
 18  11  24  1   
 19  11  25  1   
 20  12  15  1   
 21  12  26  1   
 22  12  27  1   
 23  13  28  1   
 24  13  29  1   
 25  13  30  1   
 26  14  16  1   
 27  14  17  1   
 28  14  31  1   
 29  15  17  1   
 30  15  32  1   
 31  15  33  1   
 32  16  34  1   
 33  17  18  1   
 34  17  35  1   
 35  18  19  ar  
 36  18  20  ar  
@<TRIPOS>SUBSTRUCTURE
  1 ****   9 GROUP 4 **** **** 0

# MOE 2024.06 (io_trps.svl 2023.06)
