@<TRIPOS>MOLECULE
NONAME
60 64 1 0 0 
SMALL
USER_CHARGES


@<TRIPOS>ATOM
  1 O        0.8060     3.8220    -1.6240 O.2   1 <1>  -0.5700 
  2 C        0.0490     3.3000    -0.8200 C.2   1 <1>   0.5440 
  3 N       -1.0320     2.5870    -1.3040 N.am  1 <1>  -0.6600 
  4 C        0.3180     3.4540     0.6060 C.ar  1 <1>   0.3960 
  5 C       -1.1090     2.1370    -2.7310 C.3   1 <1>   0.1400 
  6 C       -2.3290     2.4250    -0.5730 C.3   1 <1>   0.1400 
  7 N        0.7520     4.6410     1.0500 N.ar  1 <1>  -0.6200 
  8 C        0.1540     2.3710     1.4730 C.ar  1 <1>   0.1600 
  9 C       -2.3480     2.7250    -3.4250 C.3   1 <1>   0.1200 
 10 C       -3.4990     2.9880    -1.3990 C.3   1 <1>   0.1200 
 11 C        1.0100     4.6810     2.3410 C.ar  1 <1>   0.4100 
 12 N        0.3770     2.3970     2.7790 N.ar  1 <1>  -0.6200 
 13 O       -3.5020     2.4420    -2.6860 O.3   1 <1>  -0.5600 
 14 N        1.5510     5.8770     2.7880 N.pl3 1 <1>  -0.8380 
 15 C        0.8060     3.5770     3.1830 C.ar  1 <1>   0.1600 
 16 C        1.0570     7.2020     2.2380 C.3   1 <1>   0.2890 
 17 C        2.9410     5.8690     3.3540 C.3   1 <1>   0.2090 
 18 C        1.5790     7.4630     0.7960 C.3   1 <1>   0.3430 
 19 C        1.5350     8.3160     3.1770 C.3   1 <1>  -0.1600 
 20 C        3.7520     7.0760     2.8390 C.3   1 <1>  -0.0800 
 21 N        2.8000     6.6460     0.5170 N.4   1 <1>  -0.9590 
 22 C        3.0720     8.4020     3.2470 C.3   1 <1>  -0.1600 
 23 C        4.0140     7.0000     1.3180 C.3   1 <1>   0.3430 
 24 C        3.0320     6.4020    -0.9320 C.3   1 <1>   0.4860 
 25 C        4.2430     5.5020    -1.0970 C.ar  1 <1>  -0.1440 
 26 C        4.1440     4.1450    -0.8280 C.ar  1 <1>  -0.1500 
 27 C        5.4610     6.0300    -1.5040 C.ar  1 <1>  -0.1500 
 28 C        5.2530     3.3260    -0.9500 C.ar  1 <1>  -0.1500 
 29 C        6.5690     5.2100    -1.6260 C.ar  1 <1>  -0.1500 
 30 C        6.4660     3.8590    -1.3470 C.ar  1 <1>  -0.1500 
 31 H       -0.2270     2.4280    -3.2750 H     1 <1>   0.0800 
 32 H       -1.1700     1.0640    -2.7600 H     1 <1>   0.0800 
 33 H       -2.5050     1.3790    -0.3880 H     1 <1>   0.0800 
 34 H       -2.3010     2.9350     0.3740 H     1 <1>   0.0800 
 35 H       -0.1750     1.4340     1.0580 H     1 <1>   0.1500 
 36 H       -2.4670     2.2910    -4.4020 H     1 <1>   0.0800 
 37 H       -2.2540     3.7920    -3.5300 H     1 <1>   0.0800 
 38 H       -3.4290     4.0590    -1.4800 H     1 <1>   0.0800 
 39 H       -4.4360     2.7370    -0.9350 H     1 <1>   0.0800 
 40 H        1.0190     3.7010     4.2290 H     1 <1>   0.1500 
 41 H       -0.0210     7.2020     2.2250 H     1 <1>   0.0800 
 42 H        2.8750     5.9160     4.4290 H     1 <1>   0.0800 
 43 H        3.4410     4.9500     3.0930 H     1 <1>   0.0800 
 44 H        1.7740     8.5120     0.6510 H     1 <1>   0.0800 
 45 H        0.7990     7.1700     0.1120 H     1 <1>   0.0800 
 46 H        1.1310     9.2640     2.8670 H     1 <1>   0.0800 
 47 H        1.1420     8.1130     4.1590 H     1 <1>   0.0800 
 48 H        4.7170     7.0540     3.3140 H     1 <1>   0.0800 
 49 H        2.4880     5.7280     0.8920 H     1 <1>   0.4500 
 50 H        3.3480     8.6490     4.2590 H     1 <1>   0.0800 
 51 H        3.4270     9.2040     2.6210 H     1 <1>   0.0800 
 52 H        4.7680     6.2480     1.1500 H     1 <1>   0.0800 
 53 H        4.4130     7.9400     0.9760 H     1 <1>   0.0800 
 54 H        2.1700     5.9200    -1.3670 H     1 <1>   0.0800 
 55 H        3.2010     7.3340    -1.4440 H     1 <1>   0.0800 
 56 H        3.2050     3.7120    -0.5280 H     1 <1>   0.1500 
 57 H        5.5610     7.0770    -1.7310 H     1 <1>   0.1500 
 58 H        5.1720     2.2720    -0.7420 H     1 <1>   0.1500 
 59 H        7.5140     5.6190    -1.9430 H     1 <1>   0.1500 
 60 H        7.3270     3.2210    -1.4440 H     1 <1>   0.1500 
@<TRIPOS>BOND
  1   1   2  2   
  2   2   3  am  
  3   2   4  1   
  4   3   5  1   
  5   3   6  1   
  6   4   7  ar  
  7   4   8  ar  
  8   5   9  1   
  9   5  31  1   
 10   5  32  1   
 11   6  10  1   
 12   6  33  1   
 13   6  34  1   
 14   7  11  ar  
 15   8  12  ar  
 16   8  35  1   
 17   9  13  1   
 18   9  36  1   
 19   9  37  1   
 20  10  13  1   
 21  10  38  1   
 22  10  39  1   
 23  11  14  1   
 24  11  15  ar  
 25  12  15  ar  
 26  14  16  1   
 27  14  17  1   
 28  15  40  1   
 29  16  18  1   
 30  16  19  1   
 31  16  41  1   
 32  17  20  1   
 33  17  42  1   
 34  17  43  1   
 35  18  21  1   
 36  18  44  1   
 37  18  45  1   
 38  19  22  1   
 39  19  46  1   
 40  19  47  1   
 41  20  22  1   
 42  20  23  1   
 43  20  48  1   
 44  21  23  1   
 45  21  24  1   
 46  21  49  1   
 47  22  50  1   
 48  22  51  1   
 49  23  52  1   
 50  23  53  1   
 51  24  25  1   
 52  24  54  1   
 53  24  55  1   
 54  25  26  ar  
 55  25  27  ar  
 56  26  28  ar  
 57  26  56  1   
 58  27  29  ar  
 59  27  57  1   
 60  28  30  ar  
 61  28  58  1   
 62  29  30  ar  
 63  29  59  1   
 64  30  60  1   
@<TRIPOS>SUBSTRUCTURE
  1 ****   7 GROUP 4 **** **** 0

# MOE 2024.06 (io_trps.svl 2023.06)
