@<TRIPOS>MOLECULE
NONAME
48 50 1 0 0 
SMALL
USER_CHARGES


@<TRIPOS>ATOM
  1 CL       1.4020     0.8540    -1.8460 Cl    1 <1>  -0.1770 
  2 C        0.5620     1.9650    -0.7880 C.ar  1 <1>   0.1770 
  3 C        1.1760     2.5080     0.3380 C.ar  1 <1>  -0.1440 
  4 C       -0.7420     2.2830    -1.1240 C.ar  1 <1>  -0.1500 
  5 C        0.4390     3.3900     1.1190 C.ar  1 <1>  -0.1500 
  6 C        2.6090     2.1800     0.7530 C.3   1 <1>   0.3640 
  7 C       -1.4600     3.1600    -0.3330 C.ar  1 <1>  -0.1500 
  8 C       -0.8660     3.7130     0.7880 C.ar  1 <1>  -0.1500 
  9 N        2.7030     0.7270     1.0310 N.am  1 <1>  -0.7300 
 10 C        3.6710     2.6790    -0.2680 C.3   1 <1>   0.2610 
 11 C        3.6760    -0.0670     0.5330 C.2   1 <1>   0.5690 
 12 O        4.8810     1.9320    -0.1800 O.3   1 <1>  -0.5600 
 13 C        3.9440     4.1670    -0.0250 C.2   1 <1>   0.5690 
 14 O        3.7140    -1.2400     0.8050 O.2   1 <1>  -0.5700 
 15 C        4.7250     0.5460    -0.3950 C.3   1 <1>   0.1810 
 16 O        3.0590     4.9720    -0.1950 O.2   1 <1>  -0.5700 
 17 N        5.1820     4.5570     0.3790 N.am  1 <1>  -0.7300 
 18 C        5.5980     5.9540     0.6500 C.3   1 <1>   0.1400 
 19 C        5.9790     6.6560    -0.6550 C.3   1 <1>   0.1400 
 20 N        6.3080     8.0840    -0.3890 N.am  1 <1>  -0.6600 
 21 C        7.5650     8.4430     0.0230 C.2   1 <1>   0.5690 
 22 C        5.2140     9.0500    -0.6830 C.3   1 <1>   0.1400 
 23 O        8.4270     7.6220     0.2300 O.2   1 <1>  -0.5700 
 24 C        7.9110     9.9030     0.2670 C.3   1 <1>  -0.0990 
 25 C        5.4870    10.4270    -0.0720 C.3   1 <1>  -0.1600 
 26 C        6.9170    10.8870    -0.3650 C.3   1 <1>  -0.1600 
 27 H       -1.1880     1.8460    -1.9990 H     1 <1>   0.1500 
 28 H        0.8760     3.8430     1.9930 H     1 <1>   0.1500 
 29 H        2.8110     2.6840     1.6830 H     1 <1>   0.0800 
 30 H       -2.4750     3.4130    -0.5880 H     1 <1>   0.1500 
 31 H       -1.4210     4.4010     1.4030 H     1 <1>   0.1500 
 32 H        1.9740     0.3020     1.6050 H     1 <1>   0.3700 
 33 H        3.3030     2.5800    -1.2700 H     1 <1>   0.0800 
 34 H        4.4380     0.3860    -1.4190 H     1 <1>   0.0800 
 35 H        5.6750     0.0750    -0.2200 H     1 <1>   0.0800 
 36 H        5.9100     3.8360     0.4340 H     1 <1>   0.3700 
 37 H        4.7810     6.4820     1.1110 H     1 <1>   0.0800 
 38 H        6.4380     5.9540     1.3220 H     1 <1>   0.0800 
 39 H        5.1620     6.5960    -1.3530 H     1 <1>   0.0800 
 40 H        6.8360     6.1670    -1.0870 H     1 <1>   0.0800 
 41 H        5.1230     9.1440    -1.7520 H     1 <1>   0.0800 
 42 H        4.2830     8.6670    -0.2990 H     1 <1>   0.0800 
 43 H        7.9340    10.0530     1.3310 H     1 <1>   0.0800 
 44 H        8.8990    10.0920    -0.1120 H     1 <1>   0.0800 
 45 H        4.7860    11.1360    -0.4750 H     1 <1>   0.0800 
 46 H        5.3280    10.3800     0.9920 H     1 <1>   0.0800 
 47 H        7.0810    11.8750     0.0280 H     1 <1>   0.0800 
 48 H        7.0720    10.9180    -1.4310 H     1 <1>   0.0800 
@<TRIPOS>BOND
  1   1   2  1   
  2   2   3  ar  
  3   2   4  ar  
  4   3   5  ar  
  5   3   6  1   
  6   4   7  ar  
  7   4  27  1   
  8   5   8  ar  
  9   5  28  1   
 10   6   9  1   
 11   6  10  1   
 12   6  29  1   
 13   7   8  ar  
 14   7  30  1   
 15   8  31  1   
 16   9  11  am  
 17   9  32  1   
 18  10  12  1   
 19  10  13  1   
 20  10  33  1   
 21  11  14  2   
 22  11  15  1   
 23  12  15  1   
 24  13  16  2   
 25  13  17  am  
 26  15  34  1   
 27  15  35  1   
 28  17  18  1   
 29  17  36  1   
 30  18  19  1   
 31  18  37  1   
 32  18  38  1   
 33  19  20  1   
 34  19  39  1   
 35  19  40  1   
 36  20  21  am  
 37  20  22  1   
 38  21  23  2   
 39  21  24  1   
 40  22  25  1   
 41  22  41  1   
 42  22  42  1   
 43  24  26  1   
 44  24  43  1   
 45  24  44  1   
 46  25  26  1   
 47  25  45  1   
 48  25  46  1   
 49  26  47  1   
 50  26  48  1   
@<TRIPOS>SUBSTRUCTURE
  1 ****  13 GROUP 4 **** **** 0

# MOE 2024.06 (io_trps.svl 2023.06)
