@<TRIPOS>MOLECULE
NONAME
55 58 1 0 0 
SMALL
USER_CHARGES


@<TRIPOS>ATOM
  1 O        0.7820    -0.1790     1.1740 O.3   1 <1>  -0.5600 
  2 C        0.6980    -1.5320     0.8210 C.3   1 <1>   0.1200 
  3 C        1.6020     0.5600     0.3260 C.3   1 <1>   0.1200 
  4 C        2.0910    -2.2090     0.8360 C.3   1 <1>   0.2850 
  5 C        3.0350     0.0010     0.3790 C.3   1 <1>   0.1900 
  6 N        3.0560    -1.4370     0.0010 N.3   1 <1>  -0.8100 
  7 C        2.0340    -3.6770     0.3540 C.3   1 <1>  -0.1950 
  8 C        3.9530     0.8250    -0.5480 C.3   1 <1>   0.3430 
  9 C        4.4350    -1.9720     0.0450 C.3   1 <1>   0.1100 
 10 C        1.4920    -4.0590    -0.9900 C.3   1 <1>  -0.2000 
 11 C        0.7750    -4.4900     0.2560 C.3   1 <1>  -0.2000 
 12 N        5.3630     0.2920    -0.5730 N.4   1 <1>  -0.9590 
 13 C        5.3770    -1.1770    -0.8820 C.3   1 <1>   0.3430 
 14 C        6.2290     1.0640    -1.5030 C.3   1 <1>   0.4860 
 15 C        6.3070     2.4960    -1.0070 C.ar  1 <1>  -0.1440 
 16 C        7.1230     2.8630     0.0590 C.ar  1 <1>  -0.1440 
 17 C        5.5290     3.4550    -1.6400 C.ar  1 <1>  -0.1500 
 18 C        7.1260     4.1820     0.4850 C.ar  1 <1>  -0.1500 
 19 C        8.0300     1.8700     0.7780 C.3   1 <1>  -0.0970 
 20 C        5.5330     4.7710    -1.2140 C.ar  1 <1>  -0.1440 
 21 C        6.3350     5.1410    -0.1420 C.ar  1 <1>   0.0820 
 22 C        4.6700     5.8050    -1.9240 C.3   1 <1>  -0.0970 
 23 O        6.3080     6.4440     0.2440 O.3   1 <1>  -0.3630 
 24 C        7.1700     6.9490     1.2390 C.3   1 <1>   0.0400 
 25 H        0.0490    -2.0090     1.5330 H     1 <1>   0.0800 
 26 H        0.2490    -1.6020    -0.1540 H     1 <1>   0.0800 
 27 H        1.2000     0.5120    -0.6720 H     1 <1>   0.0800 
 28 H        1.5780     1.5810     0.6640 H     1 <1>   0.0800 
 29 H        2.4250    -2.2100     1.8600 H     1 <1>   0.0800 
 30 H        3.3850     0.1120     1.3910 H     1 <1>   0.0800 
 31 H        2.8770    -4.2330     0.7250 H     1 <1>   0.1000 
 32 H        3.9570     1.8500    -0.2130 H     1 <1>   0.0800 
 33 H        3.5380     0.8010    -1.5410 H     1 <1>   0.0800 
 34 H        4.8080    -1.9520     1.0550 H     1 <1>   0.0800 
 35 H        4.4400    -2.9940    -0.2910 H     1 <1>   0.0800 
 36 H        1.0460    -3.3000    -1.6100 H     1 <1>   0.1000 
 37 H        2.0150    -4.8010    -1.5680 H     1 <1>   0.1000 
 38 H        0.8120    -5.5310     0.5290 H     1 <1>   0.1000 
 39 H       -0.1960    -4.0650     0.4400 H     1 <1>   0.1000 
 40 H        5.7460     0.4400     0.3670 H     1 <1>   0.4500 
 41 H        5.0560    -1.3360    -1.8980 H     1 <1>   0.0800 
 42 H        6.3780    -1.5650    -0.7850 H     1 <1>   0.0800 
 43 H        7.2190     0.6410    -1.5330 H     1 <1>   0.0800 
 44 H        5.8190     1.0430    -2.5000 H     1 <1>   0.0800 
 45 H        4.9090     3.1850    -2.4780 H     1 <1>   0.1500 
 46 H        7.7520     4.4600     1.3110 H     1 <1>   0.1500 
 47 H        8.7500     2.3890     1.3870 H     1 <1>   0.0800 
 48 H        8.5800     1.2730     0.0740 H     1 <1>   0.0800 
 49 H        7.4550     1.2310     1.4220 H     1 <1>   0.0800 
 50 H        4.1120     5.3690    -2.7320 H     1 <1>   0.0800 
 51 H        5.2940     6.5860    -2.3220 H     1 <1>   0.0800 
 52 H        3.9790     6.2440    -1.2260 H     1 <1>   0.0800 
 53 H        6.9920     8.0060     1.3290 H     1 <1>   0.0800 
 54 H        8.1890     6.7760     0.9400 H     1 <1>   0.0800 
 55 H        6.9520     6.4620     2.1730 H     1 <1>   0.0800 
@<TRIPOS>BOND
  1   1   2  1   
  2   1   3  1   
  3   2   4  1   
  4   2  25  1   
  5   2  26  1   
  6   3   5  1   
  7   3  27  1   
  8   3  28  1   
  9   4   6  1   
 10   4   7  1   
 11   4  29  1   
 12   5   6  1   
 13   5   8  1   
 14   5  30  1   
 15   6   9  1   
 16   7  10  1   
 17   7  11  1   
 18   7  31  1   
 19   8  12  1   
 20   8  32  1   
 21   8  33  1   
 22   9  13  1   
 23   9  34  1   
 24   9  35  1   
 25  10  11  1   
 26  10  36  1   
 27  10  37  1   
 28  11  38  1   
 29  11  39  1   
 30  12  13  1   
 31  12  14  1   
 32  12  40  1   
 33  13  41  1   
 34  13  42  1   
 35  14  15  1   
 36  14  43  1   
 37  14  44  1   
 38  15  16  ar  
 39  15  17  ar  
 40  16  18  ar  
 41  16  19  1   
 42  17  20  ar  
 43  17  45  1   
 44  18  21  ar  
 45  18  46  1   
 46  19  47  1   
 47  19  48  1   
 48  19  49  1   
 49  20  21  ar  
 50  20  22  1   
 51  21  23  1   
 52  22  50  1   
 53  22  51  1   
 54  22  52  1   
 55  23  24  1   
 56  24  53  1   
 57  24  54  1   
 58  24  55  1   
@<TRIPOS>SUBSTRUCTURE
  1 ****   8 GROUP 4 **** **** 0

# MOE 2024.06 (io_trps.svl 2023.06)
