@<TRIPOS>MOLECULE
NONAME
38 40 1 0 0 
SMALL
USER_CHARGES


@<TRIPOS>ATOM
  1 O       -0.3040     0.0970     0.3920 O.2   1 <1>  -0.5700 
  2 C       -1.3600     0.6910     0.5010 C.2   1 <1>   0.7150 
  3 N       -2.5270    -0.0340     0.4530 N.am  1 <1>  -0.6600 
  4 C       -1.3720     2.1190     0.6590 C.2   1 <1>  -0.2370 
  5 C       -3.8650     0.5340     0.1530 C.3   1 <1>   0.1400 
  6 C       -2.5330    -1.5070     0.2650 C.3   1 <1>   0.1400 
  7 N       -0.4730     2.9560     0.0750 N.pl3 1 <1>   0.3140 
  8 C       -2.1990     2.9330     1.3740 C.2   1 <1>  -0.1500 
  9 C       -4.6750    -0.6380    -0.4010 C.3   1 <1>   0.2000 
 10 C       -4.0090    -1.8940     0.1540 C.3   1 <1>  -0.0800 
 11 N       -0.7110     4.2440     0.3700 N.2   1 <1>  -0.7070 
 12 C        0.6540     2.5940    -0.8000 C.3   1 <1>   0.0160 
 13 C       -1.7450     4.2190     1.1540 C.2   1 <1>   0.1390 
 14 O       -5.9990    -0.5830     0.0060 O.3   1 <1>  -0.6800 
 15 C       -4.2740    -3.1360    -0.7160 C.3   1 <1>  -0.0170 
 16 C       -3.6570    -4.3900    -0.1170 C.ar  1 <1>   0.1670 
 17 N       -2.3660    -4.5780    -0.3400 N.ar  1 <1>  -0.6200 
 18 C       -4.4460    -5.2690     0.6230 C.ar  1 <1>   0.1600 
 19 C       -1.9220    -5.6910     0.2220 C.ar  1 <1>   0.1600 
 20 N       -4.0040    -6.3810     1.1870 N.ar  1 <1>  -0.6200 
 21 C       -2.7140    -6.5620     0.9600 C.ar  1 <1>   0.1600 
 22 H       -4.3030     0.9010     1.0630 H     1 <1>   0.0800 
 23 H       -3.7890     1.3250    -0.5730 H     1 <1>   0.0800 
 24 H       -2.0010    -1.7490    -0.6410 H     1 <1>   0.0800 
 25 H       -2.0540    -2.0010     1.0940 H     1 <1>   0.0800 
 26 H       -3.0320     2.6620     1.9960 H     1 <1>   0.1500 
 27 H       -4.6490    -0.6220    -1.4780 H     1 <1>   0.0800 
 28 H       -4.3640    -2.0760     1.1530 H     1 <1>   0.0800 
 29 H        0.3010     1.9640    -1.5940 H     1 <1>   0.0800 
 30 H        1.3920     2.0710    -0.2220 H     1 <1>   0.0800 
 31 H        1.0860     3.4880    -1.2120 H     1 <1>   0.0800 
 32 H       -2.1820     5.1090     1.5760 H     1 <1>   0.1500 
 33 H       -6.0590    -0.6070     0.9810 H     1 <1>   0.4000 
 34 H       -3.8720    -2.9860    -1.7030 H     1 <1>   0.0800 
 35 H       -5.3360    -3.2740    -0.8190 H     1 <1>   0.0800 
 36 H       -5.4890    -5.0430     0.7560 H     1 <1>   0.1500 
 37 H       -0.8800    -5.9250     0.0910 H     1 <1>   0.1500 
 38 H       -2.2610    -7.4430     1.3790 H     1 <1>   0.1500 
@<TRIPOS>BOND
  1   1   2  2   
  2   2   3  am  
  3   2   4  1   
  4   3   5  1   
  5   3   6  1   
  6   4   7  1   
  7   4   8  2   
  8   5   9  1   
  9   5  22  1   
 10   5  23  1   
 11   6  10  1   
 12   6  24  1   
 13   6  25  1   
 14   7  11  1   
 15   7  12  1   
 16   8  13  1   
 17   8  26  1   
 18   9  10  1   
 19   9  14  1   
 20   9  27  1   
 21  10  15  1   
 22  10  28  1   
 23  11  13  2   
 24  12  29  1   
 25  12  30  1   
 26  12  31  1   
 27  13  32  1   
 28  14  33  1   
 29  15  16  1   
 30  15  34  1   
 31  15  35  1   
 32  16  17  ar  
 33  16  18  ar  
 34  17  19  ar  
 35  18  20  ar  
 36  18  36  1   
 37  19  21  ar  
 38  19  37  1   
 39  20  21  ar  
 40  21  38  1   
@<TRIPOS>SUBSTRUCTURE
  1 ****   6 GROUP 4 **** **** 0

# MOE 2024.06 (io_trps.svl 2023.06)
