@<TRIPOS>MOLECULE
NONAME
47 48 1 0 0 
SMALL
USER_CHARGES


@<TRIPOS>ATOM
  1 S        0.2770     0.0500     0.7320 S.o2  1 <1>   1.3330 
  2 O       -0.8270     0.1220     1.6610 O.2   1 <1>  -0.6500 
  3 O        1.6350     0.0720     1.2270 O.2   1 <1>  -0.6500 
  4 N        0.0920    -1.3480    -0.2140 N.am  1 <1>  -0.8490 
  5 C        0.0680     1.3670    -0.4640 C.3   1 <1>  -0.0550 
  6 C        1.3260    -1.7630    -0.8900 C.3   1 <1>   0.1160 
  7 C       -0.4560    -2.4700     0.5550 C.3   1 <1>   0.1160 
  8 C        0.0890     2.7680     0.1690 C.3   1 <1>  -0.0800 
  9 C       -0.2090     3.8670    -0.8480 C.3   1 <1>   0.2000 
 10 C        1.4400     3.1710     0.7670 C.3   1 <1>   0.1400 
 11 O       -1.5760     3.9920    -1.0270 O.3   1 <1>  -0.6800 
 12 C        0.4100     5.1350    -0.2660 C.3   1 <1>   0.1400 
 13 N        1.5020     4.6420     0.6080 N.am  1 <1>  -0.6600 
 14 C        2.5770     5.3950     1.0160 C.2   1 <1>   0.5440 
 15 O        3.5180     4.8330     1.5420 O.2   1 <1>  -0.5700 
 16 C        2.5890     6.8330     0.8180 C.ar  1 <1>   0.0860 
 17 C        3.4300     7.4580    -0.1100 C.ar  1 <1>  -0.1440 
 18 C        1.7230     7.6350     1.5580 C.ar  1 <1>  -0.1500 
 19 C        3.3810     8.8320    -0.2820 C.ar  1 <1>  -0.1500 
 20 C        4.4080     6.6370    -0.9400 C.3   1 <1>  -0.0970 
 21 C        1.6780     9.0050     1.3830 C.ar  1 <1>  -0.1500 
 22 C        2.5070     9.6120     0.4570 C.ar  1 <1>  -0.1440 
 23 C        2.4680    11.1160     0.2570 C.3   1 <1>  -0.0970 
 24 H        0.8360     1.3000    -1.2100 H     1 <1>   0.0800 
 25 H       -0.8770     1.2310    -0.9550 H     1 <1>   0.0800 
 26 H        1.1270    -2.5960    -1.5430 H     1 <1>   0.0800 
 27 H        2.0720    -2.0530    -0.1680 H     1 <1>   0.0800 
 28 H        1.7150    -0.9530    -1.4820 H     1 <1>   0.0800 
 29 H       -0.5750    -3.3330    -0.0760 H     1 <1>   0.0800 
 30 H       -1.4230    -2.2080     0.9520 H     1 <1>   0.0800 
 31 H        0.1990    -2.7160     1.3760 H     1 <1>   0.0800 
 32 H       -0.6370     2.8120     0.9630 H     1 <1>   0.0800 
 33 H        0.2410     3.6510    -1.8030 H     1 <1>   0.0800 
 34 H        2.2590     2.7260     0.2270 H     1 <1>   0.0800 
 35 H        1.5150     2.8980     1.8070 H     1 <1>   0.0800 
 36 H       -2.0230     4.1340    -0.1700 H     1 <1>   0.4000 
 37 H       -0.3040     5.6740     0.3320 H     1 <1>   0.0800 
 38 H        0.8000     5.7680    -1.0450 H     1 <1>   0.0800 
 39 H        1.0790     7.1690     2.2840 H     1 <1>   0.1500 
 40 H        4.0320     9.3060    -0.9960 H     1 <1>   0.1500 
 41 H        4.9420     7.2560    -1.6380 H     1 <1>   0.0800 
 42 H        3.8830     5.8770    -1.4890 H     1 <1>   0.0800 
 43 H        5.1240     6.1610    -0.2920 H     1 <1>   0.0800 
 44 H        0.9990     9.5960     1.9720 H     1 <1>   0.1500 
 45 H        1.5100    11.5120     0.5430 H     1 <1>   0.0800 
 46 H        2.6420    11.3610    -0.7750 H     1 <1>   0.0800 
 47 H        3.2290    11.5820     0.8580 H     1 <1>   0.0800 
@<TRIPOS>BOND
  1   1   2  2   
  2   1   3  2   
  3   1   4  am  
  4   1   5  1   
  5   4   6  1   
  6   4   7  1   
  7   5   8  1   
  8   5  24  1   
  9   5  25  1   
 10   6  26  1   
 11   6  27  1   
 12   6  28  1   
 13   7  29  1   
 14   7  30  1   
 15   7  31  1   
 16   8   9  1   
 17   8  10  1   
 18   8  32  1   
 19   9  11  1   
 20   9  12  1   
 21   9  33  1   
 22  10  13  1   
 23  10  34  1   
 24  10  35  1   
 25  11  36  1   
 26  12  13  1   
 27  12  37  1   
 28  12  38  1   
 29  13  14  am  
 30  14  15  2   
 31  14  16  1   
 32  16  17  ar  
 33  16  18  ar  
 34  17  19  ar  
 35  17  20  1   
 36  18  21  ar  
 37  18  39  1   
 38  19  22  ar  
 39  19  40  1   
 40  20  41  1   
 41  20  42  1   
 42  20  43  1   
 43  21  22  ar  
 44  21  44  1   
 45  22  23  1   
 46  23  45  1   
 47  23  46  1   
 48  23  47  1   
@<TRIPOS>SUBSTRUCTURE
  1 ****  13 GROUP 4 **** **** 0

# MOE 2024.06 (io_trps.svl 2023.06)
