@<TRIPOS>MOLECULE
NONAME
38 39 1 0 0 
SMALL
USER_CHARGES


@<TRIPOS>ATOM
  1 O       -0.3970     0.3470    -0.0750 O.2   1 <1>  -0.5700 
  2 C       -0.1620     1.5260    -0.0680 C.2   1 <1>   0.4950 
  3 C       -1.0520     2.4900     0.5120 C.2   1 <1>  -0.1360 
  4 C        1.1270     2.0130    -0.6970 C.3   1 <1>  -0.0190 
  5 C       -0.7830     3.7990     0.6530 C.2   1 <1>  -0.2760 
  6 C        2.3890     1.6930     0.0950 C.3   1 <1>   0.4180 
  7 C        1.2060     3.5280    -0.9030 C.3   1 <1>   0.2000 
  8 C        0.5450     4.3870     0.1920 C.3   1 <1>  -0.0220 
  9 C       -1.7310     4.7940     1.3040 C.3   1 <1>  -0.1020 
 10 O        2.1440     1.7540     1.4530 O.3   1 <1>  -0.6800 
 11 C        3.3030     2.8540    -0.2830 C.2   1 <1>  -0.0610 
 12 C        2.9760     0.3120    -0.2000 C.3   1 <1>  -0.2400 
 13 O        2.5860     3.8100    -0.9080 O.3   1 <1>  -0.3570 
 14 C        4.6280     2.9530    -0.0550 C.2   1 <1>  -0.1500 
 15 C        5.4800     4.0530    -0.4330 C.2   1 <1>  -0.1500 
 16 C        6.8050     4.2130    -0.2470 C.2   1 <1>  -0.2760 
 17 C        7.5310     5.4610    -0.7240 C.3   1 <1>  -0.1020 
 18 C        7.7430     3.2250     0.4350 C.3   1 <1>  -0.1020 
 19 H       -1.9800     2.0680     0.8520 H     1 <1>   0.1500 
 20 H        1.2090     1.5640    -1.6680 H     1 <1>   0.0800 
 21 H        0.8030     3.7940    -1.8640 H     1 <1>   0.0800 
 22 H        1.1980     4.4600     1.0450 H     1 <1>   0.0800 
 23 H        0.3940     5.3760    -0.2040 H     1 <1>   0.0800 
 24 H       -1.2610     5.2450     2.1610 H     1 <1>   0.0800 
 25 H       -2.6330     4.3060     1.6290 H     1 <1>   0.0800 
 26 H       -1.9960     5.5690     0.6070 H     1 <1>   0.0800 
 27 H        1.6090     0.9800     1.7140 H     1 <1>   0.4000 
 28 H        3.2730     0.2580    -1.2320 H     1 <1>   0.0800 
 29 H        2.2470    -0.4560    -0.0160 H     1 <1>   0.0800 
 30 H        3.8430     0.1350     0.4090 H     1 <1>   0.0800 
 31 H        5.1200     2.1530     0.4610 H     1 <1>   0.1500 
 32 H        4.9350     4.8350    -0.9320 H     1 <1>   0.1500 
 33 H        8.2960     5.1980    -1.4320 H     1 <1>   0.0800 
 34 H        7.9860     5.9660     0.1090 H     1 <1>   0.0800 
 35 H        6.8500     6.1430    -1.2010 H     1 <1>   0.0800 
 36 H        8.2030     3.6880     1.2890 H     1 <1>   0.0800 
 37 H        8.5150     2.9200    -0.2490 H     1 <1>   0.0800 
 38 H        7.2300     2.3450     0.7710 H     1 <1>   0.0800 
@<TRIPOS>BOND
  1   1   2  2   
  2   2   3  1   
  3   2   4  1   
  4   3   5  2   
  5   3  19  1   
  6   4   6  1   
  7   4   7  1   
  8   4  20  1   
  9   5   8  1   
 10   5   9  1   
 11   6  10  1   
 12   6  11  1   
 13   6  12  1   
 14   7   8  1   
 15   7  13  1   
 16   7  21  1   
 17   8  22  1   
 18   8  23  1   
 19   9  24  1   
 20   9  25  1   
 21   9  26  1   
 22  10  27  1   
 23  11  13  1   
 24  11  14  2   
 25  12  28  1   
 26  12  29  1   
 27  12  30  1   
 28  14  15  1   
 29  14  31  1   
 30  15  16  2   
 31  15  32  1   
 32  16  17  1   
 33  16  18  1   
 34  17  33  1   
 35  17  34  1   
 36  17  35  1   
 37  18  36  1   
 38  18  37  1   
 39  18  38  1   
@<TRIPOS>SUBSTRUCTURE
  1 ****  11 GROUP 4 **** **** 0

# MOE 2024.06 (io_trps.svl 2023.06)
