@<TRIPOS>MOLECULE
NONAME
50 52 1 0 0 
SMALL
USER_CHARGES


@<TRIPOS>ATOM
  1 O       -1.3510    -0.7930    -1.6610 O.2   1 <1>  -0.5700 
  2 C       -1.2070    -1.6030    -0.7760 C.2   1 <1>   0.5690 
  3 N       -2.0720    -2.6490    -0.5990 N.am  1 <1>  -0.6600 
  4 C       -0.0280    -1.4060     0.1630 C.3   1 <1>  -0.0990 
  5 C       -1.8880    -3.7200     0.4210 C.3   1 <1>   0.1400 
  6 C       -3.2390    -2.8610    -1.5290 C.3   1 <1>   0.2010 
  7 C        0.3450    -2.6670     0.9530 C.3   1 <1>  -0.1600 
  8 C       -0.9240    -3.2960     1.5330 C.3   1 <1>  -0.1600 
  9 C       -4.5970    -2.9260    -0.8200 C.2   1 <1>   0.5690 
 10 O       -5.1040    -4.0220    -0.7170 O.2   1 <1>  -0.5700 
 11 N       -5.2090    -1.8000    -0.3210 N.am  1 <1>  -0.6600 
 12 C       -6.5260    -1.8720     0.3860 C.3   1 <1>   0.1400 
 13 C       -4.6690    -0.4160    -0.4210 C.3   1 <1>   0.1400 
 14 C       -7.5890    -1.0100    -0.3400 C.3   1 <1>   0.0000 
 15 C       -5.6770     0.4790    -1.1490 C.3   1 <1>  -0.1600 
 16 C       -8.9390    -1.0490     0.3970 C.3   1 <1>   0.2000 
 17 C       -7.0650     0.4360    -0.4870 C.3   1 <1>  -0.1600 
 18 C       -7.9570    -1.6410    -1.6950 C.3   1 <1>  -0.1600 
 19 O       -8.7690    -0.9930     1.7830 O.3   1 <1>  -0.5600 
 20 C       -9.6090    -2.3590    -0.0320 C.3   1 <1>  -0.1600 
 21 C       -8.9690    -2.7440    -1.3730 C.3   1 <1>  -0.1600 
 22 C       -9.9270    -0.7210     2.5060 C.3   1 <1>   0.0400 
 23 H        0.8200    -1.0750    -0.4090 H     1 <1>   0.0800 
 24 H       -0.2890    -0.6200     0.8470 H     1 <1>   0.0800 
 25 H       -2.8370    -3.9750     0.8630 H     1 <1>   0.0800 
 26 H       -1.5050    -4.5970    -0.0720 H     1 <1>   0.0800 
 27 H       -3.2790    -2.0870    -2.2720 H     1 <1>   0.0800 
 28 H       -3.0910    -3.7880    -2.0510 H     1 <1>   0.0800 
 29 H        0.8290    -3.3720     0.2980 H     1 <1>   0.0800 
 30 H        1.0320    -2.4140     1.7430 H     1 <1>   0.0800 
 31 H       -1.4200    -2.5930     2.1800 H     1 <1>   0.0800 
 32 H       -0.6680    -4.1580     2.1230 H     1 <1>   0.0800 
 33 H       -6.8630    -2.8900     0.4590 H     1 <1>   0.0800 
 34 H       -6.3890    -1.5080     1.3890 H     1 <1>   0.0800 
 35 H       -4.4980    -0.0390     0.5730 H     1 <1>   0.0800 
 36 H       -3.7330    -0.3940    -0.9460 H     1 <1>   0.0800 
 37 H       -5.3110     1.4900    -1.1500 H     1 <1>   0.0800 
 38 H       -5.7480     0.1600    -2.1740 H     1 <1>   0.0800 
 39 H       -9.5380    -0.2110     0.0810 H     1 <1>   0.0800 
 40 H       -7.7570     1.0280    -1.0590 H     1 <1>   0.0800 
 41 H       -6.9940     0.8760     0.4940 H     1 <1>   0.0800 
 42 H       -8.4330    -0.9050    -2.3190 H     1 <1>   0.0800 
 43 H       -7.1020    -2.0310    -2.2200 H     1 <1>   0.0800 
 44 H       -9.4150    -3.1320     0.6920 H     1 <1>   0.0800 
 45 H      -10.6700    -2.2220    -0.1400 H     1 <1>   0.0800 
 46 H       -8.4540    -3.6850    -1.2690 H     1 <1>   0.0800 
 47 H       -9.7030    -2.8360    -2.1540 H     1 <1>   0.0800 
 48 H       -9.6660    -0.6830     3.5490 H     1 <1>   0.0800 
 49 H      -10.6460    -1.5040     2.3430 H     1 <1>   0.0800 
 50 H      -10.3240     0.2310     2.1980 H     1 <1>   0.0800 
@<TRIPOS>BOND
  1   1   2  2   
  2   2   3  am  
  3   2   4  1   
  4   3   5  1   
  5   3   6  1   
  6   4   7  1   
  7   4  23  1   
  8   4  24  1   
  9   5   8  1   
 10   5  25  1   
 11   5  26  1   
 12   6   9  1   
 13   6  27  1   
 14   6  28  1   
 15   7   8  1   
 16   7  29  1   
 17   7  30  1   
 18   8  31  1   
 19   8  32  1   
 20   9  10  2   
 21   9  11  am  
 22  11  12  1   
 23  11  13  1   
 24  12  14  1   
 25  12  33  1   
 26  12  34  1   
 27  13  15  1   
 28  13  35  1   
 29  13  36  1   
 30  14  16  1   
 31  14  17  1   
 32  14  18  1   
 33  15  17  1   
 34  15  37  1   
 35  15  38  1   
 36  16  19  1   
 37  16  20  1   
 38  16  39  1   
 39  17  40  1   
 40  17  41  1   
 41  18  21  1   
 42  18  42  1   
 43  18  43  1   
 44  19  22  1   
 45  20  21  1   
 46  20  44  1   
 47  20  45  1   
 48  21  46  1   
 49  21  47  1   
 50  22  48  1   
 51  22  49  1   
 52  22  50  1   
@<TRIPOS>SUBSTRUCTURE
  1 ****  11 GROUP 4 **** **** 0

# MOE 2024.06 (io_trps.svl 2023.06)
