@<TRIPOS>MOLECULE
NONAME
41 42 1 0 0 
SMALL
USER_CHARGES


@<TRIPOS>ATOM
  1 S       -0.4750     1.0240    -0.2900 S.3   1 <1>  -0.0800 
  2 C        0.8300    -0.0610    -0.7120 C.2   1 <1>   0.1980 
  3 C        0.6930     2.1870     0.2670 C.2   1 <1>  -0.1400 
  4 N        1.9920     0.3990    -0.4700 N.2   1 <1>  -0.5650 
  5 C        0.4510    -1.3980    -1.3050 C.3   1 <1>  -0.0600 
  6 C        1.9240     1.6740     0.0940 C.2   1 <1>   0.0460 
  7 C        0.1460     3.4910     0.8170 C.3   1 <1>  -0.0600 
  8 C        3.2460     2.3580     0.4410 C.3   1 <1>   0.6040 
  9 N        4.1610     2.2130    -0.7260 N.4   1 <1>  -0.9590 
 10 C        3.8410     1.6770     1.6770 C.3   1 <1>  -0.2400 
 11 C        5.5510     2.7290    -0.4970 C.3   1 <1>   0.5240 
 12 C        3.5620     2.8380    -1.9500 C.3   1 <1>   0.2630 
 13 C        5.5800     4.1060     0.1740 C.2   1 <1>   0.0460 
 14 N        4.7750     5.1230    -0.3320 N.2   1 <1>  -0.5650 
 15 C        6.3350     4.4280     1.2380 C.2   1 <1>  -0.1100 
 16 C        4.9200     6.2070     0.3230 C.2   1 <1>   0.1980 
 17 S        6.0500     6.0910     1.6540 S.3   1 <1>  -0.0800 
 18 C        4.2450     7.5480     0.0930 C.3   1 <1>   0.0200 
 19 C        5.2100     8.5740    -0.5120 C.3   1 <1>  -0.2400 
 20 H       -0.1600    -1.9440    -0.6100 H     1 <1>   0.0800 
 21 H        1.3360    -1.9700    -1.5160 H     1 <1>   0.0800 
 22 H       -0.0980    -1.2510    -2.2170 H     1 <1>   0.0800 
 23 H       -0.4920     3.2920     1.6600 H     1 <1>   0.0800 
 24 H       -0.4320     3.9930     0.0620 H     1 <1>   0.0800 
 25 H        0.9410     4.1420     1.1330 H     1 <1>   0.0800 
 26 H        3.0690     3.4020     0.6490 H     1 <1>   0.0800 
 27 H        4.1670     1.1960    -0.8880 H     1 <1>   0.4500 
 28 H        4.0900     0.6530     1.4660 H     1 <1>   0.0800 
 29 H        3.1060     1.6800     2.4620 H     1 <1>   0.0800 
 30 H        4.7030     2.1980     2.0470 H     1 <1>   0.0800 
 31 H        6.0660     2.7960    -1.4410 H     1 <1>   0.0800 
 32 H        6.0940     2.0360     0.1240 H     1 <1>   0.0800 
 33 H        3.3890     3.8900    -1.7940 H     1 <1>   0.0800 
 34 H        2.6200     2.3690    -2.1870 H     1 <1>   0.0800 
 35 H        4.2210     2.7200    -2.7940 H     1 <1>   0.0800 
 36 H        7.0420     3.8840     1.8400 H     1 <1>   0.1500 
 37 H        3.8610     7.9160     1.0280 H     1 <1>   0.0800 
 38 H        3.4140     7.4070    -0.5750 H     1 <1>   0.0800 
 39 H        6.0330     8.7590     0.1550 H     1 <1>   0.0800 
 40 H        4.6980     9.5030    -0.6900 H     1 <1>   0.0800 
 41 H        5.5980     8.2110    -1.4480 H     1 <1>   0.0800 
@<TRIPOS>BOND
  1   1   2  1   
  2   1   3  1   
  3   2   4  2   
  4   2   5  1   
  5   3   6  2   
  6   3   7  1   
  7   4   6  1   
  8   5  20  1   
  9   5  21  1   
 10   5  22  1   
 11   6   8  1   
 12   7  23  1   
 13   7  24  1   
 14   7  25  1   
 15   8   9  1   
 16   8  10  1   
 17   8  26  1   
 18   9  11  1   
 19   9  12  1   
 20   9  27  1   
 21  10  28  1   
 22  10  29  1   
 23  10  30  1   
 24  11  13  1   
 25  11  31  1   
 26  11  32  1   
 27  12  33  1   
 28  12  34  1   
 29  12  35  1   
 30  13  14  1   
 31  13  15  2   
 32  14  16  2   
 33  15  17  1   
 34  15  36  1   
 35  16  17  1   
 36  16  18  1   
 37  18  19  1   
 38  18  37  1   
 39  18  38  1   
 40  19  39  1   
 41  19  40  1   
 42  19  41  1   
@<TRIPOS>SUBSTRUCTURE
  1 ****   8 GROUP 4 **** **** 0

# MOE 2024.06 (io_trps.svl 2023.06)
