@<TRIPOS>MOLECULE
NONAME
44 45 1 0 0 
SMALL
USER_CHARGES


@<TRIPOS>ATOM
  1 O       -0.3370     0.7710     0.9260 O.2   1 <1>  -0.5700 
  2 C       -1.2470     1.2820     0.2840 C.2   1 <1>   0.6160 
  3 N       -2.0730     0.5150    -0.5200 N.am  1 <1>  -0.4690 
  4 C       -1.4680     2.6800     0.3410 C.2   1 <1>  -0.1360 
  5 C       -3.0840     1.1190    -1.2390 C.2   1 <1>  -0.0410 
  6 C       -1.8900    -0.9560    -0.6040 C.3   1 <1>   0.1400 
  7 C       -2.4530     3.3030    -0.3800 C.2   1 <1>   0.0140 
  8 C       -3.2800     2.4610    -1.1830 C.2   1 <1>  -0.1500 
  9 C       -2.7740    -1.6450     0.4340 C.3   1 <1>  -0.2400 
 10 C       -2.6810     4.7360    -0.3580 C.2   1 <1>   0.6160 
 11 O       -3.7800     5.1850    -0.6180 O.2   1 <1>  -0.5700 
 12 N       -1.6350     5.5790    -0.0610 N.am  1 <1>  -0.4940 
 13 C       -1.6080     6.9880     0.0940 C.2   1 <1>  -0.0880 
 14 N       -0.4880     7.7420     0.3020 N.pl3 1 <1>   0.3140 
 15 C       -2.6440     7.8600     0.0730 C.2   1 <1>  -0.1500 
 16 N       -0.7950     9.0560     0.4140 N.2   1 <1>  -0.7070 
 17 C        0.9350     7.3050     0.4040 C.3   1 <1>   0.1760 
 18 C       -2.0800     9.1110     0.2750 C.2   1 <1>   0.1080 
 19 C        1.4140     6.6900    -0.9290 C.3   1 <1>  -0.1600 
 20 C        1.1420     6.3750     1.6130 C.3   1 <1>  -0.2400 
 21 C       -2.8450    10.4120     0.3310 C.3   1 <1>  -0.0590 
 22 C        2.9250     6.4190    -0.9650 C.3   1 <1>  -0.2400 
 23 H       -0.8130     3.2140     1.0000 H     1 <1>   0.1500 
 24 H       -3.7130     0.4840    -1.8440 H     1 <1>   0.1500 
 25 H       -0.8560    -1.2080    -0.4320 H     1 <1>   0.0800 
 26 H       -2.1510    -1.2930    -1.5920 H     1 <1>   0.0800 
 27 H       -4.0720     2.9260    -1.7460 H     1 <1>   0.1500 
 28 H       -2.4950    -1.3280     1.4230 H     1 <1>   0.0800 
 29 H       -2.6460    -2.7100     0.3700 H     1 <1>   0.0800 
 30 H       -3.8090    -1.4120     0.2620 H     1 <1>   0.0800 
 31 H       -0.7340     5.1160     0.0280 H     1 <1>   0.3700 
 32 H       -3.6880     7.6490    -0.0680 H     1 <1>   0.1500 
 33 H        1.5100     8.1980     0.5780 H     1 <1>   0.0800 
 34 H        1.1800     7.3820    -1.7210 H     1 <1>   0.0800 
 35 H        0.8930     5.7720    -1.1290 H     1 <1>   0.0800 
 36 H        0.6930     5.4140     1.4540 H     1 <1>   0.0800 
 37 H        0.7150     6.8250     2.4930 H     1 <1>   0.0800 
 38 H        2.1920     6.2330     1.7940 H     1 <1>   0.0800 
 39 H       -3.8950    10.2360     0.1890 H     1 <1>   0.0800 
 40 H       -2.4890    11.0700    -0.4390 H     1 <1>   0.0800 
 41 H       -2.6900    10.8770     1.2870 H     1 <1>   0.0800 
 42 H        3.4750     7.3180    -0.7430 H     1 <1>   0.0800 
 43 H        3.2120     6.0820    -1.9460 H     1 <1>   0.0800 
 44 H        3.2010     5.6580    -0.2570 H     1 <1>   0.0800 
@<TRIPOS>BOND
  1   1   2  2   
  2   2   3  am  
  3   2   4  1   
  4   3   5  1   
  5   3   6  1   
  6   4   7  2   
  7   4  23  1   
  8   5   8  2   
  9   5  24  1   
 10   6   9  1   
 11   6  25  1   
 12   6  26  1   
 13   7   8  1   
 14   7  10  1   
 15   8  27  1   
 16   9  28  1   
 17   9  29  1   
 18   9  30  1   
 19  10  11  2   
 20  10  12  am  
 21  12  13  1   
 22  12  31  1   
 23  13  14  1   
 24  13  15  2   
 25  14  16  1   
 26  14  17  1   
 27  15  18  1   
 28  15  32  1   
 29  16  18  2   
 30  17  19  1   
 31  17  20  1   
 32  17  33  1   
 33  18  21  1   
 34  19  22  1   
 35  19  34  1   
 36  19  35  1   
 37  20  36  1   
 38  20  37  1   
 39  20  38  1   
 40  21  39  1   
 41  21  40  1   
 42  21  41  1   
 43  22  42  1   
 44  22  43  1   
 45  22  44  1   
@<TRIPOS>SUBSTRUCTURE
  1 ****  12 GROUP 4 **** **** 0

# MOE 2024.06 (io_trps.svl 2023.06)
