@<TRIPOS>MOLECULE
NONAME
48 50 1 0 0 
SMALL
USER_CHARGES


@<TRIPOS>ATOM
  1 O        3.0880    -0.7010    -1.6580 O.2   1 <1>  -0.5700 
  2 C        2.2920    -0.9320    -0.7660 C.2   1 <1>   0.5440 
  3 N        1.7600     0.1270    -0.0680 N.am  1 <1>  -0.4940 
  4 C        1.9450    -2.3070    -0.4490 C.ar  1 <1>   0.0860 
  5 C        1.9050     1.5240    -0.2380 C.2   1 <1>  -0.0880 
  6 C        0.7820    -2.6880     0.2550 C.ar  1 <1>   0.3920 
  7 C        2.7990    -3.3320    -0.8540 C.ar  1 <1>  -0.1500 
  8 N        3.0550     2.2190    -0.4780 N.pl3 1 <1>   0.3140 
  9 C        0.9100     2.4400    -0.1760 C.2   1 <1>  -0.1810 
 10 O       -0.0860    -1.7280     0.6510 O.3   1 <1>  -0.3630 
 11 N        0.4500    -3.9420     0.5710 N.ar  1 <1>  -0.6200 
 12 C        2.4530    -4.6210    -0.5330 C.ar  1 <1>  -0.1430 
 13 N        2.8060     3.5510    -0.5760 N.2   1 <1>  -0.7070 
 14 C        4.4330     1.6750    -0.5720 C.3   1 <1>   0.0960 
 15 C        1.5280     3.6640    -0.3950 C.2   1 <1>   0.1390 
 16 C       -0.5740     2.2290     0.0640 C.3   1 <1>  -0.0590 
 17 C       -1.2910    -2.0330     1.3320 C.3   1 <1>   0.0400 
 18 C        1.2980    -4.8600     0.1620 C.ar  1 <1>   0.1670 
 19 C        3.1940    -5.9000    -0.8420 C.3   1 <1>  -0.0170 
 20 C        5.4840     2.5850     0.0870 C.3   1 <1>  -0.1600 
 21 C        1.1050    -6.3330     0.4100 C.3   1 <1>  -0.0170 
 22 C        2.1860    -7.0000    -0.4630 C.3   1 <1>  -0.1600 
 23 C        6.8760     1.9420     0.0470 C.3   1 <1>  -0.1600 
 24 C        7.9190     2.8500     0.7050 C.3   1 <1>  -0.2400 
 25 H        0.9750    -0.1450     0.5320 H     1 <1>   0.3700 
 26 H        3.7020    -3.1190    -1.4020 H     1 <1>   0.1500 
 27 H        4.6620     1.5350    -1.6130 H     1 <1>   0.0800 
 28 H        4.4500     0.7180    -0.0880 H     1 <1>   0.0800 
 29 H        1.0150     4.6100    -0.4150 H     1 <1>   0.1500 
 30 H       -0.8170     1.1830     0.0460 H     1 <1>   0.0800 
 31 H       -1.1390     2.7240    -0.7060 H     1 <1>   0.0800 
 32 H       -0.8510     2.6370     1.0190 H     1 <1>   0.0800 
 33 H       -1.8120    -1.1140     1.5330 H     1 <1>   0.0800 
 34 H       -1.0530    -2.5330     2.2550 H     1 <1>   0.0800 
 35 H       -1.8920    -2.6700     0.7070 H     1 <1>   0.0800 
 36 H        4.0760    -5.9640    -0.2290 H     1 <1>   0.0800 
 37 H        3.4670    -5.9570    -1.8820 H     1 <1>   0.0800 
 38 H        5.1990     2.7660     1.1090 H     1 <1>   0.0800 
 39 H        5.5110     3.5280    -0.4320 H     1 <1>   0.0800 
 40 H        0.1160    -6.6450     0.1250 H     1 <1>   0.0800 
 41 H        1.2660    -6.5400     1.4530 H     1 <1>   0.0800 
 42 H        2.6620    -7.8170     0.0500 H     1 <1>   0.0800 
 43 H        1.7240    -7.3740    -1.3610 H     1 <1>   0.0800 
 44 H        7.1600     1.7600    -0.9760 H     1 <1>   0.0800 
 45 H        6.8550     0.9970     0.5620 H     1 <1>   0.0800 
 46 H        7.9700     3.7950     0.1930 H     1 <1>   0.0800 
 47 H        8.8890     2.3860     0.6660 H     1 <1>   0.0800 
 48 H        7.6650     3.0290     1.7350 H     1 <1>   0.0800 
@<TRIPOS>BOND
  1   1   2  2   
  2   2   3  am  
  3   2   4  1   
  4   3   5  1   
  5   3  25  1   
  6   4   6  ar  
  7   4   7  ar  
  8   5   8  1   
  9   5   9  2   
 10   6  10  1   
 11   6  11  ar  
 12   7  12  ar  
 13   7  26  1   
 14   8  13  1   
 15   8  14  1   
 16   9  15  1   
 17   9  16  1   
 18  10  17  1   
 19  11  18  ar  
 20  12  18  ar  
 21  12  19  1   
 22  13  15  2   
 23  14  20  1   
 24  14  27  1   
 25  14  28  1   
 26  15  29  1   
 27  16  30  1   
 28  16  31  1   
 29  16  32  1   
 30  17  33  1   
 31  17  34  1   
 32  17  35  1   
 33  18  21  1   
 34  19  22  1   
 35  19  36  1   
 36  19  37  1   
 37  20  23  1   
 38  20  38  1   
 39  20  39  1   
 40  21  22  1   
 41  21  40  1   
 42  21  41  1   
 43  22  42  1   
 44  22  43  1   
 45  23  24  1   
 46  23  44  1   
 47  23  45  1   
 48  24  46  1   
 49  24  47  1   
 50  24  48  1   
@<TRIPOS>SUBSTRUCTURE
  1 ****   2 GROUP 4 **** **** 0

# MOE 2024.06 (io_trps.svl 2023.06)
