@<TRIPOS>MOLECULE
NONAME
61 64 1 0 0 
SMALL
USER_CHARGES


@<TRIPOS>ATOM
  1 O       -1.3530    -0.4480     2.2830 O.2   1 <1>  -0.5700 
  2 C       -1.3520    -1.2220     1.3530 C.2   1 <1>   0.5690 
  3 N       -0.4450    -1.1070     0.3320 N.am  1 <1>  -0.6600 
  4 C       -2.3720    -2.3540     1.3770 C.3   1 <1>   0.1810 
  5 C       -0.3780    -1.9590    -0.8760 C.3   1 <1>   0.1400 
  6 C        0.5450    -0.0120     0.2670 C.3   1 <1>   0.1400 
  7 O       -3.2010    -2.3310     0.2230 O.3   1 <1>  -0.3620 
  8 C        0.8900    -1.5120    -1.5940 C.3   1 <1>  -0.1600 
  9 C        1.0900    -0.0630    -1.1560 C.3   1 <1>  -0.1600 
 10 C       -4.2780    -3.1410     0.1100 C.ar  1 <1>   0.0820 
 11 C       -4.6000    -4.1400     1.0230 C.ar  1 <1>  -0.1500 
 12 C       -5.0940    -2.9310    -0.9880 C.ar  1 <1>  -0.1500 
 13 C       -5.7400    -4.9030     0.8410 C.ar  1 <1>  -0.1500 
 14 C       -6.2330    -3.6930    -1.1710 C.ar  1 <1>  -0.1500 
 15 C       -6.5680    -4.6760    -0.2510 C.ar  1 <1>  -0.1430 
 16 C       -7.8460    -5.4710    -0.4260 C.3   1 <1>   0.4860 
 17 N       -8.9800    -4.5450    -0.1910 N.4   1 <1>  -0.9590 
 18 C       -9.0130    -3.9710     1.1880 C.3   1 <1>   0.3430 
 19 C      -10.3010    -5.0490    -0.6400 C.3   1 <1>   0.3430 
 20 C      -10.2070    -3.0230     1.3610 C.3   1 <1>  -0.1600 
 21 C      -11.3030    -3.8890    -0.7100 C.3   1 <1>  -0.1600 
 22 C      -10.8380    -2.6220     0.0230 C.3   1 <1>   0.4180 
 23 O       -9.8420    -2.0440    -0.7940 O.3   1 <1>  -0.5600 
 24 C      -12.0090    -1.6660     0.2080 C.2   1 <1>  -0.2880 
 25 C       -9.5580    -0.6830    -0.5950 C.3   1 <1>   0.1200 
 26 C      -12.0130    -0.4010    -0.2170 C.2   1 <1>  -0.2760 
 27 C      -10.7900     0.1780    -0.9020 C.3   1 <1>  -0.0220 
 28 C      -13.1880     0.5500    -0.0760 C.3   1 <1>  -0.1020 
 29 H       -2.9970    -2.2400     2.2430 H     1 <1>   0.0800 
 30 H       -1.8630    -3.2990     1.4130 H     1 <1>   0.0800 
 31 H       -1.2420    -1.7670    -1.4900 H     1 <1>   0.0800 
 32 H       -0.3390    -3.0030    -0.6170 H     1 <1>   0.0800 
 33 H        1.3260    -0.2040     0.9820 H     1 <1>   0.0800 
 34 H        0.0820     0.9370     0.4850 H     1 <1>   0.0800 
 35 H        0.8000    -1.6090    -2.6620 H     1 <1>   0.0800 
 36 H        1.7150    -2.1140    -1.2550 H     1 <1>   0.0800 
 37 H        2.1200     0.2420    -1.2000 H     1 <1>   0.0800 
 38 H        0.5030     0.5910    -1.7760 H     1 <1>   0.0800 
 39 H       -3.9770    -4.3370     1.8760 H     1 <1>   0.1500 
 40 H       -4.8300    -2.1630    -1.6940 H     1 <1>   0.1500 
 41 H       -5.9730    -5.6700     1.5600 H     1 <1>   0.1500 
 42 H       -6.8480    -3.5040    -2.0350 H     1 <1>   0.1500 
 43 H       -7.8790    -6.2930     0.2700 H     1 <1>   0.0800 
 44 H       -7.8870    -5.8640    -1.4300 H     1 <1>   0.0800 
 45 H       -8.8080    -3.7080    -0.7830 H     1 <1>   0.4500 
 46 H       -8.1040    -3.4170     1.3580 H     1 <1>   0.0800 
 47 H       -9.0670    -4.7590     1.9210 H     1 <1>   0.0800 
 48 H      -10.6560    -5.7940     0.0540 H     1 <1>   0.0800 
 49 H      -10.2170    -5.5040    -1.6140 H     1 <1>   0.0800 
 50 H       -9.9050    -2.1500     1.9100 H     1 <1>   0.0800 
 51 H      -10.9520    -3.5150     1.9600 H     1 <1>   0.0800 
 52 H      -12.2290    -4.2310    -0.2850 H     1 <1>   0.0800 
 53 H      -11.5080    -3.6420    -1.7360 H     1 <1>   0.0800 
 54 H      -12.8490    -2.1110     0.7130 H     1 <1>   0.1500 
 55 H       -8.7440    -0.4130    -1.2460 H     1 <1>   0.0800 
 56 H       -9.2470    -0.5390     0.4240 H     1 <1>   0.0800 
 57 H      -10.9510     0.2230    -1.9650 H     1 <1>   0.0800 
 58 H      -10.6040     1.1780    -0.5510 H     1 <1>   0.0800 
 59 H      -13.5090     0.8890    -1.0450 H     1 <1>   0.0800 
 60 H      -12.9090     1.4040     0.5160 H     1 <1>   0.0800 
 61 H      -14.0170     0.0610     0.4040 H     1 <1>   0.0800 
@<TRIPOS>BOND
  1   1   2  2   
  2   2   3  am  
  3   2   4  1   
  4   3   5  1   
  5   3   6  1   
  6   4   7  1   
  7   4  29  1   
  8   4  30  1   
  9   5   8  1   
 10   5  31  1   
 11   5  32  1   
 12   6   9  1   
 13   6  33  1   
 14   6  34  1   
 15   7  10  1   
 16   8   9  1   
 17   8  35  1   
 18   8  36  1   
 19   9  37  1   
 20   9  38  1   
 21  10  11  ar  
 22  10  12  ar  
 23  11  13  ar  
 24  11  39  1   
 25  12  14  ar  
 26  12  40  1   
 27  13  15  ar  
 28  13  41  1   
 29  14  15  ar  
 30  14  42  1   
 31  15  16  1   
 32  16  17  1   
 33  16  43  1   
 34  16  44  1   
 35  17  18  1   
 36  17  19  1   
 37  17  45  1   
 38  18  20  1   
 39  18  46  1   
 40  18  47  1   
 41  19  21  1   
 42  19  48  1   
 43  19  49  1   
 44  20  22  1   
 45  20  50  1   
 46  20  51  1   
 47  21  22  1   
 48  21  52  1   
 49  21  53  1   
 50  22  23  1   
 51  22  24  1   
 52  23  25  1   
 53  24  26  2   
 54  24  54  1   
 55  25  27  1   
 56  25  55  1   
 57  25  56  1   
 58  26  27  1   
 59  26  28  1   
 60  27  57  1   
 61  27  58  1   
 62  28  59  1   
 63  28  60  1   
 64  28  61  1   
@<TRIPOS>SUBSTRUCTURE
  1 ****  12 GROUP 4 **** **** 0

# MOE 2024.06 (io_trps.svl 2023.06)
