@<TRIPOS>MOLECULE
NONAME
48 50 1 0 0 
SMALL
USER_CHARGES


@<TRIPOS>ATOM
  1 O       -0.9570     0.6390    -0.6160 O.co2 1 <1>  -0.9000 
  2 C       -1.7470     1.3450     0.0170 C.2   1 <1>   0.9060 
  3 O       -2.8780     0.9550     0.3320 O.co2 1 <1>  -0.9000 
  4 C       -1.3740     2.7670     0.3720 C.3   1 <1>  -0.1860 
  5 C       -2.3260     3.7190    -0.3520 C.3   1 <1>   0.2000 
  6 C        0.0850     3.0680     0.0080 C.3   1 <1>   0.1400 
  7 O       -3.5980     3.5190     0.1370 O.3   1 <1>  -0.6800 
  8 C       -1.9570     5.1840    -0.1370 C.3   1 <1>  -0.1600 
  9 N        0.3890     4.5200     0.2240 N.am  1 <1>  -0.6600 
 10 C       -0.5070     5.4270    -0.5510 C.3   1 <1>   0.1400 
 11 C        1.3730     4.9140     1.1000 C.2   1 <1>   0.5690 
 12 O        2.0300     4.1220     1.7320 O.2   1 <1>  -0.5700 
 13 C        1.6830     6.3820     1.3130 C.3   1 <1>  -0.0990 
 14 C        2.4680     6.9770     0.1300 C.3   1 <1>   0.2070 
 15 C        3.9730     6.6970     0.2460 C.ar  1 <1>  -0.1430 
 16 C        2.1490     8.4650    -0.0630 C.ar  1 <1>  -0.1430 
 17 C        4.4460     5.4220    -0.0350 C.ar  1 <1>  -0.1500 
 18 C        4.8880     7.6750     0.6190 C.ar  1 <1>  -0.1500 
 19 C        1.9830     9.3310     1.0130 C.ar  1 <1>  -0.1500 
 20 C        2.0230     8.9690    -1.3500 C.ar  1 <1>  -0.1500 
 21 C        5.7950     5.1280     0.0550 C.ar  1 <1>  -0.1500 
 22 C        6.2390     7.3840     0.7090 C.ar  1 <1>  -0.1500 
 23 C        1.6870    10.6670     0.8040 C.ar  1 <1>  -0.1500 
 24 C        1.7270    10.3050    -1.5610 C.ar  1 <1>  -0.1500 
 25 C        6.6950     6.1090     0.4270 C.ar  1 <1>  -0.1500 
 26 C        1.5560    11.1540    -0.4840 C.ar  1 <1>  -0.1500 
 27 H       -1.4840     2.8800     1.4330 H     1 <1>   0.0800 
 28 H       -2.3400     3.4840    -1.4040 H     1 <1>   0.0800 
 29 H        0.2590     2.8230    -1.0260 H     1 <1>   0.0800 
 30 H        0.7320     2.4430     0.6010 H     1 <1>   0.0800 
 31 H       -3.6860     2.5300     0.2700 H     1 <1>   0.4000 
 32 H       -2.6080     5.8050    -0.7240 H     1 <1>   0.0800 
 33 H       -2.0760     5.4410     0.9010 H     1 <1>   0.0800 
 34 H       -0.2630     6.4610    -0.3970 H     1 <1>   0.0800 
 35 H       -0.3920     5.2130    -1.6000 H     1 <1>   0.0800 
 36 H        0.7570     6.9020     1.4620 H     1 <1>   0.0800 
 37 H        2.2590     6.4920     2.2140 H     1 <1>   0.0800 
 38 H        2.1340     6.4780    -0.7630 H     1 <1>   0.0800 
 39 H        3.7640     4.6380    -0.3210 H     1 <1>   0.1500 
 40 H        4.5690     8.6760     0.8420 H     1 <1>   0.1500 
 41 H        2.0910     8.9770     2.0230 H     1 <1>   0.1500 
 42 H        2.1610     8.3240    -2.2010 H     1 <1>   0.1500 
 43 H        6.1420     4.1330    -0.1620 H     1 <1>   0.1500 
 44 H        6.9340     8.1520     0.9980 H     1 <1>   0.1500 
 45 H        1.5600    11.3280     1.6440 H     1 <1>   0.1500 
 46 H        1.6320    10.6830    -2.5640 H     1 <1>   0.1500 
 47 H        7.7440     5.8820     0.4980 H     1 <1>   0.1500 
 48 H        1.3260    12.1930    -0.6470 H     1 <1>   0.1500 
@<TRIPOS>BOND
  1   1   2  ar  
  2   2   3  ar  
  3   2   4  1   
  4   4   5  1   
  5   4   6  1   
  6   4  27  1   
  7   5   7  1   
  8   5   8  1   
  9   5  28  1   
 10   6   9  1   
 11   6  29  1   
 12   6  30  1   
 13   7  31  1   
 14   8  10  1   
 15   8  32  1   
 16   8  33  1   
 17   9  10  1   
 18   9  11  am  
 19  10  34  1   
 20  10  35  1   
 21  11  12  2   
 22  11  13  1   
 23  13  14  1   
 24  13  36  1   
 25  13  37  1   
 26  14  15  1   
 27  14  16  1   
 28  14  38  1   
 29  15  17  ar  
 30  15  18  ar  
 31  16  19  ar  
 32  16  20  ar  
 33  17  21  ar  
 34  17  39  1   
 35  18  22  ar  
 36  18  40  1   
 37  19  23  ar  
 38  19  41  1   
 39  20  24  ar  
 40  20  42  1   
 41  21  25  ar  
 42  21  43  1   
 43  22  25  ar  
 44  22  44  1   
 45  23  26  ar  
 46  23  45  1   
 47  24  26  ar  
 48  24  46  1   
 49  25  47  1   
 50  26  48  1   
@<TRIPOS>SUBSTRUCTURE
  1 ****  11 GROUP 4 **** **** 0

# MOE 2024.06 (io_trps.svl 2023.06)
