@<TRIPOS>MOLECULE
NONAME
48 49 1 0 0 
SMALL
USER_CHARGES


@<TRIPOS>ATOM
  1 S        0.8480     0.3940    -1.0380 S.o2  1 <1>   1.3330 
  2 O       -0.0290     0.8740    -2.0810 O.2   1 <1>  -0.6500 
  3 O        1.0910    -1.0240    -0.9030 O.2   1 <1>  -0.6500 
  4 N        0.2200     0.9550     0.4390 N.am  1 <1>  -0.8490 
  5 C        2.4350     1.2200    -1.1710 C.3   1 <1>  -0.0550 
  6 C       -0.3900     2.2860     0.3400 C.3   1 <1>   0.1160 
  7 C       -0.7420     0.0130     1.0190 C.3   1 <1>   0.1160 
  8 C        3.4960     0.7250    -0.1640 C.3   1 <1>  -0.0800 
  9 C        4.8820     1.3180    -0.3600 C.3   1 <1>   0.2200 
 10 C        3.1980     1.0430     1.3070 C.3   1 <1>   0.1200 
 11 N        4.7920     2.7690    -0.6160 N.am  1 <1>  -0.7300 
 12 C        5.4730     1.1130     1.0280 C.3   1 <1>   0.1200 
 13 O        4.4200     1.3600     1.9120 O.3   1 <1>  -0.5600 
 14 C        4.9730     3.4100    -1.7930 C.2   1 <1>   0.5690 
 15 O        5.1380     2.8050    -2.8250 O.2   1 <1>  -0.5700 
 16 C        4.9240     4.9280    -1.7990 C.3   1 <1>   0.0440 
 17 C        5.8290     5.5490    -0.7320 C.ar  1 <1>  -0.1440 
 18 C        5.4450     5.6110     0.6080 C.ar  1 <1>   0.0820 
 19 C        7.0650     6.0520    -1.1100 C.ar  1 <1>  -0.1500 
 20 O        4.2370     5.0920     0.9560 O.3   1 <1>  -0.3620 
 21 C        6.3020     6.1840     1.5450 C.ar  1 <1>  -0.1500 
 22 C        7.9130     6.6150    -0.1730 C.ar  1 <1>  -0.1500 
 23 C        3.9550     4.7340     2.2930 C.3   1 <1>   0.0400 
 24 C        7.5310     6.6820     1.1540 C.ar  1 <1>  -0.1500 
 25 H        2.8190     1.0550    -2.1600 H     1 <1>   0.0800 
 26 H        2.2930     2.2760    -1.0610 H     1 <1>   0.0800 
 27 H       -0.6950     2.6260     1.3150 H     1 <1>   0.0800 
 28 H       -1.2530     2.2590    -0.3060 H     1 <1>   0.0800 
 29 H        0.3170     2.9930    -0.0590 H     1 <1>   0.0800 
 30 H       -1.1140     0.3880     1.9570 H     1 <1>   0.0800 
 31 H       -0.2650    -0.9350     1.2020 H     1 <1>   0.0800 
 32 H       -1.5680    -0.1410     0.3440 H     1 <1>   0.0800 
 33 H        3.5790    -0.3450    -0.2550 H     1 <1>   0.0800 
 34 H        5.4480     0.8280    -1.1340 H     1 <1>   0.0800 
 35 H        2.7600     0.2020     1.8180 H     1 <1>   0.0800 
 36 H        2.5580     1.9020     1.4060 H     1 <1>   0.0800 
 37 H        4.6640     3.3470     0.2250 H     1 <1>   0.3700 
 38 H        6.2890     1.7820     1.2360 H     1 <1>   0.0800 
 39 H        5.7870     0.0930     1.1630 H     1 <1>   0.0800 
 40 H        5.2150     5.2750    -2.7740 H     1 <1>   0.0800 
 41 H        3.9090     5.2390    -1.6400 H     1 <1>   0.0800 
 42 H        7.3800     6.0060    -2.1390 H     1 <1>   0.1500 
 43 H        6.0290     6.2540     2.5800 H     1 <1>   0.1500 
 44 H        8.8700     7.0020    -0.4780 H     1 <1>   0.1500 
 45 H        3.0200     4.2050     2.3100 H     1 <1>   0.0800 
 46 H        3.8790     5.6260     2.8880 H     1 <1>   0.0800 
 47 H        4.7390     4.0920     2.6580 H     1 <1>   0.0800 
 48 H        8.1900     7.1240     1.8800 H     1 <1>   0.1500 
@<TRIPOS>BOND
  1   1   2  2   
  2   1   3  2   
  3   1   4  am  
  4   1   5  1   
  5   4   6  1   
  6   4   7  1   
  7   5   8  1   
  8   5  25  1   
  9   5  26  1   
 10   6  27  1   
 11   6  28  1   
 12   6  29  1   
 13   7  30  1   
 14   7  31  1   
 15   7  32  1   
 16   8   9  1   
 17   8  10  1   
 18   8  33  1   
 19   9  11  1   
 20   9  12  1   
 21   9  34  1   
 22  10  13  1   
 23  10  35  1   
 24  10  36  1   
 25  11  14  am  
 26  11  37  1   
 27  12  13  1   
 28  12  38  1   
 29  12  39  1   
 30  14  15  2   
 31  14  16  1   
 32  16  17  1   
 33  16  40  1   
 34  16  41  1   
 35  17  18  ar  
 36  17  19  ar  
 37  18  20  1   
 38  18  21  ar  
 39  19  22  ar  
 40  19  42  1   
 41  20  23  1   
 42  21  24  ar  
 43  21  43  1   
 44  22  24  ar  
 45  22  44  1   
 46  23  45  1   
 47  23  46  1   
 48  23  47  1   
 49  24  48  1   
@<TRIPOS>SUBSTRUCTURE
  1 ****  11 GROUP 4 **** **** 0

# MOE 2024.06 (io_trps.svl 2023.06)
