@<TRIPOS>MOLECULE
NONAME
48 50 1 0 0 
SMALL
USER_CHARGES


@<TRIPOS>ATOM
  1 O       -0.6760     0.2300     0.7630 O.2   1 <1>  -0.5700 
  2 C       -1.7630     0.7540     0.6780 C.2   1 <1>   0.6300 
  3 N       -2.8700     0.0280     0.3340 N.am  1 <1>  -0.6600 
  4 C       -1.9190     2.2430     0.9970 C.3   1 <1>  -0.1000 
  5 C       -4.2640     0.5280     0.3120 C.3   1 <1>   0.1400 
  6 C       -2.8150    -1.4150     0.0140 C.3   1 <1>   0.1400 
  7 C       -2.1880     3.2780    -0.0780 C.3   1 <1>  -0.1900 
  8 C       -0.9000     3.3190     0.6870 C.3   1 <1>  -0.1900 
  9 C       -5.0980    -0.6570    -0.1740 C.3   1 <1>   0.2000 
 10 C       -4.2600    -1.9020     0.1210 C.3   1 <1>  -0.0800 
 11 C       -3.2880     4.3190     0.1810 C.3   1 <1>  -0.1450 
 12 C       -2.1800     2.8800    -1.5650 C.3   1 <1>  -0.1450 
 13 C       -0.6560     4.3940     1.7590 C.3   1 <1>  -0.1450 
 14 C        0.4340     2.9700     0.0030 C.3   1 <1>  -0.1450 
 15 O       -6.3120    -0.7320     0.4890 O.3   1 <1>  -0.6800 
 16 C       -4.5880    -3.0760    -0.8140 C.3   1 <1>  -0.0160 
 17 C       -3.7280    -4.2890    -0.4940 C.ar  1 <1>  -0.1440 
 18 C       -4.0620    -5.1650     0.5190 C.ar  1 <1>  -0.1500 
 19 C       -2.5720    -4.5760    -1.1920 C.ar  1 <1>  -0.1500 
 20 C       -3.2460    -6.2540     0.7790 C.ar  1 <1>   0.1600 
 21 C       -1.8250    -5.6920    -0.8500 C.ar  1 <1>   0.1600 
 22 N       -2.1350    -6.5370     0.1190 N.ar  1 <1>  -0.6200 
 23 H       -2.4340     2.3520     1.9330 H     1 <1>   0.1000 
 24 H       -4.5510     0.8220     1.3070 H     1 <1>   0.0800 
 25 H       -4.3590     1.3600    -0.3620 H     1 <1>   0.0800 
 26 H       -2.4390    -1.5310    -0.9880 H     1 <1>   0.0800 
 27 H       -2.1690    -1.9380     0.6990 H     1 <1>   0.0800 
 28 H       -5.2920    -0.5550    -1.2280 H     1 <1>   0.0800 
 29 H       -4.4160    -2.2050     1.1420 H     1 <1>   0.0800 
 30 H       -4.2300     3.9700    -0.2030 H     1 <1>   0.0800 
 31 H       -3.0390     5.2420    -0.3110 H     1 <1>   0.0800 
 32 H       -3.4190     4.5140     1.2280 H     1 <1>   0.0800 
 33 H       -3.1720     2.6380    -1.8980 H     1 <1>   0.0800 
 34 H       -1.5610     2.0230    -1.7530 H     1 <1>   0.0800 
 35 H       -1.8140     3.6990    -2.1580 H     1 <1>   0.0800 
 36 H        0.1350     4.0840     2.4180 H     1 <1>   0.0800 
 37 H       -1.5270     4.5700     2.3620 H     1 <1>   0.0800 
 38 H       -0.3700     5.3190     1.2910 H     1 <1>   0.0800 
 39 H        1.1570     2.6720     0.7410 H     1 <1>   0.0800 
 40 H        0.8120     3.8260    -0.5250 H     1 <1>   0.0800 
 41 H        0.3400     2.1580    -0.6920 H     1 <1>   0.0800 
 42 H       -6.1700    -0.8630     1.4470 H     1 <1>   0.4000 
 43 H       -4.4350    -2.7850    -1.8390 H     1 <1>   0.0800 
 44 H       -5.6260    -3.3390    -0.7050 H     1 <1>   0.0800 
 45 H       -4.9480    -5.0130     1.1070 H     1 <1>   0.1500 
 46 H       -2.2420    -3.9450    -1.9970 H     1 <1>   0.1500 
 47 H       -3.5220    -6.9270     1.5720 H     1 <1>   0.1500 
 48 H       -0.9260    -5.8990    -1.4040 H     1 <1>   0.1500 
@<TRIPOS>BOND
  1   1   2  2   
  2   2   3  am  
  3   2   4  1   
  4   3   5  1   
  5   3   6  1   
  6   4   7  1   
  7   4   8  1   
  8   4  23  1   
  9   5   9  1   
 10   5  24  1   
 11   5  25  1   
 12   6  10  1   
 13   6  26  1   
 14   6  27  1   
 15   7   8  1   
 16   7  11  1   
 17   7  12  1   
 18   8  13  1   
 19   8  14  1   
 20   9  10  1   
 21   9  15  1   
 22   9  28  1   
 23  10  16  1   
 24  10  29  1   
 25  11  30  1   
 26  11  31  1   
 27  11  32  1   
 28  12  33  1   
 29  12  34  1   
 30  12  35  1   
 31  13  36  1   
 32  13  37  1   
 33  13  38  1   
 34  14  39  1   
 35  14  40  1   
 36  14  41  1   
 37  15  42  1   
 38  16  17  1   
 39  16  43  1   
 40  16  44  1   
 41  17  18  ar  
 42  17  19  ar  
 43  18  20  ar  
 44  18  45  1   
 45  19  21  ar  
 46  19  46  1   
 47  20  22  ar  
 48  20  47  1   
 49  21  22  ar  
 50  21  48  1   
@<TRIPOS>SUBSTRUCTURE
  1 ****   6 GROUP 4 **** **** 0

# MOE 2024.06 (io_trps.svl 2023.06)
