@<TRIPOS>MOLECULE
NONAME
51 53 1 0 0 
SMALL
USER_CHARGES


@<TRIPOS>ATOM
  1 F       -1.4110    -3.0210    -1.8210 F     1 <1>  -0.3400 
  2 C       -1.2210    -1.7110    -1.6830 C.3   1 <1>   1.1640 
  3 F       -1.0670    -1.2240    -2.9050 F     1 <1>  -0.3400 
  4 F       -0.0630    -1.5650    -1.0550 F     1 <1>  -0.3400 
  5 C       -2.4130    -1.0760    -0.9470 C.ar  1 <1>  -0.1440 
  6 C       -3.7030    -1.3070    -1.4120 C.ar  1 <1>  -0.1500 
  7 C       -2.2470    -0.2850     0.1850 C.ar  1 <1>  -0.1500 
  8 C       -4.8090    -0.7970    -0.7450 C.ar  1 <1>  -0.1440 
  9 C       -3.3430     0.2490     0.8370 C.ar  1 <1>  -0.1500 
 10 C       -4.6220    -0.0070     0.3780 C.ar  1 <1>  -0.1500 
 11 C       -6.2070    -1.1330    -1.2350 C.3   1 <1>   0.4870 
 12 N       -6.7510    -2.2640    -0.4110 N.4   1 <1>  -0.9590 
 13 C       -5.7560    -3.4020    -0.2820 C.3   1 <1>   0.3430 
 14 C       -8.0770    -2.6910    -0.9550 C.3   1 <1>   0.3430 
 15 C       -6.3020    -4.6900     0.4150 C.3   1 <1>   0.4230 
 16 C       -8.6000    -3.8750    -0.1400 C.3   1 <1>  -0.1600 
 17 N       -5.2970    -5.8400     0.5290 N.4   1 <1>  -0.9590 
 18 C       -7.6600    -5.1120    -0.2100 C.3   1 <1>   0.0000 
 19 C       -5.9250    -7.1960     0.7040 C.3   1 <1>   0.3430 
 20 C       -4.2440    -5.9310    -0.5430 C.3   1 <1>   0.2630 
 21 C       -8.2950    -6.2510     0.6340 C.3   1 <1>  -0.1600 
 22 C       -7.4410    -5.5920    -1.6780 C.3   1 <1>   0.1200 
 23 C       -7.2680    -7.0870     1.4220 C.3   1 <1>  -0.1600 
 24 O       -8.5620    -5.3710    -2.4530 O.3   1 <1>  -0.6800 
 25 H       -3.8350    -1.8960    -2.3060 H     1 <1>   0.1500 
 26 H       -1.2610    -0.0720     0.5690 H     1 <1>   0.1500 
 27 H       -3.1950     0.8700     1.7070 H     1 <1>   0.1500 
 28 H       -5.4570     0.4240     0.9060 H     1 <1>   0.1500 
 29 H       -6.1650    -1.4140    -2.2750 H     1 <1>   0.0800 
 30 H       -6.8410    -0.2640    -1.1460 H     1 <1>   0.0800 
 31 H       -6.9080    -1.8610     0.5240 H     1 <1>   0.4500 
 32 H       -5.4230    -3.6680    -1.2700 H     1 <1>   0.0800 
 33 H       -4.9000    -3.0550     0.2730 H     1 <1>   0.0800 
 34 H       -8.7820    -1.8760    -0.9010 H     1 <1>   0.0800 
 35 H       -7.9830    -2.9840    -1.9900 H     1 <1>   0.0800 
 36 H       -6.5350    -4.3980     1.4260 H     1 <1>   0.0800 
 37 H       -8.7440    -3.5600     0.8790 H     1 <1>   0.0800 
 38 H       -9.5780    -4.1340    -0.5130 H     1 <1>   0.0800 
 39 H       -4.7880    -5.6820     1.4150 H     1 <1>   0.4500 
 40 H       -6.0860    -7.6540    -0.2580 H     1 <1>   0.0800 
 41 H       -5.2640    -7.8380     1.2660 H     1 <1>   0.0800 
 42 H       -4.6950    -6.1060    -1.5060 H     1 <1>   0.0800 
 43 H       -3.5710    -6.7480    -0.3330 H     1 <1>   0.0800 
 44 H       -3.6600    -5.0260    -0.5880 H     1 <1>   0.0800 
 45 H       -8.9990    -5.8540     1.3480 H     1 <1>   0.0800 
 46 H       -8.8650    -6.9010    -0.0100 H     1 <1>   0.0800 
 47 H       -7.2030    -6.6410    -1.7320 H     1 <1>   0.0800 
 48 H       -6.6460    -5.0500    -2.1570 H     1 <1>   0.0800 
 49 H       -7.6670    -8.0760     1.5760 H     1 <1>   0.0800 
 50 H       -7.1130    -6.6610     2.3990 H     1 <1>   0.0800 
 51 H       -9.1970    -6.1190    -2.4110 H     1 <1>   0.4000 
@<TRIPOS>BOND
  1   1   2  1   
  2   2   3  1   
  3   2   4  1   
  4   2   5  1   
  5   5   6  ar  
  6   5   7  ar  
  7   6   8  ar  
  8   6  25  1   
  9   7   9  ar  
 10   7  26  1   
 11   8  10  ar  
 12   8  11  1   
 13   9  10  ar  
 14   9  27  1   
 15  10  28  1   
 16  11  12  1   
 17  11  29  1   
 18  11  30  1   
 19  12  13  1   
 20  12  14  1   
 21  12  31  1   
 22  13  15  1   
 23  13  32  1   
 24  13  33  1   
 25  14  16  1   
 26  14  34  1   
 27  14  35  1   
 28  15  17  1   
 29  15  18  1   
 30  15  36  1   
 31  16  18  1   
 32  16  37  1   
 33  16  38  1   
 34  17  19  1   
 35  17  20  1   
 36  17  39  1   
 37  18  21  1   
 38  18  22  1   
 39  19  23  1   
 40  19  40  1   
 41  19  41  1   
 42  20  42  1   
 43  20  43  1   
 44  20  44  1   
 45  21  23  1   
 46  21  45  1   
 47  21  46  1   
 48  22  24  1   
 49  22  47  1   
 50  22  48  1   
 51  23  49  1   
 52  23  50  1   
 53  24  51  1   
@<TRIPOS>SUBSTRUCTURE
  1 ****  13 GROUP 4 **** **** 0

# MOE 2024.06 (io_trps.svl 2023.06)
