@<TRIPOS>MOLECULE
NONAME
53 56 1 0 0 
SMALL
USER_CHARGES


@<TRIPOS>ATOM
  1 O        0.8140     0.5020     0.0210 O.3   1 <1>  -0.6800 
  2 C        1.9250     0.0760    -0.6950 C.3   1 <1>   0.2000 
  3 C        2.4480    -1.1960    -0.0290 C.3   1 <1>  -0.0800 
  4 C        3.0510     1.1010    -0.4820 C.3   1 <1>   0.3430 
  5 C        3.1940    -0.6240     1.1800 C.3   1 <1>   0.3430 
  6 C        3.3620    -1.9950    -0.9870 C.3   1 <1>  -0.0170 
  7 N        3.8650     0.5960     0.6700 N.4   1 <1>  -0.9590 
  8 C        4.0650    -3.1500    -0.2910 C.ar  1 <1>   0.1670 
  9 C        4.1230     1.6080     1.7240 C.3   1 <1>   0.4860 
 10 N        5.1580    -2.8410     0.3890 N.ar  1 <1>  -0.6200 
 11 C        3.5560    -4.4440    -0.3890 C.ar  1 <1>   0.1600 
 12 C        4.6860     2.8990     1.1320 C.ar  1 <1>  -0.1440 
 13 C        5.7050    -3.9060     0.9580 C.ar  1 <1>   0.1600 
 14 N        4.0980    -5.5030     0.1860 N.ar  1 <1>  -0.6200 
 15 C        5.8500     2.9550     0.3460 C.ar  1 <1>  -0.0230 
 16 C        3.9950     4.0630     1.4300 C.ar  1 <1>  -0.1500 
 17 C        5.1920    -5.1930     0.8600 C.ar  1 <1>   0.1600 
 18 N        6.5290     1.7630    -0.0590 N.pl3 1 <1>   0.5930 
 19 C        6.3220     4.2080    -0.0650 C.ar  1 <1>  -0.1440 
 20 C        4.4440     5.2900     0.9830 C.ar  1 <1>  -0.1440 
 21 N        6.7690     0.7110     0.7710 N.2   1 <1>  -0.7070 
 22 C        6.7670     1.3790    -1.3380 C.2   1 <1>  -0.3020 
 23 C        5.6110     5.3530     0.2470 C.ar  1 <1>  -0.1500 
 24 C        7.6210     4.3840    -0.8470 C.3   1 <1>  -0.0970 
 25 C        3.6800     6.5600     1.3120 C.3   1 <1>  -0.0970 
 26 C        7.2010    -0.2510     0.0150 C.2   1 <1>   0.1390 
 27 C        7.2120     0.1070    -1.3250 C.2   1 <1>  -0.1500 
 28 H        0.0110    -0.0040    -0.2250 H     1 <1>   0.4000 
 29 H        1.6500    -0.0350    -1.7310 H     1 <1>   0.0800 
 30 H        1.6440    -1.8340     0.2950 H     1 <1>   0.0800 
 31 H        2.6320     2.0730    -0.2810 H     1 <1>   0.0800 
 32 H        3.6720     1.1570    -1.3610 H     1 <1>   0.0800 
 33 H        3.8970    -1.3190     1.6080 H     1 <1>   0.0800 
 34 H        2.4700    -0.3480     1.9310 H     1 <1>   0.0800 
 35 H        4.1160    -1.3590    -1.4180 H     1 <1>   0.0800 
 36 H        2.7720    -2.3790    -1.8000 H     1 <1>   0.0800 
 37 H        4.8100     0.3060     0.3520 H     1 <1>   0.4500 
 38 H        3.2050     1.8270     2.2430 H     1 <1>   0.0800 
 39 H        4.8280     1.2130     2.4370 H     1 <1>   0.0800 
 40 H        2.6640    -4.6160    -0.9640 H     1 <1>   0.1500 
 41 H        6.6040    -3.7570     1.5310 H     1 <1>   0.1500 
 42 H        3.0980     4.0300     2.0250 H     1 <1>   0.1500 
 43 H        5.7060    -5.9970     1.3580 H     1 <1>   0.1500 
 44 H        6.6070     2.0340    -2.1740 H     1 <1>   0.1500 
 45 H        5.9690     6.3140    -0.0820 H     1 <1>   0.1500 
 46 H        8.0130     5.3770    -0.7100 H     1 <1>   0.0800 
 47 H        7.4490     4.2350    -1.8980 H     1 <1>   0.0800 
 48 H        8.3730     3.6940    -0.5090 H     1 <1>   0.0800 
 49 H        3.7680     7.2700     0.5090 H     1 <1>   0.0800 
 50 H        4.0770     7.0030     2.2080 H     1 <1>   0.0800 
 51 H        2.6360     6.3500     1.4620 H     1 <1>   0.0800 
 52 H        7.5030    -1.2180     0.3870 H     1 <1>   0.1500 
 53 H        7.5170    -0.5220    -2.1450 H     1 <1>   0.1500 
@<TRIPOS>BOND
  1   1   2  1   
  2   1  28  1   
  3   2   3  1   
  4   2   4  1   
  5   2  29  1   
  6   3   5  1   
  7   3   6  1   
  8   3  30  1   
  9   4   7  1   
 10   4  31  1   
 11   4  32  1   
 12   5   7  1   
 13   5  33  1   
 14   5  34  1   
 15   6   8  1   
 16   6  35  1   
 17   6  36  1   
 18   7   9  1   
 19   7  37  1   
 20   8  10  ar  
 21   8  11  ar  
 22   9  12  1   
 23   9  38  1   
 24   9  39  1   
 25  10  13  ar  
 26  11  14  ar  
 27  11  40  1   
 28  12  15  ar  
 29  12  16  ar  
 30  13  17  ar  
 31  13  41  1   
 32  14  17  ar  
 33  15  18  1   
 34  15  19  ar  
 35  16  20  ar  
 36  16  42  1   
 37  17  43  1   
 38  18  21  1   
 39  18  22  1   
 40  19  23  ar  
 41  19  24  1   
 42  20  23  ar  
 43  20  25  1   
 44  21  26  2   
 45  22  27  2   
 46  22  44  1   
 47  23  45  1   
 48  24  46  1   
 49  24  47  1   
 50  24  48  1   
 51  25  49  1   
 52  25  50  1   
 53  25  51  1   
 54  26  27  1   
 55  26  52  1   
 56  27  53  1   
@<TRIPOS>SUBSTRUCTURE
  1 ****   7 GROUP 4 **** **** 0

# MOE 2024.06 (io_trps.svl 2023.06)
