@<TRIPOS>MOLECULE
NONAME
60 63 1 0 0 
SMALL
USER_CHARGES


@<TRIPOS>ATOM
  1 O        0.1320    -0.6630     1.2240 O.3   1 <1>  -0.6800 
  2 C        0.9270    -0.5280     0.0950 C.3   1 <1>   0.2000 
  3 C        1.9240    -1.6780     0.0780 C.3   1 <1>  -0.0800 
  4 C        1.8250     0.7000     0.2940 C.3   1 <1>   0.3430 
  5 C        2.8950    -1.2500     1.1780 C.3   1 <1>   0.3430 
  6 C        2.6060    -1.8260    -1.3030 C.3   1 <1>  -0.0160 
  7 N        3.0290     0.2480     1.0880 N.4   1 <1>  -0.9590 
  8 C        3.8590    -2.6870    -1.2500 C.ar  1 <1>   0.1670 
  9 C        4.3490     0.6700     0.5260 C.3   1 <1>   0.4230 
 10 N        5.0000    -2.0710    -0.9520 N.ar  1 <1>  -0.6200 
 11 C        3.7480    -4.0430    -1.5160 C.ar  1 <1>  -0.1500 
 12 C        5.4910     0.2500     1.4600 C.3   1 <1>  -0.1600 
 13 C        4.4100     2.1880     0.3150 C.3   1 <1>  -0.1600 
 14 C        6.0730    -2.8550    -0.9460 C.ar  1 <1>   0.1600 
 15 C        4.8720    -4.8380    -1.4880 C.ar  1 <1>  -0.1500 
 16 C        6.8350     0.6610     0.8670 C.3   1 <1>   0.3430 
 17 C        5.7720     2.6040    -0.2450 C.3   1 <1>   0.3430 
 18 C        6.0640    -4.2150    -1.1970 C.ar  1 <1>  -0.1500 
 19 N        6.8700     2.1360     0.6530 N.4   1 <1>  -0.9590 
 20 C        8.2200     2.5220     0.1210 C.3   1 <1>   0.3430 
 21 C        8.4690     4.0300     0.1880 C.3   1 <1>  -0.0170 
 22 C        9.8910     4.2920    -0.2650 C.ar  1 <1>  -0.1430 
 23 C       10.9280     4.2850     0.6550 C.ar  1 <1>  -0.1500 
 24 C       10.1680     4.5270    -1.6040 C.ar  1 <1>  -0.1500 
 25 C       12.2300     4.5010     0.2390 C.ar  1 <1>  -0.1500 
 26 C       11.4700     4.7440    -2.0180 C.ar  1 <1>  -0.1500 
 27 C       12.5020     4.7290    -1.0970 C.ar  1 <1>  -0.1500 
 28 H       -0.5930    -1.3090     1.0810 H     1 <1>   0.4000 
 29 H        0.2960    -0.4580    -0.7760 H     1 <1>   0.0800 
 30 H        1.4580    -2.6140     0.3350 H     1 <1>   0.0800 
 31 H        1.2820     1.4840     0.7990 H     1 <1>   0.0800 
 32 H        2.1360     1.0520    -0.6740 H     1 <1>   0.0800 
 33 H        3.8370    -1.7630     1.0920 H     1 <1>   0.0800 
 34 H        2.4560    -1.5050     2.1300 H     1 <1>   0.0800 
 35 H        2.8800    -0.8690    -1.7100 H     1 <1>   0.0800 
 36 H        1.9060    -2.2640    -1.9930 H     1 <1>   0.0800 
 37 H        2.9130     0.6080     2.0450 H     1 <1>   0.4500 
 38 H        4.4890     0.1880    -0.4290 H     1 <1>   0.0800 
 39 H        2.7960    -4.4850    -1.7500 H     1 <1>   0.1500 
 40 H        5.3750     0.6940     2.4330 H     1 <1>   0.0800 
 41 H        5.5150    -0.8170     1.5790 H     1 <1>   0.0800 
 42 H        3.6690     2.5020    -0.3960 H     1 <1>   0.0800 
 43 H        4.2330     2.7080     1.2400 H     1 <1>   0.0800 
 44 H        7.0230    -2.3980    -0.7320 H     1 <1>   0.1500 
 45 H        4.8230    -5.8960    -1.6900 H     1 <1>   0.1500 
 46 H        6.9850     0.1500    -0.0720 H     1 <1>   0.0800 
 47 H        7.6280     0.3670     1.5380 H     1 <1>   0.0800 
 48 H        5.8050     3.6780    -0.3400 H     1 <1>   0.0800 
 49 H        5.9040     2.1790    -1.2280 H     1 <1>   0.0800 
 50 H        6.9790    -4.7810    -1.1690 H     1 <1>   0.1500 
 51 H        6.7710     2.5960     1.5710 H     1 <1>   0.4500 
 52 H        8.9890     2.0360     0.7020 H     1 <1>   0.0800 
 53 H        8.3280     2.1900    -0.9000 H     1 <1>   0.0800 
 54 H        7.7930     4.5640    -0.4560 H     1 <1>   0.0800 
 55 H        8.3470     4.3880     1.1940 H     1 <1>   0.0800 
 56 H       10.7410     4.1150     1.7010 H     1 <1>   0.1500 
 57 H        9.3820     4.5480    -2.3380 H     1 <1>   0.1500 
 58 H       13.0350     4.4960     0.9550 H     1 <1>   0.1500 
 59 H       11.6840     4.9270    -3.0580 H     1 <1>   0.1500 
 60 H       13.5150     4.8990    -1.4200 H     1 <1>   0.1500 
@<TRIPOS>BOND
  1   1   2  1   
  2   1  28  1   
  3   2   3  1   
  4   2   4  1   
  5   2  29  1   
  6   3   5  1   
  7   3   6  1   
  8   3  30  1   
  9   4   7  1   
 10   4  31  1   
 11   4  32  1   
 12   5   7  1   
 13   5  33  1   
 14   5  34  1   
 15   6   8  1   
 16   6  35  1   
 17   6  36  1   
 18   7   9  1   
 19   7  37  1   
 20   8  10  ar  
 21   8  11  ar  
 22   9  12  1   
 23   9  13  1   
 24   9  38  1   
 25  10  14  ar  
 26  11  15  ar  
 27  11  39  1   
 28  12  16  1   
 29  12  40  1   
 30  12  41  1   
 31  13  17  1   
 32  13  42  1   
 33  13  43  1   
 34  14  18  ar  
 35  14  44  1   
 36  15  18  ar  
 37  15  45  1   
 38  16  19  1   
 39  16  46  1   
 40  16  47  1   
 41  17  19  1   
 42  17  48  1   
 43  17  49  1   
 44  18  50  1   
 45  19  20  1   
 46  19  51  1   
 47  20  21  1   
 48  20  52  1   
 49  20  53  1   
 50  21  22  1   
 51  21  54  1   
 52  21  55  1   
 53  22  23  ar  
 54  22  24  ar  
 55  23  25  ar  
 56  23  56  1   
 57  24  26  ar  
 58  24  57  1   
 59  25  27  ar  
 60  25  58  1   
 61  26  27  ar  
 62  26  59  1   
 63  27  60  1   
@<TRIPOS>SUBSTRUCTURE
  1 ****  16 GROUP 4 **** **** 0

# MOE 2024.06 (io_trps.svl 2023.06)
