@<TRIPOS>MOLECULE
NONAME
45 47 1 0 0 
SMALL
USER_CHARGES


@<TRIPOS>ATOM
  1 CL      -1.2440    -0.1020     1.7590 Cl    1 <1>  -0.1770 
  2 C       -1.0020    -1.7010     1.0960 C.ar  1 <1>   0.1770 
  3 C       -1.4430    -2.0290    -0.1790 C.ar  1 <1>  -0.0090 
  4 C       -0.3540    -2.6190     1.9040 C.ar  1 <1>  -0.1500 
  5 S       -2.2920    -0.8270    -1.2270 S.o2  1 <1>   1.4470 
  6 C       -1.2050    -3.3270    -0.6230 C.ar  1 <1>  -0.1500 
  7 C       -0.1310    -3.9030     1.4430 C.ar  1 <1>  -0.1500 
  8 O       -2.7570    -1.4870    -2.4300 O.2   1 <1>  -0.6500 
  9 O       -1.4780     0.3610    -1.3650 O.2   1 <1>  -0.6500 
 10 N       -3.6770    -0.4150    -0.3360 N.am  1 <1>  -0.8490 
 11 C       -0.5580    -4.2560     0.1750 C.ar  1 <1>  -0.1500 
 12 C       -4.7280    -1.4480    -0.3260 C.3   1 <1>   0.1960 
 13 C       -4.1390     0.9430    -0.6450 C.3   1 <1>   0.1960 
 14 C       -5.9390    -1.0330    -1.1630 C.3   1 <1>  -0.1600 
 15 C       -5.5080     1.1880    -0.0150 C.3   1 <1>  -0.1600 
 16 C       -6.5890     0.2690    -0.6390 C.3   1 <1>   0.2800 
 17 O       -7.1250     0.8800    -1.7820 O.3   1 <1>  -0.5600 
 18 C       -7.7330    -0.0670     0.3490 C.3   1 <1>  -0.1600 
 19 C       -7.9740     1.9860    -1.6560 C.3   1 <1>   0.1200 
 20 C       -8.7360     1.0670     0.5720 C.3   1 <1>   0.2800 
 21 C       -9.1730     1.6410    -0.7730 C.3   1 <1>  -0.1600 
 22 O       -8.1250     2.0640     1.2920 O.3   1 <1>  -0.6800 
 23 C       -9.9310     0.6120     1.4060 C.3   1 <1>  -0.2400 
 24 H       -0.0270    -2.3260     2.8860 H     1 <1>   0.1500 
 25 H       -1.5290    -3.6180    -1.6100 H     1 <1>   0.1500 
 26 H        0.3740    -4.6230     2.0650 H     1 <1>   0.1500 
 27 H       -0.3850    -5.2540    -0.1910 H     1 <1>   0.1500 
 28 H       -5.0440    -1.5980     0.6930 H     1 <1>   0.0800 
 29 H       -4.3430    -2.3890    -0.6830 H     1 <1>   0.0800 
 30 H       -4.2050     1.0800    -1.7130 H     1 <1>   0.0800 
 31 H       -3.4260     1.6540    -0.2590 H     1 <1>   0.0800 
 32 H       -6.6490    -1.8390    -1.1780 H     1 <1>   0.0800 
 33 H       -5.6030    -0.8950    -2.1770 H     1 <1>   0.0800 
 34 H       -5.7520     2.2250    -0.1200 H     1 <1>   0.0800 
 35 H       -5.4170     0.9890     1.0380 H     1 <1>   0.0800 
 36 H       -7.3320    -0.3930     1.2920 H     1 <1>   0.0800 
 37 H       -8.2870    -0.8960    -0.0520 H     1 <1>   0.0800 
 38 H       -8.3100     2.2460    -2.6450 H     1 <1>   0.0800 
 39 H       -7.4230     2.8200    -1.2630 H     1 <1>   0.0800 
 40 H       -9.7720     0.9150    -1.2930 H     1 <1>   0.0800 
 41 H       -9.7830     2.5130    -0.6200 H     1 <1>   0.0800 
 42 H       -7.3260     2.3540     0.8180 H     1 <1>   0.4000 
 43 H      -10.4670    -0.1680     0.8970 H     1 <1>   0.0800 
 44 H      -10.6030     1.4340     1.5730 H     1 <1>   0.0800 
 45 H       -9.5990     0.2330     2.3560 H     1 <1>   0.0800 
@<TRIPOS>BOND
  1   1   2  1   
  2   2   3  ar  
  3   2   4  ar  
  4   3   5  1   
  5   3   6  ar  
  6   4   7  ar  
  7   4  24  1   
  8   5   8  2   
  9   5   9  2   
 10   5  10  am  
 11   6  11  ar  
 12   6  25  1   
 13   7  11  ar  
 14   7  26  1   
 15  10  12  1   
 16  10  13  1   
 17  11  27  1   
 18  12  14  1   
 19  12  28  1   
 20  12  29  1   
 21  13  15  1   
 22  13  30  1   
 23  13  31  1   
 24  14  16  1   
 25  14  32  1   
 26  14  33  1   
 27  15  16  1   
 28  15  34  1   
 29  15  35  1   
 30  16  17  1   
 31  16  18  1   
 32  17  19  1   
 33  18  20  1   
 34  18  36  1   
 35  18  37  1   
 36  19  21  1   
 37  19  38  1   
 38  19  39  1   
 39  20  21  1   
 40  20  22  1   
 41  20  23  1   
 42  21  40  1   
 43  21  41  1   
 44  22  42  1   
 45  23  43  1   
 46  23  44  1   
 47  23  45  1   
@<TRIPOS>SUBSTRUCTURE
  1 ****  10 GROUP 4 **** **** 0

# MOE 2024.06 (io_trps.svl 2023.06)
