@<TRIPOS>MOLECULE
NONAME
55 57 1 0 0 
SMALL
USER_CHARGES


@<TRIPOS>ATOM
  1 S       -0.1110    -2.2640     0.8450 S.3   1 <1>  -0.0800 
  2 C       -0.2040    -3.0580    -0.6920 C.2   1 <1>   0.4420 
  3 C        0.9750    -1.1330     0.1140 C.2   1 <1>   0.1980 
  4 N        0.5200    -2.4810    -1.5810 N.2   1 <1>  -0.3380 
  5 N       -1.0120    -4.1700    -0.7650 N.am  1 <1>  -0.4940 
  6 N        1.1890    -1.3830    -1.1140 N.2   1 <1>  -0.3380 
  7 C        1.5220    -0.0200     0.9850 C.3   1 <1>   0.0200 
  8 C       -1.3530    -4.9500    -1.8340 C.2   1 <1>   0.5690 
  9 C        2.4580     0.8930     0.1950 C.3   1 <1>   0.1200 
 10 O       -0.9750    -4.7440    -2.9590 O.2   1 <1>  -0.5700 
 11 C       -2.2440    -6.1500    -1.6010 C.3   1 <1>   0.1570 
 12 O        2.9280     1.9010     1.0610 O.3   1 <1>  -0.3620 
 13 N       -3.2870    -5.8240    -0.6120 N.pl3 1 <1>   0.3140 
 14 C        3.7820     2.8670     0.6300 C.ar  1 <1>   0.0830 
 15 N       -2.9700    -5.6970     0.6900 N.2   1 <1>  -0.7070 
 16 C       -4.5900    -5.5700    -0.8200 C.2   1 <1>  -0.3320 
 17 C        4.1900     3.8250     1.5530 C.ar  1 <1>  -0.1430 
 18 C        4.2540     2.9290    -0.6810 C.ar  1 <1>  -0.1500 
 19 C       -4.0750    -5.3790     1.2790 C.2   1 <1>   0.1080 
 20 C       -5.1600    -5.2870     0.3910 C.2   1 <1>  -0.0860 
 21 C       -5.2520    -5.6030    -2.1930 C.3   1 <1>  -0.0600 
 22 C        5.0590     4.8290     1.1580 C.ar  1 <1>  -0.1500 
 23 C        3.6910     3.7810     2.9910 C.3   1 <1>  -0.0970 
 24 C        5.1240     3.9340    -1.0700 C.ar  1 <1>  -0.1430 
 25 C       -4.0980    -5.1190     2.7710 C.3   1 <1>  -0.0590 
 26 C       -6.5310    -4.9590     0.6970 C.2   1 <1>   0.5950 
 27 C        5.5230     4.8840    -0.1450 C.ar  1 <1>  -0.1500 
 28 C        5.6310     3.9950    -2.4990 C.3   1 <1>  -0.0970 
 29 O       -7.2310    -4.2910    -0.0200 O.2   1 <1>  -0.5700 
 30 C       -7.1720    -5.4880     1.9610 C.3   1 <1>  -0.1790 
 31 H       -1.4870    -4.4350     0.1080 H     1 <1>   0.3700 
 32 H        2.0610    -0.4550     1.8070 H     1 <1>   0.0800 
 33 H        0.7010     0.5590     1.3670 H     1 <1>   0.0800 
 34 H        1.9320     1.3590    -0.6200 H     1 <1>   0.0800 
 35 H        3.3030     0.3390    -0.1760 H     1 <1>   0.0800 
 36 H       -1.6550    -6.9640    -1.2260 H     1 <1>   0.0800 
 37 H       -2.7000    -6.4470    -2.5250 H     1 <1>   0.0800 
 38 H        3.9540     2.2040    -1.4120 H     1 <1>   0.1500 
 39 H       -4.7970    -4.8740    -2.8410 H     1 <1>   0.0800 
 40 H       -6.3000    -5.3780    -2.1240 H     1 <1>   0.0800 
 41 H       -5.1500    -6.5780    -2.6360 H     1 <1>   0.0800 
 42 H        5.3810     5.5750     1.8610 H     1 <1>   0.1500 
 43 H        3.9790     2.8510     3.4460 H     1 <1>   0.0800 
 44 H        2.6190     3.8570     3.0050 H     1 <1>   0.0800 
 45 H        4.1010     4.5880     3.5700 H     1 <1>   0.0800 
 46 H       -3.0950    -4.9730     3.1310 H     1 <1>   0.0800 
 47 H       -4.5220    -5.9610     3.2860 H     1 <1>   0.0800 
 48 H       -4.6680    -4.2350     2.9880 H     1 <1>   0.0800 
 49 H        6.1960     5.6720    -0.4330 H     1 <1>   0.1500 
 50 H        5.7760     3.0030    -2.8870 H     1 <1>   0.0800 
 51 H        6.5700     4.5170    -2.5460 H     1 <1>   0.0800 
 52 H        4.9160     4.5090    -3.1160 H     1 <1>   0.0800 
 53 H       -6.7050    -6.4060     2.2630 H     1 <1>   0.0800 
 54 H       -8.2140    -5.6780     1.7790 H     1 <1>   0.0800 
 55 H       -7.0880    -4.7580     2.7440 H     1 <1>   0.0800 
@<TRIPOS>BOND
  1   1   2  1   
  2   1   3  1   
  3   2   4  2   
  4   2   5  1   
  5   3   6  2   
  6   3   7  1   
  7   4   6  1   
  8   5   8  am  
  9   5  31  1   
 10   7   9  1   
 11   7  32  1   
 12   7  33  1   
 13   8  10  2   
 14   8  11  1   
 15   9  12  1   
 16   9  34  1   
 17   9  35  1   
 18  11  13  1   
 19  11  36  1   
 20  11  37  1   
 21  12  14  1   
 22  13  15  1   
 23  13  16  1   
 24  14  17  ar  
 25  14  18  ar  
 26  15  19  2   
 27  16  20  2   
 28  16  21  1   
 29  17  22  ar  
 30  17  23  1   
 31  18  24  ar  
 32  18  38  1   
 33  19  20  1   
 34  19  25  1   
 35  20  26  1   
 36  21  39  1   
 37  21  40  1   
 38  21  41  1   
 39  22  27  ar  
 40  22  42  1   
 41  23  43  1   
 42  23  44  1   
 43  23  45  1   
 44  24  27  ar  
 45  24  28  1   
 46  25  46  1   
 47  25  47  1   
 48  25  48  1   
 49  26  29  2   
 50  26  30  1   
 51  27  49  1   
 52  28  50  1   
 53  28  51  1   
 54  28  52  1   
 55  30  53  1   
 56  30  54  1   
 57  30  55  1   
@<TRIPOS>SUBSTRUCTURE
  1 ****   1 GROUP 4 **** **** 0

# MOE 2024.06 (io_trps.svl 2023.06)
