@<TRIPOS>MOLECULE
NONAME
45 47 1 0 0 
SMALL
USER_CHARGES


@<TRIPOS>ATOM
  1 CL       1.1110     0.5190    -2.4160 Cl    1 <1>  -0.1770 
  2 C        2.0540     1.0890    -1.0500 C.ar  1 <1>   0.1770 
  3 C        2.6540     0.1790    -0.1690 C.ar  1 <1>   0.1000 
  4 C        2.1810     2.4530    -0.8970 C.ar  1 <1>  -0.1500 
  5 N        2.5300    -1.2040    -0.3240 N.pl3 1 <1>  -0.8380 
  6 C        3.3810     0.7240     0.8880 C.ar  1 <1>  -0.1500 
  7 C        2.9270     2.9920     0.1490 C.ar  1 <1>   0.0860 
  8 C        1.2000    -1.8410    -0.1820 C.3   1 <1>   0.2090 
  9 C        3.6080    -2.1750    -0.0080 C.3   1 <1>   0.2090 
 10 C        3.5120     2.0910     1.0420 C.ar  1 <1>  -0.1500 
 11 C        3.0750     4.4240     0.2970 C.2   1 <1>   0.5440 
 12 C        1.4750    -3.1760     0.4970 C.3   1 <1>  -0.1600 
 13 C        2.9020    -3.5220     0.0870 C.3   1 <1>  -0.1600 
 14 O        2.0930     5.1400     0.2340 O.2   1 <1>  -0.5700 
 15 N        4.3090     5.0060     0.4890 N.am  1 <1>  -0.6600 
 16 C        4.4860     6.4640     0.7020 C.3   1 <1>   0.1400 
 17 C        5.5920     4.3840     0.0830 C.3   1 <1>   0.1400 
 18 C        5.7740     6.8020    -0.0380 C.3   1 <1>  -0.0190 
 19 C        6.6090     5.5230     0.0800 C.3   1 <1>  -0.1600 
 20 C        6.4510     8.0460     0.5180 C.2   1 <1>   0.5690 
 21 O        6.7660     8.0790     1.6820 O.2   1 <1>  -0.5700 
 22 N        6.6830     9.0920    -0.3210 N.am  1 <1>  -0.7300 
 23 C        7.3310    10.3700     0.0710 C.3   1 <1>   0.0600 
 24 H        1.6990     3.1140    -1.5950 H     1 <1>   0.1500 
 25 H        3.8380     0.0730     1.6070 H     1 <1>   0.1500 
 26 H        0.7830    -2.0000    -1.1620 H     1 <1>   0.0800 
 27 H        0.5320    -1.2260     0.3990 H     1 <1>   0.0800 
 28 H        4.0640    -1.9370     0.9360 H     1 <1>   0.0800 
 29 H        4.3550    -2.1750    -0.7830 H     1 <1>   0.0800 
 30 H        4.0700     2.4810     1.8750 H     1 <1>   0.1500 
 31 H        0.7660    -3.9280     0.1990 H     1 <1>   0.0800 
 32 H        1.4210    -3.0410     1.5630 H     1 <1>   0.0800 
 33 H        3.3850    -4.1800     0.7870 H     1 <1>   0.0800 
 34 H        2.9020    -3.9820    -0.8860 H     1 <1>   0.0800 
 35 H        4.5920     6.6500     1.7580 H     1 <1>   0.0800 
 36 H        3.6540     7.0310     0.3210 H     1 <1>   0.0800 
 37 H        5.4890     3.9670    -0.9050 H     1 <1>   0.0800 
 38 H        5.8820     3.6140     0.7760 H     1 <1>   0.0800 
 39 H        5.5240     6.9600    -1.0710 H     1 <1>   0.0800 
 40 H        7.3210     5.4250    -0.7190 H     1 <1>   0.0800 
 41 H        7.1380     5.5140     1.0180 H     1 <1>   0.0800 
 42 H        6.3960     9.0240    -1.2990 H     1 <1>   0.3700 
 43 H        7.5980    10.3520     1.1140 H     1 <1>   0.0800 
 44 H        6.6530    11.1890    -0.0990 H     1 <1>   0.0800 
 45 H        8.2230    10.5200    -0.5120 H     1 <1>   0.0800 
@<TRIPOS>BOND
  1   1   2  1   
  2   2   3  ar  
  3   2   4  ar  
  4   3   5  1   
  5   3   6  ar  
  6   4   7  ar  
  7   4  24  1   
  8   5   8  1   
  9   5   9  1   
 10   6  10  ar  
 11   6  25  1   
 12   7  10  ar  
 13   7  11  1   
 14   8  12  1   
 15   8  26  1   
 16   8  27  1   
 17   9  13  1   
 18   9  28  1   
 19   9  29  1   
 20  10  30  1   
 21  11  14  2   
 22  11  15  am  
 23  12  13  1   
 24  12  31  1   
 25  12  32  1   
 26  13  33  1   
 27  13  34  1   
 28  15  16  1   
 29  15  17  1   
 30  16  18  1   
 31  16  35  1   
 32  16  36  1   
 33  17  19  1   
 34  17  37  1   
 35  17  38  1   
 36  18  19  1   
 37  18  20  1   
 38  18  39  1   
 39  19  40  1   
 40  19  41  1   
 41  20  21  2   
 42  20  22  am  
 43  22  23  1   
 44  22  42  1   
 45  23  43  1   
 46  23  44  1   
 47  23  45  1   
@<TRIPOS>SUBSTRUCTURE
  1 ****   7 GROUP 4 **** **** 0

# MOE 2024.06 (io_trps.svl 2023.06)
