@<TRIPOS>MOLECULE
NONAME
63 66 1 0 0 
SMALL
USER_CHARGES


@<TRIPOS>ATOM
  1 O        3.2740     0.6880     2.8570 O.3   1 <1>  -0.6800 
  2 C        2.4970     0.7910     1.7150 C.3   1 <1>   0.2000 
  3 C        3.2020     0.0480     0.5480 C.3   1 <1>   0.0000 
  4 C        2.3300     2.2960     1.4560 C.3   1 <1>  -0.1600 
  5 C        4.5180     0.7980     0.2460 C.3   1 <1>   0.3430 
  6 C        2.2890     0.0570    -0.7050 C.3   1 <1>   0.1200 
  7 C        3.5010    -1.4410     0.9250 C.3   1 <1>  -0.0170 
  8 C        3.6680     2.9510     1.1080 C.3   1 <1>   0.3430 
  9 N        4.3030     2.2470    -0.0430 N.4   1 <1>  -0.9590 
 10 O        3.0300    -0.2860    -1.8270 O.3   1 <1>  -0.6800 
 11 C        4.9890    -1.7560     1.0360 C.ar  1 <1>  -0.1430 
 12 C        5.6050     2.8930    -0.4350 C.3   1 <1>   0.4860 
 13 C        5.6940    -2.1730    -0.0830 C.ar  1 <1>  -0.1500 
 14 C        5.6540    -1.6030     2.2420 C.ar  1 <1>  -0.1500 
 15 C        5.4230     4.3390    -0.9120 C.ar  1 <1>   0.4770 
 16 C        7.0530    -2.4230     0.0010 C.ar  1 <1>  -0.1500 
 17 C        7.0120    -1.8520     2.3270 C.ar  1 <1>  -0.1500 
 18 N        6.1860     5.2470    -0.3690 N.ar  1 <1>  -0.6200 
 19 N        4.4880     4.5510    -1.7990 N.ar  1 <1>  -0.6200 
 20 C        7.7130    -2.2590     1.2060 C.ar  1 <1>  -0.1500 
 21 C        5.9550     6.4720    -0.7920 C.ar  1 <1>   0.7200 
 22 C        4.3600     5.8100    -2.1290 C.ar  1 <1>   0.7200 
 23 N        5.0490     6.8070    -1.6720 N.ar  1 <1>  -0.6200 
 24 N        6.7650     7.4200    -0.2430 N.pl3 1 <1>  -0.6000 
 25 N        3.4230     6.0970    -3.0300 N.pl3 1 <1>  -0.9000 
 26 C        6.7970     8.8160    -0.3560 C.ar  1 <1>   0.1000 
 27 C        8.0240     9.4660    -0.2900 C.ar  1 <1>  -0.1500 
 28 C        5.6470     9.5850    -0.5060 C.ar  1 <1>  -0.1500 
 29 C        8.1120    10.8450    -0.3780 C.ar  1 <1>  -0.1440 
 30 C        5.7260    10.9630    -0.5950 C.ar  1 <1>  -0.1500 
 31 C        6.9560    11.5920    -0.5310 C.ar  1 <1>  -0.1500 
 32 C        9.4590    11.5440    -0.3070 C.3   1 <1>  -0.0960 
 33 H        2.7420     0.8620     3.6610 H     1 <1>   0.4000 
 34 H        1.5440     0.3330     1.9250 H     1 <1>   0.0800 
 35 H        1.6270     2.4760     0.6640 H     1 <1>   0.0800 
 36 H        1.9240     2.7670     2.3330 H     1 <1>   0.0800 
 37 H        5.0010     0.3240    -0.5930 H     1 <1>   0.0800 
 38 H        5.1680     0.7010     1.1000 H     1 <1>   0.0800 
 39 H        1.8610     1.0240    -0.8970 H     1 <1>   0.0800 
 40 H        1.4860    -0.6540    -0.5960 H     1 <1>   0.0800 
 41 H        3.0230    -1.7030     1.8530 H     1 <1>   0.0800 
 42 H        3.0870    -2.1080     0.1890 H     1 <1>   0.0800 
 43 H        4.3180     2.8950     1.9670 H     1 <1>   0.0800 
 44 H        3.5090     3.9910     0.8690 H     1 <1>   0.0800 
 45 H        3.6930     2.3290    -0.8690 H     1 <1>   0.4500 
 46 H        2.4460    -0.5110    -2.5840 H     1 <1>   0.4000 
 47 H        6.2820     2.8890     0.4020 H     1 <1>   0.0800 
 48 H        6.0580     2.3340    -1.2350 H     1 <1>   0.0800 
 49 H        5.1900    -2.3060    -1.0260 H     1 <1>   0.1500 
 50 H        5.1180    -1.2890     3.1220 H     1 <1>   0.1500 
 51 H        7.5970    -2.7490    -0.8690 H     1 <1>   0.1500 
 52 H        7.5240    -1.7320     3.2670 H     1 <1>   0.1500 
 53 H        8.7690    -2.4550     1.2730 H     1 <1>   0.1500 
 54 H        7.5280     7.0080     0.2850 H     1 <1>   0.4000 
 55 H        3.4410     7.0390    -3.4190 H     1 <1>   0.4000 
 56 H        3.1000     5.3630    -3.6540 H     1 <1>   0.4000 
 57 H        8.9180     8.8840    -0.1730 H     1 <1>   0.1500 
 58 H        4.6850     9.1100    -0.5470 H     1 <1>   0.1500 
 59 H        4.8290    11.5460    -0.7120 H     1 <1>   0.1500 
 60 H        7.0090    12.6650    -0.6000 H     1 <1>   0.1500 
 61 H        9.5180    12.3090    -1.0610 H     1 <1>   0.0800 
 62 H       10.2600    10.8460    -0.4690 H     1 <1>   0.0800 
 63 H        9.5840    11.9970     0.6600 H     1 <1>   0.0800 
@<TRIPOS>BOND
  1   1   2  1   
  2   1  33  1   
  3   2   3  1   
  4   2   4  1   
  5   2  34  1   
  6   3   5  1   
  7   3   6  1   
  8   3   7  1   
  9   4   8  1   
 10   4  35  1   
 11   4  36  1   
 12   5   9  1   
 13   5  37  1   
 14   5  38  1   
 15   6  10  1   
 16   6  39  1   
 17   6  40  1   
 18   7  11  1   
 19   7  41  1   
 20   7  42  1   
 21   8   9  1   
 22   8  43  1   
 23   8  44  1   
 24   9  12  1   
 25   9  45  1   
 26  10  46  1   
 27  11  13  ar  
 28  11  14  ar  
 29  12  15  1   
 30  12  47  1   
 31  12  48  1   
 32  13  16  ar  
 33  13  49  1   
 34  14  17  ar  
 35  14  50  1   
 36  15  18  ar  
 37  15  19  ar  
 38  16  20  ar  
 39  16  51  1   
 40  17  20  ar  
 41  17  52  1   
 42  18  21  ar  
 43  19  22  ar  
 44  20  53  1   
 45  21  23  ar  
 46  21  24  1   
 47  22  23  ar  
 48  22  25  1   
 49  24  26  1   
 50  24  54  1   
 51  25  55  1   
 52  25  56  1   
 53  26  27  ar  
 54  26  28  ar  
 55  27  29  ar  
 56  27  57  1   
 57  28  30  ar  
 58  28  58  1   
 59  29  31  ar  
 60  29  32  1   
 61  30  31  ar  
 62  30  59  1   
 63  31  60  1   
 64  32  61  1   
 65  32  62  1   
 66  32  63  1   
@<TRIPOS>SUBSTRUCTURE
  1 ****  12 GROUP 4 **** **** 0

# MOE 2024.06 (io_trps.svl 2023.06)
