@<TRIPOS>MOLECULE
NONAME
52 53 1 0 0 
SMALL
USER_CHARGES


@<TRIPOS>ATOM
  1 O        1.1410    -0.2520     2.0230 O.co2 1 <1>  -0.9000 
  2 C        1.4200    -0.2110     0.8180 C.2   1 <1>   0.9060 
  3 O        0.9610    -1.0630     0.0440 O.co2 1 <1>  -0.9000 
  4 C        2.4080     0.8320     0.2610 C.3   1 <1>  -0.1060 
  5 C        3.6640    -0.0150    -0.1060 C.3   1 <1>   0.2000 
  6 C        2.7830     1.9260     1.3290 C.3   1 <1>  -0.1600 
  7 C        1.7840     1.4940    -1.0090 C.3   1 <1>  -0.0160 
  8 O        4.4020     0.5780    -1.1220 O.3   1 <1>  -0.6800 
  9 C        4.6270    -0.0680     1.0940 C.3   1 <1>   0.1100 
 10 C        4.2310     2.4170     1.2160 C.3   1 <1>   0.1100 
 11 C        0.5710     2.3940    -0.7680 C.ar  1 <1>  -0.1430 
 12 N        5.1780     1.2900     1.3900 N.3   1 <1>  -0.8100 
 13 C       -0.6680     1.8480    -0.4710 C.ar  1 <1>  -0.1500 
 14 C        0.6930     3.7740    -0.8570 C.ar  1 <1>  -0.1500 
 15 C        6.6010     1.5110     0.9840 C.3   1 <1>   0.1710 
 16 C       -1.7650     2.6640    -0.2600 C.ar  1 <1>  -0.1500 
 17 C       -0.4030     4.5940    -0.6480 C.ar  1 <1>  -0.1500 
 18 C        7.0480     2.9690     0.7480 C.2   1 <1>   0.5690 
 19 C       -1.6340     4.0390    -0.3480 C.ar  1 <1>  -0.1500 
 20 O        7.5830     3.5250     1.6810 O.2   1 <1>  -0.5700 
 21 N        6.8520     3.6030    -0.4700 N.am  1 <1>  -0.6600 
 22 C        6.9800     5.0780    -0.6500 C.3   1 <1>   0.2200 
 23 C        6.4740     2.8950    -1.7300 C.3   1 <1>   0.0600 
 24 C        8.4410     5.5120    -0.5370 C.3   1 <1>  -0.2400 
 25 C        6.0680     5.8360     0.3160 C.3   1 <1>  -0.2400 
 26 H        3.3890    -1.0040    -0.4360 H     1 <1>   0.0800 
 27 H        2.6810     1.5340     2.3250 H     1 <1>   0.0800 
 28 H        2.1110     2.7610     1.2800 H     1 <1>   0.0800 
 29 H        2.5250     2.0910    -1.5060 H     1 <1>   0.0800 
 30 H        1.5020     0.7210    -1.7020 H     1 <1>   0.0800 
 31 H        4.8650     1.3040    -0.6540 H     1 <1>   0.4000 
 32 H        5.4180    -0.7710     0.9030 H     1 <1>   0.0800 
 33 H        4.0830    -0.4220     1.9550 H     1 <1>   0.0800 
 34 H        4.4250     3.1580     1.9740 H     1 <1>   0.0800 
 35 H        4.3600     2.8790     0.2540 H     1 <1>   0.0800 
 36 H       -0.7800     0.7770    -0.3990 H     1 <1>   0.1500 
 37 H        1.6470     4.2130    -1.0860 H     1 <1>   0.1500 
 38 H        7.2200     1.1160     1.7690 H     1 <1>   0.0800 
 39 H        6.8200     0.9270     0.1130 H     1 <1>   0.0800 
 40 H       -2.7150     2.2210    -0.0230 H     1 <1>   0.1500 
 41 H       -0.2950     5.6610    -0.7170 H     1 <1>   0.1500 
 42 H       -2.4870     4.6720    -0.1820 H     1 <1>   0.1500 
 43 H        6.6500     5.3280    -1.6450 H     1 <1>   0.0800 
 44 H        7.0170     3.3140    -2.5590 H     1 <1>   0.0800 
 45 H        5.4190     3.0130    -1.9120 H     1 <1>   0.0800 
 46 H        6.7100     1.8490    -1.6880 H     1 <1>   0.0800 
 47 H        8.8080     5.3720     0.4640 H     1 <1>   0.0800 
 48 H        8.5320     6.5540    -0.7820 H     1 <1>   0.0800 
 49 H        9.0490     4.9460    -1.2180 H     1 <1>   0.0800 
 50 H        6.3950     5.7180     1.3330 H     1 <1>   0.0800 
 51 H        5.0580     5.4810     0.2250 H     1 <1>   0.0800 
 52 H        6.0850     6.8840     0.0830 H     1 <1>   0.0800 
@<TRIPOS>BOND
  1   1   2  ar  
  2   2   3  ar  
  3   2   4  1   
  4   4   5  1   
  5   4   6  1   
  6   4   7  1   
  7   5   8  1   
  8   5   9  1   
  9   5  26  1   
 10   6  10  1   
 11   6  27  1   
 12   6  28  1   
 13   7  11  1   
 14   7  29  1   
 15   7  30  1   
 16   8  31  1   
 17   9  12  1   
 18   9  32  1   
 19   9  33  1   
 20  10  12  1   
 21  10  34  1   
 22  10  35  1   
 23  11  13  ar  
 24  11  14  ar  
 25  12  15  1   
 26  13  16  ar  
 27  13  36  1   
 28  14  17  ar  
 29  14  37  1   
 30  15  18  1   
 31  15  38  1   
 32  15  39  1   
 33  16  19  ar  
 34  16  40  1   
 35  17  19  ar  
 36  17  41  1   
 37  18  20  2   
 38  18  21  am  
 39  19  42  1   
 40  21  22  1   
 41  21  23  1   
 42  22  24  1   
 43  22  25  1   
 44  22  43  1   
 45  23  44  1   
 46  23  45  1   
 47  23  46  1   
 48  24  47  1   
 49  24  48  1   
 50  24  49  1   
 51  25  50  1   
 52  25  51  1   
 53  25  52  1   
@<TRIPOS>SUBSTRUCTURE
  1 ****  10 GROUP 4 **** **** 0

# MOE 2024.06 (io_trps.svl 2023.06)
