@<TRIPOS>MOLECULE
NONAME
61 64 1 0 0 
SMALL
USER_CHARGES


@<TRIPOS>ATOM
  1 O        0.5460     0.3200    -0.9720 O.3   1 <1>  -0.5600 
  2 C        1.7660    -0.3510    -1.1810 C.3   1 <1>   0.2000 
  3 C        0.6310     1.7100    -0.8650 C.3   1 <1>   0.1200 
  4 C        2.7950    -0.0030    -0.0700 C.3   1 <1>   0.5660 
  5 C        1.4940    -1.8640    -1.2030 C.3   1 <1>   0.1200 
  6 C        1.5170     2.0900     0.3340 C.3   1 <1>   0.3430 
  7 N        2.8770     1.4620     0.2320 N.4   1 <1>  -0.9590 
  8 C        4.1950    -0.4720    -0.4410 C.ar  1 <1>  -0.1430 
  9 O        1.2760    -2.3300     0.0920 O.3   1 <1>  -0.6800 
 10 C        3.7070     1.7180     1.4340 C.3   1 <1>   0.5240 
 11 C        4.8100    -1.4330     0.3490 C.ar  1 <1>  -0.1500 
 12 C        4.8760     0.0410    -1.5400 C.ar  1 <1>  -0.1500 
 13 C        4.0280     3.1930     1.4370 C.2   1 <1>  -0.1810 
 14 C        6.0910    -1.8710     0.0630 C.ar  1 <1>   0.0820 
 15 C        6.1620    -0.3870    -1.8250 C.ar  1 <1>  -0.1500 
 16 C        3.4920     4.1480     2.2910 C.2   1 <1>   0.1390 
 17 C        4.8590     3.8880     0.6290 C.2   1 <1>  -0.3020 
 18 O        6.6070    -2.8270     0.8720 O.3   1 <1>  -0.3620 
 19 C        6.7850    -1.3260    -1.0220 C.ar  1 <1>   0.0820 
 20 N        3.9310     5.3330     2.0250 N.2   1 <1>  -0.7070 
 21 N        4.8060     5.1960     0.9950 N.pl3 1 <1>   0.5930 
 22 C        6.8670    -4.0830     0.2810 C.3   1 <1>   0.0400 
 23 O        8.0550    -1.6690    -1.3440 O.3   1 <1>  -0.3630 
 24 C        5.4930     6.2800     0.3780 C.ar  1 <1>  -0.0230 
 25 C        9.0630    -1.3810    -0.3980 C.3   1 <1>   0.0400 
 26 C        4.9000     7.5370     0.2920 C.ar  1 <1>  -0.1500 
 27 C        6.7670     6.1130    -0.1600 C.ar  1 <1>  -0.1500 
 28 C        5.5520     8.5880    -0.3270 C.ar  1 <1>  -0.1500 
 29 C        7.4180     7.1650    -0.7790 C.ar  1 <1>  -0.1500 
 30 C        6.8120     8.4070    -0.8700 C.ar  1 <1>  -0.1430 
 31 C        7.5260     9.5630    -1.5480 C.3   1 <1>  -0.0970 
 32 H        2.1350    -0.0530    -2.1460 H     1 <1>   0.0800 
 33 H        1.0190     2.1110    -1.7850 H     1 <1>   0.0800 
 34 H       -0.3670     2.0860    -0.7200 H     1 <1>   0.0800 
 35 H        2.4850    -0.5210     0.8230 H     1 <1>   0.0800 
 36 H        2.3390    -2.3970    -1.6070 H     1 <1>   0.0800 
 37 H        0.6240    -2.0760    -1.8010 H     1 <1>   0.0800 
 38 H        1.0260     1.7580     1.2340 H     1 <1>   0.0800 
 39 H        1.6090     3.1630     0.3820 H     1 <1>   0.0800 
 40 H        3.3780     1.8970    -0.5470 H     1 <1>   0.4500 
 41 H        0.8730    -3.2250     0.0730 H     1 <1>   0.4000 
 42 H        3.1800     1.4380     2.3320 H     1 <1>   0.0800 
 43 H        4.6280     1.1580     1.3830 H     1 <1>   0.0800 
 44 H        4.3050    -1.8680     1.1950 H     1 <1>   0.1500 
 45 H        4.4290     0.7720    -2.1920 H     1 <1>   0.1500 
 46 H        6.6960     0.0050    -2.6730 H     1 <1>   0.1500 
 47 H        2.7890     3.9540     3.0860 H     1 <1>   0.1500 
 48 H        5.4840     3.5580    -0.1790 H     1 <1>   0.1500 
 49 H        7.1850    -4.7590     1.0550 H     1 <1>   0.0800 
 50 H        7.6440    -3.9800    -0.4540 H     1 <1>   0.0800 
 51 H        5.9650    -4.4460    -0.1780 H     1 <1>   0.0800 
 52 H       10.0150    -1.6000    -0.8450 H     1 <1>   0.0800 
 53 H        8.9230    -1.9920     0.4750 H     1 <1>   0.0800 
 54 H        9.0100    -0.3390    -0.1380 H     1 <1>   0.0800 
 55 H        3.9230     7.6960     0.7150 H     1 <1>   0.1500 
 56 H        7.2650     5.1630    -0.0950 H     1 <1>   0.1500 
 57 H        5.0730     9.5500    -0.3810 H     1 <1>   0.1500 
 58 H        8.4020     7.0170    -1.1890 H     1 <1>   0.1500 
 59 H        6.8150    10.2230    -2.0120 H     1 <1>   0.0800 
 60 H        8.1960     9.2000    -2.3060 H     1 <1>   0.0800 
 61 H        8.0910    10.1170    -0.8200 H     1 <1>   0.0800 
@<TRIPOS>BOND
  1   1   2  1   
  2   1   3  1   
  3   2   4  1   
  4   2   5  1   
  5   2  32  1   
  6   3   6  1   
  7   3  33  1   
  8   3  34  1   
  9   4   7  1   
 10   4   8  1   
 11   4  35  1   
 12   5   9  1   
 13   5  36  1   
 14   5  37  1   
 15   6   7  1   
 16   6  38  1   
 17   6  39  1   
 18   7  10  1   
 19   7  40  1   
 20   8  11  ar  
 21   8  12  ar  
 22   9  41  1   
 23  10  13  1   
 24  10  42  1   
 25  10  43  1   
 26  11  14  ar  
 27  11  44  1   
 28  12  15  ar  
 29  12  45  1   
 30  13  16  1   
 31  13  17  2   
 32  14  18  1   
 33  14  19  ar  
 34  15  19  ar  
 35  15  46  1   
 36  16  20  2   
 37  16  47  1   
 38  17  21  1   
 39  17  48  1   
 40  18  22  1   
 41  19  23  1   
 42  20  21  1   
 43  21  24  1   
 44  22  49  1   
 45  22  50  1   
 46  22  51  1   
 47  23  25  1   
 48  24  26  ar  
 49  24  27  ar  
 50  25  52  1   
 51  25  53  1   
 52  25  54  1   
 53  26  28  ar  
 54  26  55  1   
 55  27  29  ar  
 56  27  56  1   
 57  28  30  ar  
 58  28  57  1   
 59  29  30  ar  
 60  29  58  1   
 61  30  31  1   
 62  31  59  1   
 63  31  60  1   
 64  31  61  1   
@<TRIPOS>SUBSTRUCTURE
  1 ****  10 GROUP 4 **** **** 0

# MOE 2024.06 (io_trps.svl 2023.06)
