@<TRIPOS>MOLECULE
NONAME
47 49 1 0 0 
SMALL
USER_CHARGES


@<TRIPOS>ATOM
  1 CL       1.6690     1.2200    -0.0260 Cl    1 <1>  -0.1770 
  2 C        2.3080    -0.3950     0.1440 C.ar  1 <1>   0.1770 
  3 C        1.8140    -1.4020    -0.6680 C.ar  1 <1>  -0.1500 
  4 C        3.2940    -0.6340     1.0870 C.ar  1 <1>  -0.1500 
  5 C        2.3100    -2.6930    -0.5420 C.ar  1 <1>  -0.1440 
  6 C        3.8010    -1.9160     1.2200 C.ar  1 <1>  -0.1500 
  7 C        3.3020    -2.9180     0.4050 C.ar  1 <1>   0.1900 
  8 C        1.7910    -3.8240    -1.4160 C.3   1 <1>   0.2540 
  9 F        3.8020    -4.1190     0.5410 F     1 <1>  -0.1900 
 10 N        0.8430    -4.6560    -0.6530 N.3   1 <1>  -0.8100 
 11 C        0.7450    -6.0200    -1.1850 C.3   1 <1>   0.1100 
 12 C       -0.4710    -4.0090    -0.5040 C.3   1 <1>   0.1100 
 13 C       -0.1130    -6.8980    -0.2420 C.3   1 <1>   0.4230 
 14 C       -1.3400    -4.8340     0.4520 C.3   1 <1>  -0.1600 
 15 N       -0.1120    -8.3770    -0.6040 N.4   1 <1>  -0.9590 
 16 C       -1.5310    -6.3040    -0.0090 C.3   1 <1>   0.0000 
 17 C       -1.2280    -9.1580     0.0240 C.3   1 <1>   0.3430 
 18 C       -0.0410    -8.6810    -2.0710 C.3   1 <1>   0.2630 
 19 C       -2.2430    -7.1000     1.1250 C.3   1 <1>  -0.1600 
 20 C       -2.3630    -6.3590    -1.3220 C.3   1 <1>   0.1200 
 21 C       -1.6780    -8.5180     1.3360 C.3   1 <1>  -0.1600 
 22 O       -3.5560    -5.6630    -1.2080 O.3   1 <1>  -0.6800 
 23 H        1.0480    -1.1680    -1.3850 H     1 <1>   0.1500 
 24 H        3.6550     0.1710     1.7020 H     1 <1>   0.1500 
 25 H        4.5680    -2.1400     1.9400 H     1 <1>   0.1500 
 26 H        2.6330    -4.4190    -1.7300 H     1 <1>   0.0800 
 27 H        1.3160    -3.4320    -2.3000 H     1 <1>   0.0800 
 28 H        0.3290    -5.9840    -2.1760 H     1 <1>   0.0800 
 29 H        1.7360    -6.4380    -1.2350 H     1 <1>   0.0800 
 30 H       -0.3450    -3.0250    -0.0840 H     1 <1>   0.0800 
 31 H       -0.9520    -3.9040    -1.4620 H     1 <1>   0.0800 
 32 H        0.3760    -6.8230     0.7150 H     1 <1>   0.0800 
 33 H       -0.8610    -4.8080     1.4150 H     1 <1>   0.0800 
 34 H       -2.2900    -4.3430     0.5660 H     1 <1>   0.0800 
 35 H        0.7560    -8.7390    -0.1830 H     1 <1>   0.4500 
 36 H       -2.0730    -9.1900    -0.6460 H     1 <1>   0.0800 
 37 H       -0.9090   -10.1730     0.2030 H     1 <1>   0.0800 
 38 H       -0.9050    -8.2870    -2.5810 H     1 <1>   0.0800 
 39 H       -0.0060    -9.7470    -2.2300 H     1 <1>   0.0800 
 40 H        0.8440    -8.2460    -2.5050 H     1 <1>   0.0800 
 41 H       -2.1580    -6.5780     2.0640 H     1 <1>   0.0800 
 42 H       -3.2970    -7.1710     0.9210 H     1 <1>   0.0800 
 43 H       -2.6100    -7.3710    -1.5890 H     1 <1>   0.0800 
 44 H       -1.8310    -5.9120    -2.1430 H     1 <1>   0.0800 
 45 H       -2.4350    -9.1340     1.7910 H     1 <1>   0.0800 
 46 H       -0.8450    -8.4880     2.0170 H     1 <1>   0.0800 
 47 H       -4.1120    -6.0020    -0.4790 H     1 <1>   0.4000 
@<TRIPOS>BOND
  1   1   2  1   
  2   2   3  ar  
  3   2   4  ar  
  4   3   5  ar  
  5   3  23  1   
  6   4   6  ar  
  7   4  24  1   
  8   5   7  ar  
  9   5   8  1   
 10   6   7  ar  
 11   6  25  1   
 12   7   9  1   
 13   8  10  1   
 14   8  26  1   
 15   8  27  1   
 16  10  11  1   
 17  10  12  1   
 18  11  13  1   
 19  11  28  1   
 20  11  29  1   
 21  12  14  1   
 22  12  30  1   
 23  12  31  1   
 24  13  15  1   
 25  13  16  1   
 26  13  32  1   
 27  14  16  1   
 28  14  33  1   
 29  14  34  1   
 30  15  17  1   
 31  15  18  1   
 32  15  35  1   
 33  16  19  1   
 34  16  20  1   
 35  17  21  1   
 36  17  36  1   
 37  17  37  1   
 38  18  38  1   
 39  18  39  1   
 40  18  40  1   
 41  19  21  1   
 42  19  41  1   
 43  19  42  1   
 44  20  22  1   
 45  20  43  1   
 46  20  44  1   
 47  21  45  1   
 48  21  46  1   
 49  22  47  1   
@<TRIPOS>SUBSTRUCTURE
  1 ****  10 GROUP 4 **** **** 0

# MOE 2024.06 (io_trps.svl 2023.06)
