@<TRIPOS>MOLECULE
NONAME
49 50 1 0 0 
SMALL
USER_CHARGES


@<TRIPOS>ATOM
  1 O        0.9380     2.9260    -1.8540 O.2   1 <1>  -0.5700 
  2 C        0.2750     3.8110    -1.3770 C.2   1 <1>   0.5690 
  3 N       -0.6280     3.5520    -0.4090 N.am  1 <1>  -0.7300 
  4 C        0.4560     5.2490    -1.8680 C.3   1 <1>   0.1810 
  5 C       -1.5750     4.5620     0.1160 C.3   1 <1>   0.3640 
  6 O       -0.6650     6.0790    -1.6150 O.3   1 <1>  -0.5600 
  7 C       -2.9770     4.2100    -0.3760 C.ar  1 <1>  -0.1440 
  8 C       -1.1860     6.0130    -0.2860 C.3   1 <1>   0.2610 
  9 C       -3.9960     3.9970     0.5420 C.ar  1 <1>  -0.1500 
 10 C       -3.2600     4.1030    -1.7320 C.ar  1 <1>  -0.1500 
 11 C       -0.2490     6.6790     0.7330 C.2   1 <1>   0.5690 
 12 C       -5.2740     3.6830     0.1140 C.ar  1 <1>  -0.1500 
 13 C       -4.5370     3.7900    -2.1610 C.ar  1 <1>  -0.1500 
 14 O       -0.3230     6.3680     1.8990 O.2   1 <1>  -0.5700 
 15 N        0.6140     7.6330     0.2810 N.am  1 <1>  -0.7300 
 16 C       -5.5460     3.5800    -1.2380 C.ar  1 <1>  -0.1500 
 17 C        1.6160     8.4270     1.0010 C.3   1 <1>   0.3000 
 18 C        2.3640     9.3190    -0.0230 C.3   1 <1>  -0.1600 
 19 C        0.8840     9.3340     1.9960 C.3   1 <1>  -0.2400 
 20 C        2.5660     7.5050     1.7760 C.3   1 <1>  -0.2400 
 21 C        2.7820     8.7400    -1.3990 C.3   1 <1>  -0.0800 
 22 C        3.8130     7.6070    -1.3130 C.3   1 <1>  -0.2400 
 23 C        3.3680     9.8700    -2.2560 C.3   1 <1>  -0.2400 
 24 H       -0.8130     2.5770    -0.1720 H     1 <1>   0.3700 
 25 H        0.6220     5.2410    -2.9290 H     1 <1>   0.0800 
 26 H        1.3180     5.6750    -1.3900 H     1 <1>   0.0800 
 27 H       -1.5820     4.4830     1.1890 H     1 <1>   0.0800 
 28 H       -2.0850     6.6020    -0.2850 H     1 <1>   0.0800 
 29 H       -3.8050     4.0730     1.5990 H     1 <1>   0.1500 
 30 H       -2.4860     4.2630    -2.4620 H     1 <1>   0.1500 
 31 H       -6.0580     3.5200     0.8330 H     1 <1>   0.1500 
 32 H       -4.7460     3.7090    -3.2140 H     1 <1>   0.1500 
 33 H        0.5710     7.8490    -0.7160 H     1 <1>   0.3700 
 34 H       -6.5400     3.3360    -1.5720 H     1 <1>   0.1500 
 35 H        1.7290    10.1630    -0.2280 H     1 <1>   0.0800 
 36 H        3.2360     9.7230     0.4590 H     1 <1>   0.0800 
 37 H        1.5860     9.9760     2.4970 H     1 <1>   0.0800 
 38 H        0.3780     8.7500     2.7440 H     1 <1>   0.0800 
 39 H        0.1590     9.9470     1.4930 H     1 <1>   0.0800 
 40 H        3.3930     8.0670     2.1680 H     1 <1>   0.0800 
 41 H        2.9480     6.7160     1.1620 H     1 <1>   0.0800 
 42 H        2.0570     7.0540     2.6090 H     1 <1>   0.0800 
 43 H        1.9130     8.3700    -1.9170 H     1 <1>   0.0800 
 44 H        4.6310     7.8850    -0.6720 H     1 <1>   0.0800 
 45 H        4.2070     7.3830    -2.2890 H     1 <1>   0.0800 
 46 H        3.3630     6.7080    -0.9410 H     1 <1>   0.0800 
 47 H        4.2560    10.2710    -1.8000 H     1 <1>   0.0800 
 48 H        2.6540    10.6660    -2.3730 H     1 <1>   0.0800 
 49 H        3.6230     9.5070    -3.2360 H     1 <1>   0.0800 
@<TRIPOS>BOND
  1   1   2  2   
  2   2   3  am  
  3   2   4  1   
  4   3   5  1   
  5   3  24  1   
  6   4   6  1   
  7   4  25  1   
  8   4  26  1   
  9   5   7  1   
 10   5   8  1   
 11   5  27  1   
 12   6   8  1   
 13   7   9  ar  
 14   7  10  ar  
 15   8  11  1   
 16   8  28  1   
 17   9  12  ar  
 18   9  29  1   
 19  10  13  ar  
 20  10  30  1   
 21  11  14  2   
 22  11  15  am  
 23  12  16  ar  
 24  12  31  1   
 25  13  16  ar  
 26  13  32  1   
 27  15  17  1   
 28  15  33  1   
 29  16  34  1   
 30  17  18  1   
 31  17  19  1   
 32  17  20  1   
 33  18  21  1   
 34  18  35  1   
 35  18  36  1   
 36  19  37  1   
 37  19  38  1   
 38  19  39  1   
 39  20  40  1   
 40  20  41  1   
 41  20  42  1   
 42  21  22  1   
 43  21  23  1   
 44  21  43  1   
 45  22  44  1   
 46  22  45  1   
 47  22  46  1   
 48  23  47  1   
 49  23  48  1   
 50  23  49  1   
@<TRIPOS>SUBSTRUCTURE
  1 ****   8 GROUP 4 **** **** 0

# MOE 2024.06 (io_trps.svl 2023.06)
