@<TRIPOS>MOLECULE
NONAME
48 50 1 0 0 
SMALL
USER_CHARGES


@<TRIPOS>ATOM
  1 S        1.6750    -0.2570    -0.7950 S.3   1 <1>  -0.3320 
  2 C        0.9530    -1.8880    -0.6540 C.ar  1 <1>   0.4120 
  3 C        1.0310     0.7000     0.6680 C.3   1 <1>   0.2110 
  4 N        0.1770    -2.1270     0.3540 N.ar  1 <1>  -0.6200 
  5 C        1.2870    -2.8030    -1.6590 C.ar  1 <1>  -0.1500 
  6 C        0.9430     2.2070     0.3560 C.2   1 <1>   0.5690 
  7 C        1.8570     0.3280     1.9120 C.3   1 <1>  -0.2400 
  8 C       -0.3460    -3.3770     0.4220 C.ar  1 <1>   0.3100 
  9 C        0.7790    -4.0670    -1.6150 C.ar  1 <1>  -0.1440 
 10 O       -0.1780     2.6650     0.3290 O.2   1 <1>  -0.5700 
 11 N        2.0400     3.0270     0.1450 N.am  1 <1>  -0.6600 
 12 C       -0.0770    -4.3880    -0.5350 C.ar  1 <1>   0.0000 
 13 C       -1.1960    -3.6760     1.4990 C.ar  1 <1>  -0.1500 
 14 C        1.1260    -5.0820    -2.6940 C.3   1 <1>  -0.0970 
 15 C        1.8260     4.4950    -0.0710 C.3   1 <1>   0.2200 
 16 C        3.4560     2.5520     0.0580 C.3   1 <1>   0.0600 
 17 C       -0.6770    -5.6540    -0.3540 C.ar  1 <1>  -0.1500 
 18 C       -1.7640    -4.9120     1.6480 C.ar  1 <1>  -0.1500 
 19 C        1.9300     4.8470    -1.5560 C.3   1 <1>  -0.1600 
 20 C        2.7830     5.3620     0.7560 C.3   1 <1>  -0.1600 
 21 C       -1.5000    -5.9120     0.7090 C.ar  1 <1>  -0.1500 
 22 C        1.7610     6.3580    -1.7420 C.3   1 <1>   0.1200 
 23 C        2.5450     6.8380     0.4270 C.3   1 <1>   0.1200 
 24 O        2.6920     7.0290    -0.9480 O.3   1 <1>  -0.5600 
 25 H        0.0220     0.3560     0.8120 H     1 <1>   0.0800 
 26 H        1.9430    -2.4750    -2.4430 H     1 <1>   0.1500 
 27 H        2.9010     0.5250     1.7670 H     1 <1>   0.0800 
 28 H        1.7340    -0.7160     2.1330 H     1 <1>   0.0800 
 29 H        1.5100     0.8960     2.7560 H     1 <1>   0.0800 
 30 H       -1.3870    -2.8940     2.2100 H     1 <1>   0.1500 
 31 H        1.7850    -4.6520    -3.4270 H     1 <1>   0.0800 
 32 H        0.2320    -5.4090    -3.1940 H     1 <1>   0.0800 
 33 H        1.6160    -5.9330    -2.2570 H     1 <1>   0.0800 
 34 H        0.8310     4.7560     0.2470 H     1 <1>   0.0800 
 35 H        3.5110     1.5110    -0.1920 H     1 <1>   0.0800 
 36 H        3.9470     2.7080     1.0030 H     1 <1>   0.0800 
 37 H        3.9880     3.0940    -0.7020 H     1 <1>   0.0800 
 38 H       -0.4840    -6.4330    -1.0680 H     1 <1>   0.1500 
 39 H       -2.4140    -5.1270     2.4790 H     1 <1>   0.1500 
 40 H        1.1590     4.3320    -2.1000 H     1 <1>   0.0800 
 41 H        2.8830     4.5590    -1.9560 H     1 <1>   0.0800 
 42 H        3.8090     5.1380     0.5320 H     1 <1>   0.0800 
 43 H        2.6090     5.1950     1.8030 H     1 <1>   0.0800 
 44 H       -1.9520    -6.8810     0.8350 H     1 <1>   0.1500 
 45 H        0.7730     6.6790    -1.4610 H     1 <1>   0.0800 
 46 H        1.9420     6.6350    -2.7660 H     1 <1>   0.0800 
 47 H        3.2700     7.4580     0.9240 H     1 <1>   0.0800 
 48 H        1.5560     7.1530     0.7150 H     1 <1>   0.0800 
@<TRIPOS>BOND
  1   1   2  1   
  2   1   3  1   
  3   2   4  ar  
  4   2   5  ar  
  5   3   6  1   
  6   3   7  1   
  7   3  25  1   
  8   4   8  ar  
  9   5   9  ar  
 10   5  26  1   
 11   6  10  2   
 12   6  11  am  
 13   7  27  1   
 14   7  28  1   
 15   7  29  1   
 16   8  12  ar  
 17   8  13  ar  
 18   9  12  ar  
 19   9  14  1   
 20  11  15  1   
 21  11  16  1   
 22  12  17  ar  
 23  13  18  ar  
 24  13  30  1   
 25  14  31  1   
 26  14  32  1   
 27  14  33  1   
 28  15  19  1   
 29  15  20  1   
 30  15  34  1   
 31  16  35  1   
 32  16  36  1   
 33  16  37  1   
 34  17  21  ar  
 35  17  38  1   
 36  18  21  ar  
 37  18  39  1   
 38  19  22  1   
 39  19  40  1   
 40  19  41  1   
 41  20  23  1   
 42  20  42  1   
 43  20  43  1   
 44  21  44  1   
 45  22  24  1   
 46  22  45  1   
 47  22  46  1   
 48  23  24  1   
 49  23  47  1   
 50  23  48  1   
@<TRIPOS>SUBSTRUCTURE
  1 ****   3 GROUP 4 **** **** 0

# MOE 2024.06 (io_trps.svl 2023.06)
