@<TRIPOS>MOLECULE
NONAME
55 57 1 0 0 
SMALL
USER_CHARGES


@<TRIPOS>ATOM
  1 O        0.8670     7.3850     0.9690 O.co2 1 <1>  -0.9000 
  2 C        1.3170     6.2490     0.7800 C.2   1 <1>   0.9060 
  3 O        2.2830     6.1130     0.0210 O.co2 1 <1>  -0.9000 
  4 C        0.6320     5.0240     1.4030 C.3   1 <1>  -0.1860 
  5 C        0.7370     3.7870     0.4830 C.3   1 <1>  -0.1600 
  6 C       -0.8770     5.2530     1.6940 C.3   1 <1>  -0.1600 
  7 C        0.0470     4.0240    -0.8740 C.3   1 <1>   0.1400 
  8 C       -1.7880     5.0470     0.4660 C.3   1 <1>   0.1400 
  9 N       -0.9860     5.1100    -0.7860 N.am  1 <1>  -0.6600 
 10 C       -1.0240     6.2470    -1.5530 C.2   1 <1>   0.5690 
 11 O       -1.9870     6.9810    -1.5560 O.2   1 <1>  -0.5700 
 12 C        0.1200     6.6460    -2.4660 C.3   1 <1>  -0.0990 
 13 C        0.2600     8.1670    -2.5220 C.3   1 <1>   0.3430 
 14 N        1.0400     8.7330    -1.3860 N.4   1 <1>  -0.9590 
 15 C        0.6180    10.1110    -1.0440 C.3   1 <1>   0.5660 
 16 C        2.5130     8.5420    -1.5540 C.3   1 <1>   0.2630 
 17 C        1.6860    10.8890    -0.2730 C.ar  1 <1>  -0.1440 
 18 C       -0.6910    10.0630    -0.2610 C.3   1 <1>  -0.2400 
 19 C        2.1380    10.4960     0.9610 C.ar  1 <1>  -0.1500 
 20 C        2.2220    12.0500    -0.8530 C.ar  1 <1>  -0.1500 
 21 C        3.1280    11.2170     1.6550 C.ar  1 <1>   0.0000 
 22 C        3.1800    12.7740    -0.2000 C.ar  1 <1>  -0.1500 
 23 C        3.6600    12.3820     1.0650 C.ar  1 <1>   0.0000 
 24 C        3.6100    10.8130     2.9150 C.ar  1 <1>  -0.1500 
 25 C        4.6490    13.1040     1.7640 C.ar  1 <1>  -0.1500 
 26 C        4.5720    11.5310     3.5710 C.ar  1 <1>  -0.1500 
 27 C        5.0960    12.6910     2.9890 C.ar  1 <1>  -0.1500 
 28 H        1.1430     4.8310     2.3270 H     1 <1>   0.0800 
 29 H        0.2830     2.9420     0.9680 H     1 <1>   0.0800 
 30 H        1.7710     3.5410     0.3150 H     1 <1>   0.0800 
 31 H       -1.0300     6.2450     2.0830 H     1 <1>   0.0800 
 32 H       -1.1970     4.5730     2.4630 H     1 <1>   0.0800 
 33 H       -0.4300     3.1140    -1.1940 H     1 <1>   0.0800 
 34 H        0.7970     4.2620    -1.6030 H     1 <1>   0.0800 
 35 H       -2.5670     5.7900     0.4630 H     1 <1>   0.0800 
 36 H       -2.2570     4.0800     0.5210 H     1 <1>   0.0800 
 37 H       -0.1220     6.2860    -3.4470 H     1 <1>   0.0800 
 38 H        1.0540     6.2160    -2.1720 H     1 <1>   0.0800 
 39 H       -0.7280     8.5980    -2.5390 H     1 <1>   0.0800 
 40 H        0.7460     8.4390    -3.4430 H     1 <1>   0.0800 
 41 H        0.8310     8.1730    -0.5140 H     1 <1>   0.4500 
 42 H        0.4380    10.6450    -1.9610 H     1 <1>   0.0800 
 43 H        2.8950     9.1720    -2.3370 H     1 <1>   0.0800 
 44 H        2.7280     7.5110    -1.7820 H     1 <1>   0.0800 
 45 H        3.0190     8.7740    -0.6310 H     1 <1>   0.0800 
 46 H       -0.5680     9.5030     0.6490 H     1 <1>   0.0800 
 47 H       -1.4770     9.6170    -0.8400 H     1 <1>   0.0800 
 48 H       -0.9900    11.0610    -0.0010 H     1 <1>   0.0800 
 49 H        1.7490     9.6090     1.4330 H     1 <1>   0.1500 
 50 H        1.8740    12.3740    -1.8190 H     1 <1>   0.1500 
 51 H        3.5890    13.6640    -0.6430 H     1 <1>   0.1500 
 52 H        3.2020     9.9180     3.3520 H     1 <1>   0.1500 
 53 H        5.0490    13.9940     1.3130 H     1 <1>   0.1500 
 54 H        4.9350    11.2160     4.5340 H     1 <1>   0.1500 
 55 H        5.8510    13.2450     3.5180 H     1 <1>   0.1500 
@<TRIPOS>BOND
  1   1   2  ar  
  2   2   3  ar  
  3   2   4  1   
  4   4   5  1   
  5   4   6  1   
  6   4  28  1   
  7   5   7  1   
  8   5  29  1   
  9   5  30  1   
 10   6   8  1   
 11   6  31  1   
 12   6  32  1   
 13   7   9  1   
 14   7  33  1   
 15   7  34  1   
 16   8   9  1   
 17   8  35  1   
 18   8  36  1   
 19   9  10  am  
 20  10  11  2   
 21  10  12  1   
 22  12  13  1   
 23  12  37  1   
 24  12  38  1   
 25  13  14  1   
 26  13  39  1   
 27  13  40  1   
 28  14  15  1   
 29  14  16  1   
 30  14  41  1   
 31  15  17  1   
 32  15  18  1   
 33  15  42  1   
 34  16  43  1   
 35  16  44  1   
 36  16  45  1   
 37  17  19  ar  
 38  17  20  ar  
 39  18  46  1   
 40  18  47  1   
 41  18  48  1   
 42  19  21  ar  
 43  19  49  1   
 44  20  22  ar  
 45  20  50  1   
 46  21  23  ar  
 47  21  24  ar  
 48  22  23  ar  
 49  22  51  1   
 50  23  25  ar  
 51  24  26  ar  
 52  24  52  1   
 53  25  27  ar  
 54  25  53  1   
 55  26  27  ar  
 56  26  54  1   
 57  27  55  1   
@<TRIPOS>SUBSTRUCTURE
  1 ****   1 GROUP 4 **** **** 0

# MOE 2024.06 (io_trps.svl 2023.06)
