@<TRIPOS>MOLECULE
NONAME
41 43 1 0 0 
SMALL
USER_CHARGES


@<TRIPOS>ATOM
  1 O       -0.4710    -0.8950    -0.4410 O.co2 1 <1>  -0.9000 
  2 C        0.3660    -1.2390     0.4190 C.2   1 <1>   0.9790 
  3 O        0.4060    -0.6050     1.4880 O.co2 1 <1>  -0.9000 
  4 C        1.3480    -2.2510     0.1270 C.ar  1 <1>  -0.1790 
  5 C        1.0650    -3.6300     0.1430 C.ar  1 <1>   0.4100 
  6 C        2.6370    -1.8460    -0.1850 C.ar  1 <1>  -0.1500 
  7 N        1.9770    -4.5590    -0.1610 N.ar  1 <1>  -0.6200 
  8 N       -0.1920    -4.1250     0.4700 N.pl3 1 <1>  -0.8380 
  9 C        3.5720    -2.8070    -0.4820 C.ar  1 <1>  -0.1500 
 10 C        3.1880    -4.1330    -0.4580 C.ar  1 <1>   0.1600 
 11 C       -1.3730    -3.6420    -0.2970 C.3   1 <1>   0.2090 
 12 C       -0.4410    -5.5390     0.8300 C.3   1 <1>   0.2090 
 13 C       -2.2470    -4.8740    -0.5960 C.3   1 <1>   0.2000 
 14 C       -1.3210    -6.0570    -0.3040 C.3   1 <1>  -0.0800 
 15 O       -3.3610    -4.9480     0.2590 O.3   1 <1>  -0.5600 
 16 C       -2.0290    -7.3840     0.0200 C.3   1 <1>   0.0200 
 17 C       -4.3800    -4.0380    -0.0200 C.3   1 <1>   0.0400 
 18 C       -1.0660    -8.5570     0.1090 C.2   1 <1>  -0.0400 
 19 O       -1.5250    -9.7300     0.4580 O.3   1 <1>  -0.0190 
 20 C        0.2530    -8.6840    -0.1080 C.2   1 <1>  -0.1500 
 21 N       -0.5870   -10.6320     0.4880 N.2   1 <1>  -0.4100 
 22 C        0.4970   -10.0290     0.1520 C.2   1 <1>   0.1080 
 23 C        1.8500   -10.6960     0.0550 C.3   1 <1>  -0.0590 
 24 H        2.8800    -0.7960    -0.1870 H     1 <1>   0.1500 
 25 H        4.5800    -2.5330    -0.7290 H     1 <1>   0.1500 
 26 H        3.9210    -4.8830    -0.6950 H     1 <1>   0.1500 
 27 H       -1.9000    -2.8990     0.2750 H     1 <1>   0.0800 
 28 H       -1.0400    -3.2040    -1.2220 H     1 <1>   0.0800 
 29 H        0.4650    -6.1050     0.9410 H     1 <1>   0.0800 
 30 H       -0.9790    -5.5610     1.7620 H     1 <1>   0.0800 
 31 H       -2.5910    -4.8810    -1.6150 H     1 <1>   0.0800 
 32 H       -0.6890    -6.1950    -1.1630 H     1 <1>   0.0800 
 33 H       -2.7520    -7.5950    -0.7470 H     1 <1>   0.0800 
 34 H       -2.5570    -7.2960     0.9530 H     1 <1>   0.0800 
 35 H       -5.1920    -4.2310     0.6580 H     1 <1>   0.0800 
 36 H       -4.7130    -4.1740    -1.0340 H     1 <1>   0.0800 
 37 H       -4.0230    -3.0340     0.1300 H     1 <1>   0.0800 
 38 H        0.9800    -7.9510    -0.4100 H     1 <1>   0.1500 
 39 H        2.2440   -10.5770    -0.9370 H     1 <1>   0.0800 
 40 H        1.7580   -11.7450     0.2710 H     1 <1>   0.0800 
 41 H        2.5250   -10.2520     0.7620 H     1 <1>   0.0800 
@<TRIPOS>BOND
  1   1   2  ar  
  2   2   3  ar  
  3   2   4  1   
  4   4   5  ar  
  5   4   6  ar  
  6   5   7  ar  
  7   5   8  1   
  8   6   9  ar  
  9   6  24  1   
 10   7  10  ar  
 11   8  11  1   
 12   8  12  1   
 13   9  10  ar  
 14   9  25  1   
 15  10  26  1   
 16  11  13  1   
 17  11  27  1   
 18  11  28  1   
 19  12  14  1   
 20  12  29  1   
 21  12  30  1   
 22  13  14  1   
 23  13  15  1   
 24  13  31  1   
 25  14  16  1   
 26  14  32  1   
 27  15  17  1   
 28  16  18  1   
 29  16  33  1   
 30  16  34  1   
 31  17  35  1   
 32  17  36  1   
 33  17  37  1   
 34  18  19  1   
 35  18  20  2   
 36  19  21  1   
 37  20  22  1   
 38  20  38  1   
 39  21  22  2   
 40  22  23  1   
 41  23  39  1   
 42  23  40  1   
 43  23  41  1   
@<TRIPOS>SUBSTRUCTURE
  1 ****  12 GROUP 4 **** **** 0

# MOE 2024.06 (io_trps.svl 2023.06)
