@<TRIPOS>MOLECULE
NONAME
50 53 1 0 0 
SMALL
USER_CHARGES


@<TRIPOS>ATOM
  1 O       -0.4030     0.0760    -0.4170 O.3   1 <1>  -0.0190 
  2 N        0.3530     1.1050    -0.1890 N.2   1 <1>  -0.4100 
  3 C       -1.6220     0.5530    -0.3570 C.2   1 <1>   0.2980 
  4 C       -0.4170     2.1060    -0.0100 C.2   1 <1>   0.3350 
  5 N       -1.7040     1.8010    -0.1110 N.2   1 <1>  -0.5650 
  6 C       -2.7780    -0.4150    -0.5900 C.3   1 <1>   0.1000 
  7 C        0.0250     3.5410     0.2850 C.3   1 <1>   0.1010 
  8 C       -4.1350     0.3020    -0.7140 C.3   1 <1>  -0.1600 
  9 C       -2.8440    -1.4680     0.5290 C.3   1 <1>  -0.1600 
 10 C        0.0770     4.3670    -1.0080 C.3   1 <1>  -0.2400 
 11 C        1.3830     3.6030     1.0030 C.3   1 <1>  -0.2400 
 12 C       -5.2730    -0.6950    -0.9300 C.3   1 <1>   0.2090 
 13 C       -3.9970    -2.4460     0.3020 C.3   1 <1>   0.2090 
 14 N       -5.2700    -1.6920     0.1660 N.pl3 1 <1>  -0.8380 
 15 C       -6.4420    -2.3900     0.3620 C.ar  1 <1>   0.4100 
 16 N       -6.4840    -3.6390    -0.0100 N.ar  1 <1>  -0.6200 
 17 C       -7.5380    -1.7260     0.9390 C.ar  1 <1>  -0.1500 
 18 C       -7.6450    -4.3280     0.1660 C.ar  1 <1>   0.3100 
 19 C       -8.7130    -2.3780     1.1280 C.ar  1 <1>  -0.1500 
 20 C       -7.7320    -5.6930    -0.2250 C.ar  1 <1>   0.0820 
 21 C       -8.7930    -3.7260     0.7340 C.ar  1 <1>   0.0000 
 22 O       -6.6210    -6.2680    -0.7700 O.3   1 <1>  -0.3630 
 23 C       -8.9060    -6.3980    -0.0550 C.ar  1 <1>  -0.1500 
 24 C       -9.9710    -4.4760     0.8920 C.ar  1 <1>  -0.1500 
 25 C       -6.5930    -7.6090    -1.2030 C.3   1 <1>   0.0400 
 26 C      -10.0290    -5.7870     0.5050 C.ar  1 <1>  -0.1500 
 27 H       -2.5850    -0.9220    -1.5190 H     1 <1>   0.0800 
 28 H       -0.7130     3.9760     0.9370 H     1 <1>   0.0800 
 29 H       -4.1060     0.9920    -1.5380 H     1 <1>   0.0800 
 30 H       -4.3340     0.8650     0.1810 H     1 <1>   0.0800 
 31 H       -2.9840    -0.9820     1.4790 H     1 <1>   0.0800 
 32 H       -1.9220    -2.0190     0.5710 H     1 <1>   0.0800 
 33 H        0.7980     3.9490    -1.6870 H     1 <1>   0.0800 
 34 H        0.3460     5.3860    -0.7940 H     1 <1>   0.0800 
 35 H       -0.8870     4.3590    -1.4850 H     1 <1>   0.0800 
 36 H        2.1590     3.1980     0.3770 H     1 <1>   0.0800 
 37 H        1.3430     3.0290     1.9110 H     1 <1>   0.0800 
 38 H        1.6320     4.6190     1.2500 H     1 <1>   0.0800 
 39 H       -5.1490    -1.2060    -1.8700 H     1 <1>   0.0800 
 40 H       -6.2150    -0.1740    -0.9510 H     1 <1>   0.0800 
 41 H       -4.0700    -3.1250     1.1350 H     1 <1>   0.0800 
 42 H       -3.8300    -3.0260    -0.5900 H     1 <1>   0.0800 
 43 H       -7.4050    -0.7000     1.2250 H     1 <1>   0.1500 
 44 H       -9.5680    -1.8970     1.5670 H     1 <1>   0.1500 
 45 H       -8.9970    -7.4280    -0.3420 H     1 <1>   0.1500 
 46 H      -10.8330    -4.0000     1.3240 H     1 <1>   0.1500 
 47 H       -5.6110    -7.8110    -1.5920 H     1 <1>   0.0800 
 48 H       -7.3270    -7.7400    -1.9780 H     1 <1>   0.0800 
 49 H       -6.7930    -8.2510    -0.3640 H     1 <1>   0.0800 
 50 H      -10.9330    -6.3580     0.6280 H     1 <1>   0.1500 
@<TRIPOS>BOND
  1   1   2  1   
  2   1   3  1   
  3   2   4  2   
  4   3   5  2   
  5   3   6  1   
  6   4   5  1   
  7   4   7  1   
  8   6   8  1   
  9   6   9  1   
 10   6  27  1   
 11   7  10  1   
 12   7  11  1   
 13   7  28  1   
 14   8  12  1   
 15   8  29  1   
 16   8  30  1   
 17   9  13  1   
 18   9  31  1   
 19   9  32  1   
 20  10  33  1   
 21  10  34  1   
 22  10  35  1   
 23  11  36  1   
 24  11  37  1   
 25  11  38  1   
 26  12  14  1   
 27  12  39  1   
 28  12  40  1   
 29  13  14  1   
 30  13  41  1   
 31  13  42  1   
 32  14  15  1   
 33  15  16  ar  
 34  15  17  ar  
 35  16  18  ar  
 36  17  19  ar  
 37  17  43  1   
 38  18  20  ar  
 39  18  21  ar  
 40  19  21  ar  
 41  19  44  1   
 42  20  22  1   
 43  20  23  ar  
 44  21  24  ar  
 45  22  25  1   
 46  23  26  ar  
 47  23  45  1   
 48  24  26  ar  
 49  24  46  1   
 50  25  47  1   
 51  25  48  1   
 52  25  49  1   
 53  26  50  1   
@<TRIPOS>SUBSTRUCTURE
  1 ****  14 GROUP 4 **** **** 0

# MOE 2024.06 (io_trps.svl 2023.06)
