@<TRIPOS>MOLECULE
NONAME
52 54 1 0 0 
SMALL
USER_CHARGES


@<TRIPOS>ATOM
  1 F       -1.0550    -0.2350    -0.6700 F     1 <1>  -0.1900 
  2 C       -1.9530     0.6080    -0.2300 C.ar  1 <1>   0.1900 
  3 C       -3.0640     0.1110     0.4240 C.ar  1 <1>  -0.1440 
  4 C       -1.7590     1.9560    -0.4570 C.ar  1 <1>  -0.1500 
  5 C       -4.0090     1.0170     0.8740 C.ar  1 <1>  -0.1500 
  6 C       -3.2530    -1.3760     0.6360 C.3   1 <1>   0.4870 
  7 C       -2.7190     2.8640    -0.0170 C.ar  1 <1>   0.0830 
  8 C       -3.8550     2.3800     0.6630 C.ar  1 <1>   0.0830 
  9 N       -3.5350    -2.0330    -0.6720 N.4   1 <1>  -0.9590 
 10 O       -2.5830     4.2000    -0.2530 O.3   1 <1>  -0.3620 
 11 O       -4.8790     3.1310     1.1550 O.3   1 <1>  -0.3620 
 12 C       -4.7810    -1.4860    -1.3060 C.3   1 <1>   0.3430 
 13 C       -3.7750    -3.4960    -0.4680 C.3   1 <1>   0.3430 
 14 C       -1.4670     4.7440    -0.9270 C.3   1 <1>   0.0400 
 15 C       -4.7000     4.4740     1.5510 C.3   1 <1>   0.0400 
 16 C       -5.9070    -2.4160    -0.8530 C.3   1 <1>   0.2000 
 17 C       -5.2190    -3.7770    -0.9000 C.3   1 <1>  -0.0800 
 18 O       -6.2280    -2.1200     0.4770 O.3   1 <1>  -0.5600 
 19 C       -5.8930    -4.8950    -0.0810 C.3   1 <1>   0.0200 
 20 C       -7.2660    -1.2000     0.6420 C.3   1 <1>   0.0400 
 21 C       -5.0000    -6.1190    -0.0270 C.2   1 <1>  -0.0400 
 22 O       -4.4450    -6.5680    -1.1200 O.3   1 <1>  -0.0190 
 23 C       -4.6030    -6.9000     0.9890 C.2   1 <1>  -0.1500 
 24 N       -3.6830    -7.5950    -0.8890 N.2   1 <1>  -0.4100 
 25 C       -3.7660    -7.8270     0.3720 C.2   1 <1>   0.1080 
 26 C       -3.0480    -8.9550     1.0790 C.3   1 <1>  -0.0590 
 27 H       -0.8700     2.2630    -0.9730 H     1 <1>   0.1500 
 28 H       -4.8870     0.6830     1.4000 H     1 <1>   0.1500 
 29 H       -4.0740    -1.5430     1.3160 H     1 <1>   0.0800 
 30 H       -2.3590    -1.7910     1.0720 H     1 <1>   0.0800 
 31 H       -2.7200    -1.8670    -1.2800 H     1 <1>   0.4500 
 32 H       -4.9770    -0.4640    -1.0270 H     1 <1>   0.0800 
 33 H       -4.6910    -1.5440    -2.3780 H     1 <1>   0.0800 
 34 H       -3.0890    -4.0930    -1.0490 H     1 <1>   0.0800 
 35 H       -3.6570    -3.7510     0.5730 H     1 <1>   0.0800 
 36 H       -1.5970     5.8100    -0.9780 H     1 <1>   0.0800 
 37 H       -1.4240     4.3360    -1.9210 H     1 <1>   0.0800 
 38 H       -0.5750     4.5130    -0.3720 H     1 <1>   0.0800 
 39 H       -5.5270     4.7530     2.1780 H     1 <1>   0.0800 
 40 H       -4.6850     5.0970     0.6740 H     1 <1>   0.0800 
 41 H       -3.7770     4.5610     2.0980 H     1 <1>   0.0800 
 42 H       -6.7880    -2.3690    -1.4730 H     1 <1>   0.0800 
 43 H       -5.1840    -4.0960    -1.9270 H     1 <1>   0.0800 
 44 H       -6.8310    -5.1610    -0.5370 H     1 <1>   0.0800 
 45 H       -6.0940    -4.5740     0.9260 H     1 <1>   0.0800 
 46 H       -7.4080    -1.0380     1.6970 H     1 <1>   0.0800 
 47 H       -8.1720    -1.6040     0.2210 H     1 <1>   0.0800 
 48 H       -7.0100    -0.2690     0.1660 H     1 <1>   0.0800 
 49 H       -4.8450    -6.8590     2.0350 H     1 <1>   0.1500 
 50 H       -2.4030    -8.5600     1.8410 H     1 <1>   0.0800 
 51 H       -2.4560    -9.5120     0.3750 H     1 <1>   0.0800 
 52 H       -3.7650    -9.6180     1.5280 H     1 <1>   0.0800 
@<TRIPOS>BOND
  1   1   2  1   
  2   2   3  ar  
  3   2   4  ar  
  4   3   5  ar  
  5   3   6  1   
  6   4   7  ar  
  7   4  27  1   
  8   5   8  ar  
  9   5  28  1   
 10   6   9  1   
 11   6  29  1   
 12   6  30  1   
 13   7   8  ar  
 14   7  10  1   
 15   8  11  1   
 16   9  12  1   
 17   9  13  1   
 18   9  31  1   
 19  10  14  1   
 20  11  15  1   
 21  12  16  1   
 22  12  32  1   
 23  12  33  1   
 24  13  17  1   
 25  13  34  1   
 26  13  35  1   
 27  14  36  1   
 28  14  37  1   
 29  14  38  1   
 30  15  39  1   
 31  15  40  1   
 32  15  41  1   
 33  16  17  1   
 34  16  18  1   
 35  16  42  1   
 36  17  19  1   
 37  17  43  1   
 38  18  20  1   
 39  19  21  1   
 40  19  44  1   
 41  19  45  1   
 42  20  46  1   
 43  20  47  1   
 44  20  48  1   
 45  21  22  1   
 46  21  23  2   
 47  22  24  1   
 48  23  25  1   
 49  23  49  1   
 50  24  25  2   
 51  25  26  1   
 52  26  50  1   
 53  26  51  1   
 54  26  52  1   
@<TRIPOS>SUBSTRUCTURE
  1 ****   9 GROUP 4 **** **** 0

# MOE 2024.06 (io_trps.svl 2023.06)
