@<TRIPOS>MOLECULE
NONAME
51 53 1 0 0 
SMALL
USER_CHARGES


@<TRIPOS>ATOM
  1 O        1.0910    -1.9270    -2.7310 O.2   1 <1>  -0.5700 
  2 C        2.1050    -2.2580    -2.1740 C.2   1 <1>   0.5690 
  3 N        3.2170    -2.5840    -2.8630 N.am  1 <1>  -0.7300 
  4 C        2.1690    -2.3340    -0.6640 C.3   1 <1>  -0.0990 
  5 C        4.4760    -3.0150    -2.2190 C.3   1 <1>   0.1400 
  6 C        3.4900    -1.7310    -0.1500 C.3   1 <1>  -0.0800 
  7 C        4.7390    -2.1700    -0.9560 C.3   1 <1>  -0.0800 
  8 C        3.7750    -2.0740     1.3210 C.3   1 <1>  -0.1600 
  9 C        5.6530    -2.8770     0.0510 C.3   1 <1>  -0.1600 
 10 C        5.2930    -2.2310     1.3840 C.3   1 <1>   0.2200 
 11 N        5.8030    -3.0040     2.5580 N.am  1 <1>  -0.6600 
 12 C        6.8980    -2.6120     3.3020 C.2   1 <1>   0.5690 
 13 C        5.1030    -4.2820     2.9010 C.3   1 <1>   0.0600 
 14 O        7.2740    -3.2590     4.2530 O.2   1 <1>  -0.5700 
 15 C        7.6970    -1.3480     2.9890 C.3   1 <1>   0.0440 
 16 C        8.3860    -1.3970     1.6280 C.ar  1 <1>  -0.1430 
 17 C        8.1530    -0.4140     0.6800 C.ar  1 <1>  -0.1500 
 18 C        9.2420    -2.4400     1.3200 C.ar  1 <1>  -0.1500 
 19 C        8.7390    -0.4720    -0.5730 C.ar  1 <1>   0.0830 
 20 C        9.8380    -2.5140     0.0730 C.ar  1 <1>  -0.1500 
 21 O        8.4080     0.5500    -1.4110 O.3   1 <1>  -0.3630 
 22 C        9.5880    -1.5440    -0.8960 C.ar  1 <1>   0.0830 
 23 C        9.3690     1.0930    -2.2900 C.3   1 <1>   0.0400 
 24 O       10.1290    -1.6280    -2.1460 O.3   1 <1>  -0.3630 
 25 C       10.9980    -2.6750    -2.5190 C.3   1 <1>   0.0400 
 26 H        3.1690    -2.5530    -3.8840 H     1 <1>   0.3700 
 27 H        1.3320    -1.8090    -0.2420 H     1 <1>   0.0800 
 28 H        2.0930    -3.3690    -0.3900 H     1 <1>   0.0800 
 29 H        4.3810    -4.0560    -1.9600 H     1 <1>   0.0800 
 30 H        5.2970    -2.9080    -2.9080 H     1 <1>   0.0800 
 31 H        3.4150    -0.6600    -0.2430 H     1 <1>   0.0800 
 32 H        5.2460    -1.2730    -1.2740 H     1 <1>   0.0800 
 33 H        3.2830    -2.9940     1.5730 H     1 <1>   0.0800 
 34 H        3.4350    -1.2950     1.9800 H     1 <1>   0.0800 
 35 H        6.6900    -2.7400    -0.1970 H     1 <1>   0.0800 
 36 H        5.4290    -3.9270     0.0780 H     1 <1>   0.0800 
 37 H        5.7010    -1.2370     1.3900 H     1 <1>   0.0800 
 38 H        4.8010    -4.8020     2.0100 H     1 <1>   0.0800 
 39 H        4.2360    -4.0680     3.4990 H     1 <1>   0.0800 
 40 H        5.7510    -4.9340     3.4610 H     1 <1>   0.0800 
 41 H        7.0410    -0.5020     3.0570 H     1 <1>   0.0800 
 42 H        8.4500    -1.2240     3.7450 H     1 <1>   0.0800 
 43 H        7.5060     0.4160     0.8990 H     1 <1>   0.1500 
 44 H        9.4420    -3.2060     2.0510 H     1 <1>   0.1500 
 45 H       10.4890    -3.3440    -0.1190 H     1 <1>   0.1500 
 46 H        9.0640     2.0910    -2.5450 H     1 <1>   0.0800 
 47 H        9.4080     0.4880    -3.1770 H     1 <1>   0.0800 
 48 H       10.3260     1.1130    -1.7990 H     1 <1>   0.0800 
 49 H       11.2940    -2.5160    -3.5400 H     1 <1>   0.0800 
 50 H       10.4760    -3.6110    -2.4320 H     1 <1>   0.0800 
 51 H       11.8640    -2.6540    -1.8810 H     1 <1>   0.0800 
@<TRIPOS>BOND
  1   1   2  2   
  2   2   3  am  
  3   2   4  1   
  4   3   5  1   
  5   3  26  1   
  6   4   6  1   
  7   4  27  1   
  8   4  28  1   
  9   5   7  1   
 10   5  29  1   
 11   5  30  1   
 12   6   7  1   
 13   6   8  1   
 14   6  31  1   
 15   7   9  1   
 16   7  32  1   
 17   8  10  1   
 18   8  33  1   
 19   8  34  1   
 20   9  10  1   
 21   9  35  1   
 22   9  36  1   
 23  10  11  1   
 24  10  37  1   
 25  11  12  am  
 26  11  13  1   
 27  12  14  2   
 28  12  15  1   
 29  13  38  1   
 30  13  39  1   
 31  13  40  1   
 32  15  16  1   
 33  15  41  1   
 34  15  42  1   
 35  16  17  ar  
 36  16  18  ar  
 37  17  19  ar  
 38  17  43  1   
 39  18  20  ar  
 40  18  44  1   
 41  19  21  1   
 42  19  22  ar  
 43  20  22  ar  
 44  20  45  1   
 45  21  23  1   
 46  22  24  1   
 47  23  46  1   
 48  23  47  1   
 49  23  48  1   
 50  24  25  1   
 51  25  49  1   
 52  25  50  1   
 53  25  51  1   
@<TRIPOS>SUBSTRUCTURE
  1 ****   9 GROUP 4 **** **** 0

# MOE 2024.06 (io_trps.svl 2023.06)
