@<TRIPOS>MOLECULE
NONAME
47 49 1 0 0 
SMALL
USER_CHARGES


@<TRIPOS>ATOM
  1 S       -3.0380     2.1430     2.1150 S.3   1 <1>  -0.0800 
  2 C       -1.7490     1.7230     1.0110 C.2   1 <1>   0.1980 
  3 C       -2.6310     3.8150     1.9160 C.2   1 <1>  -0.1100 
  4 N       -1.0990     2.7220     0.5620 N.2   1 <1>  -0.5650 
  5 C       -1.5380     0.2480     0.7180 C.3   1 <1>   0.1640 
  6 C       -1.5890     3.9440     1.0670 C.2   1 <1>   0.1410 
  7 C       -2.7290    -0.3610    -0.0110 C.ar  1 <1>  -0.1440 
  8 C       -0.9710     5.1960     0.6600 C.2   1 <1>   0.7160 
  9 C       -3.4740    -1.3760     0.5740 C.ar  1 <1>  -0.1500 
 10 C       -3.0780     0.0950    -1.2730 C.ar  1 <1>  -0.1500 
 11 O       -1.3640     6.2670     1.0860 O.2   1 <1>  -0.5700 
 12 N        0.0730     5.1250    -0.2240 N.am  1 <1>  -0.4940 
 13 C       -4.5520    -1.9280    -0.0970 C.ar  1 <1>  -0.1500 
 14 C       -4.1560    -0.4560    -1.9440 C.ar  1 <1>  -0.1500 
 15 C        0.8860     6.1250    -0.8080 C.2   1 <1>  -0.0880 
 16 C       -4.8930    -1.4680    -1.3570 C.ar  1 <1>  -0.1500 
 17 N        1.8930     5.8980    -1.7020 N.pl3 1 <1>   0.3140 
 18 C        0.8450     7.4640    -0.6160 C.2   1 <1>  -0.1500 
 19 N        2.4820     7.0590    -2.0780 N.2   1 <1>  -0.7070 
 20 C        2.3540     4.6010    -2.2830 C.3   1 <1>   0.1760 
 21 C        1.8490     7.9810    -1.4220 C.2   1 <1>   0.1390 
 22 C        1.2550     4.0140    -3.1960 C.3   1 <1>  -0.1600 
 23 C        2.8350     3.6040    -1.2020 C.3   1 <1>  -0.1600 
 24 C        1.7260     2.8140    -4.0320 C.3   1 <1>  -0.2400 
 25 C        3.8660     4.2040    -0.2340 C.3   1 <1>  -0.2400 
 26 H       -3.2050     4.5510     2.4500 H     1 <1>   0.1500 
 27 H       -1.3610    -0.2670     1.6440 H     1 <1>   0.0800 
 28 H       -0.6600     0.1360     0.1080 H     1 <1>   0.0800 
 29 H       -3.2240    -1.7440     1.5530 H     1 <1>   0.1500 
 30 H       -2.5130     0.8850    -1.7380 H     1 <1>   0.1500 
 31 H        0.2730     4.1530    -0.4720 H     1 <1>   0.3700 
 32 H       -5.1260    -2.7140     0.3610 H     1 <1>   0.1500 
 33 H       -4.4220    -0.0960    -2.9230 H     1 <1>   0.1500 
 34 H       -5.7310    -1.8970    -1.8780 H     1 <1>   0.1500 
 35 H        0.1860     8.0270     0.0190 H     1 <1>   0.1500 
 36 H        3.2000     4.8380    -2.9030 H     1 <1>   0.0800 
 37 H        2.0820     9.0300    -1.5010 H     1 <1>   0.1500 
 38 H        0.9340     4.7870    -3.8750 H     1 <1>   0.0800 
 39 H        0.4040     3.7160    -2.6100 H     1 <1>   0.0800 
 40 H        3.2970     2.7650    -1.6910 H     1 <1>   0.0800 
 41 H        2.0000     3.2210    -0.6440 H     1 <1>   0.0800 
 42 H        2.6020     3.0720    -4.6020 H     1 <1>   0.0800 
 43 H        0.9510     2.5230    -4.7180 H     1 <1>   0.0800 
 44 H        1.9520     1.9690    -3.4070 H     1 <1>   0.0800 
 45 H        4.7020     4.6090    -0.7790 H     1 <1>   0.0800 
 46 H        4.2310     3.4450     0.4350 H     1 <1>   0.0800 
 47 H        3.4290     4.9910     0.3560 H     1 <1>   0.0800 
@<TRIPOS>BOND
  1   1   2  1   
  2   1   3  1   
  3   2   4  2   
  4   2   5  1   
  5   3   6  2   
  6   3  26  1   
  7   4   6  1   
  8   5   7  1   
  9   5  27  1   
 10   5  28  1   
 11   6   8  1   
 12   7   9  ar  
 13   7  10  ar  
 14   8  11  2   
 15   8  12  am  
 16   9  13  ar  
 17   9  29  1   
 18  10  14  ar  
 19  10  30  1   
 20  12  15  1   
 21  12  31  1   
 22  13  16  ar  
 23  13  32  1   
 24  14  16  ar  
 25  14  33  1   
 26  15  17  1   
 27  15  18  2   
 28  16  34  1   
 29  17  19  1   
 30  17  20  1   
 31  18  21  1   
 32  18  35  1   
 33  19  21  2   
 34  20  22  1   
 35  20  23  1   
 36  20  36  1   
 37  21  37  1   
 38  22  24  1   
 39  22  38  1   
 40  22  39  1   
 41  23  25  1   
 42  23  40  1   
 43  23  41  1   
 44  24  42  1   
 45  24  43  1   
 46  24  44  1   
 47  25  45  1   
 48  25  46  1   
 49  25  47  1   
@<TRIPOS>SUBSTRUCTURE
  1 ****   4 GROUP 4 **** **** 0

# MOE 2024.06 (io_trps.svl 2023.06)
