@<TRIPOS>MOLECULE
NONAME
51 54 1 0 0 
SMALL
USER_CHARGES


@<TRIPOS>ATOM
  1 S       -3.0120     0.0620     2.3110 S.3   1 <1>  -0.0800 
  2 C       -3.1990    -1.1930     1.0990 C.2   1 <1>  -0.1100 
  3 C       -3.4330     1.3030     1.1460 C.2   1 <1>  -0.1100 
  4 C       -3.5570    -0.6680    -0.0890 C.2   1 <1>  -0.1810 
  5 C       -3.6870     0.7600    -0.0580 C.2   1 <1>  -0.1500 
  6 C       -3.8200    -1.4350    -1.3830 C.3   1 <1>   0.0820 
  7 C       -3.8060    -2.9530    -1.2360 C.2   1 <1>   0.5690 
  8 O       -2.9020    -3.5480    -1.7770 O.2   1 <1>  -0.5700 
  9 N       -4.7900    -3.6230    -0.5460 N.am  1 <1>  -0.6600 
 10 C       -5.9430    -2.9790     0.1590 C.3   1 <1>   0.1400 
 11 C       -4.7610    -5.1050    -0.3920 C.3   1 <1>   0.1400 
 12 C       -7.2450    -3.5160    -0.4580 C.3   1 <1>   0.2200 
 13 C       -6.0970    -5.7320    -0.8430 C.3   1 <1>  -0.1600 
 14 N       -8.5120    -2.7950    -0.0860 N.am  1 <1>  -0.6600 
 15 C       -7.3810    -5.0510    -0.2820 C.3   1 <1>   0.0000 
 16 C       -8.6430    -1.9260     0.9780 C.2   1 <1>   0.7160 
 17 C       -9.6870    -3.2140    -0.8990 C.3   1 <1>   0.1400 
 18 C       -8.5840    -5.5040    -1.1490 C.3   1 <1>  -0.1600 
 19 C       -7.6860    -5.4540     1.1940 C.3   1 <1>   0.1200 
 20 O       -7.9730    -2.0980     1.9760 O.2   1 <1>  -0.5700 
 21 C       -9.5700    -0.8190     0.9430 C.2   1 <1>  -0.0860 
 22 C       -9.8750    -4.7340    -0.8130 C.3   1 <1>  -0.1600 
 23 O       -6.5570    -5.5700     1.9900 O.3   1 <1>  -0.6800 
 24 C      -10.1650    -0.1980     1.9960 C.2   1 <1>  -0.0100 
 25 C      -10.0480    -0.1110    -0.1820 C.2   1 <1>  -0.1500 
 26 O      -10.9450     0.7790     1.6010 O.3   1 <1>  -0.2800 
 27 C      -10.8790     0.8400     0.2890 C.2   1 <1>  -0.0100 
 28 H       -3.0190    -2.2070     1.4120 H     1 <1>   0.1500 
 29 H       -3.4440     2.3210     1.4930 H     1 <1>   0.1500 
 30 H       -3.9660     1.3140    -0.9380 H     1 <1>   0.1500 
 31 H       -3.0690    -1.1570    -2.0990 H     1 <1>   0.0800 
 32 H       -4.7710    -1.1430    -1.7870 H     1 <1>   0.0800 
 33 H       -5.8930    -3.2190     1.2070 H     1 <1>   0.0800 
 34 H       -5.9160    -1.9110     0.0580 H     1 <1>   0.0800 
 35 H       -3.9630    -5.5280    -0.9780 H     1 <1>   0.0800 
 36 H       -4.5500    -5.3340     0.6360 H     1 <1>   0.0800 
 37 H       -7.1250    -3.3410    -1.5130 H     1 <1>   0.0800 
 38 H       -6.1070    -5.6720    -1.9170 H     1 <1>   0.0800 
 39 H       -6.0980    -6.7770    -0.5930 H     1 <1>   0.0800 
 40 H      -10.5840    -2.7330    -0.5480 H     1 <1>   0.0800 
 41 H       -9.5270    -2.9240    -1.9230 H     1 <1>   0.0800 
 42 H       -8.3610    -5.3370    -2.1900 H     1 <1>   0.0800 
 43 H       -8.7540    -6.5600    -1.0260 H     1 <1>   0.0800 
 44 H       -8.1830    -6.4080     1.2250 H     1 <1>   0.0800 
 45 H       -8.3320    -4.7310     1.6620 H     1 <1>   0.0800 
 46 H      -10.2140    -4.9860     0.1770 H     1 <1>   0.0800 
 47 H      -10.6520    -5.0270    -1.4960 H     1 <1>   0.0800 
 48 H       -6.0360    -6.3540     1.7360 H     1 <1>   0.4000 
 49 H      -10.0690    -0.4050     3.0480 H     1 <1>   0.1500 
 50 H       -9.7760    -0.3120    -1.2030 H     1 <1>   0.1500 
 51 H      -11.4510     1.5940    -0.2250 H     1 <1>   0.1500 
@<TRIPOS>BOND
  1   1   2  1   
  2   1   3  1   
  3   2   4  2   
  4   2  28  1   
  5   3   5  2   
  6   3  29  1   
  7   4   5  1   
  8   4   6  1   
  9   5  30  1   
 10   6   7  1   
 11   6  31  1   
 12   6  32  1   
 13   7   8  2   
 14   7   9  am  
 15   9  10  1   
 16   9  11  1   
 17  10  12  1   
 18  10  33  1   
 19  10  34  1   
 20  11  13  1   
 21  11  35  1   
 22  11  36  1   
 23  12  14  1   
 24  12  15  1   
 25  12  37  1   
 26  13  15  1   
 27  13  38  1   
 28  13  39  1   
 29  14  16  am  
 30  14  17  1   
 31  15  18  1   
 32  15  19  1   
 33  16  20  2   
 34  16  21  1   
 35  17  22  1   
 36  17  40  1   
 37  17  41  1   
 38  18  22  1   
 39  18  42  1   
 40  18  43  1   
 41  19  23  1   
 42  19  44  1   
 43  19  45  1   
 44  21  24  2   
 45  21  25  1   
 46  22  46  1   
 47  22  47  1   
 48  23  48  1   
 49  24  26  1   
 50  24  49  1   
 51  25  27  2   
 52  25  50  1   
 53  26  27  1   
 54  27  51  1   
@<TRIPOS>SUBSTRUCTURE
  1 ****  10 GROUP 4 **** **** 0

# MOE 2024.06 (io_trps.svl 2023.06)
