@<TRIPOS>MOLECULE
NONAME
46 48 1 0 0 
SMALL
USER_CHARGES


@<TRIPOS>ATOM
  1 O        0.5920     1.4290     1.9350 O.co2 1 <1>  -0.9000 
  2 C        0.7090     2.4890     1.2960 C.2   1 <1>   0.9790 
  3 O       -0.2830     3.2300     1.1900 O.co2 1 <1>  -0.9000 
  4 C        1.9760     2.8100     0.6690 C.ar  1 <1>  -0.1790 
  5 C        2.4750     4.1080     0.5250 C.ar  1 <1>   0.1660 
  6 C        2.7670     1.7780     0.1750 C.ar  1 <1>  -0.1500 
  7 N        3.6230     4.4110    -0.0550 N.ar  1 <1>  -0.6200 
  8 C        1.7110     5.3070     1.0570 C.3   1 <1>  -0.0960 
  9 C        3.9690     2.0690    -0.4310 C.ar  1 <1>   0.0730 
 10 C        4.3600     3.4110    -0.5240 C.ar  1 <1>   0.4100 
 11 C        4.7890     1.0240    -0.9560 C.1   1 <1>   0.4840 
 12 N        5.5570     3.7860    -1.1120 N.pl3 1 <1>  -0.8380 
 13 N        5.4530     0.1820    -1.3530 N.1   1 <1>  -0.5570 
 14 C        5.5790     4.9210    -2.0740 C.3   1 <1>   0.2090 
 15 C        6.8400     3.4770    -0.4300 C.3   1 <1>   0.2090 
 16 C        6.1370     6.1760    -1.4000 C.3   1 <1>  -0.1600 
 17 C        7.3790     4.7340     0.2510 C.3   1 <1>  -0.1600 
 18 C        7.4980     5.9010    -0.7420 C.3   1 <1>   0.1000 
 19 C        8.0490     7.1500    -0.0680 C.2   1 <1>   0.2980 
 20 O        7.3850     7.6860     0.9270 O.3   1 <1>  -0.0190 
 21 N        9.1280     7.7450    -0.3880 N.2   1 <1>  -0.5650 
 22 N        8.1060     8.7100     1.2690 N.2   1 <1>  -0.4100 
 23 C        9.1180     8.7350     0.4950 C.2   1 <1>   0.3350 
 24 C       10.2490     9.7650     0.5260 C.3   1 <1>   0.1010 
 25 C       11.4280     9.2490     1.3630 C.3   1 <1>  -0.2400 
 26 C        9.7860    11.1310     1.0560 C.3   1 <1>  -0.2400 
 27 H        2.4220     0.7610     0.2770 H     1 <1>   0.1500 
 28 H        1.3580     5.1100     2.0530 H     1 <1>   0.0800 
 29 H        0.8660     5.5020     0.4230 H     1 <1>   0.0800 
 30 H        2.3370     6.1800     1.0830 H     1 <1>   0.0800 
 31 H        4.5810     5.1140    -2.4320 H     1 <1>   0.0800 
 32 H        6.1900     4.6510    -2.9180 H     1 <1>   0.0800 
 33 H        7.5460     3.1110    -1.1560 H     1 <1>   0.0800 
 34 H        6.6890     2.7080     0.3090 H     1 <1>   0.0800 
 35 H        5.4310     6.5060    -0.6570 H     1 <1>   0.0800 
 36 H        6.2370     6.9580    -2.1300 H     1 <1>   0.0800 
 37 H        8.3420     4.5220     0.6790 H     1 <1>   0.0800 
 38 H        6.7110     5.0020     1.0520 H     1 <1>   0.0800 
 39 H        8.1930     5.6170    -1.5130 H     1 <1>   0.0800 
 40 H       10.5870     9.9010    -0.4870 H     1 <1>   0.0800 
 41 H       11.1190     9.0900     2.3810 H     1 <1>   0.0800 
 42 H       12.2390     9.9540     1.3490 H     1 <1>   0.0800 
 43 H       11.7780     8.3130     0.9630 H     1 <1>   0.0800 
 44 H        9.4610    11.0470     2.0780 H     1 <1>   0.0800 
 45 H        8.9630    11.4920     0.4650 H     1 <1>   0.0800 
 46 H       10.5870    11.8470     1.0040 H     1 <1>   0.0800 
@<TRIPOS>BOND
  1   1   2  ar  
  2   2   3  ar  
  3   2   4  1   
  4   4   5  ar  
  5   4   6  ar  
  6   5   7  ar  
  7   5   8  1   
  8   6   9  ar  
  9   6  27  1   
 10   7  10  ar  
 11   8  28  1   
 12   8  29  1   
 13   8  30  1   
 14   9  10  ar  
 15   9  11  1   
 16  10  12  1   
 17  11  13  3   
 18  12  14  1   
 19  12  15  1   
 20  14  16  1   
 21  14  31  1   
 22  14  32  1   
 23  15  17  1   
 24  15  33  1   
 25  15  34  1   
 26  16  18  1   
 27  16  35  1   
 28  16  36  1   
 29  17  18  1   
 30  17  37  1   
 31  17  38  1   
 32  18  19  1   
 33  18  39  1   
 34  19  20  1   
 35  19  21  2   
 36  20  22  1   
 37  21  23  1   
 38  22  23  2   
 39  23  24  1   
 40  24  25  1   
 41  24  26  1   
 42  24  40  1   
 43  25  41  1   
 44  25  42  1   
 45  25  43  1   
 46  26  44  1   
 47  26  45  1   
 48  26  46  1   
@<TRIPOS>SUBSTRUCTURE
  1 ****  12 GROUP 4 **** **** 0

# MOE 2024.06 (io_trps.svl 2023.06)
