@<TRIPOS>MOLECULE
NONAME
36 38 1 0 0 
SMALL
USER_CHARGES


@<TRIPOS>ATOM
  1 O       -1.0670     0.2110     1.7720 O.2   1 <1>  -0.5700 
  2 C       -1.5220    -0.5150     0.9230 C.2   1 <1>   0.5690 
  3 N       -1.3260    -1.8540     1.0290 N.am  1 <1>  -0.7300 
  4 C       -2.3370     0.0580    -0.2370 C.3   1 <1>   0.1220 
  5 C       -1.8590    -2.8900     0.1050 C.3   1 <1>   0.1400 
  6 C       -1.6330     1.3390    -0.6820 C.2   1 <1>   0.6590 
  7 C       -3.7730     0.3480     0.2540 C.3   1 <1>  -0.0160 
  8 C       -2.4320    -0.9630    -1.4010 C.3   1 <1>  -0.1600 
  9 C       -2.9220    -2.3060    -0.8460 C.3   1 <1>   0.0640 
 10 O       -0.7650     1.3310    -1.5220 O.2   1 <1>  -0.5700 
 11 O       -2.0340     2.4780    -0.1240 O.3   1 <1>  -0.4300 
 12 C       -4.6290    -0.9040     0.4230 C.ar  1 <1>  -0.1440 
 13 C       -4.2460    -2.1340    -0.1050 C.ar  1 <1>  -0.1430 
 14 C       -1.4220     3.7080    -0.4280 C.3   1 <1>   0.1200 
 15 C       -5.8300    -0.7960     1.1070 C.ar  1 <1>  -0.1500 
 16 C       -5.0770    -3.2330     0.0550 C.ar  1 <1>  -0.1500 
 17 C       -2.1220     4.7960     0.3790 C.3   1 <1>  -0.2400 
 18 C       -6.6510    -1.8980     1.2660 C.ar  1 <1>  -0.1500 
 19 C       -6.2740    -3.1180     0.7370 C.ar  1 <1>  -0.1500 
 20 H       -0.7970    -2.1730     1.8440 H     1 <1>   0.3700 
 21 H       -2.2880    -3.6940     0.6790 H     1 <1>   0.0800 
 22 H       -1.0410    -3.2850    -0.4720 H     1 <1>   0.0800 
 23 H       -4.2670     0.9850    -0.4590 H     1 <1>   0.0800 
 24 H       -3.7310     0.8810     1.1890 H     1 <1>   0.0800 
 25 H       -1.4680    -1.1010    -1.8600 H     1 <1>   0.0800 
 26 H       -3.1110    -0.6040    -2.1550 H     1 <1>   0.0800 
 27 H       -3.0690    -2.9920    -1.6620 H     1 <1>   0.0800 
 28 H       -1.5180     3.8860    -1.4860 H     1 <1>   0.0800 
 29 H       -0.3790     3.6410    -0.1650 H     1 <1>   0.0800 
 30 H       -6.1330     0.1500     1.5200 H     1 <1>   0.1500 
 31 H       -4.7960    -4.1900    -0.3490 H     1 <1>   0.1500 
 32 H       -3.1630     4.8420     0.1150 H     1 <1>   0.0800 
 33 H       -1.6720     5.7490     0.1720 H     1 <1>   0.0800 
 34 H       -2.0260     4.5930     1.4310 H     1 <1>   0.0800 
 35 H       -7.5800    -1.8050     1.7990 H     1 <1>   0.1500 
 36 H       -6.9120    -3.9760     0.8570 H     1 <1>   0.1500 
@<TRIPOS>BOND
  1   1   2  2   
  2   2   3  am  
  3   2   4  1   
  4   3   5  1   
  5   3  20  1   
  6   4   6  1   
  7   4   7  1   
  8   4   8  1   
  9   5   9  1   
 10   5  21  1   
 11   5  22  1   
 12   6  10  2   
 13   6  11  1   
 14   7  12  1   
 15   7  23  1   
 16   7  24  1   
 17   8   9  1   
 18   8  25  1   
 19   8  26  1   
 20   9  13  1   
 21   9  27  1   
 22  11  14  1   
 23  12  13  ar  
 24  12  15  ar  
 25  13  16  ar  
 26  14  17  1   
 27  14  28  1   
 28  14  29  1   
 29  15  18  ar  
 30  15  30  1   
 31  16  19  ar  
 32  16  31  1   
 33  17  32  1   
 34  17  33  1   
 35  17  34  1   
 36  18  19  ar  
 37  18  35  1   
 38  19  36  1   
@<TRIPOS>SUBSTRUCTURE
  1 ****   4 GROUP 4 **** **** 0

# MOE 2024.06 (io_trps.svl 2023.06)
