@<TRIPOS>MOLECULE
NONAME
52 54 1 0 0 
SMALL
USER_CHARGES


@<TRIPOS>ATOM
  1 O       -0.3360     1.2550    -1.2550 O.2   1 <1>  -0.5700 
  2 C       -0.3940     2.4580    -1.1550 C.2   1 <1>   0.5690 
  3 N       -0.9940     3.1090    -0.1050 N.am  1 <1>  -0.6600 
  4 C        0.2350     3.2850    -2.2720 C.3   1 <1>   0.1810 
  5 C       -1.0350     4.6100    -0.0570 C.3   1 <1>   0.3640 
  6 C       -1.5510     2.4310     1.1010 C.3   1 <1>   0.2200 
  7 O        0.7300     4.5110    -1.7980 O.3   1 <1>  -0.5600 
  8 C       -2.4940     5.0730    -0.0580 C.ar  1 <1>  -0.1440 
  9 C       -0.2590     5.3320    -1.1960 C.3   1 <1>   0.2610 
 10 C       -0.4360     1.7230     1.8690 C.3   1 <1>  -0.2400 
 11 C       -2.6880     1.4770     0.7310 C.3   1 <1>  -0.2400 
 12 C       -3.3990     4.5880    -0.9940 C.ar  1 <1>  -0.1500 
 13 C       -2.9320     5.9950     0.8830 C.ar  1 <1>  -0.1500 
 14 C        0.3820     6.6190    -0.6580 C.2   1 <1>   0.5690 
 15 C       -4.7150     5.0160    -0.9890 C.ar  1 <1>  -0.1500 
 16 C       -4.2470     6.4230     0.8890 C.ar  1 <1>  -0.1500 
 17 O       -0.2900     7.4300    -0.0620 O.2   1 <1>  -0.5700 
 18 N        1.7130     6.8310    -0.8500 N.am  1 <1>  -0.7300 
 19 C       -5.1400     5.9340    -0.0470 C.ar  1 <1>  -0.1500 
 20 C        2.4380     8.0700    -0.4880 C.3   1 <1>   0.1400 
 21 C        2.7350     8.0990     1.0130 C.3   1 <1>   0.0200 
 22 C        2.9080     9.5300     1.4810 C.2   1 <1>   0.0060 
 23 N        4.0450    10.0910     1.6840 N.2   1 <1>  -0.5650 
 24 N        1.8950    10.3760     1.7280 N.pl3 1 <1>   0.3140 
 25 C        3.6710    11.3180     2.0680 C.2   1 <1>   0.3660 
 26 N        2.3990    11.5390     2.1090 N.2   1 <1>  -0.7070 
 27 C        0.4440    10.1530     1.6120 C.3   1 <1>   0.0160 
 28 H       -0.4900     3.4740    -3.0420 H     1 <1>   0.0800 
 29 H        1.0600     2.7400    -2.6940 H     1 <1>   0.0800 
 30 H       -0.5870     4.9070     0.8760 H     1 <1>   0.0800 
 31 H       -1.9680     3.1790     1.7550 H     1 <1>   0.0800 
 32 H       -0.9500     5.6150    -1.9690 H     1 <1>   0.0800 
 33 H       -0.0300     0.9110     1.2930 H     1 <1>   0.0800 
 34 H       -0.8250     1.3200     2.7860 H     1 <1>   0.0800 
 35 H        0.3500     2.4160     2.1080 H     1 <1>   0.0800 
 36 H       -2.3290     0.6480     0.1500 H     1 <1>   0.0800 
 37 H       -3.4460     1.9990     0.1780 H     1 <1>   0.0800 
 38 H       -3.1350     1.0860     1.6260 H     1 <1>   0.0800 
 39 H       -3.0870     3.8660    -1.7290 H     1 <1>   0.1500 
 40 H       -2.2490     6.3930     1.6140 H     1 <1>   0.1500 
 41 H       -5.4090     4.6320    -1.7170 H     1 <1>   0.1500 
 42 H       -4.5760     7.1400     1.6220 H     1 <1>   0.1500 
 43 H        2.2360     6.1000    -1.3480 H     1 <1>   0.3700 
 44 H       -6.1640     6.2670    -0.0420 H     1 <1>   0.1500 
 45 H        3.3560     8.1420    -1.0470 H     1 <1>   0.0800 
 46 H        1.8220     8.9130    -0.7530 H     1 <1>   0.0800 
 47 H        3.6350     7.5450     1.2120 H     1 <1>   0.0800 
 48 H        1.9320     7.6480     1.5680 H     1 <1>   0.0800 
 49 H        4.4080    12.0620     2.3230 H     1 <1>   0.1500 
 50 H        0.1790     9.2380     2.1070 H     1 <1>   0.0800 
 51 H        0.1760    10.0920     0.5740 H     1 <1>   0.0800 
 52 H       -0.0770    10.9740     2.0690 H     1 <1>   0.0800 
@<TRIPOS>BOND
  1   1   2  2   
  2   2   3  am  
  3   2   4  1   
  4   3   5  1   
  5   3   6  1   
  6   4   7  1   
  7   4  28  1   
  8   4  29  1   
  9   5   8  1   
 10   5   9  1   
 11   5  30  1   
 12   6  10  1   
 13   6  11  1   
 14   6  31  1   
 15   7   9  1   
 16   8  12  ar  
 17   8  13  ar  
 18   9  14  1   
 19   9  32  1   
 20  10  33  1   
 21  10  34  1   
 22  10  35  1   
 23  11  36  1   
 24  11  37  1   
 25  11  38  1   
 26  12  15  ar  
 27  12  39  1   
 28  13  16  ar  
 29  13  40  1   
 30  14  17  2   
 31  14  18  am  
 32  15  19  ar  
 33  15  41  1   
 34  16  19  ar  
 35  16  42  1   
 36  18  20  1   
 37  18  43  1   
 38  19  44  1   
 39  20  21  1   
 40  20  45  1   
 41  20  46  1   
 42  21  22  1   
 43  21  47  1   
 44  21  48  1   
 45  22  23  2   
 46  22  24  1   
 47  23  25  1   
 48  24  26  1   
 49  24  27  1   
 50  25  26  2   
 51  25  49  1   
 52  27  50  1   
 53  27  51  1   
 54  27  52  1   
@<TRIPOS>SUBSTRUCTURE
  1 ****  14 GROUP 4 **** **** 0

# MOE 2024.06 (io_trps.svl 2023.06)
