@<TRIPOS>MOLECULE
NONAME
48 50 1 0 0 
SMALL
USER_CHARGES


@<TRIPOS>ATOM
  1 F        2.2810    -0.1310     1.8410 F     1 <1>  -0.3400 
  2 C        2.1910    -0.6420     0.6200 C.3   1 <1>   1.1640 
  3 F        0.8940    -0.7590     0.3610 F     1 <1>  -0.3400 
  4 F        2.6560     0.2810    -0.2120 F     1 <1>  -0.3400 
  5 C        2.9180    -1.9930     0.5100 C.ar  1 <1>  -0.1440 
  6 C        2.3700    -3.1320     1.0910 C.ar  1 <1>  -0.1500 
  7 C        4.1280    -2.1150    -0.1600 C.ar  1 <1>  -0.1500 
  8 C        3.0020    -4.3660     1.0090 C.ar  1 <1>  -0.1440 
  9 C        4.7670    -3.3370    -0.2410 C.ar  1 <1>  -0.1500 
 10 C        4.2190    -4.4680     0.3410 C.ar  1 <1>  -0.1430 
 11 C        2.3240    -5.5630     1.6580 C.3   1 <1>   0.4870 
 12 C        4.9910    -5.7750     0.2110 C.3   1 <1>  -0.0970 
 13 N        1.7660    -6.4560     0.6100 N.4   1 <1>  -0.9590 
 14 C        0.9820    -5.7790    -0.4740 C.3   1 <1>   0.3430 
 15 C        0.9430    -7.5830     1.1050 C.3   1 <1>   0.3430 
 16 C       -0.2060    -6.7070    -0.7800 C.3   1 <1>   0.2000 
 17 C        0.1740    -8.0420    -0.1360 C.3   1 <1>  -0.0800 
 18 O       -1.3540    -6.2210    -0.1660 O.3   1 <1>  -0.6800 
 19 C        1.0280    -8.8900    -1.1180 C.3   1 <1>   0.0210 
 20 C        2.3050    -9.4570    -0.5220 C.2   1 <1>   0.1080 
 21 N        3.3550    -8.7310    -0.2690 N.2   1 <1>  -0.7070 
 22 C        2.4960   -10.7950    -0.1970 C.2   1 <1>  -0.1500 
 23 N        4.2670    -9.6150     0.2010 N.pl3 1 <1>   0.3000 
 24 C        3.7610   -10.8630     0.2650 C.2   1 <1>  -0.3320 
 25 C        4.5360   -12.0730     0.7570 C.3   1 <1>  -0.0600 
 26 H        1.4330    -3.0430     1.6180 H     1 <1>   0.1500 
 27 H        4.5900    -1.2570    -0.6230 H     1 <1>   0.1500 
 28 H        5.7060    -3.3990    -0.7660 H     1 <1>   0.1500 
 29 H        1.5330    -5.2160     2.3010 H     1 <1>   0.0800 
 30 H        3.0360    -6.1020     2.2610 H     1 <1>   0.0800 
 31 H        6.0440    -5.5770     0.1120 H     1 <1>   0.0800 
 32 H        4.6680    -6.3060    -0.6670 H     1 <1>   0.0800 
 33 H        4.8610    -6.4010     1.0740 H     1 <1>   0.0800 
 34 H        2.5740    -6.9280     0.1480 H     1 <1>   0.4500 
 35 H        0.6250    -4.8110    -0.1670 H     1 <1>   0.0800 
 36 H        1.6040    -5.6660    -1.3470 H     1 <1>   0.0800 
 37 H        1.5530    -8.3710     1.5200 H     1 <1>   0.0800 
 38 H        0.2510    -7.2360     1.8540 H     1 <1>   0.0800 
 39 H       -0.4090    -6.7770    -1.8360 H     1 <1>   0.0800 
 40 H       -0.6950    -8.6110     0.1470 H     1 <1>   0.0800 
 41 H       -1.2890    -6.1760     0.8060 H     1 <1>   0.4000 
 42 H        1.3190    -8.3090    -1.9740 H     1 <1>   0.0800 
 43 H        0.4280    -9.7010    -1.4920 H     1 <1>   0.0800 
 44 H        1.7810   -11.5910    -0.3090 H     1 <1>   0.1500 
 45 H        5.2290    -9.3530     0.4560 H     1 <1>   0.2700 
 46 H        3.9200   -12.9530     0.7070 H     1 <1>   0.0800 
 47 H        4.8450   -11.9310     1.7780 H     1 <1>   0.0800 
 48 H        5.4070   -12.2330     0.1460 H     1 <1>   0.0800 
@<TRIPOS>BOND
  1   1   2  1   
  2   2   3  1   
  3   2   4  1   
  4   2   5  1   
  5   5   6  ar  
  6   5   7  ar  
  7   6   8  ar  
  8   6  26  1   
  9   7   9  ar  
 10   7  27  1   
 11   8  10  ar  
 12   8  11  1   
 13   9  10  ar  
 14   9  28  1   
 15  10  12  1   
 16  11  13  1   
 17  11  29  1   
 18  11  30  1   
 19  12  31  1   
 20  12  32  1   
 21  12  33  1   
 22  13  14  1   
 23  13  15  1   
 24  13  34  1   
 25  14  16  1   
 26  14  35  1   
 27  14  36  1   
 28  15  17  1   
 29  15  37  1   
 30  15  38  1   
 31  16  17  1   
 32  16  18  1   
 33  16  39  1   
 34  17  19  1   
 35  17  40  1   
 36  18  41  1   
 37  19  20  1   
 38  19  42  1   
 39  19  43  1   
 40  20  21  2   
 41  20  22  1   
 42  21  23  1   
 43  22  24  2   
 44  22  44  1   
 45  23  24  1   
 46  23  45  1   
 47  24  25  1   
 48  25  46  1   
 49  25  47  1   
 50  25  48  1   
@<TRIPOS>SUBSTRUCTURE
  1 ****  13 GROUP 4 **** **** 0

# MOE 2024.06 (io_trps.svl 2023.06)
