@<TRIPOS>MOLECULE
NONAME
45 46 1 0 0 
SMALL
USER_CHARGES


@<TRIPOS>ATOM
  1 O       -2.2290    -0.3410     0.4500 O.3   1 <1>  -0.2800 
  2 C       -1.9090    -0.9980    -0.6520 C.2   1 <1>  -0.0400 
  3 C       -2.5750     0.8820     0.1040 C.2   1 <1>  -0.0400 
  4 C       -2.0680    -0.2020    -1.7310 C.2   1 <1>  -0.1500 
  5 C       -1.4340    -2.4440    -0.5720 C.3   1 <1>   0.2900 
  6 C       -2.5070     1.0310    -1.2350 C.2   1 <1>  -0.1500 
  7 C       -2.9440     1.8750     1.1860 C.3   1 <1>  -0.0600 
  8 N       -2.5810    -3.3350    -0.3050 N.3   1 <1>  -0.8100 
  9 C       -2.3170    -4.7280    -0.6940 C.3   1 <1>   0.2900 
 10 C       -3.0510    -3.2500     1.1040 C.3   1 <1>   0.1100 
 11 C       -3.6590    -5.4250    -0.7790 C.2   1 <1>  -0.3320 
 12 C       -4.5540    -2.9260     1.1890 C.3   1 <1>   0.3430 
 13 N       -4.4800    -5.2720    -1.8350 N.pl3 1 <1>   0.0330 
 14 C       -4.2960    -6.2590     0.0750 C.2   1 <1>   0.0460 
 15 N       -4.8690    -1.6740     0.4320 N.4   1 <1>  -0.9590 
 16 C       -5.5780    -5.9950    -1.5380 C.2   1 <1>   0.0360 
 17 N       -5.5110    -6.5880    -0.3930 N.2   1 <1>  -0.5650 
 18 C       -3.8390    -6.8300     1.4000 C.3   1 <1>  -0.0590 
 19 C       -5.8260    -0.7940     1.1550 C.3   1 <1>   0.2630 
 20 C       -5.3410    -1.9980    -0.9400 C.3   1 <1>   0.2630 
 21 H       -1.8930    -0.4250    -2.7700 H     1 <1>   0.1500 
 22 H       -0.6790    -2.5500     0.1890 H     1 <1>   0.0800 
 23 H       -0.9930    -2.7000    -1.5200 H     1 <1>   0.0800 
 24 H       -2.7180     1.9030    -1.8300 H     1 <1>   0.1500 
 25 H       -3.7810     1.5150     1.7540 H     1 <1>   0.0800 
 26 H       -3.1970     2.8240     0.7490 H     1 <1>   0.0800 
 27 H       -2.1080     2.0130     1.8480 H     1 <1>   0.0800 
 28 H       -1.6740    -5.2080     0.0250 H     1 <1>   0.0800 
 29 H       -1.8360    -4.7690    -1.6580 H     1 <1>   0.0800 
 30 H       -2.5100    -2.4940     1.6450 H     1 <1>   0.0800 
 31 H       -2.8700    -4.1760     1.6210 H     1 <1>   0.0800 
 32 H       -4.8170    -2.8040     2.2260 H     1 <1>   0.0800 
 33 H       -5.1210    -3.7550     0.7970 H     1 <1>   0.0800 
 34 H       -4.3010    -4.7420    -2.6920 H     1 <1>   0.2700 
 35 H       -3.9550    -1.1840     0.3180 H     1 <1>   0.4500 
 36 H       -6.4190    -6.0650    -2.2060 H     1 <1>   0.1500 
 37 H       -2.8270    -6.5450     1.6170 H     1 <1>   0.0800 
 38 H       -3.8920    -7.9030     1.3580 H     1 <1>   0.0800 
 39 H       -4.4850    -6.4870     2.1860 H     1 <1>   0.0800 
 40 H       -6.7720    -1.2940     1.2810 H     1 <1>   0.0800 
 41 H       -5.9840     0.1160     0.5990 H     1 <1>   0.0800 
 42 H       -5.4340    -0.5390     2.1260 H     1 <1>   0.0800 
 43 H       -6.2560    -2.5660    -0.8980 H     1 <1>   0.0800 
 44 H       -4.5940    -2.5820    -1.4520 H     1 <1>   0.0800 
 45 H       -5.5110    -1.0930    -1.4990 H     1 <1>   0.0800 
@<TRIPOS>BOND
  1   1   2  1   
  2   1   3  1   
  3   2   4  2   
  4   2   5  1   
  5   3   6  2   
  6   3   7  1   
  7   4   6  1   
  8   4  21  1   
  9   5   8  1   
 10   5  22  1   
 11   5  23  1   
 12   6  24  1   
 13   7  25  1   
 14   7  26  1   
 15   7  27  1   
 16   8   9  1   
 17   8  10  1   
 18   9  11  1   
 19   9  28  1   
 20   9  29  1   
 21  10  12  1   
 22  10  30  1   
 23  10  31  1   
 24  11  13  1   
 25  11  14  2   
 26  12  15  1   
 27  12  32  1   
 28  12  33  1   
 29  13  16  1   
 30  13  34  1   
 31  14  17  1   
 32  14  18  1   
 33  15  19  1   
 34  15  20  1   
 35  15  35  1   
 36  16  17  2   
 37  16  36  1   
 38  18  37  1   
 39  18  38  1   
 40  18  39  1   
 41  19  40  1   
 42  19  41  1   
 43  19  42  1   
 44  20  43  1   
 45  20  44  1   
 46  20  45  1   
@<TRIPOS>SUBSTRUCTURE
  1 ****   8 GROUP 4 **** **** 0

# MOE 2024.06 (io_trps.svl 2023.06)
