@<TRIPOS>MOLECULE
NONAME
59 62 1 0 0 
SMALL
USER_CHARGES


@<TRIPOS>ATOM
  1 O        2.5360     0.8300     1.6410 O.3   1 <1>  -0.6800 
  2 C        2.0660     0.4280     0.4020 C.3   1 <1>   0.2000 
  3 C        3.1890    -0.2880    -0.4310 C.3   1 <1>   0.0000 
  4 C        1.5460     1.7070    -0.2720 C.3   1 <1>  -0.1600 
  5 C        3.8540     0.7280    -1.3880 C.3   1 <1>   0.3430 
  6 C        2.5280    -1.3880    -1.2960 C.3   1 <1>   0.1200 
  7 C        4.2680    -1.0060     0.4480 C.3   1 <1>  -0.0170 
  8 C        2.6680     2.7200    -0.5420 C.3   1 <1>   0.3430 
  9 N        3.9910     2.0420    -0.7050 N.4   1 <1>  -0.9590 
 10 O        1.6590    -0.8250    -2.2190 O.3   1 <1>  -0.6800 
 11 C        5.5120    -0.1790     0.7800 C.ar  1 <1>  -0.1430 
 12 C        5.0450     2.9050    -1.2980 C.3   1 <1>   0.4860 
 13 C        6.5890    -0.1540    -0.0960 C.ar  1 <1>  -0.1500 
 14 C        5.5980     0.5340     1.9660 C.ar  1 <1>  -0.1500 
 15 C        5.0410     4.2670    -0.6250 C.ar  1 <1>  -0.1430 
 16 C        7.7140     0.5990     0.1910 C.ar  1 <1>  -0.1500 
 17 C        6.7250     1.2800     2.2600 C.ar  1 <1>  -0.1500 
 18 C        4.5760     5.3810    -1.3090 C.ar  1 <1>  -0.1500 
 19 C        5.4940     4.4130     0.6770 C.ar  1 <1>  -0.1500 
 20 C        7.7810     1.3210     1.3690 C.ar  1 <1>  -0.1500 
 21 C        4.5600     6.6200    -0.6940 C.ar  1 <1>  -0.1500 
 22 C        5.4780     5.6530     1.2910 C.ar  1 <1>  -0.1500 
 23 C        5.0100     6.7650     0.6090 C.ar  1 <1>  -0.1430 
 24 C        4.9900     8.1380     1.2740 C.3   1 <1>   0.2390 
 25 N        5.8320     9.1030     0.5360 N.pl3 1 <1>   0.3140 
 26 N        5.3170    10.2150    -0.0260 N.2   1 <1>  -0.7070 
 27 C        7.1650     9.0300     0.3360 C.2   1 <1>  -0.3020 
 28 C        6.3320    10.8160    -0.5670 C.2   1 <1>   0.1390 
 29 C        7.5190    10.1220    -0.3740 C.2   1 <1>  -0.1500 
 30 H        1.7900     0.9970     2.2540 H     1 <1>   0.4000 
 31 H        1.2520    -0.2550     0.5830 H     1 <1>   0.0800 
 32 H        1.0800     1.4560    -1.2070 H     1 <1>   0.0800 
 33 H        0.7820     2.1650     0.3310 H     1 <1>   0.0800 
 34 H        3.2430     0.8550    -2.2670 H     1 <1>   0.0800 
 35 H        4.8130     0.3580    -1.7040 H     1 <1>   0.0800 
 36 H        1.9680    -2.0730    -0.6800 H     1 <1>   0.0800 
 37 H        3.2670    -1.9440    -1.8490 H     1 <1>   0.0800 
 38 H        3.8220    -1.3660     1.3590 H     1 <1>   0.0800 
 39 H        4.6230    -1.8850    -0.0600 H     1 <1>   0.0800 
 40 H        2.7320     3.4080     0.2870 H     1 <1>   0.0800 
 41 H        2.4280     3.2890    -1.4260 H     1 <1>   0.0800 
 42 H        4.3020     1.8100     0.2570 H     1 <1>   0.4500 
 43 H        1.1890    -1.5210    -2.7280 H     1 <1>   0.4000 
 44 H        6.0100     2.4440    -1.1670 H     1 <1>   0.0800 
 45 H        4.8650     3.0290    -2.3530 H     1 <1>   0.0800 
 46 H        6.5710    -0.7310    -1.0040 H     1 <1>   0.1500 
 47 H        4.7940     0.5030     2.6820 H     1 <1>   0.1500 
 48 H        8.5470     0.6130    -0.4920 H     1 <1>   0.1500 
 49 H        6.7850     1.8220     3.1890 H     1 <1>   0.1500 
 50 H        4.2260     5.3020    -2.3240 H     1 <1>   0.1500 
 51 H        5.8650     3.5660     1.2250 H     1 <1>   0.1500 
 52 H        8.6600     1.9000     1.5980 H     1 <1>   0.1500 
 53 H        4.2010     7.4810    -1.2370 H     1 <1>   0.1500 
 54 H        5.8350     5.7450     2.3030 H     1 <1>   0.1500 
 55 H        5.3530     8.0790     2.2830 H     1 <1>   0.0800 
 56 H        3.9850     8.5160     1.2960 H     1 <1>   0.0800 
 57 H        7.7700     8.2210     0.7000 H     1 <1>   0.1500 
 58 H        6.2520    11.7480    -1.1030 H     1 <1>   0.1500 
 59 H        8.4920    10.4160    -0.7270 H     1 <1>   0.1500 
@<TRIPOS>BOND
  1   1   2  1   
  2   1  30  1   
  3   2   3  1   
  4   2   4  1   
  5   2  31  1   
  6   3   5  1   
  7   3   6  1   
  8   3   7  1   
  9   4   8  1   
 10   4  32  1   
 11   4  33  1   
 12   5   9  1   
 13   5  34  1   
 14   5  35  1   
 15   6  10  1   
 16   6  36  1   
 17   6  37  1   
 18   7  11  1   
 19   7  38  1   
 20   7  39  1   
 21   8   9  1   
 22   8  40  1   
 23   8  41  1   
 24   9  12  1   
 25   9  42  1   
 26  10  43  1   
 27  11  13  ar  
 28  11  14  ar  
 29  12  15  1   
 30  12  44  1   
 31  12  45  1   
 32  13  16  ar  
 33  13  46  1   
 34  14  17  ar  
 35  14  47  1   
 36  15  18  ar  
 37  15  19  ar  
 38  16  20  ar  
 39  16  48  1   
 40  17  20  ar  
 41  17  49  1   
 42  18  21  ar  
 43  18  50  1   
 44  19  22  ar  
 45  19  51  1   
 46  20  52  1   
 47  21  23  ar  
 48  21  53  1   
 49  22  23  ar  
 50  22  54  1   
 51  23  24  1   
 52  24  25  1   
 53  24  55  1   
 54  24  56  1   
 55  25  26  1   
 56  25  27  1   
 57  26  28  2   
 58  27  29  2   
 59  27  57  1   
 60  28  29  1   
 61  28  58  1   
 62  29  59  1   
@<TRIPOS>SUBSTRUCTURE
  1 ****  15 GROUP 4 **** **** 0

# MOE 2024.06 (io_trps.svl 2023.06)
