@<TRIPOS>MOLECULE
NONAME
47 49 1 0 0 
SMALL
USER_CHARGES


@<TRIPOS>ATOM
  1 F       -1.1480    -0.6990    -0.6740 F     1 <1>  -0.3400 
  2 C       -0.7710    -1.8590    -0.1550 C.3   1 <1>   0.8800 
  3 F        0.5390    -1.7630     0.0380 F     1 <1>  -0.3400 
  4 O       -1.0150    -2.8630    -1.1100 O.3   1 <1>  -0.3630 
  5 C       -1.0600    -4.1640    -0.7510 C.ar  1 <1>   0.0830 
  6 C       -0.5620    -4.6610     0.4510 C.ar  1 <1>  -0.1500 
  7 C       -1.6450    -5.0390    -1.6510 C.ar  1 <1>  -0.1500 
  8 C       -0.6800    -6.0080     0.7430 C.ar  1 <1>  -0.1500 
  9 C       -1.7570    -6.3830    -1.3500 C.ar  1 <1>  -0.1500 
 10 C       -1.2930    -6.8980    -0.1390 C.ar  1 <1>   0.0860 
 11 C       -1.4380    -8.3010     0.1990 C.2   1 <1>   0.5440 
 12 O       -0.4830    -8.9260     0.6230 O.2   1 <1>  -0.5700 
 13 N       -2.6450    -8.9460     0.0700 N.am  1 <1>  -0.6600 
 14 C       -3.9580    -8.2720    -0.0410 C.3   1 <1>   0.1400 
 15 C       -2.8180   -10.3910     0.3300 C.3   1 <1>   0.1400 
 16 C       -4.9710    -9.2690     0.5370 C.3   1 <1>  -0.0800 
 17 C       -4.3280   -10.6460     0.2880 C.3   1 <1>  -0.0800 
 18 C       -6.4400    -9.1210     0.0330 C.3   1 <1>   0.2800 
 19 C       -4.7910   -11.2290    -1.0560 C.3   1 <1>  -0.1600 
 20 O       -6.4630    -8.5260    -1.2150 O.3   1 <1>  -0.6800 
 21 C       -7.0880   -10.5080    -0.1320 C.3   1 <1>  -0.1600 
 22 C       -7.3040    -8.2420     0.9650 C.3   1 <1>  -0.1600 
 23 C       -6.3160   -11.4420    -1.0900 C.3   1 <1>  -0.1600 
 24 C       -6.8200    -6.7930     1.1500 C.3   1 <1>  -0.2400 
 25 H       -1.2790    -2.0260     0.7780 H     1 <1>   0.0800 
 26 H       -0.0690    -4.0270     1.1650 H     1 <1>   0.1500 
 27 H       -2.0140    -4.6610    -2.5890 H     1 <1>   0.1500 
 28 H       -0.2910    -6.3940     1.6700 H     1 <1>   0.1500 
 29 H       -2.2090    -7.0530    -2.0610 H     1 <1>   0.1500 
 30 H       -3.9660    -7.3430     0.5000 H     1 <1>   0.0800 
 31 H       -4.1420    -8.0810    -1.0830 H     1 <1>   0.0800 
 32 H       -2.2880   -10.9690    -0.4080 H     1 <1>   0.0800 
 33 H       -2.4250   -10.6180     1.3060 H     1 <1>   0.0800 
 34 H       -4.9710    -9.1330     1.6040 H     1 <1>   0.0800 
 35 H       -4.5920   -11.3370     1.0700 H     1 <1>   0.0800 
 36 H       -4.5180   -10.5420    -1.8410 H     1 <1>   0.0800 
 37 H       -4.2910   -12.1610    -1.2530 H     1 <1>   0.0800 
 38 H       -7.3800    -8.4970    -1.5400 H     1 <1>   0.4000 
 39 H       -7.1180   -10.9740     0.8380 H     1 <1>   0.0800 
 40 H       -8.1070   -10.4140    -0.4620 H     1 <1>   0.0800 
 41 H       -8.3110    -8.2200     0.5880 H     1 <1>   0.0800 
 42 H       -7.3470    -8.7080     1.9340 H     1 <1>   0.0800 
 43 H       -6.5420   -12.4620    -0.8320 H     1 <1>   0.0800 
 44 H       -6.6580   -11.2810    -2.0980 H     1 <1>   0.0800 
 45 H       -6.7160    -6.3000     0.1990 H     1 <1>   0.0800 
 46 H       -5.8740    -6.7660     1.6600 H     1 <1>   0.0800 
 47 H       -7.5320    -6.2440     1.7400 H     1 <1>   0.0800 
@<TRIPOS>BOND
  1   1   2  1   
  2   2   3  1   
  3   2   4  1   
  4   2  25  1   
  5   4   5  1   
  6   5   6  ar  
  7   5   7  ar  
  8   6   8  ar  
  9   6  26  1   
 10   7   9  ar  
 11   7  27  1   
 12   8  10  ar  
 13   8  28  1   
 14   9  10  ar  
 15   9  29  1   
 16  10  11  1   
 17  11  12  2   
 18  11  13  am  
 19  13  14  1   
 20  13  15  1   
 21  14  16  1   
 22  14  30  1   
 23  14  31  1   
 24  15  17  1   
 25  15  32  1   
 26  15  33  1   
 27  16  17  1   
 28  16  18  1   
 29  16  34  1   
 30  17  19  1   
 31  17  35  1   
 32  18  20  1   
 33  18  21  1   
 34  18  22  1   
 35  19  23  1   
 36  19  36  1   
 37  19  37  1   
 38  20  38  1   
 39  21  23  1   
 40  21  39  1   
 41  21  40  1   
 42  22  24  1   
 43  22  41  1   
 44  22  42  1   
 45  23  43  1   
 46  23  44  1   
 47  24  45  1   
 48  24  46  1   
 49  24  47  1   
@<TRIPOS>SUBSTRUCTURE
  1 ****  14 GROUP 4 **** **** 0

# MOE 2024.06 (io_trps.svl 2023.06)
