@<TRIPOS>MOLECULE
NONAME
41 42 1 0 0 
SMALL
USER_CHARGES


@<TRIPOS>ATOM
  1 S        3.4140     0.5920    -0.3340 S.o2  1 <1>   1.0900 
  2 O        4.5800     0.8570    -1.1440 O.2   1 <1>  -0.6500 
  3 O        3.5710     0.0310     0.9860 O.2   1 <1>  -0.6500 
  4 C        2.4850     2.1150    -0.1710 C.3   1 <1>  -0.0550 
  5 C        2.3310    -0.4810    -1.2580 C.3   1 <1>  -0.1350 
  6 C        2.3420     2.8950    -1.4880 C.3   1 <1>  -0.0990 
  7 C        1.7030     4.2410    -1.2380 C.2   1 <1>   0.5690 
  8 O        0.5200     4.3580    -1.4370 O.2   1 <1>  -0.5700 
  9 N        2.5130     5.2370    -0.7790 N.am  1 <1>  -0.4940 
 10 C        2.2200     6.5780    -0.4240 C.2   1 <1>  -0.0880 
 11 N        3.1350     7.5140    -0.0210 N.pl3 1 <1>   0.3140 
 12 C        1.0130     7.1890    -0.4080 C.2   1 <1>  -0.1500 
 13 N        2.5210     8.7010     0.2360 N.2   1 <1>  -0.7070 
 14 C        4.6350     7.3820     0.0300 C.3   1 <1>   0.3190 
 15 C        1.2620     8.4880     0.0060 C.2   1 <1>   0.1390 
 16 C        5.0680     5.9410     0.3210 C.ar  1 <1>  -0.1430 
 17 C        5.2790     8.3430     1.0450 C.3   1 <1>  -0.2400 
 18 C        5.7240     5.2040    -0.6560 C.ar  1 <1>  -0.1500 
 19 C        4.7710     5.3370     1.5360 C.ar  1 <1>  -0.1500 
 20 C        6.0630     3.8820    -0.4260 C.ar  1 <1>  -0.1500 
 21 C        5.1190     4.0180     1.7690 C.ar  1 <1>  -0.1500 
 22 C        5.7620     3.2890     0.7860 C.ar  1 <1>  -0.1500 
 23 H        2.9890     2.7420     0.5390 H     1 <1>   0.0800 
 24 H        1.5090     1.9100     0.2290 H     1 <1>   0.0800 
 25 H        2.7940    -1.4410    -1.3870 H     1 <1>   0.0800 
 26 H        2.1280    -0.0750    -2.2300 H     1 <1>   0.0800 
 27 H        1.4040    -0.6220    -0.7380 H     1 <1>   0.0800 
 28 H        1.7350     2.3450    -2.1830 H     1 <1>   0.0800 
 29 H        3.3080     3.0470    -1.9350 H     1 <1>   0.0800 
 30 H        3.4810     4.9500    -0.5940 H     1 <1>   0.3700 
 31 H        0.0530     6.7750    -0.6610 H     1 <1>   0.1500 
 32 H        4.9920     7.6560    -0.9450 H     1 <1>   0.0800 
 33 H        0.5030     9.2430     0.1230 H     1 <1>   0.1500 
 34 H        4.8730     8.1870     2.0280 H     1 <1>   0.0800 
 35 H        5.1020     9.3630     0.7520 H     1 <1>   0.0800 
 36 H        6.3410     8.1810     1.0790 H     1 <1>   0.0800 
 37 H        5.9730     5.6470    -1.6060 H     1 <1>   0.1500 
 38 H        4.2590     5.8870     2.3080 H     1 <1>   0.1500 
 39 H        6.5640     3.3050    -1.1870 H     1 <1>   0.1500 
 40 H        4.8900     3.5560     2.7140 H     1 <1>   0.1500 
 41 H        6.0290     2.2590     0.9600 H     1 <1>   0.1500 
@<TRIPOS>BOND
  1   1   2  2   
  2   1   3  2   
  3   1   4  1   
  4   1   5  1   
  5   4   6  1   
  6   4  23  1   
  7   4  24  1   
  8   5  25  1   
  9   5  26  1   
 10   5  27  1   
 11   6   7  1   
 12   6  28  1   
 13   6  29  1   
 14   7   8  2   
 15   7   9  am  
 16   9  10  1   
 17   9  30  1   
 18  10  11  1   
 19  10  12  2   
 20  11  13  1   
 21  11  14  1   
 22  12  15  1   
 23  12  31  1   
 24  13  15  2   
 25  14  16  1   
 26  14  17  1   
 27  14  32  1   
 28  15  33  1   
 29  16  18  ar  
 30  16  19  ar  
 31  17  34  1   
 32  17  35  1   
 33  17  36  1   
 34  18  20  ar  
 35  18  37  1   
 36  19  21  ar  
 37  19  38  1   
 38  20  22  ar  
 39  20  39  1   
 40  21  22  ar  
 41  21  40  1   
 42  22  41  1   
@<TRIPOS>SUBSTRUCTURE
  1 ****   9 GROUP 4 **** **** 0

# MOE 2024.06 (io_trps.svl 2023.06)
