@<TRIPOS>MOLECULE
NONAME
50 53 1 0 0 
SMALL
USER_CHARGES


@<TRIPOS>ATOM
  1 S        2.0990     1.0990     1.8720 S.3   1 <1>  -0.0800 
  2 C        1.1010     2.0130     0.7850 C.2   1 <1>  -0.1400 
  3 C        1.3130    -0.3590     1.2970 C.2   1 <1>   0.1980 
  4 C        0.3070     1.1790     0.1070 C.2   1 <1>   0.0460 
  5 C        1.1820     3.5190     0.6780 C.3   1 <1>   0.0200 
  6 N        0.4210    -0.1690     0.4020 N.2   1 <1>  -0.5650 
  7 C        1.7710    -1.6730     1.9150 C.3   1 <1>   0.5230 
  8 C       -0.6760     1.6690    -0.9380 C.3   1 <1>   0.0210 
  9 C       -0.0420     4.0230    -0.1120 C.3   1 <1>  -0.1600 
 10 N        0.8820    -2.8070     1.5050 N.4   1 <1>  -0.9590 
 11 C       -0.3670     3.1310    -1.3320 C.3   1 <1>  -0.1600 
 12 C       -0.5100    -2.6880     2.0150 C.3   1 <1>   0.3430 
 13 C        1.4870    -4.1570     1.7010 C.3   1 <1>   0.3430 
 14 C       -1.4350    -3.6280     1.2320 C.3   1 <1>  -0.1600 
 15 C        0.4540    -5.2730     1.4980 C.3   1 <1>  -0.1600 
 16 C       -0.7110    -4.8310     0.6030 C.3   1 <1>   0.4240 
 17 O       -0.1400    -4.3840    -0.5770 O.3   1 <1>  -0.6800 
 18 C       -1.6940    -5.9680     0.2410 C.ar  1 <1>   0.1670 
 19 N       -1.9940    -6.1180    -1.0490 N.ar  1 <1>  -0.6200 
 20 C       -2.2290    -6.7730     1.2400 C.ar  1 <1>  -0.1500 
 21 C       -2.8390    -7.0950    -1.3430 C.ar  1 <1>   0.1600 
 22 C       -3.1060    -7.7850     0.9150 C.ar  1 <1>  -0.1500 
 23 C       -3.4170    -7.9490    -0.4170 C.ar  1 <1>  -0.1440 
 24 C       -4.3780    -9.0450    -0.8460 C.3   1 <1>  -0.0970 
 25 H        2.0890     3.7850     0.1650 H     1 <1>   0.0800 
 26 H        1.1960     3.9650     1.6570 H     1 <1>   0.0800 
 27 H        1.7750    -1.5780     2.9880 H     1 <1>   0.0800 
 28 H        2.7780    -1.8640     1.5860 H     1 <1>   0.0800 
 29 H       -1.6700     1.6000    -0.5320 H     1 <1>   0.0800 
 30 H       -0.6220     1.0410    -1.8090 H     1 <1>   0.0800 
 31 H        0.1340     5.0350    -0.4350 H     1 <1>   0.0800 
 32 H       -0.8970     4.0330     0.5420 H     1 <1>   0.0800 
 33 H        0.7600    -2.7050     0.4760 H     1 <1>   0.4500 
 34 H       -1.2050     3.5390    -1.8700 H     1 <1>   0.0800 
 35 H        0.4810     3.1370    -1.9960 H     1 <1>   0.0800 
 36 H       -0.8670    -1.6750     1.9090 H     1 <1>   0.0800 
 37 H       -0.5310    -2.9460     3.0620 H     1 <1>   0.0800 
 38 H        1.9110    -4.2410     2.6890 H     1 <1>   0.0800 
 39 H        2.2800    -4.2870     0.9820 H     1 <1>   0.0800 
 40 H       -1.9480    -3.0770     0.4630 H     1 <1>   0.0800 
 41 H       -2.1900    -3.9780     1.9110 H     1 <1>   0.0800 
 42 H        0.0780    -5.5690     2.4590 H     1 <1>   0.0800 
 43 H        0.9330    -6.1360     1.0690 H     1 <1>   0.0800 
 44 H       -0.6600    -4.8460    -1.2840 H     1 <1>   0.4000 
 45 H       -1.9750    -6.6230     2.2720 H     1 <1>   0.1500 
 46 H       -3.0850    -7.2210    -2.3840 H     1 <1>   0.1500 
 47 H       -3.5320    -8.4220     1.6720 H     1 <1>   0.1500 
 48 H       -4.3380    -9.1980    -1.9100 H     1 <1>   0.0800 
 49 H       -5.3830    -8.7770    -0.5740 H     1 <1>   0.0800 
 50 H       -4.1230    -9.9710    -0.3620 H     1 <1>   0.0800 
@<TRIPOS>BOND
  1   1   2  1   
  2   1   3  1   
  3   2   4  2   
  4   2   5  1   
  5   3   6  2   
  6   3   7  1   
  7   4   6  1   
  8   4   8  1   
  9   5   9  1   
 10   5  25  1   
 11   5  26  1   
 12   7  10  1   
 13   7  27  1   
 14   7  28  1   
 15   8  11  1   
 16   8  29  1   
 17   8  30  1   
 18   9  11  1   
 19   9  31  1   
 20   9  32  1   
 21  10  12  1   
 22  10  13  1   
 23  10  33  1   
 24  11  34  1   
 25  11  35  1   
 26  12  14  1   
 27  12  36  1   
 28  12  37  1   
 29  13  15  1   
 30  13  38  1   
 31  13  39  1   
 32  14  16  1   
 33  14  40  1   
 34  14  41  1   
 35  15  16  1   
 36  15  42  1   
 37  15  43  1   
 38  16  17  1   
 39  16  18  1   
 40  17  44  1   
 41  18  19  ar  
 42  18  20  ar  
 43  19  21  ar  
 44  20  22  ar  
 45  20  45  1   
 46  21  23  ar  
 47  21  46  1   
 48  22  23  ar  
 49  22  47  1   
 50  23  24  1   
 51  24  48  1   
 52  24  49  1   
 53  24  50  1   
@<TRIPOS>SUBSTRUCTURE
  1 ****  14 GROUP 4 **** **** 0

# MOE 2024.06 (io_trps.svl 2023.06)
