@<TRIPOS>MOLECULE
NONAME
38 40 1 0 0 
SMALL
USER_CHARGES


@<TRIPOS>ATOM
  1 O       -2.2720     1.0410    -2.0320 O.2   1 <1>  -0.5700 
  2 C       -1.9030     0.9610    -0.8740 C.2   1 <1>   0.7160 
  3 N       -1.9120    -0.2650    -0.2730 N.am  1 <1>  -0.7300 
  4 C       -1.4730     2.1330    -0.1330 C.2   1 <1>   0.2030 
  5 C       -2.3520    -1.5360    -0.8890 C.3   1 <1>   0.2200 
  6 N       -1.0970     2.1580     1.1120 N.2   1 <1>  -0.4100 
  7 C       -1.3950     3.4230    -0.6360 C.2   1 <1>  -0.1500 
  8 C       -3.7170    -1.9100    -0.3380 C.3   1 <1>  -0.0800 
  9 C       -1.4790    -2.6860    -0.3900 C.3   1 <1>   0.1200 
 10 O       -0.7750     3.3790     1.4650 O.3   1 <1>  -0.0190 
 11 C       -0.9590     4.1360     0.4040 C.2   1 <1>  -0.0400 
 12 C       -3.3430    -2.6110     0.9700 C.3   1 <1>   0.1200 
 13 C       -4.4800    -2.8390    -1.3010 C.3   1 <1>  -0.0160 
 14 O       -2.0750    -3.1660     0.7800 O.3   1 <1>  -0.5600 
 15 C       -0.6650     5.6180     0.5110 C.3   1 <1>  -0.0600 
 16 C       -5.8560    -3.1920    -0.7580 C.ar  1 <1>  -0.1440 
 17 C       -6.1360    -4.4290    -0.2140 C.ar  1 <1>  -0.1500 
 18 C       -6.8980    -2.2870    -0.7830 C.ar  1 <1>  -0.1500 
 19 C       -7.4060    -4.6920     0.2710 C.ar  1 <1>   0.1600 
 20 C       -8.1330    -2.6510    -0.2720 C.ar  1 <1>   0.1600 
 21 N       -8.4110    -3.8320     0.2570 N.ar  1 <1>  -0.6200 
 22 H       -1.6170    -0.3160     0.7070 H     1 <1>   0.3700 
 23 H       -2.3350    -1.4550    -1.9630 H     1 <1>   0.0800 
 24 H       -1.6420     3.7210    -1.6390 H     1 <1>   0.1500 
 25 H       -4.3160    -1.0360    -0.1520 H     1 <1>   0.0800 
 26 H       -0.4690    -2.3800    -0.1820 H     1 <1>   0.0800 
 27 H       -1.4740    -3.4920    -1.1020 H     1 <1>   0.0800 
 28 H       -4.0310    -3.3880     1.2510 H     1 <1>   0.0800 
 29 H       -3.2670    -1.8970     1.7720 H     1 <1>   0.0800 
 30 H       -3.9180    -3.7410    -1.4730 H     1 <1>   0.0800 
 31 H       -4.6020    -2.3470    -2.2510 H     1 <1>   0.0800 
 32 H       -0.8590     6.1060    -0.4270 H     1 <1>   0.0800 
 33 H        0.3660     5.7670     0.7750 H     1 <1>   0.0800 
 34 H       -1.2870     6.0590     1.2690 H     1 <1>   0.0800 
 35 H       -5.3790    -5.1900    -0.1590 H     1 <1>   0.1500 
 36 H       -6.7630    -1.3040    -1.1940 H     1 <1>   0.1500 
 37 H       -7.6060    -5.6620     0.6930 H     1 <1>   0.1500 
 38 H       -8.9340    -1.9330    -0.2990 H     1 <1>   0.1500 
@<TRIPOS>BOND
  1   1   2  2   
  2   2   3  am  
  3   2   4  1   
  4   3   5  1   
  5   3  22  1   
  6   4   6  2   
  7   4   7  1   
  8   5   8  1   
  9   5   9  1   
 10   5  23  1   
 11   6  10  1   
 12   7  11  2   
 13   7  24  1   
 14   8  12  1   
 15   8  13  1   
 16   8  25  1   
 17   9  14  1   
 18   9  26  1   
 19   9  27  1   
 20  10  11  1   
 21  11  15  1   
 22  12  14  1   
 23  12  28  1   
 24  12  29  1   
 25  13  16  1   
 26  13  30  1   
 27  13  31  1   
 28  15  32  1   
 29  15  33  1   
 30  15  34  1   
 31  16  17  ar  
 32  16  18  ar  
 33  17  19  ar  
 34  17  35  1   
 35  18  20  ar  
 36  18  36  1   
 37  19  21  ar  
 38  19  37  1   
 39  20  21  ar  
 40  20  38  1   
@<TRIPOS>SUBSTRUCTURE
  1 ****   8 GROUP 4 **** **** 0

# MOE 2024.06 (io_trps.svl 2023.06)
