@<TRIPOS>MOLECULE
NONAME
46 48 1 0 0 
SMALL
USER_CHARGES


@<TRIPOS>ATOM
  1 O       -0.2590     1.8660     2.2700 O.2   1 <1>  -0.5700 
  2 C       -0.1170     2.7180     1.4110 C.2   1 <1>   0.6160 
  3 N       -1.2230     3.4260     0.9820 N.am  1 <1>  -0.6600 
  4 C        1.2070     2.9980     0.9400 C.2   1 <1>   0.0290 
  5 C       -2.6110     3.0240     1.3600 C.3   1 <1>   0.1400 
  6 C       -1.1800     4.5660     0.0250 C.3   1 <1>   0.1400 
  7 C        1.5550     2.6290    -0.3970 C.2   1 <1>   0.6160 
  8 C        2.1610     3.5910     1.7300 C.2   1 <1>  -0.1500 
  9 C       -3.3930     2.5690     0.1150 C.3   1 <1>   0.0000 
 10 C       -1.9510     4.2080    -1.2510 C.3   1 <1>  -0.1600 
 11 O        0.8010     2.0910    -1.1930 O.2   1 <1>  -0.5700 
 12 N        2.8220     2.9050    -0.8380 N.am  1 <1>  -0.5390 
 13 C        3.4530     3.8500     1.2260 C.2   1 <1>  -0.1500 
 14 C       -4.8180     2.1380     0.5050 C.3   1 <1>   0.2000 
 15 C       -3.3750     3.7050    -0.9460 C.3   1 <1>  -0.1600 
 16 C       -2.8350     1.2590    -0.4720 C.3   1 <1>  -0.1600 
 17 C        3.7690     3.5040    -0.0530 C.2   1 <1>  -0.0290 
 18 O       -5.6740     3.2320     0.6550 O.3   1 <1>  -0.5600 
 19 C       -5.2840     1.2040    -0.6140 C.3   1 <1>  -0.1600 
 20 C       -4.0060     0.6010    -1.2130 C.3   1 <1>  -0.1600 
 21 C        5.1310     3.7430    -0.6720 C.3   1 <1>  -0.1020 
 22 C       -6.8850     2.9510     1.2810 C.3   1 <1>   0.0400 
 23 H       -2.5940     2.2330     2.0890 H     1 <1>   0.0800 
 24 H       -3.1100     3.8670     1.8050 H     1 <1>   0.0800 
 25 H       -1.6370     5.4220     0.4910 H     1 <1>   0.0800 
 26 H       -0.1670     4.8270    -0.2240 H     1 <1>   0.0800 
 27 H        1.9350     3.8630     2.7480 H     1 <1>   0.1500 
 28 H       -2.0090     5.0770    -1.8810 H     1 <1>   0.0800 
 29 H       -1.4020     3.4610    -1.7940 H     1 <1>   0.0800 
 30 H        3.0090     2.6100    -1.7970 H     1 <1>   0.3700 
 31 H        4.1730     4.3190     1.8750 H     1 <1>   0.1500 
 32 H       -4.7790     1.5960     1.4360 H     1 <1>   0.0800 
 33 H       -3.8430     3.3790    -1.8570 H     1 <1>   0.0800 
 34 H       -3.9440     4.5390    -0.5760 H     1 <1>   0.0800 
 35 H       -1.9850     1.4050    -1.1130 H     1 <1>   0.0800 
 36 H       -2.5280     0.6120     0.3330 H     1 <1>   0.0800 
 37 H       -5.9280     0.4340    -0.2280 H     1 <1>   0.0800 
 38 H       -5.8030     1.7680    -1.3700 H     1 <1>   0.0800 
 39 H       -3.9770    -0.4680    -1.0940 H     1 <1>   0.0800 
 40 H       -3.9510     0.8350    -2.2630 H     1 <1>   0.0800 
 41 H        5.0380     4.3790    -1.5330 H     1 <1>   0.0800 
 42 H        5.5670     2.8070    -0.9730 H     1 <1>   0.0800 
 43 H        5.7900     4.2150     0.0340 H     1 <1>   0.0800 
 44 H       -7.4390     3.8700     1.3620 H     1 <1>   0.0800 
 45 H       -6.6950     2.5550     2.2630 H     1 <1>   0.0800 
 46 H       -7.4410     2.2460     0.6880 H     1 <1>   0.0800 
@<TRIPOS>BOND
  1   1   2  2   
  2   2   3  am  
  3   2   4  1   
  4   3   5  1   
  5   3   6  1   
  6   4   7  1   
  7   4   8  2   
  8   5   9  1   
  9   5  23  1   
 10   5  24  1   
 11   6  10  1   
 12   6  25  1   
 13   6  26  1   
 14   7  11  2   
 15   7  12  am  
 16   8  13  1   
 17   8  27  1   
 18   9  14  1   
 19   9  15  1   
 20   9  16  1   
 21  10  15  1   
 22  10  28  1   
 23  10  29  1   
 24  12  17  1   
 25  12  30  1   
 26  13  17  2   
 27  13  31  1   
 28  14  18  1   
 29  14  19  1   
 30  14  32  1   
 31  15  33  1   
 32  15  34  1   
 33  16  20  1   
 34  16  35  1   
 35  16  36  1   
 36  17  21  1   
 37  18  22  1   
 38  19  20  1   
 39  19  37  1   
 40  19  38  1   
 41  20  39  1   
 42  20  40  1   
 43  21  41  1   
 44  21  42  1   
 45  21  43  1   
 46  22  44  1   
 47  22  45  1   
 48  22  46  1   
@<TRIPOS>SUBSTRUCTURE
  1 ****   3 GROUP 4 **** **** 0

# MOE 2024.06 (io_trps.svl 2023.06)
