@<TRIPOS>MOLECULE
NONAME
54 56 1 0 0 
SMALL
USER_CHARGES


@<TRIPOS>ATOM
  1 O        4.1870    -1.9040    -2.6210 O.2   1 <1>  -0.5700 
  2 C        3.2980    -1.8750    -1.8010 C.2   1 <1>   0.5690 
  3 N        3.4920    -1.1920    -0.6200 N.am  1 <1>  -0.6600 
  4 C        1.9860    -2.5830    -2.1710 C.3   1 <1>   0.1810 
  5 C        4.8840    -0.8850    -0.1840 C.3   1 <1>   0.1400 
  6 C        2.3970    -0.7310     0.2740 C.3   1 <1>   0.1400 
  7 O        1.3000    -3.0850    -1.0540 O.3   1 <1>  -0.5600 
  8 C        5.3700     0.4130    -0.8420 C.3   1 <1>   0.3430 
  9 C        2.5980     0.7290     0.7020 C.3   1 <1>  -0.1600 
 10 C        0.1670    -3.8380    -1.3510 C.3   1 <1>   0.2640 
 11 N        4.6570     1.6490    -0.3600 N.4   1 <1>  -0.9590 
 12 C        3.1670     1.6190    -0.4090 C.3   1 <1>   0.3430 
 13 C       -0.6080    -4.0610    -0.0620 C.ar  1 <1>  -0.1440 
 14 C        5.2190     2.8570    -1.0340 C.3   1 <1>   0.4860 
 15 C       -1.9210    -3.6280     0.0570 C.ar  1 <1>  -0.1500 
 16 C       -0.0070    -4.7040     1.0100 C.ar  1 <1>  -0.1500 
 17 C        6.5890     3.1630    -0.4350 C.ar  1 <1>   0.1670 
 18 C       -2.6230    -3.8380     1.2310 C.ar  1 <1>  -0.1500 
 19 C       -0.7080    -4.9150     2.1850 C.ar  1 <1>  -0.1500 
 20 N        6.7130     2.9570     0.8730 N.ar  1 <1>  -0.6200 
 21 C        7.6140     3.6140    -1.2530 C.ar  1 <1>  -0.1500 
 22 C       -2.0170    -4.4820     2.2960 C.ar  1 <1>  -0.1500 
 23 C        7.9030     3.2210     1.3910 C.ar  1 <1>   0.1670 
 24 C        8.8490     3.8780    -0.7030 C.ar  1 <1>  -0.1500 
 25 C        8.9850     3.6740     0.6530 C.ar  1 <1>  -0.1500 
 26 C        8.0450     3.0010     2.8830 C.3   1 <1>  -0.0970 
 27 H        2.2140    -3.4070    -2.8250 H     1 <1>   0.0800 
 28 H        1.3430    -1.8920    -2.6840 H     1 <1>   0.0800 
 29 H        5.5290    -1.6900    -0.4930 H     1 <1>   0.0800 
 30 H        4.9440    -0.8190     0.8880 H     1 <1>   0.0800 
 31 H        2.3410    -1.3740     1.1370 H     1 <1>   0.0800 
 32 H        1.4560    -0.8010    -0.2440 H     1 <1>   0.0800 
 33 H        5.2480     0.3090    -1.9080 H     1 <1>   0.0800 
 34 H        6.4240     0.5160    -0.6420 H     1 <1>   0.0800 
 35 H        3.2110     0.7810     1.5840 H     1 <1>   0.0800 
 36 H        1.6310     1.1100     0.9800 H     1 <1>   0.0800 
 37 H        0.4780    -4.7800    -1.7690 H     1 <1>   0.0800 
 38 H       -0.4350    -3.3030    -2.0650 H     1 <1>   0.0800 
 39 H        4.9630     1.7970     0.6200 H     1 <1>   0.4500 
 40 H        2.7920     2.6190    -0.2600 H     1 <1>   0.0800 
 41 H        2.8290     1.2710    -1.3720 H     1 <1>   0.0800 
 42 H        4.5800     3.7050    -0.8520 H     1 <1>   0.0800 
 43 H        5.2950     2.7000    -2.0960 H     1 <1>   0.0800 
 44 H       -2.4050    -3.1260    -0.7620 H     1 <1>   0.1500 
 45 H        1.0130    -5.0380     0.9290 H     1 <1>   0.1500 
 46 H       -3.6410    -3.5010     1.3180 H     1 <1>   0.1500 
 47 H       -0.2340    -5.4150     3.0110 H     1 <1>   0.1500 
 48 H        7.4640     3.7630    -2.3080 H     1 <1>   0.1500 
 49 H       -2.5630    -4.6460     3.2090 H     1 <1>   0.1500 
 50 H        9.6730     4.2300    -1.3010 H     1 <1>   0.1500 
 51 H        9.9280     3.8690     1.1310 H     1 <1>   0.1500 
 52 H        7.3410     3.6210     3.4080 H     1 <1>   0.0800 
 53 H        9.0360     3.2460     3.2190 H     1 <1>   0.0800 
 54 H        7.8450     1.9720     3.1200 H     1 <1>   0.0800 
@<TRIPOS>BOND
  1   1   2  2   
  2   2   3  am  
  3   2   4  1   
  4   3   5  1   
  5   3   6  1   
  6   4   7  1   
  7   4  27  1   
  8   4  28  1   
  9   5   8  1   
 10   5  29  1   
 11   5  30  1   
 12   6   9  1   
 13   6  31  1   
 14   6  32  1   
 15   7  10  1   
 16   8  11  1   
 17   8  33  1   
 18   8  34  1   
 19   9  12  1   
 20   9  35  1   
 21   9  36  1   
 22  10  13  1   
 23  10  37  1   
 24  10  38  1   
 25  11  12  1   
 26  11  14  1   
 27  11  39  1   
 28  12  40  1   
 29  12  41  1   
 30  13  15  ar  
 31  13  16  ar  
 32  14  17  1   
 33  14  42  1   
 34  14  43  1   
 35  15  18  ar  
 36  15  44  1   
 37  16  19  ar  
 38  16  45  1   
 39  17  20  ar  
 40  17  21  ar  
 41  18  22  ar  
 42  18  46  1   
 43  19  22  ar  
 44  19  47  1   
 45  20  23  ar  
 46  21  24  ar  
 47  21  48  1   
 48  22  49  1   
 49  23  25  ar  
 50  23  26  1   
 51  24  25  ar  
 52  24  50  1   
 53  25  51  1   
 54  26  52  1   
 55  26  53  1   
 56  26  54  1   
@<TRIPOS>SUBSTRUCTURE
  1 ****   3 GROUP 4 **** **** 0

# MOE 2024.06 (io_trps.svl 2023.06)
