@<TRIPOS>MOLECULE
NONAME
48 50 1 0 0 
SMALL
USER_CHARGES


@<TRIPOS>ATOM
  1 O       -0.3810    -1.3660    -1.7000 O.2   1 <1>  -0.5700 
  2 C       -0.4450    -1.9070    -0.6130 C.2   1 <1>   0.5440 
  3 N        0.5770    -1.7060     0.2750 N.am  1 <1>  -0.7300 
  4 C       -1.5860    -2.7260    -0.2700 C.ar  1 <1>   0.0860 
  5 C        1.7910    -0.9120     0.0050 C.3   1 <1>   0.1400 
  6 C       -2.7810    -2.6040    -0.9810 C.ar  1 <1>   0.1600 
  7 C       -1.5690    -3.6650     0.7600 C.ar  1 <1>  -0.1500 
  8 C        2.9730    -1.5800     0.6960 C.3   1 <1>  -0.2400 
  9 N       -3.8950    -3.2840    -0.7620 N.ar  1 <1>  -0.6200 
 10 C       -2.7160    -4.3820     1.0020 C.ar  1 <1>  -0.1500 
 11 C       -3.8480    -4.1630     0.2270 C.ar  1 <1>   0.4100 
 12 N       -4.9980    -4.8730     0.4550 N.pl3 1 <1>  -0.8380 
 13 C       -5.3500    -5.8350    -0.6310 C.3   1 <1>   0.2090 
 14 C       -6.1400    -4.0540     0.9610 C.3   1 <1>   0.2090 
 15 C       -6.6050    -6.6630    -0.2860 C.3   1 <1>   0.3430 
 16 C       -7.3770    -4.9200     1.2740 C.3   1 <1>   0.3430 
 17 N       -7.7780    -5.7960     0.1110 N.4   1 <1>  -0.9590 
 18 C       -8.9940    -6.5990     0.4750 C.3   1 <1>   0.3430 
 19 C       -9.6300    -7.3260    -0.7180 C.3   1 <1>   0.0960 
 20 N      -10.7790    -8.1060    -0.2370 N.pl3 1 <1>   0.3140 
 21 N      -10.8560    -8.5540     1.0080 N.2   1 <1>  -0.7070 
 22 C      -11.8750    -8.4890    -0.8980 C.2   1 <1>   0.0360 
 23 C      -11.9920    -9.1760     1.0110 C.2   1 <1>   0.3660 
 24 N      -12.6640    -9.1630    -0.1460 N.2   1 <1>  -0.5650 
 25 H        0.4860    -2.0420     1.2330 H     1 <1>   0.3700 
 26 H        1.6530     0.0880     0.3810 H     1 <1>   0.0800 
 27 H        1.9670    -0.8570    -1.0570 H     1 <1>   0.0800 
 28 H       -2.8050    -1.8880    -1.7870 H     1 <1>   0.1500 
 29 H       -0.6830    -3.8330     1.3450 H     1 <1>   0.1500 
 30 H        2.8210    -1.6140     1.7600 H     1 <1>   0.0800 
 31 H        3.8680    -1.0190     0.4980 H     1 <1>   0.0800 
 32 H        3.1070    -2.5780     0.3170 H     1 <1>   0.0800 
 33 H       -2.7570    -5.1180     1.7830 H     1 <1>   0.1500 
 34 H       -4.5190    -6.5010    -0.7930 H     1 <1>   0.0800 
 35 H       -5.5150    -5.2950    -1.5480 H     1 <1>   0.0800 
 36 H       -6.3990    -3.3070     0.2290 H     1 <1>   0.0800 
 37 H       -5.8330    -3.5380     1.8550 H     1 <1>   0.0800 
 38 H       -6.3550    -7.3260     0.5270 H     1 <1>   0.0800 
 39 H       -6.8620    -7.2690    -1.1380 H     1 <1>   0.0800 
 40 H       -8.1940    -4.2730     1.5470 H     1 <1>   0.0800 
 41 H       -7.1460    -5.5360     2.1280 H     1 <1>   0.0800 
 42 H       -7.9850    -5.1630    -0.6740 H     1 <1>   0.4500 
 43 H       -9.7370    -5.9470     0.9060 H     1 <1>   0.0800 
 44 H       -8.7260    -7.3290     1.2240 H     1 <1>   0.0800 
 45 H       -8.9350    -8.0110    -1.1650 H     1 <1>   0.0800 
 46 H       -9.9770    -6.6210    -1.4500 H     1 <1>   0.0800 
 47 H      -12.0610    -8.2560    -1.9320 H     1 <1>   0.1500 
 48 H      -12.3950    -9.6820     1.8750 H     1 <1>   0.1500 
@<TRIPOS>BOND
  1   1   2  2   
  2   2   3  am  
  3   2   4  1   
  4   3   5  1   
  5   3  25  1   
  6   4   6  ar  
  7   4   7  ar  
  8   5   8  1   
  9   5  26  1   
 10   5  27  1   
 11   6   9  ar  
 12   6  28  1   
 13   7  10  ar  
 14   7  29  1   
 15   8  30  1   
 16   8  31  1   
 17   8  32  1   
 18   9  11  ar  
 19  10  11  ar  
 20  10  33  1   
 21  11  12  1   
 22  12  13  1   
 23  12  14  1   
 24  13  15  1   
 25  13  34  1   
 26  13  35  1   
 27  14  16  1   
 28  14  36  1   
 29  14  37  1   
 30  15  17  1   
 31  15  38  1   
 32  15  39  1   
 33  16  17  1   
 34  16  40  1   
 35  16  41  1   
 36  17  18  1   
 37  17  42  1   
 38  18  19  1   
 39  18  43  1   
 40  18  44  1   
 41  19  20  1   
 42  19  45  1   
 43  19  46  1   
 44  20  21  1   
 45  20  22  1   
 46  21  23  2   
 47  22  24  2   
 48  22  47  1   
 49  23  24  1   
 50  23  48  1   
@<TRIPOS>SUBSTRUCTURE
  1 ****  12 GROUP 4 **** **** 0

# MOE 2024.06 (io_trps.svl 2023.06)
