@<TRIPOS>MOLECULE
NONAME
45 46 1 0 0 
SMALL
USER_CHARGES


@<TRIPOS>ATOM
  1 S        0.4360    -0.0040    -1.2190 S.o2  1 <1>   1.3330 
  2 O        1.7430    -0.6170    -1.3160 O.2   1 <1>  -0.6500 
  3 O       -0.3540     0.1790    -2.4150 O.2   1 <1>  -0.6500 
  4 N       -0.5010    -0.9410    -0.1540 N.am  1 <1>  -0.8490 
  5 C        0.5830     1.5750    -0.3670 C.3   1 <1>  -0.0550 
  6 C       -1.9440    -0.7060    -0.2840 C.3   1 <1>   0.1160 
  7 C       -0.2210    -2.3750    -0.2830 C.3   1 <1>   0.1160 
  8 C        1.6370     1.6890     0.7580 C.3   1 <1>  -0.0800 
  9 C        3.0790     1.6130     0.2490 C.3   1 <1>   0.2200 
 10 C        1.5850     0.6410     1.8760 C.3   1 <1>   0.1200 
 11 N        3.7680     2.8880     0.5490 N.am  1 <1>  -0.7300 
 12 C        3.6770     0.4730     1.0700 C.3   1 <1>   0.1200 
 13 O        2.9110     0.4260     2.2310 O.3   1 <1>  -0.5600 
 14 C        3.7070     4.0030    -0.2350 C.2   1 <1>   0.5440 
 15 O        3.0360     3.9540    -1.2470 O.2   1 <1>  -0.5700 
 16 C        4.4160     5.2160     0.1370 C.ar  1 <1>   0.0860 
 17 C        4.8660     6.1060    -0.8360 C.ar  1 <1>  -0.1500 
 18 C        4.6770     5.5400     1.4710 C.ar  1 <1>  -0.1500 
 19 C        5.5540     7.2610    -0.5100 C.ar  1 <1>   0.0820 
 20 C        5.3630     6.6920     1.8120 C.ar  1 <1>  -0.1500 
 21 O        5.9480     8.0500    -1.5400 O.3   1 <1>  -0.3620 
 22 C        5.8050     7.5550     0.8270 C.ar  1 <1>  -0.1500 
 23 C        6.6330     9.2630    -1.3200 C.3   1 <1>   0.0400 
 24 H        0.8250     2.3230    -1.0990 H     1 <1>   0.0800 
 25 H       -0.3750     1.8390     0.0340 H     1 <1>   0.0800 
 26 H       -2.4770    -1.2500     0.4770 H     1 <1>   0.0800 
 27 H       -2.2920    -1.0270    -1.2520 H     1 <1>   0.0800 
 28 H       -2.1630     0.3410    -0.1690 H     1 <1>   0.0800 
 29 H       -0.8240    -2.9380     0.4090 H     1 <1>   0.0800 
 30 H        0.8150    -2.5710    -0.0610 H     1 <1>   0.0800 
 31 H       -0.4270    -2.7070    -1.2870 H     1 <1>   0.0800 
 32 H        1.4820     2.6460     1.2250 H     1 <1>   0.0800 
 33 H        3.1520     1.4040    -0.8060 H     1 <1>   0.0800 
 34 H        1.1890    -0.3030     1.5510 H     1 <1>   0.0800 
 35 H        1.0420     0.9850     2.7390 H     1 <1>   0.0800 
 36 H        4.2740     2.9020     1.4350 H     1 <1>   0.3700 
 37 H        4.7110     0.6280     1.3190 H     1 <1>   0.0800 
 38 H        3.5590    -0.4670     0.5580 H     1 <1>   0.0800 
 39 H        4.6740     5.8920    -1.8730 H     1 <1>   0.1500 
 40 H        4.3320     4.8900     2.2540 H     1 <1>   0.1500 
 41 H        5.5520     6.9200     2.8480 H     1 <1>   0.1500 
 42 H        6.3360     8.4420     1.1150 H     1 <1>   0.1500 
 43 H        6.8290     9.7130    -2.2760 H     1 <1>   0.0800 
 44 H        7.5600     9.0540    -0.8170 H     1 <1>   0.0800 
 45 H        6.0100     9.9130    -0.7310 H     1 <1>   0.0800 
@<TRIPOS>BOND
  1   1   2  2   
  2   1   3  2   
  3   1   4  am  
  4   1   5  1   
  5   4   6  1   
  6   4   7  1   
  7   5   8  1   
  8   5  24  1   
  9   5  25  1   
 10   6  26  1   
 11   6  27  1   
 12   6  28  1   
 13   7  29  1   
 14   7  30  1   
 15   7  31  1   
 16   8   9  1   
 17   8  10  1   
 18   8  32  1   
 19   9  11  1   
 20   9  12  1   
 21   9  33  1   
 22  10  13  1   
 23  10  34  1   
 24  10  35  1   
 25  11  14  am  
 26  11  36  1   
 27  12  13  1   
 28  12  37  1   
 29  12  38  1   
 30  14  15  2   
 31  14  16  1   
 32  16  17  ar  
 33  16  18  ar  
 34  17  19  ar  
 35  17  39  1   
 36  18  20  ar  
 37  18  40  1   
 38  19  21  1   
 39  19  22  ar  
 40  20  22  ar  
 41  20  41  1   
 42  21  23  1   
 43  22  42  1   
 44  23  43  1   
 45  23  44  1   
 46  23  45  1   
@<TRIPOS>SUBSTRUCTURE
  1 ****  11 GROUP 4 **** **** 0

# MOE 2024.06 (io_trps.svl 2023.06)
