@<TRIPOS>MOLECULE
NONAME
43 44 1 0 0 
SMALL
USER_CHARGES


@<TRIPOS>ATOM
  1 F       -1.2050    -1.0720    -1.9830 F     1 <1>  -0.1900 
  2 C       -2.2120    -1.4300    -1.2120 C.ar  1 <1>   0.1900 
  3 C       -2.8280    -0.5320    -0.3400 C.ar  1 <1>   0.4100 
  4 C       -2.6530    -2.7230    -1.2620 C.ar  1 <1>   0.1600 
  5 N       -3.8190    -0.9510     0.4260 N.ar  1 <1>  -0.6200 
  6 N       -2.4640     0.8080    -0.2170 N.pl3 1 <1>  -0.8380 
  7 N       -3.6490    -3.1450    -0.5050 N.ar  1 <1>  -0.6200 
  8 C       -4.1700    -2.2160     0.2940 C.ar  1 <1>   0.7200 
  9 C       -2.7440     1.5630     1.0360 C.3   1 <1>   0.1290 
 10 C       -2.2350     1.6520    -1.4220 C.3   1 <1>   0.1290 
 11 N       -5.1980    -2.5790     1.0990 N.pl3 1 <1>  -0.8690 
 12 C       -5.3710    -3.9470     1.6100 C.3   1 <1>   0.2090 
 13 C       -6.3780    -4.6560     0.7060 C.3   1 <1>  -0.1600 
 14 C       -6.4870    -6.1330     1.0710 C.3   1 <1>   0.3430 
 15 N       -7.3130    -6.8530     0.0630 N.4   1 <1>  -0.9590 
 16 C       -8.7580    -6.4350     0.0200 C.3   1 <1>   0.3430 
 17 C       -7.2040    -8.3470     0.1840 C.3   1 <1>   0.3430 
 18 C       -9.5430    -7.2200    -1.0570 C.3   1 <1>   0.1200 
 19 C       -8.1060    -9.0730    -0.8420 C.3   1 <1>   0.1200 
 20 O       -8.7270    -8.1600    -1.7050 O.3   1 <1>  -0.5600 
 21 H       -2.1820    -3.4210    -1.9300 H     1 <1>   0.1500 
 22 H       -2.6930     0.9030     1.8850 H     1 <1>   0.0800 
 23 H       -3.7290     1.9940     0.9880 H     1 <1>   0.0800 
 24 H       -2.0160     2.3440     1.1660 H     1 <1>   0.0800 
 25 H       -2.5090     1.1180    -2.3150 H     1 <1>   0.0800 
 26 H       -1.1950     1.9230    -1.4790 H     1 <1>   0.0800 
 27 H       -2.8310     2.5460    -1.3660 H     1 <1>   0.0800 
 28 H       -5.4080    -1.8210     1.7510 H     1 <1>   0.4000 
 29 H       -5.7290    -3.9070     2.6250 H     1 <1>   0.0800 
 30 H       -4.4220    -4.4590     1.6010 H     1 <1>   0.0800 
 31 H       -6.0400    -4.5680    -0.3110 H     1 <1>   0.0800 
 32 H       -7.3290    -4.1670     0.8100 H     1 <1>   0.0800 
 33 H       -6.9180    -6.2400     2.0530 H     1 <1>   0.0800 
 34 H       -5.4960    -6.5580     1.0870 H     1 <1>   0.0800 
 35 H       -6.9490    -6.6360    -0.8790 H     1 <1>   0.4500 
 36 H       -8.8330    -5.3820    -0.1960 H     1 <1>   0.0800 
 37 H       -9.2180    -6.6020     0.9790 H     1 <1>   0.0800 
 38 H       -7.4870    -8.6590     1.1760 H     1 <1>   0.0800 
 39 H       -6.1830    -8.6530     0.0270 H     1 <1>   0.0800 
 40 H       -9.9180    -6.5440    -1.8060 H     1 <1>   0.0800 
 41 H      -10.3810    -7.7340    -0.6190 H     1 <1>   0.0800 
 42 H       -8.8680    -9.6470    -0.3420 H     1 <1>   0.0800 
 43 H       -7.5180    -9.7460    -1.4420 H     1 <1>   0.0800 
@<TRIPOS>BOND
  1   1   2  1   
  2   2   3  ar  
  3   2   4  ar  
  4   3   5  ar  
  5   3   6  1   
  6   4   7  ar  
  7   4  21  1   
  8   5   8  ar  
  9   6   9  1   
 10   6  10  1   
 11   7   8  ar  
 12   8  11  1   
 13   9  22  1   
 14   9  23  1   
 15   9  24  1   
 16  10  25  1   
 17  10  26  1   
 18  10  27  1   
 19  11  12  1   
 20  11  28  1   
 21  12  13  1   
 22  12  29  1   
 23  12  30  1   
 24  13  14  1   
 25  13  31  1   
 26  13  32  1   
 27  14  15  1   
 28  14  33  1   
 29  14  34  1   
 30  15  16  1   
 31  15  17  1   
 32  15  35  1   
 33  16  18  1   
 34  16  36  1   
 35  16  37  1   
 36  17  19  1   
 37  17  38  1   
 38  17  39  1   
 39  18  20  1   
 40  18  40  1   
 41  18  41  1   
 42  19  20  1   
 43  19  42  1   
 44  19  43  1   
@<TRIPOS>SUBSTRUCTURE
  1 ****   7 GROUP 4 **** **** 0

# MOE 2024.06 (io_trps.svl 2023.06)
