@<TRIPOS>MOLECULE
NONAME
55 57 1 0 0 
SMALL
USER_CHARGES


@<TRIPOS>ATOM
  1 O       -1.6330     0.2570     2.3250 O.2   1 <1>  -0.5700 
  2 C       -1.8430     0.6520     1.2040 C.2   1 <1>   0.5690 
  3 N       -2.1700    -0.2030     0.1850 N.am  1 <1>  -0.6600 
  4 C       -1.7220     2.1490     0.9630 C.3   1 <1>  -0.0990 
  5 C       -2.1540    -1.6890     0.4170 C.3   1 <1>   0.3640 
  6 C       -2.5880     0.2430    -1.1820 C.3   1 <1>   0.1400 
  7 C       -0.3690     2.5380     0.3410 C.3   1 <1>  -0.0800 
  8 C       -0.8210    -2.3230    -0.0210 C.ar  1 <1>  -0.1440 
  9 C       -3.3720    -2.3920    -0.2660 C.3   1 <1>   0.2000 
 10 C       -2.9490    -0.9350    -2.0990 C.3   1 <1>   0.1200 
 11 C        0.8350     2.1590     1.2010 C.3   1 <1>  -0.1600 
 12 C       -0.2090     4.0440     0.1490 C.3   1 <1>  -0.1600 
 13 C       -0.6000    -3.6600     0.2900 C.ar  1 <1>  -0.1500 
 14 C        0.1820    -1.6310    -0.6960 C.ar  1 <1>  -0.1500 
 15 O       -3.8480    -1.7700    -1.4420 O.3   1 <1>  -0.5600 
 16 C       -4.5660    -2.4820     0.6920 C.3   1 <1>   0.1200 
 17 C        1.9650     3.0800     0.7370 C.3   1 <1>  -0.1600 
 18 C        1.2990     4.2600     0.0180 C.3   1 <1>  -0.1600 
 19 C        0.5670    -4.3050    -0.0830 C.ar  1 <1>   0.0830 
 20 C        1.3620    -2.2600    -1.0570 C.ar  1 <1>  -0.1500 
 21 O       -4.3180    -3.4300     1.6820 O.3   1 <1>  -0.6800 
 22 O        0.6710    -5.6240     0.2190 O.3   1 <1>  -0.3630 
 23 C        1.5700    -3.5910    -0.7440 C.ar  1 <1>   0.0830 
 24 C        0.7820    -6.5160    -0.8680 C.3   1 <1>   0.0400 
 25 O        2.7610    -4.1370    -1.0890 O.3   1 <1>  -0.3630 
 26 C        3.6150    -4.4800    -0.0200 C.3   1 <1>   0.0400 
 27 H       -2.5270     2.4850     0.3390 H     1 <1>   0.0800 
 28 H       -1.8310     2.6450     1.9110 H     1 <1>   0.0800 
 29 H       -2.2300    -1.8780     1.4750 H     1 <1>   0.0800 
 30 H       -3.4500     0.8800    -1.0950 H     1 <1>   0.0800 
 31 H       -1.7970     0.8080    -1.6400 H     1 <1>   0.0800 
 32 H       -0.2560     2.0630    -0.6180 H     1 <1>   0.0800 
 33 H       -3.0980    -3.3910    -0.5490 H     1 <1>   0.0800 
 34 H       -2.0780    -1.5050    -2.3750 H     1 <1>   0.0800 
 35 H       -3.4240    -0.5780    -2.9950 H     1 <1>   0.0800 
 36 H        0.6190     2.3590     2.2370 H     1 <1>   0.0800 
 37 H        1.0930     1.1190     1.0970 H     1 <1>   0.0800 
 38 H       -0.7440     4.4030    -0.7130 H     1 <1>   0.0800 
 39 H       -0.5620     4.5620     1.0250 H     1 <1>   0.0800 
 40 H       -1.3390    -4.2240     0.8310 H     1 <1>   0.1500 
 41 H        0.0690    -0.5920    -0.9420 H     1 <1>   0.1500 
 42 H       -5.4560    -2.7780     0.1650 H     1 <1>   0.0800 
 43 H       -4.7280    -1.5330     1.1740 H     1 <1>   0.0800 
 44 H        2.5490     3.4140     1.5770 H     1 <1>   0.0800 
 45 H        2.6110     2.5560     0.0530 H     1 <1>   0.0800 
 46 H        1.5780     4.2490    -1.0210 H     1 <1>   0.0800 
 47 H        1.5940     5.2020     0.4470 H     1 <1>   0.0800 
 48 H        2.1320    -1.7170    -1.5730 H     1 <1>   0.1500 
 49 H       -4.4500    -4.3350     1.3380 H     1 <1>   0.4000 
 50 H        0.6930    -7.5180    -0.4900 H     1 <1>   0.0800 
 51 H        1.7390    -6.3880    -1.3390 H     1 <1>   0.0800 
 52 H       -0.0090    -6.3130    -1.5680 H     1 <1>   0.0800 
 53 H        4.5450    -4.8280    -0.4300 H     1 <1>   0.0800 
 54 H        3.1580    -5.2570     0.5660 H     1 <1>   0.0800 
 55 H        3.7800    -3.6060     0.5850 H     1 <1>   0.0800 
@<TRIPOS>BOND
  1   1   2  2   
  2   2   3  am  
  3   2   4  1   
  4   3   5  1   
  5   3   6  1   
  6   4   7  1   
  7   4  27  1   
  8   4  28  1   
  9   5   8  1   
 10   5   9  1   
 11   5  29  1   
 12   6  10  1   
 13   6  30  1   
 14   6  31  1   
 15   7  11  1   
 16   7  12  1   
 17   7  32  1   
 18   8  13  ar  
 19   8  14  ar  
 20   9  15  1   
 21   9  16  1   
 22   9  33  1   
 23  10  15  1   
 24  10  34  1   
 25  10  35  1   
 26  11  17  1   
 27  11  36  1   
 28  11  37  1   
 29  12  18  1   
 30  12  38  1   
 31  12  39  1   
 32  13  19  ar  
 33  13  40  1   
 34  14  20  ar  
 35  14  41  1   
 36  16  21  1   
 37  16  42  1   
 38  16  43  1   
 39  17  18  1   
 40  17  44  1   
 41  17  45  1   
 42  18  46  1   
 43  18  47  1   
 44  19  22  1   
 45  19  23  ar  
 46  20  23  ar  
 47  20  48  1   
 48  21  49  1   
 49  22  24  1   
 50  23  25  1   
 51  24  50  1   
 52  24  51  1   
 53  24  52  1   
 54  25  26  1   
 55  26  53  1   
 56  26  54  1   
 57  26  55  1   
@<TRIPOS>SUBSTRUCTURE
  1 ****   8 GROUP 4 **** **** 0

# MOE 2024.06 (io_trps.svl 2023.06)
