@<TRIPOS>MOLECULE
NONAME
43 45 1 0 0 
SMALL
USER_CHARGES


@<TRIPOS>ATOM
  1 O       -0.9040    -0.1500     2.5640 O.3   1 <1>  -0.5600 
  2 C        0.3800     0.2890     2.2350 C.3   1 <1>   0.1200 
  3 C       -1.7690     0.1160     1.5100 C.3   1 <1>   0.1200 
  4 C        0.2180     1.4030     1.1970 C.3   1 <1>   0.2890 
  5 C       -1.2810     1.4340     0.9210 C.3   1 <1>  -0.0800 
  6 N        0.6690     2.7120     1.7190 N.pl3 1 <1>  -0.8690 
  7 C       -1.6210     1.6160    -0.5660 C.3   1 <1>  -0.0170 
  8 C        0.9600     3.7670     0.9260 C.ar  1 <1>   0.7200 
  9 C       -3.1240     1.5720    -0.7910 C.ar  1 <1>  -0.1440 
 10 N        0.7840     4.9330     1.5090 N.ar  1 <1>  -0.6200 
 11 N        1.3590     3.5220    -0.3100 N.ar  1 <1>  -0.6200 
 12 C       -3.7560     0.4770    -1.3460 C.ar  1 <1>  -0.1500 
 13 C       -3.9350     2.6340    -0.4460 C.ar  1 <1>  -0.1500 
 14 C        1.0640     5.9770     0.7690 C.ar  1 <1>   0.3930 
 15 C        1.6320     4.5810    -1.0290 C.ar  1 <1>   0.3930 
 16 C       -5.1300     0.4950    -1.5180 C.ar  1 <1>   0.1600 
 17 C       -5.3010     2.5500    -0.6590 C.ar  1 <1>   0.1600 
 18 O        0.8880     7.1660     1.3800 O.3   1 <1>  -0.3630 
 19 C        1.5030     5.8590    -0.5310 C.ar  1 <1>  -0.1500 
 20 O        2.0410     4.3180    -2.2860 O.3   1 <1>  -0.3630 
 21 N       -5.9190     1.5050    -1.1860 N.ar  1 <1>  -0.6200 
 22 C        1.2310     8.3980     0.7850 C.3   1 <1>   0.0400 
 23 C        2.4590     5.3210    -3.1860 C.3   1 <1>   0.0400 
 24 H        0.8710     0.6310     3.1290 H     1 <1>   0.0800 
 25 H        0.9150    -0.5430     1.8140 H     1 <1>   0.0800 
 26 H       -1.6870    -0.6900     0.8020 H     1 <1>   0.0800 
 27 H       -2.7770     0.1800     1.8840 H     1 <1>   0.0800 
 28 H        0.7810     1.1380     0.3180 H     1 <1>   0.0800 
 29 H       -1.7380     2.2250     1.4890 H     1 <1>   0.0800 
 30 H        0.2360     3.0040     2.5940 H     1 <1>   0.4000 
 31 H       -1.1410     0.8510    -1.1500 H     1 <1>   0.0800 
 32 H       -1.2420     2.5650    -0.9050 H     1 <1>   0.0800 
 33 H       -3.1950    -0.3890    -1.6460 H     1 <1>   0.1500 
 34 H       -3.5170     3.5230    -0.0110 H     1 <1>   0.1500 
 35 H       -5.6060    -0.3670    -1.9520 H     1 <1>   0.1500 
 36 H       -5.9170     3.3880    -0.3820 H     1 <1>   0.1500 
 37 H        1.7280     6.7170    -1.1260 H     1 <1>   0.1500 
 38 H        1.0270     9.1780     1.4970 H     1 <1>   0.0800 
 39 H        0.6300     8.5430    -0.0950 H     1 <1>   0.0800 
 40 H        2.2790     8.3910     0.5440 H     1 <1>   0.0800 
 41 H        2.7640     4.8420    -4.0990 H     1 <1>   0.0800 
 42 H        3.2920     5.8510    -2.7590 H     1 <1>   0.0800 
 43 H        1.6350     5.9840    -3.3810 H     1 <1>   0.0800 
@<TRIPOS>BOND
  1   1   2  1   
  2   1   3  1   
  3   2   4  1   
  4   2  24  1   
  5   2  25  1   
  6   3   5  1   
  7   3  26  1   
  8   3  27  1   
  9   4   5  1   
 10   4   6  1   
 11   4  28  1   
 12   5   7  1   
 13   5  29  1   
 14   6   8  1   
 15   6  30  1   
 16   7   9  1   
 17   7  31  1   
 18   7  32  1   
 19   8  10  ar  
 20   8  11  ar  
 21   9  12  ar  
 22   9  13  ar  
 23  10  14  ar  
 24  11  15  ar  
 25  12  16  ar  
 26  12  33  1   
 27  13  17  ar  
 28  13  34  1   
 29  14  18  1   
 30  14  19  ar  
 31  15  19  ar  
 32  15  20  1   
 33  16  21  ar  
 34  16  35  1   
 35  17  21  ar  
 36  17  36  1   
 37  18  22  1   
 38  19  37  1   
 39  20  23  1   
 40  22  38  1   
 41  22  39  1   
 42  22  40  1   
 43  23  41  1   
 44  23  42  1   
 45  23  43  1   
@<TRIPOS>SUBSTRUCTURE
  1 ****   7 GROUP 4 **** **** 0

# MOE 2024.06 (io_trps.svl 2023.06)
