@<TRIPOS>MOLECULE
NONAME
51 53 1 0 0 
SMALL
USER_CHARGES


@<TRIPOS>ATOM
  1 S       -0.2520    -0.1930    -1.3920 S.o2  1 <1>   1.4470 
  2 O        0.4220    -1.2680    -2.0760 O.2   1 <1>  -0.6500 
  3 O        0.5100     0.9240    -0.8900 O.2   1 <1>  -0.6500 
  4 N       -1.1270     0.4750    -2.6280 N.am  1 <1>  -0.9780 
  5 C       -1.5030    -0.8090    -0.2140 C.ar  1 <1>  -0.0090 
  6 C       -2.2730     0.0170     0.6160 C.ar  1 <1>  -0.1430 
  7 C       -1.7110    -2.1810    -0.1430 C.ar  1 <1>  -0.1500 
  8 C       -3.1860    -0.5460     1.5080 C.ar  1 <1>  -0.1430 
  9 C       -2.0910     1.5360     0.5470 C.3   1 <1>  -0.0970 
 10 C       -2.6330    -2.7670     0.7140 C.ar  1 <1>   0.0860 
 11 C       -3.3500    -1.9190     1.5480 C.ar  1 <1>  -0.1500 
 12 C       -4.0250     0.2910     2.4670 C.3   1 <1>  -0.0970 
 13 C       -2.8220    -4.2070     0.7360 C.2   1 <1>   0.5440 
 14 O       -1.8380    -4.9230     0.7300 O.2   1 <1>  -0.5700 
 15 N       -4.0700    -4.8030     0.7790 N.am  1 <1>  -0.6600 
 16 C       -5.3290    -4.1700     0.2590 C.3   1 <1>   0.2200 
 17 C       -4.1950    -6.1460     1.4280 C.3   1 <1>   0.0600 
 18 C       -6.4060    -5.1880    -0.1330 C.3   1 <1>  -0.1600 
 19 C       -5.1260    -3.3840    -1.0400 C.3   1 <1>  -0.1600 
 20 C       -7.3350    -4.4550    -1.1060 C.3   1 <1>  -0.0800 
 21 C       -6.5130    -3.2970    -1.6880 C.3   1 <1>  -0.0800 
 22 C       -8.5630    -3.8260    -0.4330 C.3   1 <1>  -0.1600 
 23 C       -7.2770    -2.0090    -1.3400 C.3   1 <1>  -0.1600 
 24 C       -8.7070    -2.4690    -1.1020 C.3   1 <1>   0.2000 
 25 O       -9.3620    -1.5920    -0.2670 O.3   1 <1>  -0.6800 
 26 H       -1.0060    -0.1990    -3.3800 H     1 <1>   0.4200 
 27 H       -0.5700     1.2830    -2.8900 H     1 <1>   0.4200 
 28 H       -1.1340    -2.8370    -0.7740 H     1 <1>   0.1500 
 29 H       -2.8920     2.0740     1.0150 H     1 <1>   0.0800 
 30 H       -2.0580     1.8700    -0.4730 H     1 <1>   0.0800 
 31 H       -1.1720     1.8150     1.0320 H     1 <1>   0.0800 
 32 H       -4.0440    -2.3590     2.2410 H     1 <1>   0.1500 
 33 H       -4.5770    -0.3310     3.1490 H     1 <1>   0.0800 
 34 H       -4.7270     0.8910     1.9170 H     1 <1>   0.0800 
 35 H       -3.3900     0.9340     3.0500 H     1 <1>   0.0800 
 36 H       -5.7340    -3.5140     1.0110 H     1 <1>   0.0800 
 37 H       -5.0530    -6.1680     2.0770 H     1 <1>   0.0800 
 38 H       -3.3220    -6.3610     2.0210 H     1 <1>   0.0800 
 39 H       -4.2880    -6.9080     0.6750 H     1 <1>   0.0800 
 40 H       -5.9490    -6.0020    -0.6680 H     1 <1>   0.0800 
 41 H       -6.9370    -5.5710     0.7200 H     1 <1>   0.0800 
 42 H       -4.7150    -2.4050    -0.8790 H     1 <1>   0.0800 
 43 H       -4.4750    -3.9420    -1.6900 H     1 <1>   0.0800 
 44 H       -7.6540    -5.1160    -1.8960 H     1 <1>   0.0800 
 45 H       -6.4380    -3.3950    -2.7590 H     1 <1>   0.0800 
 46 H       -8.3850    -3.6950     0.6200 H     1 <1>   0.0800 
 47 H       -9.4430    -4.4270    -0.5800 H     1 <1>   0.0800 
 48 H       -7.2250    -1.2940    -2.1420 H     1 <1>   0.0800 
 49 H       -6.8800    -1.5730    -0.4410 H     1 <1>   0.0800 
 50 H       -9.2500    -2.5460    -2.0300 H     1 <1>   0.0800 
 51 H       -8.8820    -1.5130     0.5770 H     1 <1>   0.4000 
@<TRIPOS>BOND
  1   1   2  2   
  2   1   3  2   
  3   1   4  am  
  4   1   5  1   
  5   4  26  1   
  6   4  27  1   
  7   5   6  ar  
  8   5   7  ar  
  9   6   8  ar  
 10   6   9  1   
 11   7  10  ar  
 12   7  28  1   
 13   8  11  ar  
 14   8  12  1   
 15   9  29  1   
 16   9  30  1   
 17   9  31  1   
 18  10  11  ar  
 19  10  13  1   
 20  11  32  1   
 21  12  33  1   
 22  12  34  1   
 23  12  35  1   
 24  13  14  2   
 25  13  15  am  
 26  15  16  1   
 27  15  17  1   
 28  16  18  1   
 29  16  19  1   
 30  16  36  1   
 31  17  37  1   
 32  17  38  1   
 33  17  39  1   
 34  18  20  1   
 35  18  40  1   
 36  18  41  1   
 37  19  21  1   
 38  19  42  1   
 39  19  43  1   
 40  20  21  1   
 41  20  22  1   
 42  20  44  1   
 43  21  23  1   
 44  21  45  1   
 45  22  24  1   
 46  22  46  1   
 47  22  47  1   
 48  23  24  1   
 49  23  48  1   
 50  23  49  1   
 51  24  25  1   
 52  24  50  1   
 53  25  51  1   
@<TRIPOS>SUBSTRUCTURE
  1 ****  10 GROUP 4 **** **** 0

# MOE 2024.06 (io_trps.svl 2023.06)
