@<TRIPOS>MOLECULE
NONAME
49 51 1 0 0 
SMALL
USER_CHARGES


@<TRIPOS>ATOM
  1 CL       0.4010    -0.1160     2.0150 Cl    1 <1>  -0.1770 
  2 C        1.5260     0.7110     0.9680 C.ar  1 <1>   0.1770 
  3 C        2.8800     0.5200     1.1400 C.ar  1 <1>  -0.1500 
  4 C        1.0370     1.5410    -0.0210 C.ar  1 <1>  -0.1500 
  5 C        3.8120     1.1620     0.3200 C.ar  1 <1>   0.0860 
  6 C        1.9350     2.1990    -0.8390 C.ar  1 <1>  -0.1500 
  7 C        5.2220     0.8850     0.5230 C.2   1 <1>   0.5440 
  8 C        3.3020     2.0310    -0.6640 C.ar  1 <1>   0.0830 
  9 O        5.6400     0.6640     1.6430 O.2   1 <1>  -0.5700 
 10 N        6.1140     0.8540    -0.5150 N.am  1 <1>  -0.7300 
 11 O        4.0920     2.7440    -1.4950 O.3   1 <1>  -0.3630 
 12 C        7.5180     0.3860    -0.4150 C.3   1 <1>   0.1400 
 13 C        4.9140     3.7690    -0.9700 C.3   1 <1>   0.1200 
 14 C        8.4180     1.4600     0.2120 C.3   1 <1>  -0.1600 
 15 C        4.0800     4.9250    -0.4170 C.3   1 <1>   0.0960 
 16 C        8.6030     2.7060    -0.6690 C.3   1 <1>  -0.1600 
 17 N        4.9600     6.0440    -0.0320 N.pl3 1 <1>   0.3140 
 18 C        9.3730     3.7940     0.0810 C.3   1 <1>   0.1400 
 19 N        4.5550     7.3140    -0.0720 N.2   1 <1>  -0.4180 
 20 C        6.2420     6.0030     0.3430 C.2   1 <1>  -0.3020 
 21 N        9.4630     4.9930    -0.7780 N.am  1 <1>  -0.7300 
 22 N        5.5470     8.0700     0.2550 N.2   1 <1>  -0.2270 
 23 C        6.6000     7.2850     0.5030 C.2   1 <1>   0.0460 
 24 C        9.4020     6.3160    -0.4880 C.2   1 <1>   0.5690 
 25 C        7.9440     7.8760     0.8950 C.3   1 <1>   0.0210 
 26 O        9.6370     7.1070    -1.3640 O.2   1 <1>  -0.5700 
 27 C        9.0930     6.8520     0.9020 C.3   1 <1>  -0.0990 
 28 H        3.2210    -0.1400     1.9200 H     1 <1>   0.1500 
 29 H       -0.0250     1.6660    -0.1420 H     1 <1>   0.1500 
 30 H        1.5760     2.8500    -1.6180 H     1 <1>   0.1500 
 31 H        5.7630     1.0460    -1.4580 H     1 <1>   0.3700 
 32 H        7.8800     0.1170    -1.3930 H     1 <1>   0.0800 
 33 H        7.5420    -0.4960     0.2040 H     1 <1>   0.0800 
 34 H        5.5370     4.1170    -1.7770 H     1 <1>   0.0800 
 35 H        5.5290     3.3580    -0.1920 H     1 <1>   0.0800 
 36 H        9.3830     1.0210     0.3970 H     1 <1>   0.0800 
 37 H        8.0070     1.7370     1.1670 H     1 <1>   0.0800 
 38 H        3.5300     4.6150     0.4520 H     1 <1>   0.0800 
 39 H        3.3980     5.2790    -1.1680 H     1 <1>   0.0800 
 40 H        7.6450     3.0930    -0.9540 H     1 <1>   0.0800 
 41 H        9.1390     2.4340    -1.5620 H     1 <1>   0.0800 
 42 H       10.3670     3.4490     0.3120 H     1 <1>   0.0800 
 43 H        8.8680     4.0230     1.0020 H     1 <1>   0.0800 
 44 H        6.8130     5.1050     0.4630 H     1 <1>   0.1500 
 45 H        9.7190     4.8050    -1.7510 H     1 <1>   0.3700 
 46 H        7.8480     8.3110     1.8730 H     1 <1>   0.0800 
 47 H        8.1800     8.6700     0.2080 H     1 <1>   0.0800 
 48 H        9.9810     7.3380     1.2610 H     1 <1>   0.0800 
 49 H        8.8580     6.0620     1.5860 H     1 <1>   0.0800 
@<TRIPOS>BOND
  1   1   2  1   
  2   2   3  ar  
  3   2   4  ar  
  4   3   5  ar  
  5   3  28  1   
  6   4   6  ar  
  7   4  29  1   
  8   5   7  1   
  9   5   8  ar  
 10   6   8  ar  
 11   6  30  1   
 12   7   9  2   
 13   7  10  am  
 14   8  11  1   
 15  10  12  1   
 16  10  31  1   
 17  11  13  1   
 18  12  14  1   
 19  12  32  1   
 20  12  33  1   
 21  13  15  1   
 22  13  34  1   
 23  13  35  1   
 24  14  16  1   
 25  14  36  1   
 26  14  37  1   
 27  15  17  1   
 28  15  38  1   
 29  15  39  1   
 30  16  18  1   
 31  16  40  1   
 32  16  41  1   
 33  17  19  1   
 34  17  20  1   
 35  18  21  1   
 36  18  42  1   
 37  18  43  1   
 38  19  22  2   
 39  20  23  2   
 40  20  44  1   
 41  21  24  am  
 42  21  45  1   
 43  22  23  1   
 44  23  25  1   
 45  24  26  2   
 46  24  27  1   
 47  25  27  1   
 48  25  46  1   
 49  25  47  1   
 50  27  48  1   
 51  27  49  1   
@<TRIPOS>SUBSTRUCTURE
  1 ****  13 GROUP 4 **** **** 0

# MOE 2024.06 (io_trps.svl 2023.06)
