@<TRIPOS>MOLECULE
NONAME
56 58 1 0 0 
SMALL
USER_CHARGES


@<TRIPOS>ATOM
  1 S       -0.6210    -0.1270     1.6510 S.3   1 <1>  -0.0800 
  2 C       -1.7810     0.3520     0.4280 C.2   1 <1>   0.1980 
  3 C        0.6010     0.7680     0.7970 C.2   1 <1>  -0.1100 
  4 N       -1.3000     1.0870    -0.4920 N.2   1 <1>  -0.5650 
  5 C       -3.2060    -0.1390     0.5780 C.3   1 <1>   0.0200 
  6 C        0.0480     1.3260    -0.2910 C.2   1 <1>   0.0460 
  7 C       -3.3280    -1.6180     0.1890 C.3   1 <1>  -0.1600 
  8 C        0.7490     2.1900    -1.3150 C.3   1 <1>  -0.0590 
  9 C       -4.7780    -2.0910     0.2600 C.3   1 <1>   0.1400 
 10 N       -4.8300    -3.5290    -0.0790 N.am  1 <1>  -0.7300 
 11 C       -5.2020    -4.5290     0.7760 C.2   1 <1>   0.5440 
 12 O       -5.5230    -4.2430     1.9120 O.2   1 <1>  -0.5700 
 13 C       -5.2010    -5.9160     0.3440 C.ar  1 <1>   0.0860 
 14 C       -4.9170    -6.9410     1.2460 C.ar  1 <1>  -0.1500 
 15 C       -5.4860    -6.2870    -0.9700 C.ar  1 <1>  -0.1500 
 16 C       -4.9160    -8.2690     0.8620 C.ar  1 <1>  -0.1500 
 17 C       -5.4890    -7.6130    -1.3640 C.ar  1 <1>  -0.1500 
 18 C       -5.2120    -8.6170    -0.4480 C.ar  1 <1>  -0.1430 
 19 C       -5.2400   -10.0750    -0.8660 C.3   1 <1>   0.4860 
 20 N       -6.4230   -10.7280    -0.2420 N.4   1 <1>  -0.9590 
 21 C       -6.3050   -12.2080    -0.3250 C.3   1 <1>   0.3430 
 22 C       -7.6970   -10.1810    -0.7940 C.3   1 <1>   0.3430 
 23 C       -7.3480   -12.9210     0.5370 C.3   1 <1>  -0.1600 
 24 C       -8.7900   -10.2450     0.2720 C.3   1 <1>  -0.1600 
 25 C       -8.7680   -12.8420    -0.0400 C.3   1 <1>  -0.1600 
 26 C       -9.5470   -11.5810     0.3610 C.3   1 <1>  -0.1600 
 27 H        1.5960     0.7780     1.2010 H     1 <1>   0.1500 
 28 H       -3.8350     0.4560    -0.0600 H     1 <1>   0.0800 
 29 H       -3.5240     0.0080     1.5940 H     1 <1>   0.0800 
 30 H       -2.7300    -2.2090     0.8600 H     1 <1>   0.0800 
 31 H       -2.9550    -1.7470    -0.8120 H     1 <1>   0.0800 
 32 H        1.7860     2.3110    -1.0600 H     1 <1>   0.0800 
 33 H        0.2810     3.1560    -1.3530 H     1 <1>   0.0800 
 34 H        0.6760     1.7300    -2.2840 H     1 <1>   0.0800 
 35 H       -5.3880    -1.5400    -0.4360 H     1 <1>   0.0800 
 36 H       -5.1690    -1.9300     1.2520 H     1 <1>   0.0800 
 37 H       -4.4420    -3.7720    -0.9900 H     1 <1>   0.3700 
 38 H       -4.6930    -6.6780     2.2670 H     1 <1>   0.1500 
 39 H       -5.7180    -5.5230    -1.6920 H     1 <1>   0.1500 
 40 H       -4.6800    -9.0180     1.5990 H     1 <1>   0.1500 
 41 H       -5.7130    -7.8490    -2.3920 H     1 <1>   0.1500 
 42 H       -4.3330   -10.5520    -0.5310 H     1 <1>   0.0800 
 43 H       -5.2910   -10.1550    -1.9400 H     1 <1>   0.0800 
 44 H       -6.4050   -10.4610     0.7500 H     1 <1>   0.4500 
 45 H       -5.3260   -12.5050     0.0170 H     1 <1>   0.0800 
 46 H       -6.4080   -12.5300    -1.3500 H     1 <1>   0.0800 
 47 H       -7.9980   -10.7150    -1.6800 H     1 <1>   0.0800 
 48 H       -7.5590    -9.1450    -1.0570 H     1 <1>   0.0800 
 49 H       -7.3200   -12.5670     1.5530 H     1 <1>   0.0800 
 50 H       -7.0710   -13.9610     0.5630 H     1 <1>   0.0800 
 51 H       -9.5140    -9.4800     0.0500 H     1 <1>   0.0800 
 52 H       -8.3730    -9.9940     1.2320 H     1 <1>   0.0800 
 53 H       -9.3290   -13.6930     0.3130 H     1 <1>   0.0800 
 54 H       -8.7320   -12.9250    -1.1130 H     1 <1>   0.0800 
 55 H      -10.4220   -11.5270    -0.2650 H     1 <1>   0.0800 
 56 H       -9.9040   -11.6990     1.3710 H     1 <1>   0.0800 
@<TRIPOS>BOND
  1   1   2  1   
  2   1   3  1   
  3   2   4  2   
  4   2   5  1   
  5   3   6  2   
  6   3  27  1   
  7   4   6  1   
  8   5   7  1   
  9   5  28  1   
 10   5  29  1   
 11   6   8  1   
 12   7   9  1   
 13   7  30  1   
 14   7  31  1   
 15   8  32  1   
 16   8  33  1   
 17   8  34  1   
 18   9  10  1   
 19   9  35  1   
 20   9  36  1   
 21  10  11  am  
 22  10  37  1   
 23  11  12  2   
 24  11  13  1   
 25  13  14  ar  
 26  13  15  ar  
 27  14  16  ar  
 28  14  38  1   
 29  15  17  ar  
 30  15  39  1   
 31  16  18  ar  
 32  16  40  1   
 33  17  18  ar  
 34  17  41  1   
 35  18  19  1   
 36  19  20  1   
 37  19  42  1   
 38  19  43  1   
 39  20  21  1   
 40  20  22  1   
 41  20  44  1   
 42  21  23  1   
 43  21  45  1   
 44  21  46  1   
 45  22  24  1   
 46  22  47  1   
 47  22  48  1   
 48  23  25  1   
 49  23  49  1   
 50  23  50  1   
 51  24  26  1   
 52  24  51  1   
 53  24  52  1   
 54  25  26  1   
 55  25  53  1   
 56  25  54  1   
 57  26  55  1   
 58  26  56  1   
@<TRIPOS>SUBSTRUCTURE
  1 ****  13 GROUP 4 **** **** 0

# MOE 2024.06 (io_trps.svl 2023.06)
