@<TRIPOS>MOLECULE
NONAME
46 48 1 0 0 
SMALL
USER_CHARGES


@<TRIPOS>ATOM
  1 S        0.5930     0.7060    -1.6840 S.o2  1 <1>   1.3330 
  2 O        0.7370    -0.6540    -2.1550 O.2   1 <1>  -0.6500 
  3 O       -0.0750     1.6840    -2.5130 O.2   1 <1>  -0.6500 
  4 N       -0.2370     0.6570    -0.2020 N.am  1 <1>  -0.8490 
  5 C        2.2210     1.3160    -1.2390 C.3   1 <1>  -0.0550 
  6 C       -1.3170    -0.3350    -0.2080 C.3   1 <1>   0.1160 
  7 C       -0.7680     1.9620     0.2090 C.3   1 <1>   0.1160 
  8 C        3.0760     0.3150    -0.4310 C.3   1 <1>  -0.0800 
  9 C        4.5060     0.7610    -0.1670 C.3   1 <1>   0.2200 
 10 C        2.5590    -0.0070     0.9770 C.3   1 <1>   0.1200 
 11 N        4.5480     2.1820     0.2540 N.am  1 <1>  -0.7300 
 12 C        4.8480    -0.1110     1.0320 C.3   1 <1>   0.1200 
 13 O        3.6830    -0.1380     1.8000 O.3   1 <1>  -0.5600 
 14 C        4.8710     3.2390    -0.5470 C.2   1 <1>   0.5440 
 15 O        5.0580     3.0160    -1.7280 O.2   1 <1>  -0.5700 
 16 C        4.9480     4.5880    -0.0140 C.ar  1 <1>   0.0860 
 17 C        4.7900     5.6950    -0.8580 C.ar  1 <1>  -0.1500 
 18 C        5.1790     4.8360     1.3480 C.ar  1 <1>  -0.1500 
 19 C        4.8480     6.9750    -0.3460 C.ar  1 <1>  -0.1440 
 20 C        5.2350     6.1230     1.8580 C.ar  1 <1>  -0.1500 
 21 C        5.0640     7.1820     0.9890 C.ar  1 <1>   0.0820 
 22 C        4.7110     8.3080    -1.0200 C.3   1 <1>  -0.0170 
 23 O        5.0900     8.4790     1.3200 O.3   1 <1>  -0.3620 
 24 C        4.8920     9.2780     0.1620 C.3   1 <1>   0.1200 
 25 H        2.7520     1.5460    -2.1430 H     1 <1>   0.0800 
 26 H        2.1170     2.2320    -0.6930 H     1 <1>   0.0800 
 27 H       -1.8160    -0.3510     0.7450 H     1 <1>   0.0800 
 28 H       -0.9150    -1.3180    -0.3930 H     1 <1>   0.0800 
 29 H       -2.0320    -0.1050    -0.9810 H     1 <1>   0.0800 
 30 H       -1.2040     1.8910     1.1910 H     1 <1>   0.0800 
 31 H       -1.5210     2.2990    -0.4850 H     1 <1>   0.0800 
 32 H        0.0220     2.6920     0.2410 H     1 <1>   0.0800 
 33 H        3.1170    -0.6100    -0.9790 H     1 <1>   0.0800 
 34 H        5.1620     0.5890    -1.0040 H     1 <1>   0.0800 
 35 H        1.9980    -0.9260     0.9970 H     1 <1>   0.0800 
 36 H        1.9590     0.7930     1.3750 H     1 <1>   0.0800 
 37 H        4.2690     2.3310     1.2260 H     1 <1>   0.3700 
 38 H        5.6630     0.2790     1.6160 H     1 <1>   0.0800 
 39 H        5.0640    -1.1190     0.7230 H     1 <1>   0.0800 
 40 H        4.6220     5.5400    -1.9100 H     1 <1>   0.1500 
 41 H        5.3250     4.0110     2.0220 H     1 <1>   0.1500 
 42 H        5.4110     6.3140     2.9010 H     1 <1>   0.1500 
 43 H        3.7410     8.4240    -1.4690 H     1 <1>   0.0800 
 44 H        5.4780     8.4540    -1.7590 H     1 <1>   0.0800 
 45 H        4.0160     9.8830     0.3180 H     1 <1>   0.0800 
 46 H        5.7600     9.9020     0.0340 H     1 <1>   0.0800 
@<TRIPOS>BOND
  1   1   2  2   
  2   1   3  2   
  3   1   4  am  
  4   1   5  1   
  5   4   6  1   
  6   4   7  1   
  7   5   8  1   
  8   5  25  1   
  9   5  26  1   
 10   6  27  1   
 11   6  28  1   
 12   6  29  1   
 13   7  30  1   
 14   7  31  1   
 15   7  32  1   
 16   8   9  1   
 17   8  10  1   
 18   8  33  1   
 19   9  11  1   
 20   9  12  1   
 21   9  34  1   
 22  10  13  1   
 23  10  35  1   
 24  10  36  1   
 25  11  14  am  
 26  11  37  1   
 27  12  13  1   
 28  12  38  1   
 29  12  39  1   
 30  14  15  2   
 31  14  16  1   
 32  16  17  ar  
 33  16  18  ar  
 34  17  19  ar  
 35  17  40  1   
 36  18  20  ar  
 37  18  41  1   
 38  19  21  ar  
 39  19  22  1   
 40  20  21  ar  
 41  20  42  1   
 42  21  23  1   
 43  22  24  1   
 44  22  43  1   
 45  22  44  1   
 46  23  24  1   
 47  24  45  1   
 48  24  46  1   
@<TRIPOS>SUBSTRUCTURE
  1 ****  14 GROUP 4 **** **** 0

# MOE 2024.06 (io_trps.svl 2023.06)
