@<TRIPOS>MOLECULE
NONAME
46 48 1 0 0 
SMALL
USER_CHARGES


@<TRIPOS>ATOM
  1 S       -2.4390    -0.7660     0.5790 S.3   1 <1>  -0.0800 
  2 C       -0.9290    -1.5900     0.2090 C.2   1 <1>  -0.1400 
  3 C       -1.9480     0.6460    -0.3350 C.2   1 <1>  -0.1100 
  4 C       -0.1430    -0.8060    -0.5530 C.2   1 <1>  -0.1500 
  5 C       -0.7240    -2.9830     0.7620 C.3   1 <1>   0.5230 
  6 C       -0.7250     0.4650    -0.8640 C.2   1 <1>  -0.1500 
  7 N       -1.6710    -3.8850     0.0500 N.4   1 <1>  -0.9590 
  8 C       -2.9390    -4.0630     0.8390 C.3   1 <1>   0.3430 
  9 C       -1.0030    -5.1580    -0.3250 C.3   1 <1>   0.3430 
 10 C       -4.1530    -4.4600    -0.0340 C.3   1 <1>   0.2090 
 11 C       -1.8780    -5.9980    -1.2490 C.3   1 <1>  -0.1600 
 12 N       -4.2580    -5.9320    -0.3420 N.pl3 1 <1>  -0.8380 
 13 C       -2.9940    -6.7350    -0.5080 C.3   1 <1>   0.2090 
 14 C       -5.4260    -6.6370    -0.2370 C.ar  1 <1>   0.7710 
 15 N       -5.3600    -7.8920     0.1700 N.ar  1 <1>  -0.6200 
 16 N       -6.6030    -6.0550    -0.5510 N.ar  1 <1>  -0.1790 
 17 C       -6.4760    -8.5780     0.2650 C.ar  1 <1>   0.4100 
 18 C       -7.7770    -6.7300    -0.4470 C.ar  1 <1>   0.2110 
 19 N       -6.3470    -9.8480     0.6520 N.pl3 1 <1>  -0.8690 
 20 C       -7.7280    -8.0140    -0.0270 C.ar  1 <1>  -0.1500 
 21 C       -7.2960   -11.0150     0.4930 C.3   1 <1>   0.1030 
 22 C       -6.5990   -12.3390     0.1460 C.2   1 <1>   0.9060 
 23 O       -5.3610   -12.3900     0.2120 O.co2 1 <1>  -0.9000 
 24 O       -7.2960   -13.3010    -0.1940 O.co2 1 <1>  -0.9000 
 25 H       -2.6310     1.4780    -0.3810 H     1 <1>   0.1500 
 26 H        0.8390    -1.0480    -0.9250 H     1 <1>   0.1500 
 27 H       -0.8930    -2.9990     1.8270 H     1 <1>   0.0800 
 28 H        0.2940    -3.2820     0.5710 H     1 <1>   0.0800 
 29 H       -0.1950     1.1840    -1.4670 H     1 <1>   0.1500 
 30 H       -1.8880    -3.3720    -0.8170 H     1 <1>   0.4500 
 31 H       -3.1810    -3.1280     1.3160 H     1 <1>   0.0800 
 32 H       -2.8010    -4.7930     1.6200 H     1 <1>   0.0800 
 33 H       -0.7570    -5.7260     0.5590 H     1 <1>   0.0800 
 34 H       -0.0820    -4.9340    -0.8410 H     1 <1>   0.0800 
 35 H       -4.1310    -3.8960    -0.9510 H     1 <1>   0.0800 
 36 H       -5.0310    -4.1590     0.5110 H     1 <1>   0.0800 
 37 H       -1.2370    -6.7560    -1.6650 H     1 <1>   0.0800 
 38 H       -2.2590    -5.4300    -2.0790 H     1 <1>   0.0800 
 39 H       -2.6500    -7.0740     0.4570 H     1 <1>   0.0800 
 40 H       -3.2200    -7.6220    -1.0820 H     1 <1>   0.0800 
 41 H       -6.5620    -5.1180    -0.9320 H     1 <1>   0.4570 
 42 H       -8.7020    -6.2350    -0.7010 H     1 <1>   0.1500 
 43 H       -5.3920   -10.2430     0.7330 H     1 <1>   0.4000 
 44 H       -8.6070    -8.6200     0.0900 H     1 <1>   0.1500 
 45 H       -8.0050   -10.8180    -0.2870 H     1 <1>   0.0800 
 46 H       -7.8280   -11.1690     1.4130 H     1 <1>   0.0800 
@<TRIPOS>BOND
  1   1   2  1   
  2   1   3  1   
  3   2   4  2   
  4   2   5  1   
  5   3   6  2   
  6   3  25  1   
  7   4   6  1   
  8   4  26  1   
  9   5   7  1   
 10   5  27  1   
 11   5  28  1   
 12   6  29  1   
 13   7   8  1   
 14   7   9  1   
 15   7  30  1   
 16   8  10  1   
 17   8  31  1   
 18   8  32  1   
 19   9  11  1   
 20   9  33  1   
 21   9  34  1   
 22  10  12  1   
 23  10  35  1   
 24  10  36  1   
 25  11  13  1   
 26  11  37  1   
 27  11  38  1   
 28  12  13  1   
 29  12  14  1   
 30  13  39  1   
 31  13  40  1   
 32  14  15  ar  
 33  14  16  ar  
 34  15  17  ar  
 35  16  18  ar  
 36  16  41  1   
 37  17  19  1   
 38  17  20  ar  
 39  18  20  ar  
 40  18  42  1   
 41  19  21  1   
 42  19  43  1   
 43  20  44  1   
 44  21  22  1   
 45  21  45  1   
 46  21  46  1   
 47  22  23  ar  
 48  22  24  ar  
@<TRIPOS>SUBSTRUCTURE
  1 ****  12 GROUP 4 **** **** 0

# MOE 2024.06 (io_trps.svl 2023.06)
