@<TRIPOS>MOLECULE
NONAME
47 50 1 0 0 
SMALL
USER_CHARGES


@<TRIPOS>ATOM
  1 S       -0.0860    -0.5260     1.2090 S.3   1 <1>  -0.0800 
  2 C       -0.4960    -2.1530     0.6890 C.2   1 <1>  -0.1400 
  3 C        1.6240    -0.8220     0.9530 C.2   1 <1>  -0.1100 
  4 C        0.6210    -2.8300     0.3510 C.2   1 <1>  -0.1500 
  5 C       -1.9710    -2.5010     0.7040 C.3   1 <1>   0.3200 
  6 C        1.8260    -2.0730     0.5040 C.2   1 <1>  -0.1500 
  7 N       -2.1340    -3.9670     0.5710 N.am  1 <1>  -0.7300 
  8 C       -3.0980    -4.5590    -0.1820 C.2   1 <1>   0.5690 
  9 O       -3.9380    -3.9110    -0.7610 O.2   1 <1>  -0.5700 
 10 C       -3.1730    -6.0910    -0.3170 C.3   1 <1>   0.4040 
 11 N       -4.5380    -6.5800    -0.7520 N.4   1 <1>  -0.9590 
 12 C       -5.5550    -6.3870     0.3270 C.3   1 <1>   0.3430 
 13 C       -4.5020    -7.9670    -1.3010 C.3   1 <1>   0.3430 
 14 C       -6.9400    -6.7540    -0.1910 C.3   1 <1>  -0.1600 
 15 C       -5.8760    -8.3490    -1.8390 C.3   1 <1>  -0.1600 
 16 C       -6.9700    -8.1640    -0.7860 C.3   1 <1>   0.2820 
 17 C       -6.9430    -9.2600     0.2920 C.ar  1 <1>  -0.1430 
 18 C       -8.3320    -8.4350    -1.4050 C.2   1 <1>  -0.2880 
 19 C       -8.1200    -9.9900     0.2310 C.ar  1 <1>   0.0280 
 20 C       -5.9770    -9.5850     1.2340 C.ar  1 <1>  -0.1500 
 21 C       -8.9430    -9.4630    -0.8110 C.2   1 <1>  -0.1780 
 22 C       -8.3460   -11.0450     1.1010 C.ar  1 <1>  -0.1500 
 23 C       -6.2020   -10.6400     2.1050 C.ar  1 <1>  -0.1500 
 24 C       -7.3810   -11.3670     2.0390 C.ar  1 <1>  -0.1500 
 25 H        2.3040    -0.0160     1.1690 H     1 <1>   0.1500 
 26 H        0.6660    -3.8410    -0.0110 H     1 <1>   0.1500 
 27 H       -2.4720    -1.9850    -0.0990 H     1 <1>   0.0800 
 28 H       -2.4040    -2.1810     1.6370 H     1 <1>   0.0800 
 29 H        2.7840    -2.5030     0.2680 H     1 <1>   0.1500 
 30 H       -1.4110    -4.4870     1.0740 H     1 <1>   0.3700 
 31 H       -2.9070    -6.5400     0.6240 H     1 <1>   0.0800 
 32 H       -2.4410    -6.3850    -1.0490 H     1 <1>   0.0800 
 33 H       -4.8150    -5.9280    -1.5080 H     1 <1>   0.4500 
 34 H       -5.5620    -5.3570     0.6470 H     1 <1>   0.0800 
 35 H       -5.3150    -7.0020     1.1780 H     1 <1>   0.0800 
 36 H       -4.2130    -8.6620    -0.5310 H     1 <1>   0.0800 
 37 H       -3.7800    -8.0310    -2.0990 H     1 <1>   0.0800 
 38 H       -7.2390    -6.0370    -0.9350 H     1 <1>   0.0800 
 39 H       -7.6500    -6.6940     0.6160 H     1 <1>   0.0800 
 40 H       -5.8610    -9.3780    -2.1560 H     1 <1>   0.0800 
 41 H       -6.0970    -7.7490    -2.7040 H     1 <1>   0.0800 
 42 H       -8.6840    -7.8250    -2.2190 H     1 <1>   0.1500 
 43 H       -5.0540    -9.0470     1.3150 H     1 <1>   0.1500 
 44 H       -9.9090    -9.8830    -1.0320 H     1 <1>   0.1500 
 45 H       -9.2630   -11.6030     1.0420 H     1 <1>   0.1500 
 46 H       -5.4610   -10.9030     2.8400 H     1 <1>   0.1500 
 47 H       -7.5470   -12.1850     2.7190 H     1 <1>   0.1500 
@<TRIPOS>BOND
  1   1   2  1   
  2   1   3  1   
  3   2   4  2   
  4   2   5  1   
  5   3   6  2   
  6   3  25  1   
  7   4   6  1   
  8   4  26  1   
  9   5   7  1   
 10   5  27  1   
 11   5  28  1   
 12   6  29  1   
 13   7   8  am  
 14   7  30  1   
 15   8   9  2   
 16   8  10  1   
 17  10  11  1   
 18  10  31  1   
 19  10  32  1   
 20  11  12  1   
 21  11  13  1   
 22  11  33  1   
 23  12  14  1   
 24  12  34  1   
 25  12  35  1   
 26  13  15  1   
 27  13  36  1   
 28  13  37  1   
 29  14  16  1   
 30  14  38  1   
 31  14  39  1   
 32  15  16  1   
 33  15  40  1   
 34  15  41  1   
 35  16  17  1   
 36  16  18  1   
 37  17  19  ar  
 38  17  20  ar  
 39  18  21  2   
 40  18  42  1   
 41  19  21  1   
 42  19  22  ar  
 43  20  23  ar  
 44  20  43  1   
 45  21  44  1   
 46  22  24  ar  
 47  22  45  1   
 48  23  24  ar  
 49  23  46  1   
 50  24  47  1   
@<TRIPOS>SUBSTRUCTURE
  1 ****  11 GROUP 4 **** **** 0

# MOE 2024.06 (io_trps.svl 2023.06)
