@<TRIPOS>MOLECULE
NONAME
50 54 1 0 0 
SMALL
USER_CHARGES


@<TRIPOS>ATOM
  1 O       -1.0470     1.0720     1.0430 O.2   1 <1>  -0.5700 
  2 C       -0.9960     1.9720     0.2110 C.2   1 <1>   0.4690 
  3 C       -2.0460     2.1670    -0.7370 C.2   1 <1>   0.0290 
  4 C        0.1320     2.8750     0.2020 C.ar  1 <1>   0.0860 
  5 C       -3.1840     1.2980    -0.7550 C.2   1 <1>   0.6160 
  6 C       -1.9410     3.1880    -1.6420 C.2   1 <1>  -0.0500 
  7 C        0.1680     3.9180    -0.7330 C.ar  1 <1>   0.1000 
  8 C        1.2010     2.7600     1.0990 C.ar  1 <1>  -0.1500 
  9 O       -3.3450     0.5780    -1.7270 O.2   1 <1>  -0.5700 
 10 N       -4.1650     1.3100     0.2230 N.am  1 <1>  -0.6600 
 11 N       -0.8790     4.0380    -1.6390 N.pl3 1 <1>  -0.6000 
 12 C        1.2410     4.8210    -0.7550 C.ar  1 <1>   0.0830 
 13 C        2.2570     3.6440     1.0760 C.ar  1 <1>  -0.1500 
 14 C       -4.0550     2.0500     1.5180 C.3   1 <1>   0.1400 
 15 C       -5.5470     0.8410    -0.0780 C.3   1 <1>   0.1400 
 16 O        1.1960     5.8130    -1.6910 O.3   1 <1>  -0.3620 
 17 C        2.2800     4.6780     0.1500 C.ar  1 <1>  -0.1500 
 18 C       -5.0690     3.2060     1.5840 C.3   1 <1>   0.0580 
 19 C       -6.5370     2.0210    -0.0180 C.3   1 <1>  -0.0800 
 20 C        2.2540     6.7360    -1.8330 C.3   1 <1>   0.0400 
 21 C       -4.7180     4.2500     0.5250 C.2   1 <1>  -0.0290 
 22 C       -6.4930     2.6820     1.3650 C.3   1 <1>  -0.1600 
 23 C       -6.2510     3.0640    -1.1210 C.3   1 <1>   0.1400 
 24 N       -5.2560     4.1280    -0.7540 N.am  1 <1>  -0.4690 
 25 C       -3.8750     5.2770     0.8250 C.2   1 <1>  -0.1500 
 26 C       -4.9240     5.0500    -1.7360 C.2   1 <1>   0.6160 
 27 C       -3.5230     6.2350    -0.1540 C.2   1 <1>  -0.1500 
 28 O       -5.3790     4.9490    -2.8700 O.2   1 <1>  -0.5700 
 29 C       -4.0420     6.1130    -1.4030 C.2   1 <1>  -0.1360 
 30 H       -2.7100     3.3390    -2.3840 H     1 <1>   0.1500 
 31 H        1.1890     1.9590     1.8200 H     1 <1>   0.1500 
 32 H       -0.7930     4.8070    -2.3200 H     1 <1>   0.4000 
 33 H        3.0690     3.5350     1.7750 H     1 <1>   0.1500 
 34 H       -4.2420     1.3590     2.3220 H     1 <1>   0.0800 
 35 H       -3.0690     2.4460     1.6580 H     1 <1>   0.0800 
 36 H       -5.5940     0.3810    -1.0500 H     1 <1>   0.0800 
 37 H       -5.8220     0.0950     0.6470 H     1 <1>   0.0800 
 38 H        3.1180     5.3490     0.1610 H     1 <1>   0.1500 
 39 H       -5.0070     3.6570     2.5580 H     1 <1>   0.0800 
 40 H       -7.5210     1.6220    -0.1890 H     1 <1>   0.0800 
 41 H        2.0110     7.4030    -2.6400 H     1 <1>   0.0800 
 42 H        3.1580     6.2000    -2.0630 H     1 <1>   0.0800 
 43 H        2.3580     7.2930    -0.9190 H     1 <1>   0.0800 
 44 H       -6.7480     1.9680     2.1290 H     1 <1>   0.0800 
 45 H       -7.1950     3.4970     1.4120 H     1 <1>   0.0800 
 46 H       -7.1730     3.5610    -1.3670 H     1 <1>   0.0800 
 47 H       -5.9110     2.5620    -2.0120 H     1 <1>   0.0800 
 48 H       -3.4470     5.3880     1.8060 H     1 <1>   0.1500 
 49 H       -2.8510     7.0320     0.1130 H     1 <1>   0.1500 
 50 H       -3.8140     6.8050    -2.1900 H     1 <1>   0.1500 
@<TRIPOS>BOND
  1   1   2  2   
  2   2   3  1   
  3   2   4  1   
  4   3   5  1   
  5   3   6  2   
  6   4   7  ar  
  7   4   8  ar  
  8   5   9  2   
  9   5  10  am  
 10   6  11  1   
 11   6  30  1   
 12   7  11  1   
 13   7  12  ar  
 14   8  13  ar  
 15   8  31  1   
 16  10  14  1   
 17  10  15  1   
 18  11  32  1   
 19  12  16  1   
 20  12  17  ar  
 21  13  17  ar  
 22  13  33  1   
 23  14  18  1   
 24  14  34  1   
 25  14  35  1   
 26  15  19  1   
 27  15  36  1   
 28  15  37  1   
 29  16  20  1   
 30  17  38  1   
 31  18  21  1   
 32  18  22  1   
 33  18  39  1   
 34  19  22  1   
 35  19  23  1   
 36  19  40  1   
 37  20  41  1   
 38  20  42  1   
 39  20  43  1   
 40  21  24  1   
 41  21  25  2   
 42  22  44  1   
 43  22  45  1   
 44  23  24  1   
 45  23  46  1   
 46  23  47  1   
 47  24  26  am  
 48  25  27  1   
 49  25  48  1   
 50  26  28  2   
 51  26  29  1   
 52  27  29  2   
 53  27  49  1   
 54  29  50  1   
@<TRIPOS>SUBSTRUCTURE
  1 ****   3 GROUP 4 **** **** 0

# MOE 2024.06 (io_trps.svl 2023.06)
