@<TRIPOS>MOLECULE
NONAME
45 47 1 0 0 
SMALL
USER_CHARGES


@<TRIPOS>ATOM
  1 F       -1.0990    -1.0630     1.6400 F     1 <1>  -0.1900 
  2 C       -1.8430    -1.3630     0.6100 C.ar  1 <1>   0.1900 
  3 C       -2.1760    -0.3790    -0.3040 C.ar  1 <1>   0.1600 
  4 C       -2.2820    -2.6570     0.4610 C.ar  1 <1>  -0.1500 
  5 N       -2.9260    -0.6090    -1.3730 N.ar  1 <1>  -0.6200 
  6 C       -3.0780    -2.9250    -0.6480 C.ar  1 <1>   0.0860 
  7 C       -3.3420    -1.8620    -1.5190 C.ar  1 <1>   0.1600 
  8 C       -3.6260    -4.2410    -0.9110 C.2   1 <1>   0.5440 
  9 O       -3.9640    -4.5630    -2.0320 O.2   1 <1>  -0.5700 
 10 N       -3.8490    -5.1550     0.0920 N.am  1 <1>  -0.6600 
 11 C       -4.7710    -4.8220     1.2200 C.3   1 <1>   0.1400 
 12 C       -3.8180    -6.6100    -0.2380 C.3   1 <1>   0.1400 
 13 C       -6.2020    -5.3620     0.9640 C.3   1 <1>   0.4230 
 14 C       -5.2380    -7.1130    -0.5520 C.3   1 <1>   0.3430 
 15 N       -6.2030    -6.8350     0.5820 N.4   1 <1>  -0.9590 
 16 C       -6.9320    -4.5150    -0.1050 C.3   1 <1>   0.1200 
 17 C       -7.6150    -7.2690     0.2810 C.3   1 <1>   0.4230 
 18 O       -8.2270    -5.0020    -0.3010 O.3   1 <1>  -0.5600 
 19 C       -8.2930    -6.3270    -0.7440 C.3   1 <1>   0.1200 
 20 C       -7.6500    -8.7450    -0.1480 C.3   1 <1>  -0.1600 
 21 C       -9.0680    -9.3370    -0.0920 C.3   1 <1>  -0.1600 
 22 C       -9.0500   -10.8270    -0.4440 C.3   1 <1>  -0.2400 
 23 H       -1.8130     0.6220    -0.1480 H     1 <1>   0.1500 
 24 H       -2.0100    -3.4170     1.1700 H     1 <1>   0.1500 
 25 H       -3.9400    -2.0650    -2.3930 H     1 <1>   0.1500 
 26 H       -4.3830    -5.2500     2.1280 H     1 <1>   0.0800 
 27 H       -4.8130    -3.7550     1.3610 H     1 <1>   0.0800 
 28 H       -3.1860    -6.7750    -1.0950 H     1 <1>   0.0800 
 29 H       -3.3990    -7.1620     0.5860 H     1 <1>   0.0800 
 30 H       -6.7580    -5.2410     1.8790 H     1 <1>   0.0800 
 31 H       -5.1940    -8.1700    -0.7510 H     1 <1>   0.0800 
 32 H       -5.5750    -6.6210    -1.4500 H     1 <1>   0.0800 
 33 H       -5.8870    -7.3690     1.3990 H     1 <1>   0.4500 
 34 H       -6.4140    -4.5260    -1.0490 H     1 <1>   0.0800 
 35 H       -7.0180    -3.4930     0.2220 H     1 <1>   0.0800 
 36 H       -8.1870    -7.1920     1.1910 H     1 <1>   0.0800 
 37 H       -9.3350    -6.5750    -0.8490 H     1 <1>   0.0800 
 38 H       -7.8290    -6.3950    -1.7130 H     1 <1>   0.0800 
 39 H       -7.2770    -8.8520    -1.1510 H     1 <1>   0.0800 
 40 H       -7.0270    -9.3200     0.5150 H     1 <1>   0.0800 
 41 H       -9.4800    -9.2200     0.8970 H     1 <1>   0.0800 
 42 H       -9.7180    -8.8320    -0.7860 H     1 <1>   0.0800 
 43 H       -8.4380   -11.3780     0.2490 H     1 <1>   0.0800 
 44 H       -8.6690   -10.9800    -1.4390 H     1 <1>   0.0800 
 45 H      -10.0490   -11.2260    -0.4010 H     1 <1>   0.0800 
@<TRIPOS>BOND
  1   1   2  1   
  2   2   3  ar  
  3   2   4  ar  
  4   3   5  ar  
  5   3  23  1   
  6   4   6  ar  
  7   4  24  1   
  8   5   7  ar  
  9   6   7  ar  
 10   6   8  1   
 11   7  25  1   
 12   8   9  2   
 13   8  10  am  
 14  10  11  1   
 15  10  12  1   
 16  11  13  1   
 17  11  26  1   
 18  11  27  1   
 19  12  14  1   
 20  12  28  1   
 21  12  29  1   
 22  13  15  1   
 23  13  16  1   
 24  13  30  1   
 25  14  15  1   
 26  14  31  1   
 27  14  32  1   
 28  15  17  1   
 29  15  33  1   
 30  16  18  1   
 31  16  34  1   
 32  16  35  1   
 33  17  19  1   
 34  17  20  1   
 35  17  36  1   
 36  18  19  1   
 37  19  37  1   
 38  19  38  1   
 39  20  21  1   
 40  20  39  1   
 41  20  40  1   
 42  21  22  1   
 43  21  41  1   
 44  21  42  1   
 45  22  43  1   
 46  22  44  1   
 47  22  45  1   
@<TRIPOS>SUBSTRUCTURE
  1 ****  10 GROUP 4 **** **** 0

# MOE 2024.06 (io_trps.svl 2023.06)
