@<TRIPOS>MOLECULE
NONAME
44 46 1 0 0 
SMALL
USER_CHARGES


@<TRIPOS>ATOM
  1 CL      -1.5210     0.9790    -0.1640 Cl    1 <1>  -0.1770 
  2 C       -2.6590    -0.3390    -0.0530 C.ar  1 <1>   0.1770 
  3 C       -2.7500    -1.2440    -1.0920 C.ar  1 <1>  -0.1500 
  4 C       -3.4530    -0.4540     1.0750 C.ar  1 <1>  -0.1500 
  5 C       -3.6630    -2.2720    -0.9690 C.ar  1 <1>   0.1900 
  6 C       -4.3650    -1.4950     1.1730 C.ar  1 <1>  -0.1500 
  7 F       -3.7440    -3.1380    -1.9430 F     1 <1>  -0.1900 
  8 C       -4.4810    -2.4200     0.1430 C.ar  1 <1>  -0.1440 
  9 C       -5.4950    -3.5590     0.2340 C.3   1 <1>   0.0890 
 10 S       -7.1020    -3.2050    -0.5010 S.o2  1 <1>   1.3330 
 11 O       -6.9410    -2.8410    -1.8920 O.2   1 <1>  -0.6500 
 12 O       -7.9560    -4.3220    -0.1590 O.2   1 <1>  -0.6500 
 13 N       -7.6490    -1.8400     0.3540 N.am  1 <1>  -0.8490 
 14 C       -9.0130    -1.8940     0.9190 C.3   1 <1>   0.1960 
 15 C       -7.2980    -0.5340    -0.2170 C.3   1 <1>   0.1960 
 16 C      -10.1440    -1.3840    -0.0180 C.3   1 <1>   0.0000 
 17 C       -8.3520    -0.0380    -1.2120 C.3   1 <1>  -0.1600 
 18 C      -11.4540    -1.3610     0.8010 C.3   1 <1>   0.2000 
 19 C       -9.7480     0.0010    -0.5780 C.3   1 <1>  -0.1600 
 20 C      -10.4870    -2.3850    -1.1400 C.3   1 <1>  -0.1600 
 21 O      -12.4060    -0.5750     0.1740 O.3   1 <1>  -0.6800 
 22 C      -11.9710    -2.8000     0.7730 C.3   1 <1>  -0.1600 
 23 C      -11.4090    -3.4340    -0.5070 C.3   1 <1>  -0.1600 
 24 H       -2.1310    -1.1520    -1.9650 H     1 <1>   0.1500 
 25 H       -3.3560     0.2670     1.8670 H     1 <1>   0.1500 
 26 H       -4.9860    -1.5760     2.0510 H     1 <1>   0.1500 
 27 H       -5.6410    -3.8060     1.2670 H     1 <1>   0.0800 
 28 H       -5.0870    -4.4310    -0.2390 H     1 <1>   0.0800 
 29 H       -9.2320    -2.8900     1.2630 H     1 <1>   0.0800 
 30 H       -9.0130    -1.2670     1.7940 H     1 <1>   0.0800 
 31 H       -7.2180     0.1790     0.5860 H     1 <1>   0.0800 
 32 H       -6.3390    -0.5840    -0.7050 H     1 <1>   0.0800 
 33 H       -8.0830     0.9500    -1.5410 H     1 <1>   0.0800 
 34 H       -8.3560    -0.6720    -2.0810 H     1 <1>   0.0800 
 35 H      -11.3240    -0.9840     1.8010 H     1 <1>   0.0800 
 36 H      -10.4610     0.3350    -1.3120 H     1 <1>   0.0800 
 37 H       -9.7500     0.7190     0.2240 H     1 <1>   0.0800 
 38 H      -11.0320    -1.8790    -1.9180 H     1 <1>   0.0800 
 39 H       -9.6270    -2.8340    -1.5960 H     1 <1>   0.0800 
 40 H      -12.5660    -0.9330    -0.7190 H     1 <1>   0.4000 
 41 H      -11.5790    -3.3300     1.6230 H     1 <1>   0.0800 
 42 H      -13.0460    -2.8450     0.8160 H     1 <1>   0.0800 
 43 H      -10.8420    -4.3170    -0.2610 H     1 <1>   0.0800 
 44 H      -12.1960    -3.7090    -1.1880 H     1 <1>   0.0800 
@<TRIPOS>BOND
  1   1   2  1   
  2   2   3  ar  
  3   2   4  ar  
  4   3   5  ar  
  5   3  24  1   
  6   4   6  ar  
  7   4  25  1   
  8   5   7  1   
  9   5   8  ar  
 10   6   8  ar  
 11   6  26  1   
 12   8   9  1   
 13   9  10  1   
 14   9  27  1   
 15   9  28  1   
 16  10  11  2   
 17  10  12  2   
 18  10  13  am  
 19  13  14  1   
 20  13  15  1   
 21  14  16  1   
 22  14  29  1   
 23  14  30  1   
 24  15  17  1   
 25  15  31  1   
 26  15  32  1   
 27  16  18  1   
 28  16  19  1   
 29  16  20  1   
 30  17  19  1   
 31  17  33  1   
 32  17  34  1   
 33  18  21  1   
 34  18  22  1   
 35  18  35  1   
 36  19  36  1   
 37  19  37  1   
 38  20  23  1   
 39  20  38  1   
 40  20  39  1   
 41  21  40  1   
 42  22  23  1   
 43  22  41  1   
 44  22  42  1   
 45  23  43  1   
 46  23  44  1   
@<TRIPOS>SUBSTRUCTURE
  1 ****  13 GROUP 4 **** **** 0

# MOE 2024.06 (io_trps.svl 2023.06)
