@<TRIPOS>MOLECULE
NONAME
55 58 1 0 0 
SMALL
USER_CHARGES


@<TRIPOS>ATOM
  1 N        0.0240    -0.3090     0.8260 N.ar  1 <1>  -0.1790 
  2 C        0.0100    -1.6250     1.0670 C.ar  1 <1>   0.4610 
  3 C        1.1250     0.4150     0.4090 C.ar  1 <1>   0.3610 
  4 N       -1.1480    -2.2370     1.4380 N.pl3 1 <1>  -0.8380 
  5 C        1.2540    -2.2960     0.9070 C.ar  1 <1>  -0.1500 
  6 C        2.3500    -0.2570     0.2230 C.ar  1 <1>   0.0000 
  7 C        1.0220     1.7910     0.1690 C.ar  1 <1>  -0.1500 
  8 C       -1.2460    -3.7290     1.6010 C.3   1 <1>   0.2090 
  9 C       -2.3490    -1.4860     1.9350 C.3   1 <1>   0.2090 
 10 C        2.3860    -1.6580     0.4980 C.ar  1 <1>  -0.1430 
 11 C        3.4560     0.4940    -0.2140 C.ar  1 <1>  -0.1500 
 12 C        2.1250     2.4860    -0.2550 C.ar  1 <1>  -0.1430 
 13 C       -2.6200    -4.3190     1.2590 C.3   1 <1>  -0.1600 
 14 C       -3.3160    -1.2360     0.7720 C.3   1 <1>  -0.1600 
 15 C        3.6920    -2.4280     0.3440 C.3   1 <1>  -0.0970 
 16 C        3.3290     1.8400    -0.4450 C.ar  1 <1>  -0.1430 
 17 C        2.2440     3.9580    -0.5750 C.3   1 <1>  -0.0170 
 18 C       -3.2400    -3.7060    -0.0090 C.3   1 <1>   0.4230 
 19 C       -4.1060    -2.4770     0.3190 C.3   1 <1>  -0.1600 
 20 C        4.3930     2.8020    -0.9150 C.3   1 <1>  -0.0170 
 21 C        3.5930     4.0550    -1.3070 C.3   1 <1>  -0.1600 
 22 N       -4.0860    -4.6930    -0.7530 N.4   1 <1>  -0.9590 
 23 C       -5.1410    -5.3670     0.0770 C.3   1 <1>   0.2630 
 24 C       -3.2620    -5.7120    -1.4800 C.3   1 <1>   0.2630 
 25 H       -0.8460     0.1950     0.9360 H     1 <1>   0.4570 
 26 H        1.3090    -3.3420     1.1330 H     1 <1>   0.1500 
 27 H        0.0920     2.3110     0.3110 H     1 <1>   0.1500 
 28 H       -0.9860    -3.9930     2.6140 H     1 <1>   0.0800 
 29 H       -0.5380    -4.2090     0.9480 H     1 <1>   0.0800 
 30 H       -2.0470    -0.5450     2.3640 H     1 <1>   0.0800 
 31 H       -2.8390    -2.0300     2.7260 H     1 <1>   0.0800 
 32 H        4.4100     0.0220    -0.3720 H     1 <1>   0.1500 
 33 H       -3.2780    -4.1970     2.1010 H     1 <1>   0.0800 
 34 H       -2.4730    -5.3760     1.1350 H     1 <1>   0.0800 
 35 H       -2.7790    -0.8240    -0.0650 H     1 <1>   0.0800 
 36 H       -4.0290    -0.4910     1.0850 H     1 <1>   0.0800 
 37 H        3.5690    -3.4660     0.6000 H     1 <1>   0.0800 
 38 H        4.4460    -2.0140     0.9900 H     1 <1>   0.0800 
 39 H        4.0380    -2.3750    -0.6740 H     1 <1>   0.0800 
 40 H        2.2730     4.5260     0.3390 H     1 <1>   0.0800 
 41 H        1.4350     4.3040    -1.1950 H     1 <1>   0.0800 
 42 H       -2.4410    -3.3890    -0.6610 H     1 <1>   0.0800 
 43 H       -4.6660    -2.1950    -0.5560 H     1 <1>   0.0800 
 44 H       -4.8140    -2.7270     1.0900 H     1 <1>   0.0800 
 45 H        4.9470     2.4100    -1.7500 H     1 <1>   0.0800 
 46 H        5.0640     3.0220    -0.1030 H     1 <1>   0.0800 
 47 H        4.1200     4.9610    -1.0610 H     1 <1>   0.0800 
 48 H        3.4140     4.0330    -2.3680 H     1 <1>   0.0800 
 49 H       -4.5820    -4.1510    -1.4780 H     1 <1>   0.4500 
 50 H       -4.6890    -5.9680     0.8490 H     1 <1>   0.0800 
 51 H       -5.7510    -6.0070    -0.5410 H     1 <1>   0.0800 
 52 H       -5.7820    -4.6350     0.5420 H     1 <1>   0.0800 
 53 H       -2.7330    -6.3400    -0.7820 H     1 <1>   0.0800 
 54 H       -2.5450    -5.2280    -2.1220 H     1 <1>   0.0800 
 55 H       -3.8950    -6.3380    -2.0890 H     1 <1>   0.0800 
@<TRIPOS>BOND
  1   1   2  ar  
  2   1   3  ar  
  3   1  25  1   
  4   2   4  1   
  5   2   5  ar  
  6   3   6  ar  
  7   3   7  ar  
  8   4   8  1   
  9   4   9  1   
 10   5  10  ar  
 11   5  26  1   
 12   6  10  ar  
 13   6  11  ar  
 14   7  12  ar  
 15   7  27  1   
 16   8  13  1   
 17   8  28  1   
 18   8  29  1   
 19   9  14  1   
 20   9  30  1   
 21   9  31  1   
 22  10  15  1   
 23  11  16  ar  
 24  11  32  1   
 25  12  16  ar  
 26  12  17  1   
 27  13  18  1   
 28  13  33  1   
 29  13  34  1   
 30  14  19  1   
 31  14  35  1   
 32  14  36  1   
 33  15  37  1   
 34  15  38  1   
 35  15  39  1   
 36  16  20  1   
 37  17  21  1   
 38  17  40  1   
 39  17  41  1   
 40  18  19  1   
 41  18  22  1   
 42  18  42  1   
 43  19  43  1   
 44  19  44  1   
 45  20  21  1   
 46  20  45  1   
 47  20  46  1   
 48  21  47  1   
 49  21  48  1   
 50  22  23  1   
 51  22  24  1   
 52  22  49  1   
 53  23  50  1   
 54  23  51  1   
 55  23  52  1   
 56  24  53  1   
 57  24  54  1   
 58  24  55  1   
@<TRIPOS>SUBSTRUCTURE
  1 ****   1 GROUP 4 **** **** 0

# MOE 2024.06 (io_trps.svl 2023.06)
