@<TRIPOS>MOLECULE
NONAME
59 62 1 0 0 
SMALL
USER_CHARGES


@<TRIPOS>ATOM
  1 O        1.8070    -1.4970     2.5430 O.2   1 <1>  -0.5700 
  2 C        1.4880    -2.1130     1.5380 C.2   1 <1>   0.5440 
  3 N        0.7540    -1.4250     0.5860 N.am  1 <1>  -0.6600 
  4 C        1.9240    -3.5050     1.4010 C.ar  1 <1>   0.3960 
  5 C        0.3440    -1.9380    -0.7420 C.3   1 <1>   0.1400 
  6 C        0.4170     0.0100     0.7200 C.3   1 <1>   0.1400 
  7 N        1.1910    -4.4050     0.7190 N.ar  1 <1>  -0.6200 
  8 C        3.1260    -3.8710     2.0190 C.ar  1 <1>   0.1600 
  9 C       -0.3820    -0.7770    -1.4140 C.3   1 <1>  -0.1600 
 10 C        0.1270     0.4730    -0.7010 C.3   1 <1>  -0.1600 
 11 C        1.7160    -5.6090     0.7040 C.ar  1 <1>   0.4100 
 12 N        3.6730    -5.0800     2.0010 N.ar  1 <1>  -0.6200 
 13 N        0.9540    -6.5250     0.0350 N.pl3 1 <1>  -0.8690 
 14 C        2.9330    -5.9310     1.3210 C.ar  1 <1>   0.1600 
 15 C        0.1410    -7.4580     0.8440 C.3   1 <1>   0.2090 
 16 C       -0.9990    -8.0460    -0.0060 C.3   1 <1>   0.2000 
 17 O       -1.6620    -6.9960    -0.6590 O.3   1 <1>  -0.5600 
 18 C       -2.0200    -8.7930     0.8760 C.3   1 <1>   0.3430 
 19 C       -2.0190    -7.2190    -1.9840 C.3   1 <1>   0.1200 
 20 N       -3.1460    -9.4600     0.1270 N.4   1 <1>  -0.9590 
 21 C       -3.0570    -8.3430    -2.0940 C.3   1 <1>  -0.1600 
 22 C       -3.8760    -8.5550    -0.8200 C.3   1 <1>   0.3430 
 23 C       -4.0970   -10.0980     1.0780 C.3   1 <1>   0.4860 
 24 C       -4.9890   -11.0460     0.3020 C.ar  1 <1>  -0.1440 
 25 C       -4.4870   -12.2500    -0.1750 C.ar  1 <1>  -0.1500 
 26 C       -6.3150   -10.7150     0.0590 C.ar  1 <1>  -0.1500 
 27 C       -5.2990   -13.1040    -0.9010 C.ar  1 <1>  -0.1500 
 28 C       -7.1240   -11.5700    -0.6680 C.ar  1 <1>  -0.1500 
 29 C       -6.6160   -12.7630    -1.1490 C.ar  1 <1>  -0.1500 
 30 H       -0.3090    -2.7870    -0.6400 H     1 <1>   0.0800 
 31 H        1.2200    -2.2150    -1.3030 H     1 <1>   0.0800 
 32 H        1.2300     0.5630     1.1600 H     1 <1>   0.0800 
 33 H       -0.4600     0.1050     1.3380 H     1 <1>   0.0800 
 34 H        3.6650    -3.1110     2.5590 H     1 <1>   0.1500 
 35 H       -1.4390    -0.8850    -1.2460 H     1 <1>   0.0800 
 36 H       -0.1970    -0.7490    -2.4730 H     1 <1>   0.0800 
 37 H        1.0460     0.8030    -1.1530 H     1 <1>   0.0800 
 38 H       -0.5850     1.2780    -0.7220 H     1 <1>   0.0800 
 39 H        0.3050    -6.0120    -0.5780 H     1 <1>   0.4000 
 40 H        3.2860    -6.9410     1.2320 H     1 <1>   0.1500 
 41 H       -0.2710    -6.9260     1.6860 H     1 <1>   0.0800 
 42 H        0.7710    -8.2480     1.2170 H     1 <1>   0.0800 
 43 H       -0.5660    -8.7130    -0.7310 H     1 <1>   0.0800 
 44 H       -2.4290    -8.0800     1.5740 H     1 <1>   0.0800 
 45 H       -1.4900    -9.5370     1.4470 H     1 <1>   0.0800 
 46 H       -1.1330    -7.4350    -2.5610 H     1 <1>   0.0800 
 47 H       -2.4400    -6.2970    -2.3490 H     1 <1>   0.0800 
 48 H       -2.7730   -10.2280    -0.4450 H     1 <1>   0.4500 
 49 H       -2.5850    -9.2600    -2.3990 H     1 <1>   0.0800 
 50 H       -3.7310    -8.0750    -2.8880 H     1 <1>   0.0800 
 51 H       -4.0900    -7.6070    -0.3530 H     1 <1>   0.0800 
 52 H       -4.8120    -9.0110    -1.1020 H     1 <1>   0.0800 
 53 H       -4.6930    -9.3490     1.5740 H     1 <1>   0.0800 
 54 H       -3.5600   -10.6590     1.8260 H     1 <1>   0.0800 
 55 H       -3.4690   -12.5460     0.0130 H     1 <1>   0.1500 
 56 H       -6.7360    -9.7950     0.4280 H     1 <1>   0.1500 
 57 H       -4.9130   -14.0380    -1.2710 H     1 <1>   0.1500 
 58 H       -8.1530   -11.3130    -0.8580 H     1 <1>   0.1500 
 59 H       -7.2480   -13.4280    -1.7130 H     1 <1>   0.1500 
@<TRIPOS>BOND
  1   1   2  2   
  2   2   3  am  
  3   2   4  1   
  4   3   5  1   
  5   3   6  1   
  6   4   7  ar  
  7   4   8  ar  
  8   5   9  1   
  9   5  30  1   
 10   5  31  1   
 11   6  10  1   
 12   6  32  1   
 13   6  33  1   
 14   7  11  ar  
 15   8  12  ar  
 16   8  34  1   
 17   9  10  1   
 18   9  35  1   
 19   9  36  1   
 20  10  37  1   
 21  10  38  1   
 22  11  13  1   
 23  11  14  ar  
 24  12  14  ar  
 25  13  15  1   
 26  13  39  1   
 27  14  40  1   
 28  15  16  1   
 29  15  41  1   
 30  15  42  1   
 31  16  17  1   
 32  16  18  1   
 33  16  43  1   
 34  17  19  1   
 35  18  20  1   
 36  18  44  1   
 37  18  45  1   
 38  19  21  1   
 39  19  46  1   
 40  19  47  1   
 41  20  22  1   
 42  20  23  1   
 43  20  48  1   
 44  21  22  1   
 45  21  49  1   
 46  21  50  1   
 47  22  51  1   
 48  22  52  1   
 49  23  24  1   
 50  23  53  1   
 51  23  54  1   
 52  24  25  ar  
 53  24  26  ar  
 54  25  27  ar  
 55  25  55  1   
 56  26  28  ar  
 57  26  56  1   
 58  27  29  ar  
 59  27  57  1   
 60  28  29  ar  
 61  28  58  1   
 62  29  59  1   
@<TRIPOS>SUBSTRUCTURE
  1 ****  17 GROUP 4 **** **** 0

# MOE 2024.06 (io_trps.svl 2023.06)
