@<TRIPOS>MOLECULE
NONAME
51 54 1 0 0 
SMALL
USER_CHARGES


@<TRIPOS>ATOM
  1 O       -0.3970     0.6250    -1.8290 O.2   1 <1>  -0.5700 
  2 C       -0.2920     1.6870    -1.2610 C.2   1 <1>   0.5690 
  3 N       -1.2910     2.2090    -0.4790 N.am  1 <1>  -0.6600 
  4 C        1.0160     2.4570    -1.4550 C.3   1 <1>   0.1810 
  5 C       -1.1340     3.5820     0.1330 C.3   1 <1>   0.3640 
  6 C       -2.4240     1.3260    -0.0530 C.3   1 <1>   0.2200 
  7 O        1.2500     3.4050    -0.4440 O.3   1 <1>  -0.5600 
  8 C       -2.2960     4.4990    -0.2520 C.ar  1 <1>  -0.1440 
  9 C        0.1770     4.3060    -0.2710 C.3   1 <1>   0.2610 
 10 C       -3.6730     1.5900    -0.8920 C.3   1 <1>  -0.2400 
 11 C       -2.7250     1.4400     1.4430 C.3   1 <1>  -0.2400 
 12 C       -2.6920     4.6410    -1.5760 C.ar  1 <1>  -0.1500 
 13 C       -2.9540     5.2280     0.7290 C.ar  1 <1>  -0.1500 
 14 C        0.5510     5.4060     0.7320 C.2   1 <1>   0.5690 
 15 C       -3.7280     5.4940    -1.9130 C.ar  1 <1>  -0.1500 
 16 C       -3.9910     6.0800     0.3930 C.ar  1 <1>  -0.1500 
 17 O        0.1470     5.3660     1.8730 O.2   1 <1>  -0.5700 
 18 N        1.3450     6.4310     0.3130 N.am  1 <1>  -0.5100 
 19 C       -4.3780     6.2140    -0.9280 C.ar  1 <1>  -0.1500 
 20 C        2.1470     7.3350     1.2040 C.3   1 <1>   0.2250 
 21 C        2.4800     6.3580    -0.6680 C.3   1 <1>   0.2250 
 22 C        3.0320     7.6530    -0.0260 C.3   1 <1>   0.2250 
 23 N        2.6880     8.9010    -0.7470 N.am  1 <1>  -0.6550 
 24 C        4.5510     7.7450     0.2020 C.3   1 <1>   0.1400 
 25 C        3.7690     9.6870    -0.8370 C.2   1 <1>   0.6900 
 26 N        4.8740     9.0510    -0.4140 N.am  1 <1>  -0.7300 
 27 O        3.7380    10.8520    -1.1600 O.2   1 <1>  -0.5700 
 28 H        1.0000     2.9600    -2.4040 H     1 <1>   0.0800 
 29 H        1.8360     1.7620    -1.4460 H     1 <1>   0.0800 
 30 H       -1.1220     3.4580     1.2000 H     1 <1>   0.0800 
 31 H       -2.1360     0.3020    -0.2310 H     1 <1>   0.0800 
 32 H        0.0200     4.7880    -1.2180 H     1 <1>   0.0800 
 33 H       -4.1210     2.5330    -0.6400 H     1 <1>   0.0800 
 34 H       -4.3990     0.8200    -0.7060 H     1 <1>   0.0800 
 35 H       -3.4250     1.5730    -1.9380 H     1 <1>   0.0800 
 36 H       -3.1430     2.4000     1.6850 H     1 <1>   0.0800 
 37 H       -1.8310     1.2740     2.0150 H     1 <1>   0.0800 
 38 H       -3.4430     0.6900     1.7200 H     1 <1>   0.0800 
 39 H       -2.2000     4.0790    -2.3520 H     1 <1>   0.1500 
 40 H       -2.6570     5.1420     1.7610 H     1 <1>   0.1500 
 41 H       -4.0310     5.5940    -2.9410 H     1 <1>   0.1500 
 42 H       -4.4950     6.6410     1.1620 H     1 <1>   0.1500 
 43 H       -5.1850     6.8770    -1.1880 H     1 <1>   0.1500 
 44 H        1.5730     8.1710     1.5630 H     1 <1>   0.0000 
 45 H        2.6490     6.7730     1.9720 H     1 <1>   0.0000 
 46 H        3.0880     5.4880    -0.4900 H     1 <1>   0.0000 
 47 H        2.1500     6.4720    -1.6850 H     1 <1>   0.0000 
 48 H        1.7630     9.3240    -0.6790 H     1 <1>   0.3700 
 49 H        5.0760     6.9500    -0.2990 H     1 <1>   0.0800 
 50 H        4.7930     7.7470     1.2510 H     1 <1>   0.0800 
 51 H        5.7070     9.5930    -0.1790 H     1 <1>   0.3700 
@<TRIPOS>BOND
  1   1   2  2   
  2   2   3  am  
  3   2   4  1   
  4   3   5  1   
  5   3   6  1   
  6   4   7  1   
  7   4  28  1   
  8   4  29  1   
  9   5   8  1   
 10   5   9  1   
 11   5  30  1   
 12   6  10  1   
 13   6  11  1   
 14   6  31  1   
 15   7   9  1   
 16   8  12  ar  
 17   8  13  ar  
 18   9  14  1   
 19   9  32  1   
 20  10  33  1   
 21  10  34  1   
 22  10  35  1   
 23  11  36  1   
 24  11  37  1   
 25  11  38  1   
 26  12  15  ar  
 27  12  39  1   
 28  13  16  ar  
 29  13  40  1   
 30  14  17  2   
 31  14  18  am  
 32  15  19  ar  
 33  15  41  1   
 34  16  19  ar  
 35  16  42  1   
 36  18  20  1   
 37  18  21  1   
 38  19  43  1   
 39  20  22  1   
 40  20  44  1   
 41  20  45  1   
 42  21  22  1   
 43  21  46  1   
 44  21  47  1   
 45  22  23  1   
 46  22  24  1   
 47  23  25  am  
 48  23  48  1   
 49  24  26  1   
 50  24  49  1   
 51  24  50  1   
 52  25  26  am  
 53  25  27  2   
 54  26  51  1   
@<TRIPOS>SUBSTRUCTURE
  1 ****   9 GROUP 4 **** **** 0

# MOE 2024.06 (io_trps.svl 2023.06)
