@<TRIPOS>MOLECULE
NONAME
48 50 1 0 0 
SMALL
USER_CHARGES


@<TRIPOS>ATOM
  1 O       -1.2890    -1.7180     0.3800 O.2   1 <1>  -0.5700 
  2 C       -0.3410    -2.4380     0.1780 C.2   1 <1>   0.5690 
  3 N       -0.2470    -3.2770    -0.8980 N.am  1 <1>  -0.6600 
  4 C        0.8120    -2.4250     1.1590 C.3   1 <1>  -0.0990 
  5 C        0.9490    -4.1380    -1.0760 C.3   1 <1>   0.1400 
  6 C       -1.3300    -3.4110    -1.9090 C.3   1 <1>   0.0600 
  7 C        2.1520    -2.3640     0.4060 C.3   1 <1>  -0.0800 
  8 C        2.2320    -3.3300    -0.8000 C.3   1 <1>  -0.0800 
  9 C        3.3600    -2.6730     1.2990 C.3   1 <1>  -0.1600 
 10 C        3.4550    -4.2200    -0.5450 C.3   1 <1>  -0.1600 
 11 C        4.3420    -3.3820     0.3730 C.3   1 <1>   0.2200 
 12 N        5.3760    -4.1660     1.1130 N.am  1 <1>  -0.6600 
 13 C        6.7160    -3.8340     1.0550 C.2   1 <1>   0.5440 
 14 C        4.9620    -5.4340     1.7900 C.3   1 <1>   0.0600 
 15 O        7.5470    -4.6710     1.3520 O.2   1 <1>  -0.5700 
 16 C        7.1610    -2.5200     0.6380 C.ar  1 <1>   0.0860 
 17 C        6.7640    -1.3570     1.2790 C.ar  1 <1>  -0.1500 
 18 C        8.0090    -2.3370    -0.4420 C.ar  1 <1>  -0.1500 
 19 C        7.1830    -0.1250     0.8150 C.ar  1 <1>   0.1670 
 20 C        8.3780    -1.0630    -0.8320 C.ar  1 <1>   0.1670 
 21 N        7.9720     0.0400    -0.2310 N.ar  1 <1>  -0.6200 
 22 C        6.7420     1.1450     1.5120 C.3   1 <1>  -0.0970 
 23 C        9.3020    -0.8660    -2.0150 C.3   1 <1>  -0.0970 
 24 H        0.7170    -1.5790     1.8160 H     1 <1>   0.0800 
 25 H        0.7480    -3.3200     1.7490 H     1 <1>   0.0800 
 26 H        0.8730    -4.9640    -0.3890 H     1 <1>   0.0800 
 27 H        0.9790    -4.5330    -2.0770 H     1 <1>   0.0800 
 28 H       -1.6830    -4.4270    -1.9320 H     1 <1>   0.0800 
 29 H       -0.9570    -3.1390    -2.8800 H     1 <1>   0.0800 
 30 H       -2.1560    -2.7650    -1.6640 H     1 <1>   0.0800 
 31 H        2.2620    -1.3630     0.0190 H     1 <1>   0.0800 
 32 H        2.4330    -2.7360    -1.6760 H     1 <1>   0.0800 
 33 H        3.0700    -3.3270     2.1000 H     1 <1>   0.0800 
 34 H        3.7800    -1.7730     1.7090 H     1 <1>   0.0800 
 35 H        3.9630    -4.4700    -1.4590 H     1 <1>   0.0800 
 36 H        3.1410    -5.1200    -0.0500 H     1 <1>   0.0800 
 37 H        4.8150    -2.6360    -0.2430 H     1 <1>   0.0800 
 38 H        3.9800    -5.3390     2.2160 H     1 <1>   0.0800 
 39 H        5.6520    -5.6740     2.5810 H     1 <1>   0.0800 
 40 H        4.9670    -6.2400     1.0780 H     1 <1>   0.0800 
 41 H        6.1290    -1.4290     2.1420 H     1 <1>   0.1500 
 42 H        8.3740    -3.2010    -0.9670 H     1 <1>   0.1500 
 43 H        6.1100     0.9290     2.3530 H     1 <1>   0.0800 
 44 H        6.2020     1.7640     0.8190 H     1 <1>   0.0800 
 45 H        7.6060     1.6830     1.8550 H     1 <1>   0.0800 
 46 H        9.5890    -1.8070    -2.4470 H     1 <1>   0.0800 
 47 H       10.1860    -0.3460    -1.6940 H     1 <1>   0.0800 
 48 H        8.8060    -0.2750    -2.7630 H     1 <1>   0.0800 
@<TRIPOS>BOND
  1   1   2  2   
  2   2   3  am  
  3   2   4  1   
  4   3   5  1   
  5   3   6  1   
  6   4   7  1   
  7   4  24  1   
  8   4  25  1   
  9   5   8  1   
 10   5  26  1   
 11   5  27  1   
 12   6  28  1   
 13   6  29  1   
 14   6  30  1   
 15   7   8  1   
 16   7   9  1   
 17   7  31  1   
 18   8  10  1   
 19   8  32  1   
 20   9  11  1   
 21   9  33  1   
 22   9  34  1   
 23  10  11  1   
 24  10  35  1   
 25  10  36  1   
 26  11  12  1   
 27  11  37  1   
 28  12  13  am  
 29  12  14  1   
 30  13  15  2   
 31  13  16  1   
 32  14  38  1   
 33  14  39  1   
 34  14  40  1   
 35  16  17  ar  
 36  16  18  ar  
 37  17  19  ar  
 38  17  41  1   
 39  18  20  ar  
 40  18  42  1   
 41  19  21  ar  
 42  19  22  1   
 43  20  21  ar  
 44  20  23  1   
 45  22  43  1   
 46  22  44  1   
 47  22  45  1   
 48  23  46  1   
 49  23  47  1   
 50  23  48  1   
@<TRIPOS>SUBSTRUCTURE
  1 ****  11 GROUP 4 **** **** 0

# MOE 2024.06 (io_trps.svl 2023.06)
