@<TRIPOS>MOLECULE
NONAME
48 50 1 0 0 
SMALL
USER_CHARGES


@<TRIPOS>ATOM
  1 S        0.0330    -0.8290     0.4750 S.3   1 <1>  -0.4600 
  2 C       -1.4340    -0.7040    -0.5900 C.3   1 <1>   0.2500 
  3 C        1.3830    -0.2700    -0.5970 C.3   1 <1>  -0.0100 
  4 C       -2.5910    -1.4190     0.0820 C.2   1 <1>  -0.0400 
  5 O       -2.6920    -2.7240    -0.0330 O.3   1 <1>  -0.2800 
  6 C       -3.6110    -0.9370     0.8240 C.2   1 <1>  -0.1500 
  7 C       -3.7680    -3.1410     0.6290 C.2   1 <1>   0.0550 
  8 C       -4.3720    -2.0500     1.1820 C.2   1 <1>  -0.1500 
  9 C       -4.1170    -4.5460     0.6790 C.2   1 <1>   0.7150 
 10 O       -3.2920    -5.4170     0.4470 O.2   1 <1>  -0.5700 
 11 N       -5.3980    -4.9630     0.9770 N.am  1 <1>  -0.6600 
 12 C       -5.6330    -6.3680     1.4180 C.3   1 <1>   0.1400 
 13 C       -6.5860    -4.3530     0.3160 C.3   1 <1>   0.1400 
 14 C       -5.9280    -7.2190     0.1620 C.3   1 <1>   0.4230 
 15 C       -6.9930    -5.2150    -0.8940 C.3   1 <1>  -0.1600 
 16 N       -6.0250    -8.6990     0.3960 N.4   1 <1>  -0.9590 
 17 C       -7.2160    -6.7130    -0.5280 C.3   1 <1>  -0.1060 
 18 C       -6.2030    -9.4950    -0.8550 C.3   1 <1>   0.3430 
 19 C       -4.9960    -9.2750     1.3000 C.3   1 <1>   0.2630 
 20 C       -8.3750    -6.8790     0.4720 C.2   1 <1>   0.9060 
 21 C       -7.5210    -7.5310    -1.8180 C.3   1 <1>  -0.1600 
 22 C       -6.4720    -8.6210    -2.0890 C.3   1 <1>  -0.1600 
 23 O       -8.4370    -7.9320     1.1260 O.co2 1 <1>  -0.9000 
 24 O       -9.1920    -5.9740     0.6280 O.co2 1 <1>  -0.9000 
 25 H       -1.6420     0.3430    -0.7170 H     1 <1>   0.0800 
 26 H       -1.1970    -1.1580    -1.5350 H     1 <1>   0.0800 
 27 H        2.2910    -0.3100    -0.0230 H     1 <1>   0.0800 
 28 H        1.1700     0.7380    -0.9060 H     1 <1>   0.0800 
 29 H        1.4340    -0.9340    -1.4410 H     1 <1>   0.0800 
 30 H       -3.8150     0.0810     1.1040 H     1 <1>   0.1500 
 31 H       -5.2590    -2.0280     1.7900 H     1 <1>   0.1500 
 32 H       -4.7540    -6.7260     1.9210 H     1 <1>   0.0800 
 33 H       -6.4560    -6.3940     2.1120 H     1 <1>   0.0800 
 34 H       -7.3970    -4.2930     1.0240 H     1 <1>   0.0800 
 35 H       -6.3690    -3.3540    -0.0200 H     1 <1>   0.0800 
 36 H       -5.1020    -7.0520    -0.5080 H     1 <1>   0.0800 
 37 H       -7.9010    -4.8090    -1.3080 H     1 <1>   0.0800 
 38 H       -6.2300    -5.1280    -1.6480 H     1 <1>   0.0800 
 39 H       -6.9650    -8.7440     0.8770 H     1 <1>   0.4500 
 40 H       -5.3250   -10.0910    -1.0380 H     1 <1>   0.0800 
 41 H       -7.0370   -10.1650    -0.7160 H     1 <1>   0.0800 
 42 H       -4.0130    -9.1320     0.8830 H     1 <1>   0.0800 
 43 H       -5.1710   -10.3290     1.4360 H     1 <1>   0.0800 
 44 H       -5.0390    -8.7980     2.2650 H     1 <1>   0.0800 
 45 H       -8.4850    -8.0030    -1.7140 H     1 <1>   0.0800 
 46 H       -7.5910    -6.8840    -2.6750 H     1 <1>   0.0800 
 47 H       -5.5500    -8.1670    -2.4080 H     1 <1>   0.0800 
 48 H       -6.8090    -9.2490    -2.8950 H     1 <1>   0.0800 
@<TRIPOS>BOND
  1   1   2  1   
  2   1   3  1   
  3   2   4  1   
  4   2  25  1   
  5   2  26  1   
  6   3  27  1   
  7   3  28  1   
  8   3  29  1   
  9   4   5  1   
 10   4   6  2   
 11   5   7  1   
 12   6   8  1   
 13   6  30  1   
 14   7   8  2   
 15   7   9  1   
 16   8  31  1   
 17   9  10  2   
 18   9  11  am  
 19  11  12  1   
 20  11  13  1   
 21  12  14  1   
 22  12  32  1   
 23  12  33  1   
 24  13  15  1   
 25  13  34  1   
 26  13  35  1   
 27  14  16  1   
 28  14  17  1   
 29  14  36  1   
 30  15  17  1   
 31  15  37  1   
 32  15  38  1   
 33  16  18  1   
 34  16  19  1   
 35  16  39  1   
 36  17  20  1   
 37  17  21  1   
 38  18  22  1   
 39  18  40  1   
 40  18  41  1   
 41  19  42  1   
 42  19  43  1   
 43  19  44  1   
 44  20  23  ar  
 45  20  24  ar  
 46  21  22  1   
 47  21  45  1   
 48  21  46  1   
 49  22  47  1   
 50  22  48  1   
@<TRIPOS>SUBSTRUCTURE
  1 ****  11 GROUP 4 **** **** 0

# MOE 2024.06 (io_trps.svl 2023.06)
