@<TRIPOS>MOLECULE
NONAME
55 58 1 0 0 
SMALL
USER_CHARGES


@<TRIPOS>ATOM
  1 O        1.7980    -1.7560     0.2970 O.3   1 <1>  -0.5600 
  2 C        0.6750    -2.2930    -0.3700 C.3   1 <1>   0.4180 
  3 C        1.6410    -0.5100     0.9270 C.3   1 <1>   0.1200 
  4 C       -0.6020    -2.0330     0.4180 C.2   1 <1>  -0.2880 
  5 C        0.9260    -3.8030    -0.4740 C.3   1 <1>  -0.1600 
  6 C        0.6060    -1.6980    -1.7830 C.3   1 <1>  -0.1600 
  7 C        0.5880    -0.5920     2.0380 C.3   1 <1>  -0.0220 
  8 C       -0.6600    -1.2810     1.5190 C.2   1 <1>  -0.2760 
  9 C        2.0060    -4.1840    -1.4950 C.3   1 <1>   0.3430 
 10 C        1.8620    -1.9850    -2.6170 C.3   1 <1>   0.3430 
 11 C       -1.9180    -1.0500     2.3370 C.3   1 <1>  -0.1020 
 12 N        2.7440    -2.9710    -1.9280 N.4   1 <1>  -0.9590 
 13 C        4.0170    -3.2480    -2.6440 C.3   1 <1>   0.3430 
 14 C        5.1910    -2.5300    -1.9550 C.3   1 <1>  -0.0800 
 15 C        5.4470    -3.1010    -0.5430 C.3   1 <1>  -0.0170 
 16 C        5.0050    -0.9990    -1.9330 C.3   1 <1>  -0.2400 
 17 C        6.6820    -2.4920     0.1020 C.ar  1 <1>  -0.1430 
 18 C        6.5420    -1.5080     1.0770 C.ar  1 <1>  -0.1500 
 19 C        7.9550    -2.9160    -0.2810 C.ar  1 <1>  -0.1500 
 20 C        7.6860    -0.9730     1.6340 C.ar  1 <1>   0.0830 
 21 C        9.0940    -2.3670     0.2920 C.ar  1 <1>  -0.1500 
 22 O        7.7860    -0.0250     2.5710 O.3   1 <1>  -0.3630 
 23 C        8.9280    -1.3900     1.2530 C.ar  1 <1>   0.0830 
 24 C        9.1790     0.1720     2.8050 C.3   1 <1>   0.4000 
 25 O        9.8670    -0.7240     1.9340 O.3   1 <1>  -0.3620 
 26 H        1.3470     0.2160     0.1890 H     1 <1>   0.0800 
 27 H        2.5920    -0.2210     1.3380 H     1 <1>   0.0800 
 28 H       -1.4660    -2.5260     0.0070 H     1 <1>   0.1500 
 29 H        0.0160    -4.3000    -0.7580 H     1 <1>   0.0800 
 30 H        1.1910    -4.1800     0.4980 H     1 <1>   0.0800 
 31 H        0.4330    -0.6390    -1.7330 H     1 <1>   0.0800 
 32 H       -0.2410    -2.1190    -2.2920 H     1 <1>   0.0800 
 33 H        0.3540     0.4060     2.3620 H     1 <1>   0.0800 
 34 H        0.9820    -1.1330     2.8810 H     1 <1>   0.0800 
 35 H        1.5490    -4.6530    -2.3510 H     1 <1>   0.0800 
 36 H        2.6850    -4.8900    -1.0440 H     1 <1>   0.0800 
 37 H        2.4040    -1.0640    -2.7590 H     1 <1>   0.0800 
 38 H        1.5750    -2.3580    -3.5870 H     1 <1>   0.0800 
 39 H       -1.7720    -1.3950     3.3460 H     1 <1>   0.0800 
 40 H       -2.7500    -1.5820     1.9130 H     1 <1>   0.0800 
 41 H       -2.1610    -0.0020     2.3600 H     1 <1>   0.0800 
 42 H        2.9860    -2.4950    -1.0350 H     1 <1>   0.4500 
 43 H        3.9430    -2.9180    -3.6680 H     1 <1>   0.0800 
 44 H        4.2120    -4.3080    -2.6510 H     1 <1>   0.0800 
 45 H        6.0660    -2.7350    -2.5470 H     1 <1>   0.0800 
 46 H        5.5870    -4.1660    -0.6020 H     1 <1>   0.0800 
 47 H        4.5990    -2.9250     0.0960 H     1 <1>   0.0800 
 48 H        4.2250    -0.7040    -1.2540 H     1 <1>   0.0800 
 49 H        4.7750    -0.6300    -2.9170 H     1 <1>   0.0800 
 50 H        5.9160    -0.5200    -1.6150 H     1 <1>   0.0800 
 51 H        5.5820    -1.1560     1.4040 H     1 <1>   0.1500 
 52 H        8.0690    -3.6790    -1.0310 H     1 <1>   0.1500 
 53 H       10.0820    -2.6820     0.0080 H     1 <1>   0.1500 
 54 H        9.4110    -0.0700     3.8270 H     1 <1>   0.0800 
 55 H        9.4460     1.1850     2.5640 H     1 <1>   0.0800 
@<TRIPOS>BOND
  1   1   2  1   
  2   1   3  1   
  3   2   4  1   
  4   2   5  1   
  5   2   6  1   
  6   3   7  1   
  7   3  26  1   
  8   3  27  1   
  9   4   8  2   
 10   4  28  1   
 11   5   9  1   
 12   5  29  1   
 13   5  30  1   
 14   6  10  1   
 15   6  31  1   
 16   6  32  1   
 17   7   8  1   
 18   7  33  1   
 19   7  34  1   
 20   8  11  1   
 21   9  12  1   
 22   9  35  1   
 23   9  36  1   
 24  10  12  1   
 25  10  37  1   
 26  10  38  1   
 27  11  39  1   
 28  11  40  1   
 29  11  41  1   
 30  12  13  1   
 31  12  42  1   
 32  13  14  1   
 33  13  43  1   
 34  13  44  1   
 35  14  15  1   
 36  14  16  1   
 37  14  45  1   
 38  15  17  1   
 39  15  46  1   
 40  15  47  1   
 41  16  48  1   
 42  16  49  1   
 43  16  50  1   
 44  17  18  ar  
 45  17  19  ar  
 46  18  20  ar  
 47  18  51  1   
 48  19  21  ar  
 49  19  52  1   
 50  20  22  1   
 51  20  23  ar  
 52  21  23  ar  
 53  21  53  1   
 54  22  24  1   
 55  23  25  1   
 56  24  25  1   
 57  24  54  1   
 58  24  55  1   
@<TRIPOS>SUBSTRUCTURE
  1 ****  15 GROUP 4 **** **** 0

# MOE 2024.06 (io_trps.svl 2023.06)
