@<TRIPOS>MOLECULE
NONAME
48 50 1 0 0 
SMALL
USER_CHARGES


@<TRIPOS>ATOM
  1 O       -0.1130     0.7200     1.5640 O.2   1 <1>  -0.5700 
  2 C       -0.1090     1.8180     1.0390 C.2   1 <1>   0.5440 
  3 N       -1.3110     2.4370     0.7680 N.am  1 <1>  -0.6600 
  4 C        1.1500     2.4570     0.7090 C.ar  1 <1>   0.0860 
  5 C       -1.3990     3.6820    -0.0500 C.3   1 <1>   0.1400 
  6 C       -2.5960     1.8440     1.2430 C.3   1 <1>   0.1400 
  7 C        1.9400     2.0440    -0.3730 C.ar  1 <1>  -0.1440 
  8 C        1.5970     3.5340     1.4770 C.ar  1 <1>  -0.1500 
  9 C       -2.7320     3.7140    -0.7950 C.3   1 <1>  -0.1600 
 10 C       -3.6470     2.9370     1.4530 C.3   1 <1>  -0.1600 
 11 C        3.1230     2.7020    -0.6650 C.ar  1 <1>  -0.1500 
 12 C        1.5050     0.8690    -1.2390 C.3   1 <1>  -0.0970 
 13 C        2.7780     4.1890     1.1870 C.ar  1 <1>  -0.1500 
 14 C       -3.9240     3.7810     0.1840 C.3   1 <1>   0.2800 
 15 C        3.5400     3.7690     0.1100 C.ar  1 <1>   0.0830 
 16 O       -4.0390     5.1050     0.6490 O.3   1 <1>  -0.5600 
 17 C       -5.2380     3.3390    -0.5120 C.3   1 <1>  -0.1600 
 18 O        4.6860     4.3900    -0.1910 O.3   1 <1>  -0.5320 
 19 C       -4.7060     6.0360    -0.1560 C.3   1 <1>   0.1200 
 20 C       -6.4500     4.1660    -0.0700 C.3   1 <1>   0.2800 
 21 C       -6.1830     5.6500    -0.3370 C.3   1 <1>  -0.1600 
 22 O       -6.5910     4.0230     1.2850 O.3   1 <1>  -0.6800 
 23 C       -7.7530     3.6840    -0.7010 C.3   1 <1>  -0.2400 
 24 H       -0.5920     3.7150    -0.7610 H     1 <1>   0.0800 
 25 H       -1.3220     4.5400     0.5980 H     1 <1>   0.0800 
 26 H       -2.4330     1.3210     2.1710 H     1 <1>   0.0800 
 27 H       -2.9420     1.1300     0.5150 H     1 <1>   0.0800 
 28 H        1.0000     3.8510     2.3140 H     1 <1>   0.1500 
 29 H       -2.7960     2.8190    -1.3890 H     1 <1>   0.0800 
 30 H       -2.7460     4.5430    -1.4750 H     1 <1>   0.0800 
 31 H       -3.2870     3.5730     2.2440 H     1 <1>   0.0800 
 32 H       -4.5480     2.4720     1.8070 H     1 <1>   0.0800 
 33 H        3.7380     2.3960    -1.4920 H     1 <1>   0.1500 
 34 H        0.5270     1.0510    -1.6480 H     1 <1>   0.0800 
 35 H        1.4690    -0.0270    -0.6450 H     1 <1>   0.0800 
 36 H        2.1910     0.7110    -2.0520 H     1 <1>   0.0800 
 37 H        3.0990     5.0150     1.7950 H     1 <1>   0.1500 
 38 H       -5.4190     2.2920    -0.3480 H     1 <1>   0.0800 
 39 H       -5.1310     3.4610    -1.5740 H     1 <1>   0.0800 
 40 H        4.9100     5.1160     0.4170 H     1 <1>   0.4500 
 41 H       -4.2090     6.0900    -1.1070 H     1 <1>   0.0800 
 42 H       -4.6290     6.9980     0.3220 H     1 <1>   0.0800 
 43 H       -6.4540     5.8850    -1.3500 H     1 <1>   0.0800 
 44 H       -6.8060     6.2560     0.2970 H     1 <1>   0.0800 
 45 H       -5.7820     4.4020     1.6910 H     1 <1>   0.4000 
 46 H       -7.7020     3.7640    -1.7720 H     1 <1>   0.0800 
 47 H       -8.5760     4.2820    -0.3530 H     1 <1>   0.0800 
 48 H       -7.9320     2.6560    -0.4440 H     1 <1>   0.0800 
@<TRIPOS>BOND
  1   1   2  2   
  2   2   3  am  
  3   2   4  1   
  4   3   5  1   
  5   3   6  1   
  6   4   7  ar  
  7   4   8  ar  
  8   5   9  1   
  9   5  24  1   
 10   5  25  1   
 11   6  10  1   
 12   6  26  1   
 13   6  27  1   
 14   7  11  ar  
 15   7  12  1   
 16   8  13  ar  
 17   8  28  1   
 18   9  14  1   
 19   9  29  1   
 20   9  30  1   
 21  10  14  1   
 22  10  31  1   
 23  10  32  1   
 24  11  15  ar  
 25  11  33  1   
 26  12  34  1   
 27  12  35  1   
 28  12  36  1   
 29  13  15  ar  
 30  13  37  1   
 31  14  16  1   
 32  14  17  1   
 33  15  18  1   
 34  16  19  1   
 35  17  20  1   
 36  17  38  1   
 37  17  39  1   
 38  18  40  1   
 39  19  21  1   
 40  19  41  1   
 41  19  42  1   
 42  20  21  1   
 43  20  22  1   
 44  20  23  1   
 45  21  43  1   
 46  21  44  1   
 47  22  45  1   
 48  23  46  1   
 49  23  47  1   
 50  23  48  1   
@<TRIPOS>SUBSTRUCTURE
  1 ****   5 GROUP 4 **** **** 0

# MOE 2024.06 (io_trps.svl 2023.06)
