@<TRIPOS>MOLECULE
NONAME
56 59 1 0 0 
SMALL
USER_CHARGES


@<TRIPOS>ATOM
  1 O        0.3540    -0.4540    -0.9200 O.3   1 <1>  -0.3630 
  2 C        0.2490    -1.7680    -0.6030 C.ar  1 <1>   0.0830 
  3 C        0.0170     0.5850    -0.0210 C.3   1 <1>   0.2000 
  4 C       -0.2670    -2.2440     0.5980 C.ar  1 <1>  -0.1500 
  5 C        0.6930    -2.6690    -1.5550 C.ar  1 <1>  -0.1500 
  6 C       -0.0010     1.8900    -0.8090 C.3   1 <1>  -0.1600 
  7 C        1.1580     0.7890     0.9750 C.3   1 <1>  -0.1600 
  8 C       -0.3410    -3.6070     0.8290 C.ar  1 <1>  -0.1500 
  9 C        0.6210    -4.0310    -1.3250 C.ar  1 <1>  -0.1500 
 10 C        1.4630     2.3340    -0.9070 C.3   1 <1>  -0.1600 
 11 C        2.2070     1.6190     0.2290 C.3   1 <1>  -0.1600 
 12 C        0.0960    -4.5080    -0.1320 C.ar  1 <1>  -0.1430 
 13 C       -0.0040    -5.9990     0.1210 C.3   1 <1>   0.4860 
 14 N       -1.1070    -6.5500    -0.7130 N.4   1 <1>  -0.9590 
 15 C       -2.4360    -6.0370    -0.2520 C.3   1 <1>   0.3430 
 16 C       -1.1580    -8.0390    -0.5860 C.3   1 <1>   0.3430 
 17 C       -2.9750    -7.0960     0.7130 C.3   1 <1>   0.2000 
 18 C       -2.5000    -8.3970     0.0660 C.3   1 <1>  -0.0800 
 19 O       -2.3550    -6.9200     1.9490 O.3   1 <1>  -0.6800 
 20 C       -2.3980    -9.6210     0.9960 C.3   1 <1>   0.0210 
 21 C       -1.9510   -10.8530     0.2310 C.2   1 <1>   0.1080 
 22 N       -0.8210   -10.9180    -0.4050 N.2   1 <1>  -0.7070 
 23 C       -2.6820   -12.0310     0.1290 C.2   1 <1>  -0.1500 
 24 N       -0.7970   -12.1640    -0.9260 N.pl3 1 <1>   0.3000 
 25 C       -1.9160   -12.8510    -0.6200 C.2   1 <1>  -0.3320 
 26 C       -2.1870   -14.2780    -1.0630 C.3   1 <1>  -0.0600 
 27 H       -0.9370     0.3760     0.4300 H     1 <1>   0.0800 
 28 H       -0.6110    -1.5710     1.3610 H     1 <1>   0.1500 
 29 H        1.0970    -2.2890    -2.4770 H     1 <1>   0.1500 
 30 H       -0.4620     1.7710    -1.7740 H     1 <1>   0.0800 
 31 H       -0.5520     2.6240    -0.2470 H     1 <1>   0.0800 
 32 H        0.7880     1.3610     1.8070 H     1 <1>   0.0800 
 33 H        1.5590    -0.1380     1.3430 H     1 <1>   0.0800 
 34 H       -0.7410    -3.9570     1.7670 H     1 <1>   0.1500 
 35 H        0.9840    -4.7040    -2.0830 H     1 <1>   0.1500 
 36 H        1.8720     2.0230    -1.8530 H     1 <1>   0.0800 
 37 H        1.5480     3.4040    -0.8240 H     1 <1>   0.0800 
 38 H        2.6910     2.3180     0.8890 H     1 <1>   0.0800 
 39 H        2.9510     0.9640    -0.1920 H     1 <1>   0.0800 
 40 H       -0.1990    -6.1850     1.1660 H     1 <1>   0.0800 
 41 H        0.9290    -6.4690    -0.1410 H     1 <1>   0.0800 
 42 H       -0.9370    -6.2590    -1.6830 H     1 <1>   0.4500 
 43 H       -2.3660    -5.0720     0.2220 H     1 <1>   0.0800 
 44 H       -3.1020    -5.9640    -1.0970 H     1 <1>   0.0800 
 45 H       -1.0720    -8.5220    -1.5460 H     1 <1>   0.0800 
 46 H       -0.3530    -8.3900     0.0400 H     1 <1>   0.0800 
 47 H       -4.0420    -7.0340     0.8420 H     1 <1>   0.0800 
 48 H       -3.1820    -8.6440    -0.7300 H     1 <1>   0.0800 
 49 H       -2.8110    -7.4330     2.6500 H     1 <1>   0.4000 
 50 H       -3.3540    -9.8170     1.4490 H     1 <1>   0.0800 
 51 H       -1.6850    -9.4450     1.7820 H     1 <1>   0.0800 
 52 H       -3.6460   -12.2290     0.5640 H     1 <1>   0.1500 
 53 H       -0.0070   -12.5200    -1.4790 H     1 <1>   0.2700 
 54 H       -3.1420   -14.6060    -0.6910 H     1 <1>   0.0800 
 55 H       -1.4280   -14.9370    -0.6810 H     1 <1>   0.0800 
 56 H       -2.1990   -14.3400    -2.1370 H     1 <1>   0.0800 
@<TRIPOS>BOND
  1   1   2  1   
  2   1   3  1   
  3   2   4  ar  
  4   2   5  ar  
  5   3   6  1   
  6   3   7  1   
  7   3  27  1   
  8   4   8  ar  
  9   4  28  1   
 10   5   9  ar  
 11   5  29  1   
 12   6  10  1   
 13   6  30  1   
 14   6  31  1   
 15   7  11  1   
 16   7  32  1   
 17   7  33  1   
 18   8  12  ar  
 19   8  34  1   
 20   9  12  ar  
 21   9  35  1   
 22  10  11  1   
 23  10  36  1   
 24  10  37  1   
 25  11  38  1   
 26  11  39  1   
 27  12  13  1   
 28  13  14  1   
 29  13  40  1   
 30  13  41  1   
 31  14  15  1   
 32  14  16  1   
 33  14  42  1   
 34  15  17  1   
 35  15  43  1   
 36  15  44  1   
 37  16  18  1   
 38  16  45  1   
 39  16  46  1   
 40  17  18  1   
 41  17  19  1   
 42  17  47  1   
 43  18  20  1   
 44  18  48  1   
 45  19  49  1   
 46  20  21  1   
 47  20  50  1   
 48  20  51  1   
 49  21  22  2   
 50  21  23  1   
 51  22  24  1   
 52  23  25  2   
 53  23  52  1   
 54  24  25  1   
 55  24  53  1   
 56  25  26  1   
 57  26  54  1   
 58  26  55  1   
 59  26  56  1   
@<TRIPOS>SUBSTRUCTURE
  1 ****  13 GROUP 4 **** **** 0

# MOE 2024.06 (io_trps.svl 2023.06)
