@<TRIPOS>MOLECULE
NONAME
53 56 1 0 0 
SMALL
USER_CHARGES


@<TRIPOS>ATOM
  1 O        1.0430     0.3520     1.0170 O.3   1 <1>  -0.6800 
  2 C        1.9050    -0.0210    -0.0070 C.3   1 <1>   0.2000 
  3 C        2.7150    -1.2210     0.4830 C.3   1 <1>  -0.0800 
  4 C        2.9430     1.0970    -0.1820 C.3   1 <1>   0.3430 
  5 C        3.7700    -0.5470     1.3640 C.3   1 <1>   0.3430 
  6 C        3.3400    -2.0110    -0.6900 C.3   1 <1>  -0.0170 
  7 N        4.1210     0.7070     0.6520 N.4   1 <1>  -0.9590 
  8 C        4.0240    -3.2880    -0.2240 C.ar  1 <1>   0.1670 
  9 C        4.6360     1.7830     1.5300 C.3   1 <1>   0.4860 
 10 N        5.1300    -3.1420     0.4900 N.ar  1 <1>  -0.6200 
 11 C        3.4830    -4.5310    -0.5540 C.ar  1 <1>   0.1600 
 12 C        4.9340     3.0220     0.6960 C.ar  1 <1>  -0.1440 
 13 C        5.6520    -4.3060     0.8460 C.ar  1 <1>   0.1600 
 14 N        4.0010    -5.6920    -0.1950 N.ar  1 <1>  -0.6200 
 15 C        5.9980     3.0630    -0.2140 C.ar  1 <1>  -0.0230 
 16 C        4.1170     4.1330     0.8480 C.ar  1 <1>  -0.1500 
 17 C        5.1050    -5.5400     0.5150 C.ar  1 <1>   0.1600 
 18 N        6.8790     1.9590    -0.4000 N.pl3 1 <1>   0.5930 
 19 C        6.2000     4.2200    -0.9610 C.ar  1 <1>  -0.1500 
 20 C        4.3370     5.2770     0.1030 C.ar  1 <1>  -0.1500 
 21 N        6.4610     0.7700    -0.9170 N.2   1 <1>  -0.7070 
 22 C        8.1770     1.8640    -0.0120 C.2   1 <1>  -0.3320 
 23 C        5.3790     5.3200    -0.8040 C.ar  1 <1>  -0.1500 
 24 C        7.4920    -0.0100    -0.8680 C.2   1 <1>   0.1080 
 25 C        8.5960     0.6160    -0.3060 C.2   1 <1>  -0.1500 
 26 C        8.9710     2.9910     0.6320 C.3   1 <1>  -0.0600 
 27 C        7.4860    -1.4380    -1.3660 C.3   1 <1>  -0.0590 
 28 H        0.2680    -0.2460     1.0690 H     1 <1>   0.4000 
 29 H        1.3280    -0.1980    -0.8990 H     1 <1>   0.0800 
 30 H        2.1070    -1.8920     1.0650 H     1 <1>   0.0800 
 31 H        2.5250     2.0400     0.1280 H     1 <1>   0.0800 
 32 H        3.2460     1.1650    -1.2140 H     1 <1>   0.0800 
 33 H        4.6370    -1.1640     1.5280 H     1 <1>   0.0800 
 34 H        3.3220    -0.3070     2.3150 H     1 <1>   0.0800 
 35 H        4.0610    -1.4090    -1.2170 H     1 <1>   0.0800 
 36 H        2.5670    -2.2680    -1.3930 H     1 <1>   0.0800 
 37 H        4.9010     0.4920    -0.0060 H     1 <1>   0.4500 
 38 H        3.9020     2.0210     2.2830 H     1 <1>   0.0800 
 39 H        5.5370     1.4540     2.0220 H     1 <1>   0.0800 
 40 H        2.5820    -4.5720    -1.1400 H     1 <1>   0.1500 
 41 H        6.5560    -4.2880     1.4290 H     1 <1>   0.1500 
 42 H        3.2980     4.1250     1.5480 H     1 <1>   0.1500 
 43 H        5.6000    -6.4350     0.8510 H     1 <1>   0.1500 
 44 H        7.0080     4.2620    -1.6730 H     1 <1>   0.1500 
 45 H        3.6990     6.1370     0.2270 H     1 <1>   0.1500 
 46 H        5.5480     6.2090    -1.3880 H     1 <1>   0.1500 
 47 H        9.5650     0.1720    -0.1530 H     1 <1>   0.1500 
 48 H        9.9630     2.6540     0.8790 H     1 <1>   0.0800 
 49 H        8.4890     3.3240     1.5340 H     1 <1>   0.0800 
 50 H        9.0560     3.8230    -0.0440 H     1 <1>   0.0800 
 51 H        8.2880    -1.5830    -2.0650 H     1 <1>   0.0800 
 52 H        6.5560    -1.6590    -1.8560 H     1 <1>   0.0800 
 53 H        7.6130    -2.1120    -0.5400 H     1 <1>   0.0800 
@<TRIPOS>BOND
  1   1   2  1   
  2   1  28  1   
  3   2   3  1   
  4   2   4  1   
  5   2  29  1   
  6   3   5  1   
  7   3   6  1   
  8   3  30  1   
  9   4   7  1   
 10   4  31  1   
 11   4  32  1   
 12   5   7  1   
 13   5  33  1   
 14   5  34  1   
 15   6   8  1   
 16   6  35  1   
 17   6  36  1   
 18   7   9  1   
 19   7  37  1   
 20   8  10  ar  
 21   8  11  ar  
 22   9  12  1   
 23   9  38  1   
 24   9  39  1   
 25  10  13  ar  
 26  11  14  ar  
 27  11  40  1   
 28  12  15  ar  
 29  12  16  ar  
 30  13  17  ar  
 31  13  41  1   
 32  14  17  ar  
 33  15  18  1   
 34  15  19  ar  
 35  16  20  ar  
 36  16  42  1   
 37  17  43  1   
 38  18  21  1   
 39  18  22  1   
 40  19  23  ar  
 41  19  44  1   
 42  20  23  ar  
 43  20  45  1   
 44  21  24  2   
 45  22  25  2   
 46  22  26  1   
 47  23  46  1   
 48  24  25  1   
 49  24  27  1   
 50  25  47  1   
 51  26  48  1   
 52  26  49  1   
 53  26  50  1   
 54  27  51  1   
 55  27  52  1   
 56  27  53  1   
@<TRIPOS>SUBSTRUCTURE
  1 ****   7 GROUP 4 **** **** 0

# MOE 2024.06 (io_trps.svl 2023.06)
