@<TRIPOS>MOLECULE
NONAME
49 52 1 0 0 
SMALL
USER_CHARGES


@<TRIPOS>ATOM
  1 O       -4.2760     2.1680    -0.4970 O.co2 1 <1>  -0.9000 
  2 C       -4.4170     1.5110     0.5490 C.2   1 <1>   1.0330 
  3 O       -5.4370     0.7910     0.5810 O.co2 1 <1>  -0.9000 
  4 C       -3.2380     1.0960     1.3100 C.2   1 <1>   0.0560 
  5 N       -2.8690     1.3240     2.5590 N.2   1 <1>  -0.7070 
  6 C       -2.3070     0.2590     0.6780 C.2   1 <1>  -0.1810 
  7 N       -1.7160     0.6600     2.7200 N.pl3 1 <1>   0.3000 
  8 C       -1.3570    -0.0020     1.6000 C.2   1 <1>  -0.3020 
  9 C       -2.4630    -0.1720    -0.7760 C.3   1 <1>   0.5240 
 10 N       -3.8020    -0.8000    -0.9990 N.4   1 <1>  -0.9590 
 11 C       -4.0440    -1.9860    -0.1150 C.3   1 <1>   0.3430 
 12 C       -4.1140    -0.8910    -2.4540 C.3   1 <1>   0.3430 
 13 C       -5.5260    -2.3600     0.0390 C.3   1 <1>   0.0960 
 14 C       -5.6120    -1.0380    -2.7140 C.3   1 <1>   0.0200 
 15 N       -6.0240    -2.9940    -1.1950 N.pl3 1 <1>   0.0480 
 16 C       -6.0500    -2.4530    -2.4130 C.2   1 <1>   0.0070 
 17 C       -6.4800    -4.2340    -1.4080 C.2   1 <1>   0.0060 
 18 N       -6.4670    -3.2880    -3.2960 N.2   1 <1>  -0.3380 
 19 N       -6.7420    -4.4230    -2.6570 N.2   1 <1>  -0.3380 
 20 C       -6.6580    -5.2770    -0.3110 C.3   1 <1>   0.0200 
 21 C       -7.3630    -6.5500    -0.7940 C.3   1 <1>  -0.0170 
 22 C       -7.5150    -7.5290     0.3600 C.ar  1 <1>  -0.1430 
 23 C       -6.5710    -8.5230     0.5660 C.ar  1 <1>  -0.1500 
 24 C       -8.5980    -7.4300     1.2200 C.ar  1 <1>  -0.1500 
 25 C       -6.7040    -9.4040     1.6250 C.ar  1 <1>  -0.1500 
 26 C       -8.7320    -8.3110     2.2790 C.ar  1 <1>  -0.1500 
 27 C       -7.7850    -9.2980     2.4830 C.ar  1 <1>  -0.1500 
 28 H       -1.1980     0.6830     3.6070 H     1 <1>   0.2700 
 29 H       -0.4610    -0.5920     1.5380 H     1 <1>   0.1500 
 30 H       -1.6780    -0.8590    -1.0420 H     1 <1>   0.0800 
 31 H       -2.3760     0.7080    -1.3940 H     1 <1>   0.0800 
 32 H       -4.4740    -0.0710    -0.6420 H     1 <1>   0.4500 
 33 H       -3.6790    -1.7490     0.8720 H     1 <1>   0.0800 
 34 H       -3.4910    -2.8370    -0.4740 H     1 <1>   0.0800 
 35 H       -3.5870    -1.7170    -2.9020 H     1 <1>   0.0800 
 36 H       -3.7900     0.0200    -2.9330 H     1 <1>   0.0800 
 37 H       -6.1220    -1.4950     0.2650 H     1 <1>   0.0800 
 38 H       -5.6280    -3.0520     0.8540 H     1 <1>   0.0800 
 39 H       -5.8030    -0.8360    -3.7530 H     1 <1>   0.0800 
 40 H       -6.1710    -0.3250    -2.1330 H     1 <1>   0.0800 
 41 H       -7.2390    -4.8480     0.4860 H     1 <1>   0.0800 
 42 H       -5.6930    -5.5430     0.0810 H     1 <1>   0.0800 
 43 H       -6.7950    -7.0030    -1.5870 H     1 <1>   0.0800 
 44 H       -8.3320    -6.3010    -1.1900 H     1 <1>   0.0800 
 45 H       -5.7280    -8.6160    -0.0960 H     1 <1>   0.1500 
 46 H       -9.3410    -6.6660     1.0690 H     1 <1>   0.1500 
 47 H       -5.9690   -10.1740     1.7800 H     1 <1>   0.1500 
 48 H       -9.5750    -8.2290     2.9430 H     1 <1>   0.1500 
 49 H       -7.8890    -9.9840     3.3050 H     1 <1>   0.1500 
@<TRIPOS>BOND
  1   1   2  ar  
  2   2   3  ar  
  3   2   4  1   
  4   4   5  2   
  5   4   6  1   
  6   5   7  1   
  7   6   8  2   
  8   6   9  1   
  9   7   8  1   
 10   7  28  1   
 11   8  29  1   
 12   9  10  1   
 13   9  30  1   
 14   9  31  1   
 15  10  11  1   
 16  10  12  1   
 17  10  32  1   
 18  11  13  1   
 19  11  33  1   
 20  11  34  1   
 21  12  14  1   
 22  12  35  1   
 23  12  36  1   
 24  13  15  1   
 25  13  37  1   
 26  13  38  1   
 27  14  16  1   
 28  14  39  1   
 29  14  40  1   
 30  15  16  1   
 31  15  17  1   
 32  16  18  2   
 33  17  19  2   
 34  17  20  1   
 35  18  19  1   
 36  20  21  1   
 37  20  41  1   
 38  20  42  1   
 39  21  22  1   
 40  21  43  1   
 41  21  44  1   
 42  22  23  ar  
 43  22  24  ar  
 44  23  25  ar  
 45  23  45  1   
 46  24  26  ar  
 47  24  46  1   
 48  25  27  ar  
 49  25  47  1   
 50  26  27  ar  
 51  26  48  1   
 52  27  49  1   
@<TRIPOS>SUBSTRUCTURE
  1 ****  13 GROUP 4 **** **** 0

# MOE 2024.06 (io_trps.svl 2023.06)
