@<TRIPOS>MOLECULE
NONAME
54 57 1 0 0 
SMALL
USER_CHARGES


@<TRIPOS>ATOM
  1 O       -2.5650    -0.7580    -3.8320 O.2   1 <1>  -0.5700 
  2 C       -1.7800    -0.9510    -2.9370 C.2   1 <1>   0.5690 
  3 N       -1.5060    -2.2330    -2.5090 N.am  1 <1>  -0.6600 
  4 C       -1.1810     0.2830    -2.2690 C.3   1 <1>   0.0440 
  5 C       -0.5150    -2.5600    -1.4110 C.3   1 <1>   0.2200 
  6 C       -2.2720    -3.3700    -3.1240 C.3   1 <1>   0.1400 
  7 C       -1.6730     0.4130    -0.8310 C.ar  1 <1>  -0.1440 
  8 C        0.4070    -3.7360    -1.7790 C.3   1 <1>   0.1200 
  9 C       -1.2360    -2.8250    -0.0640 C.3   1 <1>   0.3430 
 10 C       -2.4040    -4.6340    -2.2510 C.3   1 <1>  -0.0800 
 11 C       -3.0340     0.5090    -0.5820 C.ar  1 <1>  -0.1500 
 12 C       -0.7830     0.4240     0.2340 C.ar  1 <1>  -0.1500 
 13 O       -0.1620    -4.9510    -1.3980 O.3   1 <1>  -0.5600 
 14 N       -2.7020    -3.0680    -0.2550 N.4   1 <1>  -0.9590 
 15 C       -1.1190    -5.4750    -2.2550 C.3   1 <1>   0.1200 
 16 C       -2.9660    -4.4240    -0.8270 C.3   1 <1>   0.3430 
 17 C       -3.5100     0.5750     0.7150 C.ar  1 <1>  -0.1500 
 18 C       -1.2570     0.4710     1.5330 C.ar  1 <1>  -0.1500 
 19 C       -3.4530    -2.8430     1.0200 C.3   1 <1>   0.5240 
 20 C       -2.6180     0.5310     1.7810 C.ar  1 <1>   0.0820 
 21 C       -2.8760    -3.6430     2.1860 C.2   1 <1>   0.0460 
 22 O       -3.0080     0.5320     3.0770 O.3   1 <1>  -0.3620 
 23 N       -2.8610    -4.9930     2.1850 N.2   1 <1>  -0.5650 
 24 C       -2.3320    -3.1600     3.3250 C.2   1 <1>  -0.3020 
 25 C       -4.2570     1.0710     3.4530 C.3   1 <1>   0.0400 
 26 C       -2.3150    -5.2990     3.3180 C.2   1 <1>   0.0360 
 27 N       -1.9690    -4.2270     4.0610 N.pl3 1 <1>   0.0330 
 28 H       -0.1100     0.2380    -2.3190 H     1 <1>   0.0800 
 29 H       -1.4860     1.1570    -2.8180 H     1 <1>   0.0800 
 30 H        0.1410    -1.7230    -1.2720 H     1 <1>   0.0800 
 31 H       -3.2660    -3.0280    -3.3640 H     1 <1>   0.0800 
 32 H       -1.8030    -3.6270    -4.0590 H     1 <1>   0.0800 
 33 H        1.3260    -3.6480    -1.2260 H     1 <1>   0.0800 
 34 H        0.6450    -3.7490    -2.8290 H     1 <1>   0.0800 
 35 H       -1.1000    -1.9660     0.5690 H     1 <1>   0.0800 
 36 H       -0.7850    -3.6640     0.4400 H     1 <1>   0.0800 
 37 H       -3.1230    -5.2550    -2.7560 H     1 <1>   0.0800 
 38 H       -3.7320     0.5390    -1.4050 H     1 <1>   0.1500 
 39 H        0.2800     0.3970     0.0640 H     1 <1>   0.1500 
 40 H       -3.0000    -2.3730    -0.9540 H     1 <1>   0.4500 
 41 H       -0.6970    -5.5570    -3.2440 H     1 <1>   0.0800 
 42 H       -1.3350    -6.4710    -1.9030 H     1 <1>   0.0800 
 43 H       -2.5530    -5.1790    -0.1750 H     1 <1>   0.0800 
 44 H       -4.0320    -4.5790    -0.8590 H     1 <1>   0.0800 
 45 H       -4.5690     0.6570     0.8790 H     1 <1>   0.1500 
 46 H       -0.5740     0.4710     2.3640 H     1 <1>   0.1500 
 47 H       -3.4140    -1.8010     1.2800 H     1 <1>   0.0800 
 48 H       -4.4870    -3.1160     0.8890 H     1 <1>   0.0800 
 49 H       -2.1890    -2.1430     3.6540 H     1 <1>   0.1500 
 50 H       -4.2840     1.1360     4.5260 H     1 <1>   0.0800 
 51 H       -5.0420     0.4220     3.1090 H     1 <1>   0.0800 
 52 H       -4.3570     2.0540     3.0270 H     1 <1>   0.0800 
 53 H       -2.1440    -6.3070     3.6580 H     1 <1>   0.1500 
 54 H       -1.5330    -4.2360     4.9900 H     1 <1>   0.2700 
@<TRIPOS>BOND
  1   1   2  2   
  2   2   3  am  
  3   2   4  1   
  4   3   5  1   
  5   3   6  1   
  6   4   7  1   
  7   4  28  1   
  8   4  29  1   
  9   5   8  1   
 10   5   9  1   
 11   5  30  1   
 12   6  10  1   
 13   6  31  1   
 14   6  32  1   
 15   7  11  ar  
 16   7  12  ar  
 17   8  13  1   
 18   8  33  1   
 19   8  34  1   
 20   9  14  1   
 21   9  35  1   
 22   9  36  1   
 23  10  15  1   
 24  10  16  1   
 25  10  37  1   
 26  11  17  ar  
 27  11  38  1   
 28  12  18  ar  
 29  12  39  1   
 30  13  15  1   
 31  14  16  1   
 32  14  19  1   
 33  14  40  1   
 34  15  41  1   
 35  15  42  1   
 36  16  43  1   
 37  16  44  1   
 38  17  20  ar  
 39  17  45  1   
 40  18  20  ar  
 41  18  46  1   
 42  19  21  1   
 43  19  47  1   
 44  19  48  1   
 45  20  22  1   
 46  21  23  1   
 47  21  24  2   
 48  22  25  1   
 49  23  26  2   
 50  24  27  1   
 51  24  49  1   
 52  25  50  1   
 53  25  51  1   
 54  25  52  1   
 55  26  27  1   
 56  26  53  1   
 57  27  54  1   
@<TRIPOS>SUBSTRUCTURE
  1 ****   9 GROUP 4 **** **** 0

# MOE 2024.06 (io_trps.svl 2023.06)
