@<TRIPOS>MOLECULE
NONAME
36 37 1 0 0 
SMALL
USER_CHARGES


@<TRIPOS>ATOM
  1 F       -2.6500     0.0670    -1.9250 F     1 <1>  -0.1900 
  2 C       -2.6130     0.6720    -0.7690 C.ar  1 <1>   0.1900 
  3 C       -2.6470    -0.0960     0.3880 C.ar  1 <1>  -0.1440 
  4 C       -2.5540     2.0510    -0.7510 C.ar  1 <1>  -0.1500 
  5 C       -2.6140     0.5520     1.6180 C.ar  1 <1>  -0.1500 
  6 C       -2.7140    -1.6090     0.2960 C.3   1 <1>   0.4870 
  7 C       -2.5300     2.6590     0.4880 C.ar  1 <1>   0.1900 
  8 C       -2.5580     1.9380     1.6690 C.ar  1 <1>  -0.1500 
  9 N       -4.1060    -2.0490     0.5740 N.4   1 <1>  -0.9590 
 10 F       -2.4790     3.9610     0.5480 F     1 <1>  -0.1900 
 11 C       -4.1650    -3.5340     0.8590 C.3   1 <1>   0.3430 
 12 C       -5.0310    -1.6610    -0.5320 C.3   1 <1>   0.3430 
 13 C       -5.5310    -4.1900     0.5370 C.3   1 <1>   0.2000 
 14 C       -6.4810    -1.9160    -0.1050 C.3   1 <1>  -0.1600 
 15 O       -5.5200    -4.5730    -0.8000 O.3   1 <1>  -0.6800 
 16 C       -6.6720    -3.1830     0.7700 C.3   1 <1>  -0.0800 
 17 C       -8.0640    -3.8050     0.5910 C.3   1 <1>   0.1200 
 18 O       -9.0030    -2.8540     0.9430 O.3   1 <1>  -0.6800 
 19 H       -2.5300     2.6290    -1.6570 H     1 <1>   0.1500 
 20 H       -2.6270    -0.0020     2.5430 H     1 <1>   0.1500 
 21 H       -2.0400    -2.0330     1.0220 H     1 <1>   0.0800 
 22 H       -2.4080    -1.9400    -0.6840 H     1 <1>   0.0800 
 23 H       -2.5330     2.4610     2.6110 H     1 <1>   0.1500 
 24 H       -4.4310    -1.5390     1.4040 H     1 <1>   0.4500 
 25 H       -3.4120    -4.0520     0.2880 H     1 <1>   0.0800 
 26 H       -3.9490    -3.6910     1.9030 H     1 <1>   0.0800 
 27 H       -4.9110    -0.6210    -0.7900 H     1 <1>   0.0800 
 28 H       -4.8080    -2.2540    -1.4060 H     1 <1>   0.0800 
 29 H       -5.6590    -5.0790     1.1310 H     1 <1>   0.0800 
 30 H       -6.8610    -1.0590     0.4230 H     1 <1>   0.0800 
 31 H       -7.0660    -2.0050    -1.0050 H     1 <1>   0.0800 
 32 H       -6.2980    -5.1260    -1.0220 H     1 <1>   0.4000 
 33 H       -6.6050    -2.8850     1.8030 H     1 <1>   0.0800 
 34 H       -8.1940    -4.6590     1.2350 H     1 <1>   0.0800 
 35 H       -8.2400    -4.0900    -0.4330 H     1 <1>   0.0800 
 36 H       -9.9140    -3.2010     0.8510 H     1 <1>   0.4000 
@<TRIPOS>BOND
  1   1   2  1   
  2   2   3  ar  
  3   2   4  ar  
  4   3   5  ar  
  5   3   6  1   
  6   4   7  ar  
  7   4  19  1   
  8   5   8  ar  
  9   5  20  1   
 10   6   9  1   
 11   6  21  1   
 12   6  22  1   
 13   7   8  ar  
 14   7  10  1   
 15   8  23  1   
 16   9  11  1   
 17   9  12  1   
 18   9  24  1   
 19  11  13  1   
 20  11  25  1   
 21  11  26  1   
 22  12  14  1   
 23  12  27  1   
 24  12  28  1   
 25  13  15  1   
 26  13  16  1   
 27  13  29  1   
 28  14  16  1   
 29  14  30  1   
 30  14  31  1   
 31  15  32  1   
 32  16  17  1   
 33  16  33  1   
 34  17  18  1   
 35  17  34  1   
 36  17  35  1   
 37  18  36  1   
@<TRIPOS>SUBSTRUCTURE
  1 ****   9 GROUP 4 **** **** 0

# MOE 2024.06 (io_trps.svl 2023.06)
