@<TRIPOS>MOLECULE
NONAME
41 43 1 0 0 
SMALL
USER_CHARGES


@<TRIPOS>ATOM
  1 O       -0.0530    -1.7830    -1.3930 O.2   1 <1>  -0.5700 
  2 C        1.0330    -2.2750    -1.2260 C.2   1 <1>   0.5690 
  3 N        1.7970    -2.6720    -2.2640 N.am  1 <1>  -0.7300 
  4 C        1.5860    -2.4790     0.1680 C.3   1 <1>  -0.0990 
  5 C        3.1300    -3.2880    -2.0970 C.3   1 <1>   0.1400 
  6 C        3.0730    -2.0750     0.2260 C.3   1 <1>  -0.0800 
  7 C        3.9090    -2.5510    -0.9900 C.3   1 <1>  -0.0800 
  8 C        3.7880    -2.5960     1.4800 C.3   1 <1>  -0.1600 
  9 C        5.0550    -3.3900    -0.4110 C.3   1 <1>  -0.1600 
 10 C        5.2170    -2.8710     1.0140 C.3   1 <1>   0.2200 
 11 N        5.9880    -3.8110     1.8860 N.am  1 <1>  -0.6600 
 12 C        7.2910    -3.5820     2.2810 C.2   1 <1>   0.5690 
 13 C        5.3090    -5.0770     2.3120 C.3   1 <1>   0.0600 
 14 O        7.8730    -4.3600     3.0010 O.2   1 <1>  -0.5700 
 15 C        8.0690    -2.3370     1.8800 C.3   1 <1>   0.1570 
 16 N        8.3180    -2.2780     0.4240 N.pl3 1 <1>   0.0480 
 17 C        8.8490    -3.2600    -0.3540 C.2   1 <1>  -0.3020 
 18 C        8.0640    -1.2190    -0.3920 C.2   1 <1>  -0.3020 
 19 C        8.9240    -2.8320    -1.6410 C.2   1 <1>  -0.1500 
 20 C        8.4220    -1.5280    -1.6660 C.2   1 <1>  -0.1500 
 21 H        1.4120    -2.5660    -3.2050 H     1 <1>   0.3700 
 22 H        1.0150    -1.8980     0.8690 H     1 <1>   0.0800 
 23 H        1.4650    -3.5170     0.4120 H     1 <1>   0.0800 
 24 H        2.9930    -4.3230    -1.8340 H     1 <1>   0.0800 
 25 H        3.6750    -3.2400    -3.0250 H     1 <1>   0.0800 
 26 H        3.1150    -0.9980     0.2350 H     1 <1>   0.0800 
 27 H        4.3460    -1.6740    -1.4380 H     1 <1>   0.0800 
 28 H        3.3130    -3.5000     1.8110 H     1 <1>   0.0800 
 29 H        3.7680    -1.8720     2.2750 H     1 <1>   0.0800 
 30 H        5.9580    -3.2680    -0.9810 H     1 <1>   0.0800 
 31 H        4.7810    -4.4280    -0.3980 H     1 <1>   0.0800 
 32 H        5.7130    -1.9190     0.9610 H     1 <1>   0.0800 
 33 H        4.6630    -5.4460     1.5370 H     1 <1>   0.0800 
 34 H        4.7290    -4.8930     3.1990 H     1 <1>   0.0800 
 35 H        6.0340    -5.8420     2.5300 H     1 <1>   0.0800 
 36 H        9.0180    -2.3430     2.3810 H     1 <1>   0.0800 
 37 H        7.5300    -1.4630     2.1880 H     1 <1>   0.0800 
 38 H        9.1470    -4.2130     0.0500 H     1 <1>   0.1500 
 39 H        7.6450    -0.2960    -0.0310 H     1 <1>   0.1500 
 40 H        9.2980    -3.3710    -2.4950 H     1 <1>   0.1500 
 41 H        8.3510    -0.9090    -2.5440 H     1 <1>   0.1500 
@<TRIPOS>BOND
  1   1   2  2   
  2   2   3  am  
  3   2   4  1   
  4   3   5  1   
  5   3  21  1   
  6   4   6  1   
  7   4  22  1   
  8   4  23  1   
  9   5   7  1   
 10   5  24  1   
 11   5  25  1   
 12   6   7  1   
 13   6   8  1   
 14   6  26  1   
 15   7   9  1   
 16   7  27  1   
 17   8  10  1   
 18   8  28  1   
 19   8  29  1   
 20   9  10  1   
 21   9  30  1   
 22   9  31  1   
 23  10  11  1   
 24  10  32  1   
 25  11  12  am  
 26  11  13  1   
 27  12  14  2   
 28  12  15  1   
 29  13  33  1   
 30  13  34  1   
 31  13  35  1   
 32  15  16  1   
 33  15  36  1   
 34  15  37  1   
 35  16  17  1   
 36  16  18  1   
 37  17  19  2   
 38  17  38  1   
 39  18  20  2   
 40  18  39  1   
 41  19  20  1   
 42  19  40  1   
 43  20  41  1   
@<TRIPOS>SUBSTRUCTURE
  1 ****   9 GROUP 4 **** **** 0

# MOE 2024.06 (io_trps.svl 2023.06)
