@<TRIPOS>MOLECULE
NONAME
46 48 1 0 0 
SMALL
USER_CHARGES


@<TRIPOS>ATOM
  1 S        0.2410    -0.8280     2.0240 S.3   1 <1>  -0.0800 
  2 C        1.5540    -1.3880     1.0010 C.2   1 <1>  -0.1400 
  3 C        0.8230     0.8230     1.9350 C.2   1 <1>  -0.1100 
  4 C        2.3470    -0.3580     0.6490 C.2   1 <1>  -0.1500 
  5 C        1.5950    -2.8650     0.6800 C.3   1 <1>   0.5230 
  6 C        1.9360     0.9110     1.1770 C.2   1 <1>   0.0190 
  7 N        0.3430    -3.2260    -0.0320 N.4   1 <1>  -0.9590 
  8 C        2.6700     2.1060     0.8950 C.1   1 <1>  -0.0190 
  9 C        0.1740    -4.7100    -0.1930 C.3   1 <1>   0.5660 
 10 C        0.1730    -2.4880    -1.3270 C.3   1 <1>   0.3430 
 11 C        3.2790     3.1030     0.6660 C.1   1 <1>  -0.2000 
 12 C        1.4490    -5.3210    -0.7800 C.ar  1 <1>  -0.1430 
 13 C       -1.1120    -5.0680    -0.9980 C.3   1 <1>   0.2000 
 14 C       -1.0570    -2.9800    -2.1260 C.3   1 <1>   0.1200 
 15 C        4.0350     4.3540     0.3930 C.3   1 <1>   0.3200 
 16 C        2.2770    -6.0440     0.0700 C.ar  1 <1>  -0.1500 
 17 C        1.8180    -5.1830    -2.1150 C.ar  1 <1>  -0.1500 
 18 O       -1.8110    -3.9100    -1.3960 O.3   1 <1>  -0.5600 
 19 C       -2.0860    -5.9150    -0.1670 C.3   1 <1>   0.1200 
 20 O        3.1510     5.2600    -0.1510 O.3   1 <1>  -0.6800 
 21 C        3.4570    -6.5960    -0.3950 C.ar  1 <1>  -0.1500 
 22 C        2.9980    -5.7350    -2.5790 C.ar  1 <1>  -0.1500 
 23 O       -1.3810    -6.8660     0.5610 O.3   1 <1>  -0.6800 
 24 C        3.8200    -6.4390    -1.7190 C.ar  1 <1>  -0.1500 
 25 H        0.2720     1.5780     2.4660 H     1 <1>   0.1500 
 26 H        3.2280    -0.4140     0.0320 H     1 <1>   0.1500 
 27 H        1.6770    -3.4270     1.5960 H     1 <1>   0.0800 
 28 H        2.4520    -3.0860     0.0640 H     1 <1>   0.0800 
 29 H       -0.4430    -2.9250     0.5580 H     1 <1>   0.4500 
 30 H        0.0610    -5.1350     0.7900 H     1 <1>   0.0800 
 31 H        0.0610    -1.4340    -1.1310 H     1 <1>   0.0800 
 32 H        1.0540    -2.6050    -1.9360 H     1 <1>   0.0800 
 33 H       -0.8570    -5.6240    -1.8830 H     1 <1>   0.0800 
 34 H       -0.7570    -3.4350    -3.0540 H     1 <1>   0.0800 
 35 H       -1.7000    -2.1480    -2.3580 H     1 <1>   0.0800 
 36 H        4.8250     4.1790    -0.3170 H     1 <1>   0.0800 
 37 H        4.4400     4.7750     1.2970 H     1 <1>   0.0800 
 38 H        2.0130    -6.1950     1.1040 H     1 <1>   0.1500 
 39 H        1.2010    -4.6570    -2.8190 H     1 <1>   0.1500 
 40 H       -2.7800    -6.4250    -0.8140 H     1 <1>   0.0800 
 41 H       -2.6260    -5.2980     0.5320 H     1 <1>   0.0800 
 42 H        2.5720     4.7970    -0.7850 H     1 <1>   0.4000 
 43 H        4.0930    -7.1550     0.2710 H     1 <1>   0.1500 
 44 H        3.2810    -5.6260    -3.6130 H     1 <1>   0.1500 
 45 H       -1.9940    -7.5200     0.9620 H     1 <1>   0.4000 
 46 H        4.7390    -6.8700    -2.0810 H     1 <1>   0.1500 
@<TRIPOS>BOND
  1   1   2  1   
  2   1   3  1   
  3   2   4  2   
  4   2   5  1   
  5   3   6  2   
  6   3  25  1   
  7   4   6  1   
  8   4  26  1   
  9   5   7  1   
 10   5  27  1   
 11   5  28  1   
 12   6   8  1   
 13   7   9  1   
 14   7  10  1   
 15   7  29  1   
 16   8  11  3   
 17   9  12  1   
 18   9  13  1   
 19   9  30  1   
 20  10  14  1   
 21  10  31  1   
 22  10  32  1   
 23  11  15  1   
 24  12  16  ar  
 25  12  17  ar  
 26  13  18  1   
 27  13  19  1   
 28  13  33  1   
 29  14  18  1   
 30  14  34  1   
 31  14  35  1   
 32  15  20  1   
 33  15  36  1   
 34  15  37  1   
 35  16  21  ar  
 36  16  38  1   
 37  17  22  ar  
 38  17  39  1   
 39  19  23  1   
 40  19  40  1   
 41  19  41  1   
 42  20  42  1   
 43  21  24  ar  
 44  21  43  1   
 45  22  24  ar  
 46  22  44  1   
 47  23  45  1   
 48  24  46  1   
@<TRIPOS>SUBSTRUCTURE
  1 ****   5 GROUP 4 **** **** 0

# MOE 2024.06 (io_trps.svl 2023.06)
