@<TRIPOS>MOLECULE
NONAME
39 39 1 0 0 
SMALL
USER_CHARGES


@<TRIPOS>ATOM
  1 S       -1.5520    -0.5780     1.2370 S.3   1 <1>  -0.0800 
  2 C       -1.5200    -1.5290    -0.2130 C.2   1 <1>   0.4420 
  3 C       -1.0630     0.7710     0.2720 C.2   1 <1>   0.1980 
  4 N       -1.1730    -0.8350    -1.2370 N.2   1 <1>  -0.3380 
  5 N       -1.8560    -2.8570    -0.0870 N.am  1 <1>  -0.4940 
  6 N       -0.9140     0.4750    -0.9530 N.2   1 <1>  -0.3380 
  7 C       -0.8670     2.1110     0.9430 C.3   1 <1>   0.0200 
  8 C       -1.9840    -3.8330    -1.0340 C.2   1 <1>   0.5690 
  9 C       -0.4800     3.1430    -0.1230 C.3   1 <1>   0.3430 
 10 O       -1.8190    -3.6300    -2.2130 O.2   1 <1>  -0.5700 
 11 C       -2.3550    -5.2510    -0.5360 C.3   1 <1>   0.2810 
 12 N       -0.3240     4.5310     0.4300 N.4   1 <1>  -0.9590 
 13 N       -3.6330    -5.2810     0.2310 N.am  1 <1>  -0.7300 
 14 C       -2.4760    -6.2960    -1.6500 C.3   1 <1>  -0.2400 
 15 C       -0.2230     5.5090    -0.6990 C.3   1 <1>   0.2630 
 16 C        0.8690     4.6620     1.3270 C.3   1 <1>   0.2630 
 17 C       -3.7870    -4.8360     1.4970 C.2   1 <1>   0.5690 
 18 O       -2.8910    -4.2810     2.0850 O.2   1 <1>  -0.5700 
 19 C       -5.1230    -5.0140     2.1670 C.3   1 <1>  -0.1790 
 20 H       -2.0970    -3.1660     0.8640 H     1 <1>   0.3700 
 21 H       -1.7870     2.3950     1.4200 H     1 <1>   0.0800 
 22 H       -0.0920     2.0120     1.6800 H     1 <1>   0.0800 
 23 H       -1.2480     3.1440    -0.8800 H     1 <1>   0.0800 
 24 H        0.4370     2.8320    -0.5970 H     1 <1>   0.0800 
 25 H       -1.5640    -5.5640     0.1250 H     1 <1>   0.0800 
 26 H       -1.1730     4.7660     0.9700 H     1 <1>   0.4500 
 27 H       -4.4290    -5.6690    -0.2770 H     1 <1>   0.3700 
 28 H       -3.2480    -6.0170    -2.3450 H     1 <1>   0.0800 
 29 H       -2.6870    -7.2670    -1.2380 H     1 <1>   0.0800 
 30 H       -1.5470    -6.3540    -2.1910 H     1 <1>   0.0800 
 31 H        0.6480     5.3010    -1.2990 H     1 <1>   0.0800 
 32 H       -0.1480     6.5150    -0.3190 H     1 <1>   0.0800 
 33 H       -1.0960     5.4460    -1.3290 H     1 <1>   0.0800 
 34 H        1.7710     4.4100     0.7910 H     1 <1>   0.0800 
 35 H        0.7790     4.0060     2.1770 H     1 <1>   0.0800 
 36 H        0.9570     5.6750     1.6870 H     1 <1>   0.0800 
 37 H       -5.4100    -6.0490     2.1410 H     1 <1>   0.0800 
 38 H       -5.8630    -4.4220     1.6640 H     1 <1>   0.0800 
 39 H       -5.0600    -4.6980     3.1930 H     1 <1>   0.0800 
@<TRIPOS>BOND
  1   1   2  1   
  2   1   3  1   
  3   2   4  2   
  4   2   5  1   
  5   3   6  2   
  6   3   7  1   
  7   4   6  1   
  8   5   8  am  
  9   5  20  1   
 10   7   9  1   
 11   7  21  1   
 12   7  22  1   
 13   8  10  2   
 14   8  11  1   
 15   9  12  1   
 16   9  23  1   
 17   9  24  1   
 18  11  13  1   
 19  11  14  1   
 20  11  25  1   
 21  12  15  1   
 22  12  16  1   
 23  12  26  1   
 24  13  17  am  
 25  13  27  1   
 26  14  28  1   
 27  14  29  1   
 28  14  30  1   
 29  15  31  1   
 30  15  32  1   
 31  15  33  1   
 32  16  34  1   
 33  16  35  1   
 34  16  36  1   
 35  17  18  2   
 36  17  19  1   
 37  19  37  1   
 38  19  38  1   
 39  19  39  1   
@<TRIPOS>SUBSTRUCTURE
  1 ****   2 GROUP 4 **** **** 0

# MOE 2024.06 (io_trps.svl 2023.06)
