@<TRIPOS>MOLECULE
NONAME
51 54 1 0 0 
SMALL
USER_CHARGES


@<TRIPOS>ATOM
  1 O       -0.8090    -0.1950     0.7120 O.2   1 <1>  -0.5700 
  2 C       -1.7630     0.5480     0.7010 C.2   1 <1>   0.5690 
  3 N       -2.9610     0.1430     1.2420 N.am  1 <1>  -0.6600 
  4 C       -1.5400     1.9240     0.0590 C.3   1 <1>  -0.0190 
  5 C       -4.2660     0.8390     1.2360 C.3   1 <1>   0.1400 
  6 C       -3.1640    -1.2200     1.7730 C.3   1 <1>   0.1400 
  7 C       -1.8940     3.1270     0.9540 C.3   1 <1>  -0.1600 
  8 C       -2.1860     2.0650    -1.3320 C.3   1 <1>  -0.1600 
  9 C       -5.3120    -0.2740     1.0900 C.3   1 <1>  -0.0800 
 10 C       -4.5650    -1.6150     1.2990 C.3   1 <1>  -0.0800 
 11 C       -1.6470     4.4410     0.2080 C.3   1 <1>   0.1200 
 12 C       -1.9370     3.4620    -1.9090 C.3   1 <1>   0.1200 
 13 C       -6.1460    -0.1690    -0.2090 C.3   1 <1>   0.4240 
 14 C       -4.4880    -2.4940     0.0360 C.3   1 <1>  -0.1600 
 15 O       -2.3550     4.4270    -0.9930 O.3   1 <1>  -0.5600 
 16 O       -5.2940     0.0400    -1.2800 O.3   1 <1>  -0.6800 
 17 C       -7.1420     1.0070    -0.1150 C.ar  1 <1>  -0.1440 
 18 C       -6.8330    -1.5180    -0.4820 C.3   1 <1>  -0.1600 
 19 C       -5.8570    -2.7070    -0.6380 C.3   1 <1>  -0.1600 
 20 C       -8.2630     0.9130     0.7060 C.ar  1 <1>  -0.1500 
 21 C       -6.9490     2.1960    -0.8150 C.ar  1 <1>  -0.1500 
 22 C       -9.1610     1.9610     0.8170 C.ar  1 <1>  -0.1500 
 23 C       -7.8430     3.2460    -0.7050 C.ar  1 <1>  -0.1500 
 24 C       -8.9530     3.1300     0.1110 C.ar  1 <1>  -0.1500 
 25 H       -0.4780     1.9920    -0.1060 H     1 <1>   0.0800 
 26 H       -4.3970     1.3410     2.1780 H     1 <1>   0.0800 
 27 H       -4.3410     1.5660     0.4500 H     1 <1>   0.0800 
 28 H       -2.4100    -1.9040     1.4200 H     1 <1>   0.0800 
 29 H       -3.1280    -1.1810     2.8480 H     1 <1>   0.0800 
 30 H       -1.2940     3.1020     1.8470 H     1 <1>   0.0800 
 31 H       -2.9230     3.1090     1.2520 H     1 <1>   0.0800 
 32 H       -3.2450     1.9030    -1.2920 H     1 <1>   0.0800 
 33 H       -1.7740     1.3260    -1.9960 H     1 <1>   0.0800 
 34 H       -5.9960    -0.1650     1.9120 H     1 <1>   0.0800 
 35 H       -5.0500    -2.1860     2.0710 H     1 <1>   0.0800 
 36 H       -0.6010     4.5810    -0.0100 H     1 <1>   0.0800 
 37 H       -1.9990     5.2770     0.7870 H     1 <1>   0.0800 
 38 H       -2.5020     3.6010    -2.8150 H     1 <1>   0.0800 
 39 H       -0.8930     3.6180    -2.1210 H     1 <1>   0.0800 
 40 H       -3.8110    -2.0410    -0.6670 H     1 <1>   0.0800 
 41 H       -4.0670    -3.4520     0.2890 H     1 <1>   0.0800 
 42 H       -4.6360    -0.6780    -1.2700 H     1 <1>   0.4000 
 43 H       -7.4840    -1.7410     0.3420 H     1 <1>   0.0800 
 44 H       -7.4550    -1.4310    -1.3560 H     1 <1>   0.0800 
 45 H       -6.3240    -3.5860    -0.2270 H     1 <1>   0.0800 
 46 H       -5.6960    -2.8980    -1.6860 H     1 <1>   0.0800 
 47 H       -8.4540     0.0220     1.2760 H     1 <1>   0.1500 
 48 H       -6.0960     2.3220    -1.4580 H     1 <1>   0.1500 
 49 H      -10.0230     1.8670     1.4540 H     1 <1>   0.1500 
 50 H       -7.6720     4.1540    -1.2570 H     1 <1>   0.1500 
 51 H       -9.6490     3.9460     0.1950 H     1 <1>   0.1500 
@<TRIPOS>BOND
  1   1   2  2   
  2   2   3  am  
  3   2   4  1   
  4   3   5  1   
  5   3   6  1   
  6   4   7  1   
  7   4   8  1   
  8   4  25  1   
  9   5   9  1   
 10   5  26  1   
 11   5  27  1   
 12   6  10  1   
 13   6  28  1   
 14   6  29  1   
 15   7  11  1   
 16   7  30  1   
 17   7  31  1   
 18   8  12  1   
 19   8  32  1   
 20   8  33  1   
 21   9  10  1   
 22   9  13  1   
 23   9  34  1   
 24  10  14  1   
 25  10  35  1   
 26  11  15  1   
 27  11  36  1   
 28  11  37  1   
 29  12  15  1   
 30  12  38  1   
 31  12  39  1   
 32  13  16  1   
 33  13  17  1   
 34  13  18  1   
 35  14  19  1   
 36  14  40  1   
 37  14  41  1   
 38  16  42  1   
 39  17  20  ar  
 40  17  21  ar  
 41  18  19  1   
 42  18  43  1   
 43  18  44  1   
 44  19  45  1   
 45  19  46  1   
 46  20  22  ar  
 47  20  47  1   
 48  21  23  ar  
 49  21  48  1   
 50  22  24  ar  
 51  22  49  1   
 52  23  24  ar  
 53  23  50  1   
 54  24  51  1   
@<TRIPOS>SUBSTRUCTURE
  1 ****   5 GROUP 4 **** **** 0

# MOE 2024.06 (io_trps.svl 2023.06)
