@<TRIPOS>MOLECULE
NONAME
46 49 1 0 0 
SMALL
USER_CHARGES


@<TRIPOS>ATOM
  1 S        0.0910     0.4000    -0.0740 S.3   1 <1>  -0.1120 
  2 C        0.6910    -1.1310     0.6650 C.2   1 <1>   0.2420 
  3 C        1.4100     1.6280    -0.0100 C.2   1 <1>   0.1960 
  4 N        1.8570    -1.3200     1.1780 N.2   1 <1>  -0.3380 
  5 N       -0.0880    -2.2110     0.7250 N.pl3 1 <1>   0.0480 
  6 O        1.1080     2.8170    -0.4890 O.3   1 <1>  -0.2800 
  7 C        2.6810     1.5800     0.4380 C.2   1 <1>  -0.1500 
  8 N        1.8720    -2.5870     1.6050 N.2   1 <1>  -0.3380 
  9 C        0.7170    -3.0930     1.3290 C.2   1 <1>   0.0360 
 10 C       -1.4730    -2.3950     0.2530 C.3   1 <1>   0.0160 
 11 C        2.1840     3.5780    -0.3610 C.2   1 <1>  -0.0400 
 12 C        3.1890     2.8660     0.2070 C.2   1 <1>  -0.1500 
 13 C        2.0600     5.0180    -0.8560 C.3   1 <1>   0.2900 
 14 N        3.2570     5.8630    -0.6640 N.3   1 <1>  -0.8100 
 15 C        3.5510     6.1250     0.7680 C.3   1 <1>   0.1100 
 16 C        4.3890     5.4540    -1.5200 C.3   1 <1>   0.1100 
 17 C        4.6060     7.2230     1.0640 C.3   1 <1>   0.2200 
 18 C        5.5490     6.4650    -1.5830 C.3   1 <1>  -0.0190 
 19 N        4.7200     8.2420    -0.0230 N.am  1 <1>  -0.6600 
 20 C        5.9860     6.6310     1.4200 C.3   1 <1>   0.1200 
 21 C        5.1360     7.8950    -1.2810 C.2   1 <1>   0.5690 
 22 C        6.7630     6.0520    -0.7380 C.3   1 <1>   0.1200 
 23 C        4.2160     9.6050     0.2940 C.3   1 <1>   0.0600 
 24 O        6.3980     5.6260     0.5390 O.3   1 <1>  -0.5600 
 25 O        5.2320     8.7080    -2.1740 O.2   1 <1>  -0.5700 
 26 H        3.2310     0.7700     0.8800 H     1 <1>   0.1500 
 27 H        0.4220    -4.1020     1.5520 H     1 <1>   0.1500 
 28 H       -1.7980    -3.3980     0.4610 H     1 <1>   0.0800 
 29 H       -1.5140    -2.2170    -0.8060 H     1 <1>   0.0800 
 30 H       -2.1170    -1.6970     0.7590 H     1 <1>   0.0800 
 31 H        4.1900     3.1730     0.4510 H     1 <1>   0.1500 
 32 H        1.2300     5.4790    -0.3500 H     1 <1>   0.0800 
 33 H        1.8150     4.9980    -1.9030 H     1 <1>   0.0800 
 34 H        2.6360     6.4400     1.2370 H     1 <1>   0.0800 
 35 H        3.8500     5.2160     1.2570 H     1 <1>   0.0800 
 36 H        4.7650     4.4950    -1.2130 H     1 <1>   0.0800 
 37 H        4.0120     5.3400    -2.5230 H     1 <1>   0.0800 
 38 H        4.2780     7.7330     1.9520 H     1 <1>   0.0800 
 39 H        5.8990     6.4630    -2.5980 H     1 <1>   0.0800 
 40 H        5.9260     6.1740     2.3910 H     1 <1>   0.0800 
 41 H        6.7360     7.4020     1.4570 H     1 <1>   0.0800 
 42 H        7.4720     6.8580    -0.6540 H     1 <1>   0.0800 
 43 H        7.2540     5.2180    -1.2090 H     1 <1>   0.0800 
 44 H        4.7680    10.0160     1.1200 H     1 <1>   0.0800 
 45 H        3.1720     9.5530     0.5490 H     1 <1>   0.0800 
 46 H        4.3270    10.2600    -0.5540 H     1 <1>   0.0800 
@<TRIPOS>BOND
  1   1   2  1   
  2   1   3  1   
  3   2   4  2   
  4   2   5  1   
  5   3   6  1   
  6   3   7  2   
  7   4   8  1   
  8   5   9  1   
  9   5  10  1   
 10   6  11  1   
 11   7  12  1   
 12   7  26  1   
 13   8   9  2   
 14   9  27  1   
 15  10  28  1   
 16  10  29  1   
 17  10  30  1   
 18  11  12  2   
 19  11  13  1   
 20  12  31  1   
 21  13  14  1   
 22  13  32  1   
 23  13  33  1   
 24  14  15  1   
 25  14  16  1   
 26  15  17  1   
 27  15  34  1   
 28  15  35  1   
 29  16  18  1   
 30  16  36  1   
 31  16  37  1   
 32  17  19  1   
 33  17  20  1   
 34  17  38  1   
 35  18  21  1   
 36  18  22  1   
 37  18  39  1   
 38  19  21  am  
 39  19  23  1   
 40  20  24  1   
 41  20  40  1   
 42  20  41  1   
 43  21  25  2   
 44  22  24  1   
 45  22  42  1   
 46  22  43  1   
 47  23  44  1   
 48  23  45  1   
 49  23  46  1   
@<TRIPOS>SUBSTRUCTURE
  1 ****  12 GROUP 4 **** **** 0

# MOE 2024.06 (io_trps.svl 2023.06)
