@<TRIPOS>MOLECULE
NONAME
51 53 1 0 0 
SMALL
USER_CHARGES


@<TRIPOS>ATOM
  1 O       -0.6700     0.1850    -1.0660 O.2   1 <1>  -0.5700 
  2 C       -1.6680     0.5880    -0.5090 C.2   1 <1>   0.5440 
  3 N       -1.6150     1.8600    -0.0500 N.am  1 <1>  -0.8000 
  4 C       -2.8400    -0.2550    -0.3320 C.ar  1 <1>   0.0860 
  5 C       -4.1080     0.2760    -0.0800 C.ar  1 <1>  -0.1500 
  6 C       -2.7390    -1.6460    -0.4090 C.ar  1 <1>  -0.1500 
  7 C       -5.2100    -0.5400     0.0970 C.ar  1 <1>  -0.1500 
  8 C       -3.8360    -2.4700    -0.2340 C.ar  1 <1>  -0.1500 
  9 C       -5.0870    -1.9170     0.0230 C.ar  1 <1>   0.0820 
 10 O       -6.2110    -2.6440     0.2080 O.3   1 <1>  -0.3630 
 11 C       -6.2080    -4.0480     0.1410 C.3   1 <1>   0.1200 
 12 C       -7.6430    -4.5150     0.3850 C.3   1 <1>  -0.1600 
 13 C       -7.7420    -6.0370     0.3030 C.3   1 <1>   0.3430 
 14 N       -9.1230    -6.4770     0.6280 N.4   1 <1>  -0.9590 
 15 C      -10.1810    -6.0660    -0.3330 C.3   1 <1>   0.3430 
 16 C       -9.2650    -7.9560     0.7640 C.3   1 <1>   0.3430 
 17 C      -11.3620    -6.9610     0.0410 C.3   1 <1>   0.2000 
 18 C      -10.7050    -8.3110     0.3420 C.3   1 <1>  -0.0800 
 19 O      -11.8990    -6.4720     1.2270 O.3   1 <1>  -0.6800 
 20 C      -10.7340    -9.2410    -0.8900 C.3   1 <1>  -0.0170 
 21 C      -10.1260   -10.6060    -0.5980 C.ar  1 <1>   0.1670 
 22 N       -8.8080   -10.6470    -0.4750 N.ar  1 <1>  -0.6200 
 23 C      -10.9450   -11.7290    -0.4810 C.ar  1 <1>   0.1600 
 24 C       -8.3690   -11.8760    -0.2390 C.ar  1 <1>   0.1600 
 25 N      -10.5080   -12.9500    -0.2330 N.ar  1 <1>  -0.6200 
 26 C       -9.1920   -12.9890    -0.1210 C.ar  1 <1>   0.1600 
 27 H       -0.7480     2.3840    -0.1780 H     1 <1>   0.3700 
 28 H       -2.3210     2.2790     0.5520 H     1 <1>   0.3700 
 29 H       -4.2390     1.3410    -0.0290 H     1 <1>   0.1500 
 30 H       -1.7750    -2.0820    -0.6100 H     1 <1>   0.1500 
 31 H       -6.1780    -0.1130     0.2910 H     1 <1>   0.1500 
 32 H       -3.6950    -3.5310    -0.3030 H     1 <1>   0.1500 
 33 H       -5.8630    -4.3360    -0.8380 H     1 <1>   0.0800 
 34 H       -5.5410    -4.4200     0.9000 H     1 <1>   0.0800 
 35 H       -7.9460    -4.1850     1.3620 H     1 <1>   0.0800 
 36 H       -8.2730    -4.0630    -0.3600 H     1 <1>   0.0800 
 37 H       -7.0520    -6.4740     1.0080 H     1 <1>   0.0800 
 38 H       -7.4710    -6.3720    -0.6860 H     1 <1>   0.0800 
 39 H       -9.4190    -6.0740     1.5320 H     1 <1>   0.4500 
 40 H      -10.4360    -5.0230    -0.2360 H     1 <1>   0.0800 
 41 H       -9.8680    -6.2750    -1.3420 H     1 <1>   0.0800 
 42 H       -8.5580    -8.4470     0.1160 H     1 <1>   0.0800 
 43 H       -9.0770    -8.2660     1.7800 H     1 <1>   0.0800 
 44 H      -12.1320    -6.9850    -0.7120 H     1 <1>   0.0800 
 45 H      -11.2090    -8.8120     1.1510 H     1 <1>   0.0800 
 46 H      -12.7520    -6.9060     1.4420 H     1 <1>   0.4000 
 47 H      -10.1960    -8.7980    -1.7100 H     1 <1>   0.0800 
 48 H      -11.7530    -9.3740    -1.2100 H     1 <1>   0.0800 
 49 H      -12.0090   -11.6180    -0.5950 H     1 <1>   0.1500 
 50 H       -7.3070   -12.0130    -0.1340 H     1 <1>   0.1500 
 51 H       -8.7440   -13.9480     0.0730 H     1 <1>   0.1500 
@<TRIPOS>BOND
  1   1   2  2   
  2   2   3  am  
  3   2   4  1   
  4   3  27  1   
  5   3  28  1   
  6   4   5  ar  
  7   4   6  ar  
  8   5   7  ar  
  9   5  29  1   
 10   6   8  ar  
 11   6  30  1   
 12   7   9  ar  
 13   7  31  1   
 14   8   9  ar  
 15   8  32  1   
 16   9  10  1   
 17  10  11  1   
 18  11  12  1   
 19  11  33  1   
 20  11  34  1   
 21  12  13  1   
 22  12  35  1   
 23  12  36  1   
 24  13  14  1   
 25  13  37  1   
 26  13  38  1   
 27  14  15  1   
 28  14  16  1   
 29  14  39  1   
 30  15  17  1   
 31  15  40  1   
 32  15  41  1   
 33  16  18  1   
 34  16  42  1   
 35  16  43  1   
 36  17  18  1   
 37  17  19  1   
 38  17  44  1   
 39  18  20  1   
 40  18  45  1   
 41  19  46  1   
 42  20  21  1   
 43  20  47  1   
 44  20  48  1   
 45  21  22  ar  
 46  21  23  ar  
 47  22  24  ar  
 48  23  25  ar  
 49  23  49  1   
 50  24  26  ar  
 51  24  50  1   
 52  25  26  ar  
 53  26  51  1   
@<TRIPOS>SUBSTRUCTURE
  1 ****  13 GROUP 4 **** **** 0

# MOE 2024.06 (io_trps.svl 2023.06)
