@<TRIPOS>MOLECULE
NONAME
43 45 1 0 0 
SMALL
USER_CHARGES


@<TRIPOS>ATOM
  1 O       -1.6520    -0.8440    -1.7650 O.2   1 <1>  -0.5700 
  2 C       -2.0650    -0.6330    -0.6360 C.2   1 <1>   0.7160 
  3 N       -2.0010     0.6580    -0.1630 N.am  1 <1>  -0.7300 
  4 C       -2.6180    -1.6980     0.2090 C.2   1 <1>   0.4300 
  5 C       -1.4750     1.8420    -0.8890 C.3   1 <1>   0.0600 
  6 N       -3.0850    -1.5190     1.4020 N.2   1 <1>  -0.4100 
  7 N       -2.7070    -2.9900    -0.1530 N.2   1 <1>  -0.5650 
  8 O       -3.4930    -2.6620     1.8510 O.3   1 <1>  -0.0190 
  9 C       -3.2420    -3.5000     0.8800 C.2   1 <1>   0.2980 
 10 C       -3.5970    -4.9720     1.0650 C.3   1 <1>   0.2900 
 11 N       -5.0570    -5.2180     1.1020 N.3   1 <1>  -0.8100 
 12 C       -5.7500    -4.7280    -0.1040 C.3   1 <1>   0.1100 
 13 C       -5.3870    -6.6500     1.2480 C.3   1 <1>   0.1100 
 14 C       -6.9800    -5.6190    -0.2410 C.3   1 <1>   0.2000 
 15 C       -6.4540    -6.9840     0.1910 C.3   1 <1>  -0.0800 
 16 O       -7.9080    -5.1990     0.6930 O.3   1 <1>  -0.6800 
 17 C       -5.8630    -7.7530    -1.0080 C.3   1 <1>   0.0210 
 18 C       -5.2140    -9.0620    -0.5940 C.2   1 <1>   0.1080 
 19 N       -5.8070    -9.9460     0.1460 N.2   1 <1>  -0.7070 
 20 C       -3.9280    -9.4550    -0.9510 C.2   1 <1>  -0.1500 
 21 N       -4.9080   -10.9400     0.2790 N.pl3 1 <1>   0.3000 
 22 C       -3.7600   -10.6640    -0.3750 C.2   1 <1>  -0.3320 
 23 C       -2.5580   -11.5890    -0.4130 C.3   1 <1>  -0.0600 
 24 H       -2.3580     0.8200     0.7840 H     1 <1>   0.3700 
 25 H       -1.1260     1.5620    -1.8680 H     1 <1>   0.0800 
 26 H       -0.6550     2.2710    -0.3390 H     1 <1>   0.0800 
 27 H       -2.2530     2.5780    -0.9970 H     1 <1>   0.0800 
 28 H       -3.1600    -5.3150     1.9860 H     1 <1>   0.0800 
 29 H       -3.1600    -5.5320     0.2570 H     1 <1>   0.0800 
 30 H       -6.0190    -3.6890    -0.0110 H     1 <1>   0.0800 
 31 H       -5.1230    -4.8510    -0.9710 H     1 <1>   0.0800 
 32 H       -4.5160    -7.2750     1.1430 H     1 <1>   0.0800 
 33 H       -5.7960    -6.8100     2.2310 H     1 <1>   0.0800 
 34 H       -7.4330    -5.6010    -1.2170 H     1 <1>   0.0800 
 35 H       -7.2380    -7.5840     0.6200 H     1 <1>   0.0800 
 36 H       -7.4170    -5.0380     1.5260 H     1 <1>   0.4000 
 37 H       -5.1320    -7.1510    -1.5150 H     1 <1>   0.0800 
 38 H       -6.6500    -7.9790    -1.7050 H     1 <1>   0.0800 
 39 H       -3.2380    -8.8980    -1.5590 H     1 <1>   0.1500 
 40 H       -5.1110   -11.7910     0.8170 H     1 <1>   0.2700 
 41 H       -1.7700   -11.1490    -0.9980 H     1 <1>   0.0800 
 42 H       -2.8270   -12.5320    -0.8560 H     1 <1>   0.0800 
 43 H       -2.1890   -11.7620     0.5830 H     1 <1>   0.0800 
@<TRIPOS>BOND
  1   1   2  2   
  2   2   3  am  
  3   2   4  1   
  4   3   5  1   
  5   3  24  1   
  6   4   6  2   
  7   4   7  1   
  8   5  25  1   
  9   5  26  1   
 10   5  27  1   
 11   6   8  1   
 12   7   9  2   
 13   8   9  1   
 14   9  10  1   
 15  10  11  1   
 16  10  28  1   
 17  10  29  1   
 18  11  12  1   
 19  11  13  1   
 20  12  14  1   
 21  12  30  1   
 22  12  31  1   
 23  13  15  1   
 24  13  32  1   
 25  13  33  1   
 26  14  15  1   
 27  14  16  1   
 28  14  34  1   
 29  15  17  1   
 30  15  35  1   
 31  16  36  1   
 32  17  18  1   
 33  17  37  1   
 34  17  38  1   
 35  18  19  2   
 36  18  20  1   
 37  19  21  1   
 38  20  22  2   
 39  20  39  1   
 40  21  22  1   
 41  21  40  1   
 42  22  23  1   
 43  23  41  1   
 44  23  42  1   
 45  23  43  1   
@<TRIPOS>SUBSTRUCTURE
  1 ****  10 GROUP 4 **** **** 0

# MOE 2024.06 (io_trps.svl 2023.06)
