@<TRIPOS>MOLECULE
NONAME
48 50 1 0 0 
SMALL
USER_CHARGES


@<TRIPOS>ATOM
  1 O       -0.3820    -0.1700    -0.0690 O.2   1 <1>  -0.5700 
  2 C       -1.3530     0.5420     0.1010 C.2   1 <1>   0.7160 
  3 N       -2.4450     0.0030     0.7060 N.am  1 <1>  -0.7300 
  4 C       -1.3700     1.9140    -0.3180 C.2   1 <1>  -0.0860 
  5 C       -2.6600    -1.4160     1.0850 C.3   1 <1>   0.1400 
  6 C       -2.4970     2.7500    -0.3450 C.2   1 <1>   0.3720 
  7 C       -0.3790     2.7180    -0.7970 C.2   1 <1>   0.0870 
  8 C       -4.0330    -1.9180     0.6050 C.3   1 <1>   0.2000 
  9 N       -2.2040     3.9160    -0.8040 N.2   1 <1>  -0.4100 
 10 N       -3.7950     2.3970     0.0570 N.pl3 1 <1>  -0.8210 
 11 O       -0.9280     3.8750    -1.0720 O.3   1 <1>  -0.0190 
 12 C        1.0330     2.5460    -1.0300 C.ar  1 <1>   0.0530 
 13 O       -4.2020    -3.2230     1.0220 O.3   1 <1>  -0.6800 
 14 C       -5.2150    -1.1210     1.1600 C.3   1 <1>  -0.2400 
 15 C       -4.3180     3.2060     1.1940 C.3   1 <1>   0.2090 
 16 C       -4.7940     2.4440    -1.0510 C.3   1 <1>   0.2090 
 17 C        1.8540     1.8490    -0.1430 C.ar  1 <1>  -0.1500 
 18 C        1.6370     3.0980    -2.1600 C.ar  1 <1>  -0.1500 
 19 C       -5.8000     3.3990     0.9120 C.3   1 <1>  -0.1600 
 20 C       -5.8820     3.4120    -0.6060 C.3   1 <1>  -0.1600 
 21 C        3.2090     1.6990    -0.3730 C.ar  1 <1>  -0.1500 
 22 C        2.9910     2.9560    -2.3960 C.ar  1 <1>  -0.1500 
 23 C        3.7900     2.2550    -1.5090 C.ar  1 <1>   0.0830 
 24 O        5.1060     2.1560    -1.8110 O.3   1 <1>  -0.3620 
 25 C        5.9950     1.4240    -0.9970 C.3   1 <1>   0.0400 
 26 H       -3.2620     0.6320     0.7410 H     1 <1>   0.3700 
 27 H       -1.8880    -2.0260     0.6460 H     1 <1>   0.0800 
 28 H       -2.5960    -1.4970     2.1560 H     1 <1>   0.0800 
 29 H       -4.0540    -1.9240    -0.4730 H     1 <1>   0.0800 
 30 H       -4.3260    -3.2580     1.9880 H     1 <1>   0.4000 
 31 H       -5.1830    -1.0870     2.2340 H     1 <1>   0.0800 
 32 H       -6.1400    -1.5650     0.8400 H     1 <1>   0.0800 
 33 H       -5.1880    -0.1130     0.7890 H     1 <1>   0.0800 
 34 H       -4.1620     2.6940     2.1280 H     1 <1>   0.0800 
 35 H       -3.8250     4.1640     1.2290 H     1 <1>   0.0800 
 36 H       -4.3490     2.7650    -1.9790 H     1 <1>   0.0800 
 37 H       -5.2080     1.4590    -1.1860 H     1 <1>   0.0800 
 38 H        1.4240     1.4170     0.7420 H     1 <1>   0.1500 
 39 H        1.0340     3.6460    -2.8620 H     1 <1>   0.1500 
 40 H       -6.3470     2.5600     1.3060 H     1 <1>   0.0800 
 41 H       -6.1750     4.3060     1.3520 H     1 <1>   0.0800 
 42 H       -5.6430     4.3940    -0.9770 H     1 <1>   0.0800 
 43 H       -6.8510     3.1230    -0.9710 H     1 <1>   0.0800 
 44 H        3.7940     1.1490     0.3390 H     1 <1>   0.1500 
 45 H        3.4400     3.3870    -3.2720 H     1 <1>   0.1500 
 46 H        6.9720     1.4720    -1.4420 H     1 <1>   0.0800 
 47 H        5.6630     0.4020    -0.9510 H     1 <1>   0.0800 
 48 H        6.0160     1.8670    -0.0170 H     1 <1>   0.0800 
@<TRIPOS>BOND
  1   1   2  2   
  2   2   3  am  
  3   2   4  1   
  4   3   5  1   
  5   3  26  1   
  6   4   6  1   
  7   4   7  2   
  8   5   8  1   
  9   5  27  1   
 10   5  28  1   
 11   6   9  2   
 12   6  10  1   
 13   7  11  1   
 14   7  12  1   
 15   8  13  1   
 16   8  14  1   
 17   8  29  1   
 18   9  11  1   
 19  10  15  1   
 20  10  16  1   
 21  12  17  ar  
 22  12  18  ar  
 23  13  30  1   
 24  14  31  1   
 25  14  32  1   
 26  14  33  1   
 27  15  19  1   
 28  15  34  1   
 29  15  35  1   
 30  16  20  1   
 31  16  36  1   
 32  16  37  1   
 33  17  21  ar  
 34  17  38  1   
 35  18  22  ar  
 36  18  39  1   
 37  19  20  1   
 38  19  40  1   
 39  19  41  1   
 40  20  42  1   
 41  20  43  1   
 42  21  23  ar  
 43  21  44  1   
 44  22  23  ar  
 45  22  45  1   
 46  23  24  1   
 47  24  25  1   
 48  25  46  1   
 49  25  47  1   
 50  25  48  1   
@<TRIPOS>SUBSTRUCTURE
  1 ****   4 GROUP 4 **** **** 0

# MOE 2024.06 (io_trps.svl 2023.06)
