@<TRIPOS>MOLECULE
NONAME
53 56 1 0 0 
SMALL
USER_CHARGES


@<TRIPOS>ATOM
  1 O       -1.0400     0.6970    -1.2970 O.2   1 <1>  -0.5700 
  2 C       -1.2680     0.9560    -0.1420 C.2   1 <1>   0.5690 
  3 N       -1.8230     0.0490     0.6960 N.am  1 <1>  -0.7300 
  4 C       -0.9280     2.3320     0.3860 C.3   1 <1>  -0.0990 
  5 C       -2.2010    -1.3300     0.3090 C.3   1 <1>   0.2200 
  6 C        0.5260     2.7110     0.0680 C.3   1 <1>   0.0200 
  7 C       -3.7060    -1.4010     0.1180 C.3   1 <1>  -0.0800 
  8 C       -1.9950    -2.2680     1.4920 C.3   1 <1>   0.1200 
  9 C        0.8780     4.0680     0.6430 C.2   1 <1>   0.2980 
 10 C       -4.2070    -1.6290     1.5500 C.3   1 <1>   0.1200 
 11 C       -4.1000    -2.5500    -0.8300 C.3   1 <1>  -0.0170 
 12 O       -3.1310    -2.1300     2.2910 O.3   1 <1>  -0.5600 
 13 O        0.9850     4.1920     1.9390 O.3   1 <1>  -0.0190 
 14 N        1.0830     5.1250    -0.0250 N.2   1 <1>  -0.5650 
 15 C       -5.6050    -2.6030    -1.0450 C.ar  1 <1>  -0.1440 
 16 N        1.2820     5.4410     2.1120 N.2   1 <1>  -0.4100 
 17 C        1.3430     5.9990     0.9540 C.2   1 <1>   0.4620 
 18 C       -6.2540    -1.6920    -1.8540 C.ar  1 <1>  -0.1500 
 19 C       -6.4000    -3.5620    -0.4490 C.ar  1 <1>  -0.1500 
 20 C        1.6500     7.3970     0.7000 C.ar  1 <1>   0.0540 
 21 C       -7.6260    -1.7770    -2.0180 C.ar  1 <1>   0.1600 
 22 C       -7.7660    -3.5580    -0.6790 C.ar  1 <1>   0.1600 
 23 C        1.6870     7.9180    -0.5960 C.ar  1 <1>  -0.1500 
 24 C        1.9220     8.2800     1.7460 C.ar  1 <1>  -0.1500 
 25 N       -8.3990    -2.6870    -1.4480 N.ar  1 <1>  -0.6200 
 26 C        1.9780     9.2490    -0.8430 C.ar  1 <1>  -0.1440 
 27 C        2.2150     9.6100     1.5130 C.ar  1 <1>  -0.1500 
 28 C        2.2430    10.0960     0.2190 C.ar  1 <1>  -0.1500 
 29 C        2.0110     9.7850    -2.2630 C.3   1 <1>  -0.0970 
 30 H       -2.0520     0.2880     1.6630 H     1 <1>   0.3700 
 31 H       -1.5900     3.0440    -0.0710 H     1 <1>   0.0800 
 32 H       -1.0850     2.3610     1.4490 H     1 <1>   0.0800 
 33 H       -1.6450    -1.6410    -0.5610 H     1 <1>   0.0800 
 34 H        0.6660     2.7380    -0.9990 H     1 <1>   0.0800 
 35 H        1.1970     1.9740     0.4720 H     1 <1>   0.0800 
 36 H       -4.0910    -0.4790    -0.2820 H     1 <1>   0.0800 
 37 H       -1.1170    -2.0290     2.0660 H     1 <1>   0.0800 
 38 H       -1.9480    -3.2910     1.1640 H     1 <1>   0.0800 
 39 H       -5.0240    -2.3270     1.6060 H     1 <1>   0.0800 
 40 H       -4.5050    -0.6980     2.0010 H     1 <1>   0.0800 
 41 H       -3.7590    -3.4930    -0.4380 H     1 <1>   0.0800 
 42 H       -3.6230    -2.4040    -1.7840 H     1 <1>   0.0800 
 43 H       -5.7050    -0.9180    -2.3580 H     1 <1>   0.1500 
 44 H       -5.9730    -4.3110     0.1930 H     1 <1>   0.1500 
 45 H       -8.1140    -1.0570    -2.6520 H     1 <1>   0.1500 
 46 H       -8.3700    -4.3130    -0.2040 H     1 <1>   0.1500 
 47 H        1.4830     7.2620    -1.4240 H     1 <1>   0.1500 
 48 H        1.9040     7.9180     2.7600 H     1 <1>   0.1500 
 49 H        2.4210    10.2700     2.3380 H     1 <1>   0.1500 
 50 H        2.4720    11.1320     0.0420 H     1 <1>   0.1500 
 51 H        1.4540    10.7030    -2.3240 H     1 <1>   0.0800 
 52 H        1.5800     9.0800    -2.9500 H     1 <1>   0.0800 
 53 H        3.0280     9.9750    -2.5560 H     1 <1>   0.0800 
@<TRIPOS>BOND
  1   1   2  2   
  2   2   3  am  
  3   2   4  1   
  4   3   5  1   
  5   3  30  1   
  6   4   6  1   
  7   4  31  1   
  8   4  32  1   
  9   5   7  1   
 10   5   8  1   
 11   5  33  1   
 12   6   9  1   
 13   6  34  1   
 14   6  35  1   
 15   7  10  1   
 16   7  11  1   
 17   7  36  1   
 18   8  12  1   
 19   8  37  1   
 20   8  38  1   
 21   9  13  1   
 22   9  14  2   
 23  10  12  1   
 24  10  39  1   
 25  10  40  1   
 26  11  15  1   
 27  11  41  1   
 28  11  42  1   
 29  13  16  1   
 30  14  17  1   
 31  15  18  ar  
 32  15  19  ar  
 33  16  17  2   
 34  17  20  1   
 35  18  21  ar  
 36  18  43  1   
 37  19  22  ar  
 38  19  44  1   
 39  20  23  ar  
 40  20  24  ar  
 41  21  25  ar  
 42  21  45  1   
 43  22  25  ar  
 44  22  46  1   
 45  23  26  ar  
 46  23  47  1   
 47  24  27  ar  
 48  24  48  1   
 49  26  28  ar  
 50  26  29  1   
 51  27  28  ar  
 52  27  49  1   
 53  28  50  1   
 54  29  51  1   
 55  29  52  1   
 56  29  53  1   
@<TRIPOS>SUBSTRUCTURE
  1 ****   4 GROUP 4 **** **** 0

# MOE 2024.06 (io_trps.svl 2023.06)
