@<TRIPOS>MOLECULE
NONAME
45 47 1 0 0 
SMALL
USER_CHARGES


@<TRIPOS>ATOM
  1 CL      -0.0620    -2.0260     0.6630 Cl    1 <1>  -0.1230 
  2 C       -1.0580    -0.5890     0.4860 C.2   1 <1>   0.1230 
  3 C       -2.2850    -0.5240    -0.1800 C.2   1 <1>   0.2030 
  4 C       -0.7870     0.6350     0.9730 C.2   1 <1>  -0.3320 
  5 N       -2.7540     0.7160    -0.0960 N.2   1 <1>  -0.7070 
  6 C       -2.8830    -1.6690    -0.8480 C.2   1 <1>   0.7160 
  7 N       -1.8330     1.4030     0.6020 N.pl3 1 <1>   0.3000 
  8 C        0.4030     1.1350     1.7750 C.3   1 <1>  -0.0600 
  9 O       -2.2600    -2.2270    -1.7390 O.2   1 <1>  -0.5700 
 10 N       -4.1260    -2.1760    -0.5080 N.am  1 <1>  -0.6600 
 11 C       -4.6550    -3.4190    -1.1730 C.3   1 <1>   0.1400 
 12 C       -4.9860    -1.5880     0.5720 C.3   1 <1>   0.1400 
 13 C       -5.6750    -4.1210    -0.2700 C.3   1 <1>   0.2000 
 14 C       -6.4590    -1.7460     0.1930 C.3   1 <1>  -0.1600 
 15 O       -6.0870    -5.3220    -0.8260 O.3   1 <1>  -0.6800 
 16 C       -6.9030    -3.2390     0.0680 C.3   1 <1>  -0.1060 
 17 C       -7.3950    -3.8380     1.3880 C.2   1 <1>   0.9060 
 18 C       -8.0200    -3.3330    -1.0150 C.3   1 <1>  -0.0170 
 19 O       -7.2470    -3.2250     2.4510 O.co2 1 <1>  -0.9000 
 20 O       -7.8550    -4.9910     1.3610 O.co2 1 <1>  -0.9000 
 21 C       -9.1570    -2.3270    -0.8460 C.ar  1 <1>  -0.1430 
 22 C      -10.0780    -2.4790     0.1800 C.ar  1 <1>  -0.1500 
 23 C       -9.2900    -1.2580    -1.7190 C.ar  1 <1>  -0.1500 
 24 C      -11.1130    -1.5730     0.3340 C.ar  1 <1>  -0.1500 
 25 C      -10.3250    -0.3510    -1.5680 C.ar  1 <1>  -0.1500 
 26 C      -11.2380    -0.5080    -0.5400 C.ar  1 <1>  -0.1500 
 27 H       -1.9410     2.4040     0.8110 H     1 <1>   0.2700 
 28 H        1.1030     0.3350     1.9420 H     1 <1>   0.0800 
 29 H        0.0800     1.5090     2.7300 H     1 <1>   0.0800 
 30 H        0.9080     1.9220     1.2420 H     1 <1>   0.0800 
 31 H       -5.1200    -3.1470    -2.1030 H     1 <1>   0.0800 
 32 H       -3.8430    -4.0970    -1.3720 H     1 <1>   0.0800 
 33 H       -4.7970    -2.0930     1.5060 H     1 <1>   0.0800 
 34 H       -4.7760    -0.5430     0.7050 H     1 <1>   0.0800 
 35 H       -5.1620    -4.3780     0.6430 H     1 <1>   0.0800 
 36 H       -7.0740    -1.2440     0.9200 H     1 <1>   0.0800 
 37 H       -6.5990    -1.2320    -0.7400 H     1 <1>   0.0800 
 38 H       -6.7780    -5.6740    -0.2050 H     1 <1>   0.4000 
 39 H       -7.5750    -3.1940    -1.9830 H     1 <1>   0.0800 
 40 H       -8.4510    -4.3190    -1.0170 H     1 <1>   0.0800 
 41 H       -9.9850    -3.3050     0.8670 H     1 <1>   0.1500 
 42 H       -8.5830    -1.1270    -2.5190 H     1 <1>   0.1500 
 43 H      -11.8140    -1.7030     1.1390 H     1 <1>   0.1500 
 44 H      -10.4170     0.4760    -2.2490 H     1 <1>   0.1500 
 45 H      -12.0420     0.1960    -0.4180 H     1 <1>   0.1500 
@<TRIPOS>BOND
  1   1   2  1   
  2   2   3  1   
  3   2   4  2   
  4   3   5  2   
  5   3   6  1   
  6   4   7  1   
  7   4   8  1   
  8   5   7  1   
  9   6   9  2   
 10   6  10  am  
 11   7  27  1   
 12   8  28  1   
 13   8  29  1   
 14   8  30  1   
 15  10  11  1   
 16  10  12  1   
 17  11  13  1   
 18  11  31  1   
 19  11  32  1   
 20  12  14  1   
 21  12  33  1   
 22  12  34  1   
 23  13  15  1   
 24  13  16  1   
 25  13  35  1   
 26  14  16  1   
 27  14  36  1   
 28  14  37  1   
 29  15  38  1   
 30  16  17  1   
 31  16  18  1   
 32  17  19  ar  
 33  17  20  ar  
 34  18  21  1   
 35  18  39  1   
 36  18  40  1   
 37  21  22  ar  
 38  21  23  ar  
 39  22  24  ar  
 40  22  41  1   
 41  23  25  ar  
 42  23  42  1   
 43  24  26  ar  
 44  24  43  1   
 45  25  26  ar  
 46  25  44  1   
 47  26  45  1   
@<TRIPOS>SUBSTRUCTURE
  1 ****  12 GROUP 4 **** **** 0

# MOE 2024.06 (io_trps.svl 2023.06)
