@<TRIPOS>MOLECULE
NONAME
41 42 1 0 0 
SMALL
USER_CHARGES


@<TRIPOS>ATOM
  1 O       -1.4350    -0.9660     0.6410 O.2   1 <1>  -0.5700 
  2 C       -2.0590    -0.0010     0.2380 C.2   1 <1>   0.7160 
  3 N       -2.8940    -0.1400    -0.8480 N.am  1 <1>  -0.6600 
  4 C       -1.9550     1.2520     0.9310 C.2   1 <1>  -0.0860 
  5 C       -3.0500    -1.4510    -1.5290 C.3   1 <1>   0.3200 
  6 C       -3.8310     0.9380    -1.2890 C.3   1 <1>   0.1400 
  7 C       -1.2220     2.3670     0.5600 C.2   1 <1>   0.1080 
  8 C       -2.5330     1.6800     2.0710 C.2   1 <1>  -0.0400 
  9 C       -3.9970    -2.3120    -0.7220 C.2   1 <1>  -0.3320 
 10 C       -5.1650     0.8510    -0.5410 C.3   1 <1>   0.1200 
 11 N       -1.4040     3.3190     1.3970 N.2   1 <1>  -0.4100 
 12 C       -0.3200     2.4700    -0.6580 C.3   1 <1>   0.0210 
 13 O       -2.2140     2.9200     2.3530 O.3   1 <1>  -0.0190 
 14 C       -3.4620     0.9410     3.0140 C.3   1 <1>  -0.0600 
 15 N       -3.6810    -2.7740     0.5000 N.pl3 1 <1>   0.0330 
 16 C       -5.2360    -2.7780    -0.9930 C.2   1 <1>   0.0770 
 17 O       -5.9170     1.9810    -0.8260 O.3   1 <1>  -0.6800 
 18 C        0.9940     1.7120    -0.4420 C.3   1 <1>  -0.2400 
 19 C       -4.7530    -3.4890     0.9010 C.2   1 <1>   0.0060 
 20 N       -5.7090    -3.5130     0.0310 N.2   1 <1>  -0.5650 
 21 C       -4.8150    -4.1870     2.2410 C.3   1 <1>  -0.0600 
 22 H       -2.0930    -1.9380    -1.6100 H     1 <1>   0.0800 
 23 H       -3.4360    -1.3090    -2.5240 H     1 <1>   0.0800 
 24 H       -4.0110     0.8510    -2.3470 H     1 <1>   0.0800 
 25 H       -3.3870     1.9010    -1.1090 H     1 <1>   0.0800 
 26 H       -5.0170     0.8070     0.5230 H     1 <1>   0.0800 
 27 H       -5.7260    -0.0090    -0.8630 H     1 <1>   0.0800 
 28 H       -0.1040     3.5080    -0.8450 H     1 <1>   0.0800 
 29 H       -0.8290     2.0780    -1.5190 H     1 <1>   0.0800 
 30 H       -3.6430    -0.0590     2.6640 H     1 <1>   0.0800 
 31 H       -4.4000     1.4620     3.0860 H     1 <1>   0.0800 
 32 H       -3.0170     0.8910     3.9920 H     1 <1>   0.0800 
 33 H       -2.8020    -2.5910     1.0040 H     1 <1>   0.2700 
 34 H       -5.8270    -2.6240    -1.8810 H     1 <1>   0.1500 
 35 H       -5.5560     2.7680    -0.3720 H     1 <1>   0.4000 
 36 H        1.5080     2.1070     0.4170 H     1 <1>   0.0800 
 37 H        1.6300     1.8190    -1.3030 H     1 <1>   0.0800 
 38 H        0.8060     0.6660    -0.2790 H     1 <1>   0.0800 
 39 H       -4.0250    -4.9110     2.3160 H     1 <1>   0.0800 
 40 H       -5.7580    -4.6950     2.3430 H     1 <1>   0.0800 
 41 H       -4.7210    -3.4710     3.0360 H     1 <1>   0.0800 
@<TRIPOS>BOND
  1   1   2  2   
  2   2   3  am  
  3   2   4  1   
  4   3   5  1   
  5   3   6  1   
  6   4   7  1   
  7   4   8  2   
  8   5   9  1   
  9   5  22  1   
 10   5  23  1   
 11   6  10  1   
 12   6  24  1   
 13   6  25  1   
 14   7  11  2   
 15   7  12  1   
 16   8  13  1   
 17   8  14  1   
 18   9  15  1   
 19   9  16  2   
 20  10  17  1   
 21  10  26  1   
 22  10  27  1   
 23  11  13  1   
 24  12  18  1   
 25  12  28  1   
 26  12  29  1   
 27  14  30  1   
 28  14  31  1   
 29  14  32  1   
 30  15  19  1   
 31  15  33  1   
 32  16  20  1   
 33  16  34  1   
 34  17  35  1   
 35  18  36  1   
 36  18  37  1   
 37  18  38  1   
 38  19  20  2   
 39  19  21  1   
 40  21  39  1   
 41  21  40  1   
 42  21  41  1   
@<TRIPOS>SUBSTRUCTURE
  1 ****   2 GROUP 4 **** **** 0

# MOE 2024.06 (io_trps.svl 2023.06)
