@<TRIPOS>MOLECULE
NONAME
54 56 1 0 0 
SMALL
USER_CHARGES


@<TRIPOS>ATOM
  1 O       -1.8960     0.1380     1.3850 O.2   1 <1>  -0.5700 
  2 C       -1.5270     0.6770     0.3610 C.2   1 <1>   0.7160 
  3 N       -1.2910    -0.0530    -0.7630 N.am  1 <1>  -0.7300 
  4 C       -1.3750     2.0850     0.2900 C.2   1 <1>  -0.0860 
  5 C       -1.8890    -1.3860    -1.1120 C.3   1 <1>   0.2810 
  6 C       -2.4430     2.9640     0.1340 C.2   1 <1>   0.3720 
  7 C       -0.2810     2.8860     0.2670 C.2   1 <1>   0.0870 
  8 C       -3.3920    -1.5500    -0.7510 C.2   1 <1>   0.5690 
  9 C       -0.9730    -2.5560    -0.6540 C.3   1 <1>  -0.0800 
 10 N       -2.0260     4.1760     0.0150 N.2   1 <1>  -0.4100 
 11 N       -3.7810     2.5460     0.1080 N.pl3 1 <1>  -0.8210 
 12 O       -0.7200     4.1100     0.1020 O.3   1 <1>  -0.0190 
 13 C        1.1270     2.5960     0.3660 C.ar  1 <1>   0.0530 
 14 O       -3.8760    -2.6530    -0.6820 O.2   1 <1>  -0.5700 
 15 N       -4.2080    -0.4810    -0.5940 N.am  1 <1>  -0.8000 
 16 C       -0.8530    -2.7110     0.8700 C.3   1 <1>  -0.2400 
 17 C        0.4340    -2.4600    -1.2690 C.3   1 <1>  -0.2400 
 18 C       -4.3260     2.2420     1.4650 C.3   1 <1>   0.2090 
 19 C       -4.7490     3.4280    -0.6030 C.3   1 <1>   0.2090 
 20 C        2.0780     3.4490    -0.1970 C.ar  1 <1>  -0.1500 
 21 C        1.5960     1.4530     1.0160 C.ar  1 <1>  -0.1500 
 22 C       -5.6520     2.9850     1.5690 C.3   1 <1>  -0.1600 
 23 C       -6.0680     3.2350     0.1270 C.3   1 <1>  -0.1600 
 24 C        3.4290     3.1660    -0.1270 C.ar  1 <1>  -0.1500 
 25 C        2.9460     1.1630     1.0890 C.ar  1 <1>  -0.1500 
 26 C        3.8760     2.0210     0.5120 C.ar  1 <1>   0.0830 
 27 O        5.2130     1.8120     0.5340 O.3   1 <1>  -0.3630 
 28 C        5.7770     0.6940     1.1830 C.3   1 <1>   0.0400 
 29 H       -0.9100     0.4490    -1.5630 H     1 <1>   0.3700 
 30 H       -1.8880    -1.4310    -2.1860 H     1 <1>   0.0800 
 31 H       -1.4210    -3.4630    -1.0270 H     1 <1>   0.0800 
 32 H       -5.1810    -0.6400    -0.3420 H     1 <1>   0.3700 
 33 H       -3.8790     0.4910    -0.4990 H     1 <1>   0.3700 
 34 H       -0.3030    -1.8930     1.2980 H     1 <1>   0.0800 
 35 H       -0.3410    -3.6250     1.1120 H     1 <1>   0.0800 
 36 H       -1.8280    -2.7430     1.3240 H     1 <1>   0.0800 
 37 H        0.9570    -1.5970    -0.8970 H     1 <1>   0.0800 
 38 H        0.3740    -2.3940    -2.3410 H     1 <1>   0.0800 
 39 H        1.0070    -3.3360    -1.0190 H     1 <1>   0.0800 
 40 H       -4.4850     1.1810     1.5550 H     1 <1>   0.0800 
 41 H       -3.6480     2.5560     2.2420 H     1 <1>   0.0800 
 42 H       -4.4470     4.4600    -0.5330 H     1 <1>   0.0800 
 43 H       -4.8270     3.1490    -1.6390 H     1 <1>   0.0800 
 44 H        1.7550     4.3450    -0.6980 H     1 <1>   0.1500 
 45 H        0.8990     0.7790     1.4820 H     1 <1>   0.1500 
 46 H       -6.3840     2.4200     2.1180 H     1 <1>   0.0800 
 47 H       -5.4850     3.9230     2.0690 H     1 <1>   0.0800 
 48 H       -6.7100     4.0920     0.0260 H     1 <1>   0.0800 
 49 H       -6.5670     2.3680    -0.2710 H     1 <1>   0.0800 
 50 H        4.1500     3.8310    -0.5670 H     1 <1>   0.1500 
 51 H        3.2550     0.2700     1.5980 H     1 <1>   0.1500 
 52 H        6.8450     0.7500     1.0750 H     1 <1>   0.0800 
 53 H        5.4090    -0.2020     0.7170 H     1 <1>   0.0800 
 54 H        5.5130     0.7260     2.2250 H     1 <1>   0.0800 
@<TRIPOS>BOND
  1   1   2  2   
  2   2   3  am  
  3   2   4  1   
  4   3   5  1   
  5   3  29  1   
  6   4   6  1   
  7   4   7  2   
  8   5   8  1   
  9   5   9  1   
 10   5  30  1   
 11   6  10  2   
 12   6  11  1   
 13   7  12  1   
 14   7  13  1   
 15   8  14  2   
 16   8  15  am  
 17   9  16  1   
 18   9  17  1   
 19   9  31  1   
 20  10  12  1   
 21  11  18  1   
 22  11  19  1   
 23  13  20  ar  
 24  13  21  ar  
 25  15  32  1   
 26  15  33  1   
 27  16  34  1   
 28  16  35  1   
 29  16  36  1   
 30  17  37  1   
 31  17  38  1   
 32  17  39  1   
 33  18  22  1   
 34  18  40  1   
 35  18  41  1   
 36  19  23  1   
 37  19  42  1   
 38  19  43  1   
 39  20  24  ar  
 40  20  44  1   
 41  21  25  ar  
 42  21  45  1   
 43  22  23  1   
 44  22  46  1   
 45  22  47  1   
 46  23  48  1   
 47  23  49  1   
 48  24  26  ar  
 49  24  50  1   
 50  25  26  ar  
 51  25  51  1   
 52  26  27  1   
 53  27  28  1   
 54  28  52  1   
 55  28  53  1   
 56  28  54  1   
@<TRIPOS>SUBSTRUCTURE
  1 ****   2 GROUP 4 **** **** 0

# MOE 2024.06 (io_trps.svl 2023.06)
