@<TRIPOS>MOLECULE
NONAME
49 51 1 0 0 
SMALL
USER_CHARGES


@<TRIPOS>ATOM
  1 CL      -0.2510    -1.8910    -2.9160 Cl    1 <1>  -0.1770 
  2 C        0.6610    -2.8110    -1.7470 C.ar  1 <1>   0.1770 
  3 C        1.4170    -2.1490    -0.7990 C.ar  1 <1>  -0.1500 
  4 C        0.6130    -4.1920    -1.7810 C.ar  1 <1>  -0.1500 
  5 C        2.1390    -2.8850     0.1240 C.ar  1 <1>  -0.1500 
  6 C        1.3360    -4.9150    -0.8490 C.ar  1 <1>  -0.1500 
  7 C        2.1220    -4.2800     0.1140 C.ar  1 <1>   0.0540 
  8 C        2.8930    -5.0280     1.0860 C.2   1 <1>   0.2350 
  9 N        2.8960    -4.7350     2.3640 N.2   1 <1>  -0.7070 
 10 C        3.7220    -6.1300     0.8320 C.2   1 <1>  -0.1810 
 11 N        3.7030    -5.6420     2.9360 N.pl3 1 <1>   0.3000 
 12 C        4.2160    -6.4930     2.0320 C.2   1 <1>  -0.3020 
 13 C        4.0070    -6.7840    -0.5060 C.3   1 <1>   0.3210 
 14 N        3.2990    -8.0710    -0.5320 N.am  1 <1>  -0.7300 
 15 C        2.4500    -8.4870    -1.4990 C.2   1 <1>   0.5690 
 16 O        2.2520    -7.8300    -2.4930 O.2   1 <1>  -0.5700 
 17 C        1.7030    -9.8120    -1.3370 C.3   1 <1>  -0.0190 
 18 C        0.5150    -9.7460    -0.3360 C.3   1 <1>  -0.0190 
 19 C        2.6380   -10.9950    -1.0170 C.3   1 <1>  -0.1600 
 20 C        0.7870    -8.8520     0.8760 C.2   1 <1>   0.5690 
 21 C        0.0570   -11.1510     0.1360 C.3   1 <1>  -0.1600 
 22 C        1.9040   -12.3460    -1.1250 C.3   1 <1>  -0.1600 
 23 O        1.7170    -9.1100     1.6060 O.2   1 <1>  -0.5700 
 24 N       -0.0190    -7.7780     1.0890 N.am  1 <1>  -0.7300 
 25 C        0.3860   -12.2460    -0.8850 C.3   1 <1>  -0.1600 
 26 C        0.1480    -6.7880     2.1840 C.3   1 <1>   0.0600 
 27 H        1.4360    -1.0740    -0.7850 H     1 <1>   0.1500 
 28 H        0.0200    -4.6900    -2.5260 H     1 <1>   0.1500 
 29 H        2.7280    -2.3830     0.8720 H     1 <1>   0.1500 
 30 H        1.2900    -5.9890    -0.8650 H     1 <1>   0.1500 
 31 H        3.8850    -5.6570     3.9470 H     1 <1>   0.2700 
 32 H        4.8850    -7.2940     2.2920 H     1 <1>   0.1500 
 33 H        5.0640    -6.9630    -0.6010 H     1 <1>   0.0800 
 34 H        3.6950    -6.1560    -1.3220 H     1 <1>   0.0800 
 35 H        3.2200    -8.5160     0.3930 H     1 <1>   0.3700 
 36 H        1.2840   -10.0220    -2.3060 H     1 <1>   0.0800 
 37 H       -0.3040    -9.3070    -0.8770 H     1 <1>   0.0800 
 38 H        3.4820   -10.9900    -1.6860 H     1 <1>   0.0800 
 39 H        3.0180   -10.8800    -0.0150 H     1 <1>   0.0800 
 40 H        0.5540   -11.4020     1.0600 H     1 <1>   0.0800 
 41 H       -1.0000   -11.1370     0.3360 H     1 <1>   0.0800 
 42 H        2.0680   -12.7670    -2.1030 H     1 <1>   0.0800 
 43 H        2.3350   -13.0260    -0.4090 H     1 <1>   0.0800 
 44 H       -0.7950    -7.5960     0.4500 H     1 <1>   0.3700 
 45 H        0.0140   -13.1960    -0.5400 H     1 <1>   0.0800 
 46 H       -0.1120   -12.0220    -1.8130 H     1 <1>   0.0800 
 47 H        1.0610    -6.9740     2.7230 H     1 <1>   0.0800 
 48 H       -0.6790    -6.8570     2.8680 H     1 <1>   0.0800 
 49 H        0.1880    -5.7930     1.7770 H     1 <1>   0.0800 
@<TRIPOS>BOND
  1   1   2  1   
  2   2   3  ar  
  3   2   4  ar  
  4   3   5  ar  
  5   3  27  1   
  6   4   6  ar  
  7   4  28  1   
  8   5   7  ar  
  9   5  29  1   
 10   6   7  ar  
 11   6  30  1   
 12   7   8  1   
 13   8   9  2   
 14   8  10  1   
 15   9  11  1   
 16  10  12  2   
 17  10  13  1   
 18  11  12  1   
 19  11  31  1   
 20  12  32  1   
 21  13  14  1   
 22  13  33  1   
 23  13  34  1   
 24  14  15  am  
 25  14  35  1   
 26  15  16  2   
 27  15  17  1   
 28  17  18  1   
 29  17  19  1   
 30  17  36  1   
 31  18  20  1   
 32  18  21  1   
 33  18  37  1   
 34  19  22  1   
 35  19  38  1   
 36  19  39  1   
 37  20  23  2   
 38  20  24  am  
 39  21  25  1   
 40  21  40  1   
 41  21  41  1   
 42  22  25  1   
 43  22  42  1   
 44  22  43  1   
 45  24  26  1   
 46  24  44  1   
 47  25  45  1   
 48  25  46  1   
 49  26  47  1   
 50  26  48  1   
 51  26  49  1   
@<TRIPOS>SUBSTRUCTURE
  1 ****  14 GROUP 4 **** **** 0

# MOE 2024.06 (io_trps.svl 2023.06)
