@<TRIPOS>MOLECULE
NONAME
34 36 1 0 0 
SMALL
USER_CHARGES


@<TRIPOS>ATOM
  1 F       -1.3780    -0.2190     1.8280 F     1 <1>  -0.1900 
  2 C       -2.1290     0.5200     1.0560 C.ar  1 <1>   0.1900 
  3 C       -2.9080    -0.0850     0.0730 C.ar  1 <1>   0.0860 
  4 C       -2.1040     1.8840     1.2710 C.ar  1 <1>  -0.1500 
  5 C       -3.6930     0.7640    -0.7220 C.ar  1 <1>  -0.1440 
  6 C       -2.8910    -1.5200    -0.0990 C.2   1 <1>   0.5440 
  7 C       -2.8880     2.6990     0.4760 C.ar  1 <1>  -0.1500 
  8 C       -3.6770     2.1360    -0.5140 C.ar  1 <1>  -0.1500 
  9 C       -4.5830     0.1920    -1.8190 C.3   1 <1>  -0.0960 
 10 O       -2.0390    -2.0260    -0.8080 O.2   1 <1>  -0.5700 
 11 N       -3.8330    -2.3150     0.5010 N.am  1 <1>  -0.6600 
 12 C       -5.0170    -1.8180     1.2570 C.3   1 <1>   0.2350 
 13 C       -4.0090    -3.7650     0.2060 C.3   1 <1>   0.2350 
 14 C       -6.1400    -2.7770     0.9070 C.3   1 <1>  -0.2420 
 15 C       -5.5100    -4.0020     0.2850 C.3   1 <1>  -0.2420 
 16 C       -7.3140    -2.5790     1.8680 C.2   1 <1>   0.9470 
 17 C       -6.4490    -3.1440    -0.5240 C.3   1 <1>  -0.2000 
 18 C       -5.8230    -5.4910     0.4510 C.2   1 <1>   0.9470 
 19 O       -8.4150    -2.2350     1.4170 O.co2 1 <1>  -0.9000 
 20 O       -7.0980    -2.5840     3.0880 O.co2 1 <1>  -0.9000 
 21 O       -5.2410    -6.1330     1.3360 O.co2 1 <1>  -0.9000 
 22 O       -6.5310    -6.0640    -0.3900 O.co2 1 <1>  -0.9000 
 23 H       -1.4840     2.2960     2.0470 H     1 <1>   0.1500 
 24 H       -2.8880     3.7650     0.6250 H     1 <1>   0.1500 
 25 H       -4.2860     2.7800    -1.1250 H     1 <1>   0.1500 
 26 H       -4.8740     0.9550    -2.5180 H     1 <1>   0.0800 
 27 H       -5.4720    -0.2300    -1.3840 H     1 <1>   0.0800 
 28 H       -4.0680    -0.5810    -2.3630 H     1 <1>   0.0800 
 29 H       -4.8100    -1.8680     2.3130 H     1 <1>   0.0800 
 30 H       -5.2850    -0.8140     0.9880 H     1 <1>   0.0800 
 31 H       -3.6310    -4.0190    -0.7680 H     1 <1>   0.0800 
 32 H       -3.5000    -4.3450     0.9560 H     1 <1>   0.0800 
 33 H       -6.0520    -2.5650    -1.3350 H     1 <1>   0.1000 
 34 H       -7.4270    -3.5410    -0.7400 H     1 <1>   0.1000 
@<TRIPOS>BOND
  1   1   2  1   
  2   2   3  ar  
  3   2   4  ar  
  4   3   5  ar  
  5   3   6  1   
  6   4   7  ar  
  7   4  23  1   
  8   5   8  ar  
  9   5   9  1   
 10   6  10  2   
 11   6  11  am  
 12   7   8  ar  
 13   7  24  1   
 14   8  25  1   
 15   9  26  1   
 16   9  27  1   
 17   9  28  1   
 18  11  12  1   
 19  11  13  1   
 20  12  14  1   
 21  12  29  1   
 22  12  30  1   
 23  13  15  1   
 24  13  31  1   
 25  13  32  1   
 26  14  15  1   
 27  14  16  1   
 28  14  17  1   
 29  15  17  1   
 30  15  18  1   
 31  16  19  ar  
 32  16  20  ar  
 33  17  33  1   
 34  17  34  1   
 35  18  21  ar  
 36  18  22  ar  
@<TRIPOS>SUBSTRUCTURE
  1 ****  11 GROUP 4 **** **** 0

# MOE 2024.06 (io_trps.svl 2023.06)
