@<TRIPOS>MOLECULE
NONAME
49 52 1 0 0 
SMALL
USER_CHARGES


@<TRIPOS>ATOM
  1 O       -0.9970     0.3890     1.5990 O.2   1 <1>  -0.5700 
  2 C       -1.8670     0.8370     0.8760 C.2   1 <1>   0.5440 
  3 N       -1.6840     2.0860     0.3210 N.am  1 <1>  -0.6600 
  4 C       -3.0430     0.0420     0.6230 C.ar  1 <1>   0.0860 
  5 C       -0.5870     2.9920     0.7770 C.3   1 <1>   0.1400 
  6 C       -2.3730     2.5850    -0.9070 C.3   1 <1>   0.1400 
  7 C       -2.9190    -1.2930     0.2490 C.ar  1 <1>   0.1600 
  8 C       -4.3360     0.5400     0.7500 C.ar  1 <1>  -0.1500 
  9 C       -1.0790     4.4480     0.8430 C.3   1 <1>   0.1200 
 10 C       -2.7730     4.0610    -0.7380 C.3   1 <1>   0.1200 
 11 N       -3.9130    -2.1200    -0.0260 N.ar  1 <1>  -0.6200 
 12 C       -5.3820    -0.3060     0.4750 C.ar  1 <1>  -0.1500 
 13 O       -1.6660     4.8340    -0.3690 O.3   1 <1>  -0.5600 
 14 C       -5.1410    -1.6220     0.0850 C.ar  1 <1>   0.4100 
 15 N       -6.1870    -2.4670    -0.2010 N.pl3 1 <1>  -0.8380 
 16 C       -6.0020    -3.9490    -0.0050 C.3   1 <1>   0.3900 
 17 C       -7.2500    -2.0650    -1.1620 C.3   1 <1>   0.1290 
 18 C       -7.2930    -4.7010     0.3390 C.2   1 <1>   0.3350 
 19 N       -7.6240    -5.0830     1.5110 N.2   1 <1>  -0.4100 
 20 N       -8.1850    -5.0410    -0.5900 N.2   1 <1>  -0.5650 
 21 O       -8.7670    -5.6900     1.4120 O.3   1 <1>  -0.0190 
 22 C       -9.0500    -5.6320     0.1330 C.2   1 <1>   0.3170 
 23 C      -10.3430    -6.2540    -0.3730 C.3   1 <1>   0.1610 
 24 C      -11.6260    -5.8430     0.3980 C.3   1 <1>   0.0000 
 25 C      -10.6140    -7.7080     0.1000 C.3   1 <1>   0.0000 
 26 C      -12.1080    -7.3060     0.2150 C.3   1 <1>   0.0000 
 27 H        0.2380     2.9230     0.0900 H     1 <1>   0.0800 
 28 H       -0.2360     2.6940     1.7500 H     1 <1>   0.0800 
 29 H       -3.2440     1.9980    -1.1320 H     1 <1>   0.0800 
 30 H       -1.6990     2.5040    -1.7420 H     1 <1>   0.0800 
 31 H       -1.9220    -1.6940     0.1750 H     1 <1>   0.1500 
 32 H       -4.5000     1.5560     1.0630 H     1 <1>   0.1500 
 33 H       -0.2530     5.1090     1.0340 H     1 <1>   0.0800 
 34 H       -1.8040     4.5640     1.6300 H     1 <1>   0.0800 
 35 H       -3.5330     4.1660     0.0170 H     1 <1>   0.0800 
 36 H       -3.1500     4.4520    -1.6660 H     1 <1>   0.0800 
 37 H       -6.3980     0.0260     0.5690 H     1 <1>   0.1500 
 38 H       -5.3030    -4.1140     0.7960 H     1 <1>   0.0800 
 39 H       -5.5820    -4.3710    -0.8990 H     1 <1>   0.0800 
 40 H       -7.0870    -1.0610    -1.5120 H     1 <1>   0.0800 
 41 H       -8.2110    -2.1180    -0.6800 H     1 <1>   0.0800 
 42 H       -7.2480    -2.7270    -2.0110 H     1 <1>   0.0800 
 43 H      -10.4710    -6.1530    -1.4380 H     1 <1>   0.0000 
 44 H      -12.2300    -5.1180    -0.1190 H     1 <1>   0.0000 
 45 H      -11.4490    -5.5970     1.4310 H     1 <1>   0.0000 
 46 H      -10.1780    -7.9400     1.0570 H     1 <1>   0.0000 
 47 H      -10.4220    -8.4520    -0.6520 H     1 <1>   0.0000 
 48 H      -12.6500    -7.4520    -0.7040 H     1 <1>   0.0000 
 49 H      -12.6040    -7.7130     1.0780 H     1 <1>   0.0000 
@<TRIPOS>BOND
  1   1   2  2   
  2   2   3  am  
  3   2   4  1   
  4   3   5  1   
  5   3   6  1   
  6   4   7  ar  
  7   4   8  ar  
  8   5   9  1   
  9   5  27  1   
 10   5  28  1   
 11   6  10  1   
 12   6  29  1   
 13   6  30  1   
 14   7  11  ar  
 15   7  31  1   
 16   8  12  ar  
 17   8  32  1   
 18   9  13  1   
 19   9  33  1   
 20   9  34  1   
 21  10  13  1   
 22  10  35  1   
 23  10  36  1   
 24  11  14  ar  
 25  12  14  ar  
 26  12  37  1   
 27  14  15  1   
 28  15  16  1   
 29  15  17  1   
 30  16  18  1   
 31  16  38  1   
 32  16  39  1   
 33  17  40  1   
 34  17  41  1   
 35  17  42  1   
 36  18  19  2   
 37  18  20  1   
 38  19  21  1   
 39  20  22  2   
 40  21  22  1   
 41  22  23  1   
 42  23  24  1   
 43  23  25  1   
 44  23  43  1   
 45  24  26  1   
 46  24  44  1   
 47  24  45  1   
 48  25  26  1   
 49  25  46  1   
 50  25  47  1   
 51  26  48  1   
 52  26  49  1   
@<TRIPOS>SUBSTRUCTURE
  1 ****  14 GROUP 4 **** **** 0

# MOE 2024.06 (io_trps.svl 2023.06)
