@<TRIPOS>MOLECULE
NONAME
23 23 1 0 0 
SMALL
USER_CHARGES


@<TRIPOS>ATOM
  1 O       -3.9830    -0.3610     0.0370 O.3   1 <1>  -0.5600 
  2 C       -5.1770     0.2300    -0.3770 C.3   1 <1>   0.2000 
  3 C       -3.8440    -1.7000    -0.3620 C.3   1 <1>   0.1200 
  4 C       -6.3630    -0.5990     0.1560 C.3   1 <1>   0.1200 
  5 C       -5.1650     1.6720     0.1500 C.3   1 <1>   0.3430 
  6 C       -5.0520    -2.5310     0.1100 C.3   1 <1>   0.1200 
  7 O       -6.2460    -1.9140    -0.2840 O.3   1 <1>  -0.5600 
  8 N       -6.3050     2.5040    -0.3630 N.4   1 <1>  -0.9060 
  9 C       -6.2320     3.9100     0.1350 C.3   1 <1>   0.2630 
 10 H       -5.1810     0.2350    -1.4540 H     1 <1>   0.0800 
 11 H       -3.7610    -1.7370    -1.4350 H     1 <1>   0.0800 
 12 H       -2.9360    -2.0850     0.0670 H     1 <1>   0.0800 
 13 H       -7.2990    -0.2220    -0.2160 H     1 <1>   0.0800 
 14 H       -6.3860    -0.5990     1.2330 H     1 <1>   0.0800 
 15 H       -4.2330     2.1250    -0.1500 H     1 <1>   0.0800 
 16 H       -5.1920     1.6430     1.2270 H     1 <1>   0.0800 
 17 H       -5.0490    -2.6310     1.1820 H     1 <1>   0.0800 
 18 H       -5.0260    -3.5140    -0.3270 H     1 <1>   0.0800 
 19 H       -6.2900     2.5070    -1.3930 H     1 <1>   0.4500 
 20 H       -7.2030     2.0880    -0.0800 H     1 <1>   0.4500 
 21 H       -5.3110     4.3740    -0.1820 H     1 <1>   0.0800 
 22 H       -6.2740     3.9310     1.2130 H     1 <1>   0.0800 
 23 H       -7.0570     4.4890    -0.2510 H     1 <1>   0.0800 
@<TRIPOS>BOND
  1   1   2  1   
  2   1   3  1   
  3   2   4  1   
  4   2   5  1   
  5   2  10  1   
  6   3   6  1   
  7   3  11  1   
  8   3  12  1   
  9   4   7  1   
 10   4  13  1   
 11   4  14  1   
 12   5   8  1   
 13   5  15  1   
 14   5  16  1   
 15   6   7  1   
 16   6  17  1   
 17   6  18  1   
 18   8   9  1   
 19   8  19  1   
 20   8  20  1   
 21   9  21  1   
 22   9  22  1   
 23   9  23  1   
@<TRIPOS>SUBSTRUCTURE
  1 ****   2 GROUP 4 **** **** 0

# MOE 2024.06 (io_trps.svl 2023.06)
