@<TRIPOS>MOLECULE
NONAME
32 33 1 0 0 
SMALL
USER_CHARGES


@<TRIPOS>ATOM
  1 O       -0.2900    -0.0900     0.7930 O.2   1 <1>  -0.5700 
  2 C        0.7770    -0.6370     0.6480 C.2   1 <1>   0.5690 
  3 N        1.9370     0.0110     0.3470 N.am  1 <1>  -0.4930 
  4 C        0.8170    -2.1380     0.7910 C.3   1 <1>  -0.0990 
  5 C        2.1610     1.3990     0.1550 C.2   1 <1>   0.0630 
  6 C       -0.0070    -2.7860    -0.3260 C.3   1 <1>   0.0960 
  7 C        3.3650     2.0150    -0.1980 C.2   1 <1>   0.1080 
  8 C        1.2870     2.4190     0.2690 C.2   1 <1>  -0.3020 
  9 N        0.1130    -4.2530    -0.2650 N.pl3 1 <1>   0.3140 
 10 N        3.2490     3.3040    -0.2940 N.2   1 <1>  -0.7070 
 11 C        4.6760     1.3060    -0.4500 C.3   1 <1>  -0.0590 
 12 N        1.9610     3.5530    -0.0040 N.pl3 1 <1>   0.3140 
 13 N        1.2690    -4.8790    -0.5550 N.2   1 <1>  -0.7070 
 14 C       -0.8480    -5.1330     0.0790 C.2   1 <1>  -0.3020 
 15 C        1.4130     4.9130    -0.0050 C.3   1 <1>   0.0160 
 16 C        1.0120    -6.1420    -0.3930 C.2   1 <1>   0.1390 
 17 C       -0.3000    -6.3640     0.0060 C.2   1 <1>  -0.1500 
 18 H        2.7670    -0.5680     0.2380 H     1 <1>   0.3700 
 19 H        0.4030    -2.4030     1.7470 H     1 <1>   0.0800 
 20 H        1.8330    -2.4850     0.7450 H     1 <1>   0.0800 
 21 H        0.3510    -2.4640    -1.2870 H     1 <1>   0.0800 
 22 H       -1.0420    -2.5130    -0.2340 H     1 <1>   0.0800 
 23 H        0.2450     2.3930     0.5250 H     1 <1>   0.1500 
 24 H        4.5580     0.5870    -1.2390 H     1 <1>   0.0800 
 25 H        5.0010     0.8110     0.4460 H     1 <1>   0.0800 
 26 H        5.4250     2.0210    -0.7420 H     1 <1>   0.0800 
 27 H       -1.8460    -4.8420     0.3500 H     1 <1>   0.1500 
 28 H        0.7700     5.0310    -0.8560 H     1 <1>   0.0800 
 29 H        2.2220     5.6180    -0.0630 H     1 <1>   0.0800 
 30 H        0.8590     5.0720     0.9010 H     1 <1>   0.0800 
 31 H        1.7400    -6.9200    -0.5510 H     1 <1>   0.1500 
 32 H       -0.7500    -7.3200     0.2040 H     1 <1>   0.1500 
@<TRIPOS>BOND
  1   1   2  2   
  2   2   3  am  
  3   2   4  1   
  4   3   5  1   
  5   3  18  1   
  6   4   6  1   
  7   4  19  1   
  8   4  20  1   
  9   5   7  1   
 10   5   8  2   
 11   6   9  1   
 12   6  21  1   
 13   6  22  1   
 14   7  10  2   
 15   7  11  1   
 16   8  12  1   
 17   8  23  1   
 18   9  13  1   
 19   9  14  1   
 20  10  12  1   
 21  11  24  1   
 22  11  25  1   
 23  11  26  1   
 24  12  15  1   
 25  13  16  2   
 26  14  17  2   
 27  14  27  1   
 28  15  28  1   
 29  15  29  1   
 30  15  30  1   
 31  16  17  1   
 32  16  31  1   
 33  17  32  1   
@<TRIPOS>SUBSTRUCTURE
  1 ****   2 GROUP 4 **** **** 0

# MOE 2024.06 (io_trps.svl 2023.06)
