@<TRIPOS>MOLECULE
NONAME
46 48 1 0 0 
SMALL
USER_CHARGES


@<TRIPOS>ATOM
  1 O       -0.3610     0.7180    -0.3780 O.3   1 <1>  -0.2800 
  2 C       -0.0250     1.8340     0.2360 C.2   1 <1>  -0.0400 
  3 C       -1.6030     0.4300    -0.0450 C.2   1 <1>  -0.0100 
  4 C       -1.0600     2.2860     0.9840 C.2   1 <1>  -0.1500 
  5 C        1.3800     2.3570    -0.0070 C.3   1 <1>   0.5230 
  6 C       -2.0950     1.3630     0.7960 C.2   1 <1>  -0.1500 
  7 N        1.4720     3.8120     0.3120 N.4   1 <1>  -0.9590 
  8 C        0.6530     4.6190    -0.6440 C.3   1 <1>   0.3430 
  9 C        2.8930     4.2620     0.3570 C.3   1 <1>   0.3430 
 10 C        0.6800     6.0880    -0.2330 C.3   1 <1>  -0.1600 
 11 C        2.9490     5.7210     0.7850 C.3   1 <1>  -0.1600 
 12 C        2.1180     6.5880    -0.1560 C.3   1 <1>   0.2890 
 13 N        2.1160     7.9520     0.3680 N.pl3 1 <1>  -0.8690 
 14 C        2.9560     8.9040    -0.1960 C.ar  1 <1>   0.4100 
 15 N        4.1670     8.5050    -0.5390 N.ar  1 <1>  -0.6200 
 16 C        2.4710    10.2380    -0.3860 C.ar  1 <1>   0.4100 
 17 C        4.8830     9.4960    -1.0600 C.ar  1 <1>   0.1600 
 18 N        3.2020    11.2020    -0.9150 N.ar  1 <1>  -0.6200 
 19 N        1.1650    10.5780     0.0000 N.pl3 1 <1>  -0.8380 
 20 C        4.4210    10.7880    -1.2400 C.ar  1 <1>   0.1600 
 21 C        0.4000    11.4400    -0.9440 C.3   1 <1>   0.1290 
 22 C        1.0550    11.0410     1.4080 C.3   1 <1>   0.1290 
 23 H       -2.0610    -0.4570    -0.4500 H     1 <1>   0.1500 
 24 H       -1.1400     3.1540     1.6140 H     1 <1>   0.1500 
 25 H        1.6390     2.1940    -1.0400 H     1 <1>   0.0800 
 26 H        2.0670     1.7930     0.6040 H     1 <1>   0.0800 
 27 H       -3.0730     1.4100     1.2460 H     1 <1>   0.1500 
 28 H        1.0740     3.9330     1.2510 H     1 <1>   0.4500 
 29 H       -0.3670     4.2670    -0.6510 H     1 <1>   0.0800 
 30 H        1.0500     4.5170    -1.6420 H     1 <1>   0.0800 
 31 H        3.3450     4.1580    -0.6180 H     1 <1>   0.0800 
 32 H        3.4530     3.6630     1.0580 H     1 <1>   0.0800 
 33 H        0.1910     6.2040     0.7170 H     1 <1>   0.0800 
 34 H        0.1430     6.6650    -0.9650 H     1 <1>   0.0800 
 35 H        3.9710     6.0540     0.7580 H     1 <1>   0.0800 
 36 H        2.5950     5.8210     1.7950 H     1 <1>   0.0800 
 37 H        2.5550     6.5790    -1.1430 H     1 <1>   0.0800 
 38 H        1.1830     8.3800     0.4390 H     1 <1>   0.4000 
 39 H        5.8900     9.2620    -1.3570 H     1 <1>   0.1500 
 40 H        5.0800    11.5190    -1.6720 H     1 <1>   0.1500 
 41 H        0.5740    11.1180    -1.9560 H     1 <1>   0.0800 
 42 H        0.7190    12.4640    -0.8500 H     1 <1>   0.0800 
 43 H       -0.6530    11.3740    -0.7330 H     1 <1>   0.0800 
 44 H        1.6250    10.3960     2.0550 H     1 <1>   0.0800 
 45 H        0.0250    11.0280     1.7210 H     1 <1>   0.0800 
 46 H        1.4400    12.0430     1.4940 H     1 <1>   0.0800 
@<TRIPOS>BOND
  1   1   2  1   
  2   1   3  1   
  3   2   4  2   
  4   2   5  1   
  5   3   6  2   
  6   3  23  1   
  7   4   6  1   
  8   4  24  1   
  9   5   7  1   
 10   5  25  1   
 11   5  26  1   
 12   6  27  1   
 13   7   8  1   
 14   7   9  1   
 15   7  28  1   
 16   8  10  1   
 17   8  29  1   
 18   8  30  1   
 19   9  11  1   
 20   9  31  1   
 21   9  32  1   
 22  10  12  1   
 23  10  33  1   
 24  10  34  1   
 25  11  12  1   
 26  11  35  1   
 27  11  36  1   
 28  12  13  1   
 29  12  37  1   
 30  13  14  1   
 31  13  38  1   
 32  14  15  ar  
 33  14  16  ar  
 34  15  17  ar  
 35  16  18  ar  
 36  16  19  1   
 37  17  20  ar  
 38  17  39  1   
 39  18  20  ar  
 40  19  21  1   
 41  19  22  1   
 42  20  40  1   
 43  21  41  1   
 44  21  42  1   
 45  21  43  1   
 46  22  44  1   
 47  22  45  1   
 48  22  46  1   
@<TRIPOS>SUBSTRUCTURE
  1 ****  12 GROUP 4 **** **** 0

# MOE 2024.06 (io_trps.svl 2023.06)
