@<TRIPOS>MOLECULE
NONAME
35 37 1 0 0 
SMALL
USER_CHARGES


@<TRIPOS>ATOM
  1 S       -0.2840     0.0980    -0.7530 S.3   1 <1>  -0.0800 
  2 C       -1.4210    -0.8160     0.1810 C.2   1 <1>   0.4420 
  3 C       -0.4250     1.3520     0.4350 C.2   1 <1>   0.1980 
  4 N       -1.7950    -0.1910     1.2380 N.2   1 <1>  -0.3380 
  5 N       -1.7510    -2.0590    -0.3090 N.am  1 <1>  -0.4940 
  6 N       -1.2260     1.0450     1.3750 N.2   1 <1>  -0.3380 
  7 C        0.3850     2.6320     0.2580 C.3   1 <1>   0.3800 
  8 C       -2.6660    -2.9710     0.1560 C.2   1 <1>   0.7160 
  9 O        0.2890     3.0650    -1.0700 O.3   1 <1>  -0.5600 
 10 C        1.8640     2.4120     0.5870 C.3   1 <1>  -0.2400 
 11 O       -3.4630    -2.6410     1.0140 O.2   1 <1>  -0.5700 
 12 C       -2.6770    -4.2840    -0.4050 C.2   1 <1>  -0.0860 
 13 C        0.3780     4.4420    -1.2610 C.3   1 <1>   0.0400 
 14 C       -3.6640    -5.2400    -0.4080 C.2   1 <1>  -0.0680 
 15 C       -1.6400    -4.9180    -1.1120 C.2   1 <1>   0.1390 
 16 N       -3.1950    -6.3030    -1.0780 N.pl3 1 <1>   0.6010 
 17 N       -4.9510    -5.4980     0.0180 N.pl3 1 <1>  -0.5530 
 18 N       -1.9290    -6.1120    -1.5280 N.2   1 <1>  -0.7070 
 19 C       -4.1830    -7.2680    -1.0890 C.2   1 <1>  -0.1810 
 20 C       -5.2490    -6.7790    -0.4210 C.2   1 <1>  -0.0500 
 21 C       -5.7990    -4.6100     0.8450 C.3   1 <1>   0.1290 
 22 H       -1.2870    -2.3140    -1.1720 H     1 <1>   0.3700 
 23 H       -0.0340     3.3850     0.9050 H     1 <1>   0.0800 
 24 H        2.2950     1.7030    -0.0970 H     1 <1>   0.0800 
 25 H        1.9550     2.0240     1.5850 H     1 <1>   0.0800 
 26 H        2.4070     3.3370     0.5340 H     1 <1>   0.0800 
 27 H        0.2920     4.6380    -2.3160 H     1 <1>   0.0800 
 28 H        1.3290     4.7980    -0.9060 H     1 <1>   0.0800 
 29 H       -0.4290     4.9270    -0.7390 H     1 <1>   0.0800 
 30 H       -0.6780    -4.4720    -1.2980 H     1 <1>   0.1500 
 31 H       -4.0170    -8.2080    -1.5750 H     1 <1>   0.1500 
 32 H       -6.2010    -7.2430    -0.2210 H     1 <1>   0.1500 
 33 H       -5.9150    -3.6610     0.3520 H     1 <1>   0.0800 
 34 H       -5.3270    -4.4510     1.7990 H     1 <1>   0.0800 
 35 H       -6.7650    -5.0550     0.9940 H     1 <1>   0.0800 
@<TRIPOS>BOND
  1   1   2  1   
  2   1   3  1   
  3   2   4  2   
  4   2   5  1   
  5   3   6  2   
  6   3   7  1   
  7   4   6  1   
  8   5   8  am  
  9   5  22  1   
 10   7   9  1   
 11   7  10  1   
 12   7  23  1   
 13   8  11  2   
 14   8  12  1   
 15   9  13  1   
 16  10  24  1   
 17  10  25  1   
 18  10  26  1   
 19  12  14  2   
 20  12  15  1   
 21  13  27  1   
 22  13  28  1   
 23  13  29  1   
 24  14  16  1   
 25  14  17  1   
 26  15  18  2   
 27  15  30  1   
 28  16  18  1   
 29  16  19  1   
 30  17  20  1   
 31  17  21  1   
 32  19  20  2   
 33  19  31  1   
 34  20  32  1   
 35  21  33  1   
 36  21  34  1   
 37  21  35  1   
@<TRIPOS>SUBSTRUCTURE
  1 ****   5 GROUP 4 **** **** 0

# MOE 2024.06 (io_trps.svl 2023.06)
