@<TRIPOS>MOLECULE
NONAME
49 51 1 0 0 
SMALL
USER_CHARGES


@<TRIPOS>ATOM
  1 O        0.0150     1.3120     0.7490 O.2   1 <1>  -0.5700 
  2 C        0.0600     2.3220     0.0840 C.2   1 <1>   0.5690 
  3 N       -1.0410     3.1380    -0.0460 N.am  1 <1>  -0.6600 
  4 C        1.3600     2.6780    -0.6370 C.3   1 <1>   0.0440 
  5 C       -2.3240     2.8230     0.6580 C.3   1 <1>   0.1400 
  6 C       -1.1420     4.3400    -0.9190 C.3   1 <1>   0.1400 
  7 C        2.5570     1.7720    -0.3510 C.ar  1 <1>  -0.1440 
  8 C       -3.4610     2.5570    -0.3610 C.3   1 <1>   0.0000 
  9 C       -2.2350     4.1160    -1.9710 C.3   1 <1>  -0.1600 
 10 C        3.6080     2.2180     0.4360 C.ar  1 <1>  -0.1500 
 11 C        2.6090     0.4960    -0.8900 C.ar  1 <1>  -0.1500 
 12 C       -4.7940     2.2680     0.3520 C.3   1 <1>   0.2000 
 13 C       -3.5840     3.7590    -1.3230 C.3   1 <1>  -0.1600 
 14 C       -3.2160     1.2320    -1.1040 C.3   1 <1>  -0.1600 
 15 C        4.7050     1.4070     0.6790 C.ar  1 <1>  -0.1430 
 16 C        3.7010    -0.3190    -0.6520 C.ar  1 <1>  -0.1500 
 17 O       -4.9800     3.1120     1.4500 O.3   1 <1>  -0.5600 
 18 C       -4.7270     0.7980     0.7780 C.3   1 <1>  -0.1600 
 19 C       -3.7060     0.1330    -0.1550 C.3   1 <1>  -0.1600 
 20 C        4.7480     0.1370     0.1290 C.ar  1 <1>  -0.1500 
 21 C        5.8480     1.9090     1.5420 C.3   1 <1>  -0.0970 
 22 C       -6.2720     3.1250     1.9690 C.3   1 <1>   0.0400 
 23 H        1.1690     2.6550    -1.6930 H     1 <1>   0.0800 
 24 H        1.6210     3.6840    -0.3720 H     1 <1>   0.0800 
 25 H       -2.2040     1.9750     1.3090 H     1 <1>   0.0800 
 26 H       -2.5830     3.6640     1.2780 H     1 <1>   0.0800 
 27 H       -1.3960     5.1900    -0.3090 H     1 <1>   0.0800 
 28 H       -0.2110     4.5520    -1.4110 H     1 <1>   0.0800 
 29 H       -2.3470     5.0100    -2.5590 H     1 <1>   0.0800 
 30 H       -1.9260     3.3270    -2.6340 H     1 <1>   0.0800 
 31 H        3.5750     3.2030     0.8650 H     1 <1>   0.1500 
 32 H        1.7940     0.1310    -1.4900 H     1 <1>   0.1500 
 33 H       -5.6040     2.4120    -0.3430 H     1 <1>   0.0800 
 34 H       -4.3100     3.5510    -2.0890 H     1 <1>   0.0800 
 35 H       -3.9360     4.6100    -0.7640 H     1 <1>   0.0800 
 36 H       -3.8080     1.2040    -2.0020 H     1 <1>   0.0800 
 37 H       -2.1840     1.0870    -1.3720 H     1 <1>   0.0800 
 38 H        3.7340    -1.3080    -1.0720 H     1 <1>   0.1500 
 39 H       -4.3850     0.7200     1.7950 H     1 <1>   0.0800 
 40 H       -5.6920     0.3330     0.6830 H     1 <1>   0.0800 
 41 H       -2.8760    -0.2370     0.4240 H     1 <1>   0.0800 
 42 H       -4.1380    -0.6860    -0.7030 H     1 <1>   0.0800 
 43 H        5.5940    -0.5040     0.3080 H     1 <1>   0.1500 
 44 H        6.3690     1.0840     1.9950 H     1 <1>   0.0800 
 45 H        5.4740     2.5430     2.3250 H     1 <1>   0.0800 
 46 H        6.5400     2.4680     0.9390 H     1 <1>   0.0800 
 47 H       -6.2950     3.8220     2.7880 H     1 <1>   0.0800 
 48 H       -6.5270     2.1420     2.3250 H     1 <1>   0.0800 
 49 H       -6.9590     3.4430     1.2040 H     1 <1>   0.0800 
@<TRIPOS>BOND
  1   1   2  2   
  2   2   3  am  
  3   2   4  1   
  4   3   5  1   
  5   3   6  1   
  6   4   7  1   
  7   4  23  1   
  8   4  24  1   
  9   5   8  1   
 10   5  25  1   
 11   5  26  1   
 12   6   9  1   
 13   6  27  1   
 14   6  28  1   
 15   7  10  ar  
 16   7  11  ar  
 17   8  12  1   
 18   8  13  1   
 19   8  14  1   
 20   9  13  1   
 21   9  29  1   
 22   9  30  1   
 23  10  15  ar  
 24  10  31  1   
 25  11  16  ar  
 26  11  32  1   
 27  12  17  1   
 28  12  18  1   
 29  12  33  1   
 30  13  34  1   
 31  13  35  1   
 32  14  19  1   
 33  14  36  1   
 34  14  37  1   
 35  15  20  ar  
 36  15  21  1   
 37  16  20  ar  
 38  16  38  1   
 39  17  22  1   
 40  18  19  1   
 41  18  39  1   
 42  18  40  1   
 43  19  41  1   
 44  19  42  1   
 45  20  43  1   
 46  21  44  1   
 47  21  45  1   
 48  21  46  1   
 49  22  47  1   
 50  22  48  1   
 51  22  49  1   
@<TRIPOS>SUBSTRUCTURE
  1 ****   2 GROUP 4 **** **** 0

# MOE 2024.06 (io_trps.svl 2023.06)
