@<TRIPOS>MOLECULE
NONAME
44 45 1 0 0 
SMALL
USER_CHARGES


@<TRIPOS>ATOM
  1 CL      -0.4320    -0.7200     1.4610 Cl    1 <1>  -0.1770 
  2 C       -0.3090    -2.4140     1.0690 C.ar  1 <1>   0.1770 
  3 C       -0.7520    -2.8630    -0.1590 C.ar  1 <1>  -0.1500 
  4 C        0.2300    -3.2870     1.9920 C.ar  1 <1>  -0.1500 
  5 C       -0.6620    -4.2090    -0.4790 C.ar  1 <1>  -0.1440 
  6 C        0.3220    -4.6290     1.6720 C.ar  1 <1>  -0.1500 
  7 C       -0.1180    -5.1210     0.4400 C.ar  1 <1>   0.0860 
  8 C       -1.1630    -4.6690    -1.8440 C.3   1 <1>  -0.0960 
  9 C       -0.0070    -6.5430     0.1690 C.2   1 <1>   0.5440 
 10 O        0.5420    -6.9640    -0.8290 O.2   1 <1>  -0.5700 
 11 N       -0.5460    -7.4450     1.0380 N.am  1 <1>  -0.7300 
 12 C       -0.4830    -8.9200     0.8970 C.3   1 <1>   0.2200 
 13 C       -1.7830    -9.4670     0.3250 C.3   1 <1>  -0.0800 
 14 C       -0.5070    -9.5450     2.2840 C.3   1 <1>   0.1200 
 15 C       -2.6800    -9.5760     1.5640 C.3   1 <1>   0.1200 
 16 C       -2.3700    -8.6440    -0.8430 C.3   1 <1>  -0.0550 
 17 O       -1.8420    -9.4790     2.6810 O.3   1 <1>  -0.5600 
 18 S       -3.7750    -9.4050    -1.6580 S.o2  1 <1>   1.3330 
 19 O       -4.1990    -8.5600    -2.7510 O.2   1 <1>  -0.6500 
 20 O       -3.4540   -10.7930    -1.9040 O.2   1 <1>  -0.6500 
 21 N       -5.0010    -9.3550    -0.4810 N.am  1 <1>  -0.8490 
 22 C       -5.6870    -8.0600    -0.4110 C.3   1 <1>   0.1160 
 23 C       -5.9860   -10.4260    -0.6640 C.3   1 <1>   0.1160 
 24 H       -1.1630    -2.1520    -0.8530 H     1 <1>   0.1500 
 25 H        0.5730    -2.9150     2.9420 H     1 <1>   0.1500 
 26 H        0.7490    -5.3120     2.3860 H     1 <1>   0.1500 
 27 H       -1.6670    -3.8740    -2.3630 H     1 <1>   0.0800 
 28 H       -1.8500    -5.4880    -1.7360 H     1 <1>   0.0800 
 29 H       -0.3340    -4.9940    -2.4470 H     1 <1>   0.0800 
 30 H       -1.0840    -7.1290     1.8490 H     1 <1>   0.3700 
 31 H        0.3830    -9.2140     0.3270 H     1 <1>   0.0800 
 32 H       -1.5920   -10.4660    -0.0270 H     1 <1>   0.0800 
 33 H        0.1110    -9.0210     2.9910 H     1 <1>   0.0800 
 34 H       -0.2230   -10.5820     2.2430 H     1 <1>   0.0800 
 35 H       -3.2030   -10.5160     1.5970 H     1 <1>   0.0800 
 36 H       -3.3870    -8.7660     1.6210 H     1 <1>   0.0800 
 37 H       -1.5940    -8.5110    -1.5730 H     1 <1>   0.0800 
 38 H       -2.6500    -7.6700    -0.4960 H     1 <1>   0.0800 
 39 H       -6.3870    -8.0570     0.4080 H     1 <1>   0.0800 
 40 H       -6.2200    -7.8640    -1.3270 H     1 <1>   0.0800 
 41 H       -4.9750    -7.2690    -0.2510 H     1 <1>   0.0800 
 42 H       -6.7410   -10.3750     0.1010 H     1 <1>   0.0800 
 43 H       -5.5030   -11.3870    -0.5950 H     1 <1>   0.0800 
 44 H       -6.4530   -10.3430    -1.6310 H     1 <1>   0.0800 
@<TRIPOS>BOND
  1   1   2  1   
  2   2   3  ar  
  3   2   4  ar  
  4   3   5  ar  
  5   3  24  1   
  6   4   6  ar  
  7   4  25  1   
  8   5   7  ar  
  9   5   8  1   
 10   6   7  ar  
 11   6  26  1   
 12   7   9  1   
 13   8  27  1   
 14   8  28  1   
 15   8  29  1   
 16   9  10  2   
 17   9  11  am  
 18  11  12  1   
 19  11  30  1   
 20  12  13  1   
 21  12  14  1   
 22  12  31  1   
 23  13  15  1   
 24  13  16  1   
 25  13  32  1   
 26  14  17  1   
 27  14  33  1   
 28  14  34  1   
 29  15  17  1   
 30  15  35  1   
 31  15  36  1   
 32  16  18  1   
 33  16  37  1   
 34  16  38  1   
 35  18  19  2   
 36  18  20  2   
 37  18  21  am  
 38  21  22  1   
 39  21  23  1   
 40  22  39  1   
 41  22  40  1   
 42  22  41  1   
 43  23  42  1   
 44  23  43  1   
 45  23  44  1   
@<TRIPOS>SUBSTRUCTURE
  1 ****  11 GROUP 4 **** **** 0

# MOE 2024.06 (io_trps.svl 2023.06)
