@<TRIPOS>MOLECULE
NONAME
42 44 1 0 0 
SMALL
USER_CHARGES


@<TRIPOS>ATOM
  1 O       -0.1680     0.2700     0.0680 O.2   1 <1>  -0.5700 
  2 C       -1.2150     0.8570     0.2610 C.2   1 <1>   0.5440 
  3 N       -2.3860     0.1360     0.2290 N.am  1 <1>  -0.6600 
  4 C       -1.2030     2.2850     0.5030 C.ar  1 <1>   0.0860 
  5 C       -3.7420     0.7160     0.0560 C.3   1 <1>   0.1400 
  6 C       -2.4000    -1.3170    -0.0660 C.3   1 <1>   0.1400 
  7 C       -0.5180     3.1620    -0.3200 C.ar  1 <1>  -0.1500 
  8 C       -1.8620     2.8780     1.5720 C.ar  1 <1>  -0.1500 
  9 C       -4.5880    -0.4240    -0.5090 C.3   1 <1>   0.2000 
 10 C       -3.8780    -1.7110    -0.0890 C.3   1 <1>  -0.0800 
 11 C       -0.5380     4.5230    -0.0720 C.ar  1 <1>   0.3920 
 12 C       -1.8230     4.2480     1.7410 C.ar  1 <1>   0.1600 
 13 O       -5.8780    -0.4020    -0.0030 O.3   1 <1>  -0.6800 
 14 C       -4.1920    -2.8880    -1.0260 C.3   1 <1>   0.0200 
 15 O        0.1470     5.3100    -0.9270 O.3   1 <1>  -0.3630 
 16 N       -1.1850     5.0870     0.9440 N.ar  1 <1>  -0.6200 
 17 C       -3.5280    -4.1880    -0.6040 C.2   1 <1>  -0.0400 
 18 C        0.2030     6.7110    -0.7410 C.3   1 <1>   0.0400 
 19 O       -3.5820    -5.2100    -1.4160 O.3   1 <1>  -0.0190 
 20 C       -2.8480    -4.5730     0.4890 C.2   1 <1>  -0.1500 
 21 N       -2.9740    -6.2530    -0.9300 N.2   1 <1>  -0.4100 
 22 C       -2.5210    -5.8980     0.2170 C.2   1 <1>   0.1080 
 23 C       -1.7390    -6.8060     1.1400 C.3   1 <1>  -0.0590 
 24 H       -4.1190     1.0310     1.0130 H     1 <1>   0.0800 
 25 H       -3.7160     1.5470    -0.6280 H     1 <1>   0.0800 
 26 H       -1.9400    -1.4820    -1.0270 H     1 <1>   0.0800 
 27 H       -1.8500    -1.8570     0.6850 H     1 <1>   0.0800 
 28 H        0.0370     2.7890    -1.1600 H     1 <1>   0.1500 
 29 H       -2.3970     2.2660     2.2730 H     1 <1>   0.1500 
 30 H       -4.6430    -0.3370    -1.5820 H     1 <1>   0.0800 
 31 H       -4.1640    -1.9640     0.9170 H     1 <1>   0.0800 
 32 H       -2.3430     4.6820     2.5790 H     1 <1>   0.1500 
 33 H       -5.8740    -0.5470     0.9630 H     1 <1>   0.4000 
 34 H       -3.8710    -2.6490    -2.0250 H     1 <1>   0.0800 
 35 H       -5.2560    -3.0470    -1.0560 H     1 <1>   0.0800 
 36 H        0.8000     7.1340    -1.5270 H     1 <1>   0.0800 
 37 H        0.6500     6.9170     0.2160 H     1 <1>   0.0800 
 38 H       -0.7970     7.1070    -0.7810 H     1 <1>   0.0800 
 39 H       -2.5940    -4.0330     1.3810 H     1 <1>   0.1500 
 40 H       -0.7570    -6.4010     1.3020 H     1 <1>   0.0800 
 41 H       -1.6450    -7.7820     0.7010 H     1 <1>   0.0800 
 42 H       -2.2480    -6.8950     2.0820 H     1 <1>   0.0800 
@<TRIPOS>BOND
  1   1   2  2   
  2   2   3  am  
  3   2   4  1   
  4   3   5  1   
  5   3   6  1   
  6   4   7  ar  
  7   4   8  ar  
  8   5   9  1   
  9   5  24  1   
 10   5  25  1   
 11   6  10  1   
 12   6  26  1   
 13   6  27  1   
 14   7  11  ar  
 15   7  28  1   
 16   8  12  ar  
 17   8  29  1   
 18   9  10  1   
 19   9  13  1   
 20   9  30  1   
 21  10  14  1   
 22  10  31  1   
 23  11  15  1   
 24  11  16  ar  
 25  12  16  ar  
 26  12  32  1   
 27  13  33  1   
 28  14  17  1   
 29  14  34  1   
 30  14  35  1   
 31  15  18  1   
 32  17  19  1   
 33  17  20  2   
 34  18  36  1   
 35  18  37  1   
 36  18  38  1   
 37  19  21  1   
 38  20  22  1   
 39  20  39  1   
 40  21  22  2   
 41  22  23  1   
 42  23  40  1   
 43  23  41  1   
 44  23  42  1   
@<TRIPOS>SUBSTRUCTURE
  1 ****   3 GROUP 4 **** **** 0

# MOE 2024.06 (io_trps.svl 2023.06)
