@<TRIPOS>MOLECULE
NONAME
60 62 1 0 0 
SMALL
USER_CHARGES


@<TRIPOS>ATOM
  1 O       -0.2500     0.6080     1.6930 O.2   1 <1>  -0.5700 
  2 C       -1.1460     1.3970     1.4420 C.2   1 <1>   0.5440 
  3 N       -2.4400     0.9220     1.3770 N.am  1 <1>  -0.6600 
  4 C       -0.8350     2.7820     1.1690 C.ar  1 <1>   0.0860 
  5 C       -2.7420    -0.5160     1.6460 C.3   1 <1>   0.1400 
  6 C       -3.5240     1.6480     0.6570 C.3   1 <1>   0.1400 
  7 C       -0.0480     3.1330     0.0590 C.ar  1 <1>   0.1000 
  8 C       -1.3270     3.7970     1.9910 C.ar  1 <1>  -0.1500 
  9 C       -2.5640    -1.3860     0.3900 C.3   1 <1>   0.1400 
 10 C       -3.3130     1.6260    -0.8650 C.3   1 <1>  -0.1600 
 11 N        0.4880     2.1380    -0.7530 N.pl3 1 <1>  -0.8690 
 12 C        0.1740     4.4820    -0.2140 C.ar  1 <1>  -0.1500 
 13 C       -1.0810     5.1280     1.7170 C.ar  1 <1>  -0.1500 
 14 N       -3.3510    -0.8710    -0.7790 N.am  1 <1>  -0.6600 
 15 C       -2.7420     0.3210    -1.4340 C.3   1 <1>   0.1400 
 16 C        1.7740     2.3110    -1.4550 C.3   1 <1>   0.2090 
 17 C       -0.3320     5.4700     0.6040 C.ar  1 <1>  -0.1500 
 18 C       -4.5330    -1.3920    -1.2340 C.2   1 <1>   0.5690 
 19 C        2.3520     0.9290    -1.7530 C.3   1 <1>  -0.1600 
 20 O       -5.1220    -0.9080    -2.1740 O.2   1 <1>  -0.5700 
 21 C       -5.1510    -2.5910    -0.5400 C.3   1 <1>  -0.0990 
 22 C        3.6910     1.0270    -2.4930 C.3   1 <1>  -0.2400 
 23 C       -6.4770    -3.0290    -1.1800 C.3   1 <1>   0.0960 
 24 N       -7.1070    -4.1080    -0.3960 N.pl3 1 <1>   0.3140 
 25 N       -6.4410    -5.2210    -0.0320 N.2   1 <1>  -0.7070 
 26 C       -8.3770    -4.1310     0.0550 C.2   1 <1>  -0.3020 
 27 C       -7.3050    -5.9220     0.6360 C.2   1 <1>   0.1390 
 28 C       -8.5400    -5.2890     0.7260 C.2   1 <1>  -0.1810 
 29 C       -9.7770    -5.8100     1.4280 C.3   1 <1>  -0.0590 
 30 H       -3.7480    -0.6130     2.0120 H     1 <1>   0.0800 
 31 H       -2.0850    -0.8800     2.4180 H     1 <1>   0.0800 
 32 H       -3.5830     2.6650     1.0010 H     1 <1>   0.0800 
 33 H       -4.4670     1.1790     0.8810 H     1 <1>   0.0800 
 34 H       -1.9110     3.5270     2.8530 H     1 <1>   0.1500 
 35 H       -2.8450    -2.3960     0.6240 H     1 <1>   0.0800 
 36 H       -1.5190    -1.4070     0.1330 H     1 <1>   0.0800 
 37 H       -2.6550     2.4290    -1.1420 H     1 <1>   0.0800 
 38 H       -4.2570     1.8220    -1.3410 H     1 <1>   0.0800 
 39 H        0.4520     1.2120    -0.2940 H     1 <1>   0.4000 
 40 H        0.7480     4.7590    -1.0780 H     1 <1>   0.1500 
 41 H       -1.4700     5.8970     2.3620 H     1 <1>   0.1500 
 42 H       -1.6750     0.3050    -1.2870 H     1 <1>   0.0800 
 43 H       -2.9190     0.2840    -2.4960 H     1 <1>   0.0800 
 44 H        2.4540     2.8700    -0.8330 H     1 <1>   0.0800 
 45 H        1.6100     2.8510    -2.3720 H     1 <1>   0.0800 
 46 H       -0.1450     6.5070     0.3810 H     1 <1>   0.1500 
 47 H        1.6540     0.3780    -2.3590 H     1 <1>   0.0800 
 48 H        2.4990     0.3990    -0.8280 H     1 <1>   0.0800 
 49 H       -5.3250    -2.3370     0.4890 H     1 <1>   0.0800 
 50 H       -4.4580    -3.4100    -0.5910 H     1 <1>   0.0800 
 51 H        3.5670     1.5390    -3.4320 H     1 <1>   0.0800 
 52 H        4.0750     0.0410    -2.6900 H     1 <1>   0.0800 
 53 H        4.4120     1.5610    -1.8980 H     1 <1>   0.0800 
 54 H       -6.3030    -3.3890    -2.1770 H     1 <1>   0.0800 
 55 H       -7.1570    -2.1980    -1.2270 H     1 <1>   0.0800 
 56 H       -9.0790    -3.3380    -0.1240 H     1 <1>   0.1500 
 57 H       -7.0800    -6.8840     1.0670 H     1 <1>   0.1500 
 58 H      -10.5820    -5.1040     1.3320 H     1 <1>   0.0800 
 59 H       -9.5700    -5.9620     2.4710 H     1 <1>   0.0800 
 60 H      -10.0810    -6.7440     0.9900 H     1 <1>   0.0800 
@<TRIPOS>BOND
  1   1   2  2   
  2   2   3  am  
  3   2   4  1   
  4   3   5  1   
  5   3   6  1   
  6   4   7  ar  
  7   4   8  ar  
  8   5   9  1   
  9   5  30  1   
 10   5  31  1   
 11   6  10  1   
 12   6  32  1   
 13   6  33  1   
 14   7  11  1   
 15   7  12  ar  
 16   8  13  ar  
 17   8  34  1   
 18   9  14  1   
 19   9  35  1   
 20   9  36  1   
 21  10  15  1   
 22  10  37  1   
 23  10  38  1   
 24  11  16  1   
 25  11  39  1   
 26  12  17  ar  
 27  12  40  1   
 28  13  17  ar  
 29  13  41  1   
 30  14  15  1   
 31  14  18  am  
 32  15  42  1   
 33  15  43  1   
 34  16  19  1   
 35  16  44  1   
 36  16  45  1   
 37  17  46  1   
 38  18  20  2   
 39  18  21  1   
 40  19  22  1   
 41  19  47  1   
 42  19  48  1   
 43  21  23  1   
 44  21  49  1   
 45  21  50  1   
 46  22  51  1   
 47  22  52  1   
 48  22  53  1   
 49  23  24  1   
 50  23  54  1   
 51  23  55  1   
 52  24  25  1   
 53  24  26  1   
 54  25  27  2   
 55  26  28  2   
 56  26  56  1   
 57  27  28  1   
 58  27  57  1   
 59  28  29  1   
 60  29  58  1   
 61  29  59  1   
 62  29  60  1   
@<TRIPOS>SUBSTRUCTURE
  1 ****  14 GROUP 4 **** **** 0

# MOE 2024.06 (io_trps.svl 2023.06)
