@<TRIPOS>MOLECULE
NONAME
43 45 1 0 0 
SMALL
USER_CHARGES


@<TRIPOS>ATOM
  1 O        0.0730     0.2730    -1.2390 O.2   1 <1>  -0.5700 
  2 C        1.1510    -0.2630    -1.2750 C.2   1 <1>   0.5690 
  3 N        2.2490     0.3690    -1.7430 N.am  1 <1>  -0.7300 
  4 C        1.2720    -1.6800    -0.7720 C.3   1 <1>  -0.0990 
  5 C        2.2790     1.7720    -2.2110 C.3   1 <1>   0.3210 
  6 C        0.7620    -1.7660     0.6710 C.3   1 <1>   0.0960 
  7 C        3.5800     2.4250    -1.7720 C.2   1 <1>   0.1080 
  8 N        0.8020    -3.1590     1.1470 N.pl3 1 <1>   0.3140 
  9 N        4.7440     1.8990    -1.9400 N.2   1 <1>  -0.4100 
 10 C        3.6870     3.6550    -1.1370 C.2   1 <1>  -0.1500 
 11 N        1.9000    -3.7230     1.5960 N.2   1 <1>  -0.4180 
 12 C       -0.1620    -4.0660     1.1930 C.2   1 <1>   0.0060 
 13 O        5.5920     2.7480    -1.4370 O.3   1 <1>  -0.0190 
 14 C        5.0140     3.8210    -0.9420 C.2   1 <1>   0.0870 
 15 N        1.5880    -4.9310     1.9030 N.2   1 <1>   0.0000 
 16 N        0.3030    -5.1620     1.6560 N.2   1 <1>  -0.3380 
 17 C       -1.6020    -3.8540     0.7620 C.3   1 <1>  -0.0600 
 18 C        5.7850     4.8850    -0.3400 C.ar  1 <1>   0.0530 
 19 C        5.1660     6.0280     0.1600 C.ar  1 <1>  -0.1500 
 20 C        7.1750     4.8110    -0.2360 C.ar  1 <1>  -0.1500 
 21 C        5.8880     7.0560     0.7390 C.ar  1 <1>   0.0820 
 22 C        7.9100     5.8310     0.3400 C.ar  1 <1>  -0.1500 
 23 O        5.1780     8.1200     1.1900 O.3   1 <1>  -0.3630 
 24 C        7.2730     6.9560     0.8290 C.ar  1 <1>  -0.1500 
 25 C        5.8150     9.2230     1.7950 C.3   1 <1>   0.0400 
 26 H        3.1750    -0.0680    -1.7280 H     1 <1>   0.3700 
 27 H        2.2980    -1.9990    -0.8160 H     1 <1>   0.0800 
 28 H        0.6820    -2.3120    -1.4090 H     1 <1>   0.0800 
 29 H        1.4400     2.3140    -1.8110 H     1 <1>   0.0800 
 30 H        2.2200     1.7880    -3.2850 H     1 <1>   0.0800 
 31 H       -0.2480    -1.4040     0.7340 H     1 <1>   0.0800 
 32 H        1.3790    -1.1670     1.3170 H     1 <1>   0.0800 
 33 H        2.8790     4.3090    -0.8710 H     1 <1>   0.1500 
 34 H       -1.6420    -3.5410    -0.2650 H     1 <1>   0.0800 
 35 H       -2.0680    -3.1080     1.3800 H     1 <1>   0.0800 
 36 H       -2.1510    -4.7730     0.8620 H     1 <1>   0.0800 
 37 H        4.0990     6.1310     0.1040 H     1 <1>   0.1500 
 38 H        7.6880     3.9430    -0.6120 H     1 <1>   0.1500 
 39 H        8.9810     5.7480     0.4070 H     1 <1>   0.1500 
 40 H        7.8640     7.7350     1.2720 H     1 <1>   0.1500 
 41 H        5.0590     9.9370     2.0690 H     1 <1>   0.0800 
 42 H        6.4950     9.6650     1.0880 H     1 <1>   0.0800 
 43 H        6.3360     8.8870     2.6740 H     1 <1>   0.0800 
@<TRIPOS>BOND
  1   1   2  2   
  2   2   3  am  
  3   2   4  1   
  4   3   5  1   
  5   3  26  1   
  6   4   6  1   
  7   4  27  1   
  8   4  28  1   
  9   5   7  1   
 10   5  29  1   
 11   5  30  1   
 12   6   8  1   
 13   6  31  1   
 14   6  32  1   
 15   7   9  2   
 16   7  10  1   
 17   8  11  1   
 18   8  12  1   
 19   9  13  1   
 20  10  14  2   
 21  10  33  1   
 22  11  15  2   
 23  12  16  2   
 24  12  17  1   
 25  13  14  1   
 26  14  18  1   
 27  15  16  1   
 28  17  34  1   
 29  17  35  1   
 30  17  36  1   
 31  18  19  ar  
 32  18  20  ar  
 33  19  21  ar  
 34  19  37  1   
 35  20  22  ar  
 36  20  38  1   
 37  21  23  1   
 38  21  24  ar  
 39  22  24  ar  
 40  22  39  1   
 41  23  25  1   
 42  24  40  1   
 43  25  41  1   
 44  25  42  1   
 45  25  43  1   
@<TRIPOS>SUBSTRUCTURE
  1 ****   7 GROUP 4 **** **** 0

# MOE 2024.06 (io_trps.svl 2023.06)
