@<TRIPOS>MOLECULE
NONAME
54 58 1 0 0 
SMALL
USER_CHARGES


@<TRIPOS>ATOM
  1 O       -2.0470    -0.6050     0.9030 O.2   1 <1>  -0.5700 
  2 C       -2.2690     0.5720     0.7900 C.2   1 <1>   0.5950 
  3 C       -3.3150     1.1450    -0.0140 C.2   1 <1>  -0.0860 
  4 C       -1.3760     1.5460     1.5540 C.3   1 <1>  -0.0990 
  5 C       -4.2380     0.6180    -0.9690 C.2   1 <1>  -0.0860 
  6 C       -3.5800     2.4720     0.0300 C.2   1 <1>  -0.0400 
  7 C       -2.1320     2.8060     2.0330 C.3   1 <1>  -0.1600 
  8 C       -4.9460     1.7110    -1.3840 C.2   1 <1>  -0.0400 
  9 C       -4.3950    -0.7540    -1.4120 C.2   1 <1>   0.7160 
 10 O       -4.5390     2.8000    -0.7850 O.3   1 <1>  -0.2800 
 11 C       -2.8870     3.5080     0.8900 C.3   1 <1>   0.0200 
 12 C       -6.0830     1.8780    -2.3770 C.3   1 <1>  -0.0600 
 13 O       -4.9680    -1.0150    -2.4520 O.2   1 <1>  -0.5700 
 14 N       -3.9400    -1.8010    -0.6750 N.am  1 <1>  -0.7300 
 15 C       -4.0060    -3.2320    -1.0560 C.3   1 <1>   0.2200 
 16 C       -5.1330    -3.9530    -0.3290 C.3   1 <1>  -0.0800 
 17 C       -2.7850    -3.9600    -0.5000 C.3   1 <1>   0.1200 
 18 C       -4.4900    -4.2520     1.0260 C.3   1 <1>   0.1200 
 19 C       -6.4650    -3.1790    -0.2450 C.3   1 <1>  -0.0170 
 20 O       -3.1180    -4.3690     0.7950 O.3   1 <1>  -0.5600 
 21 C       -7.6550    -3.9170     0.3800 C.ar  1 <1>  -0.1440 
 22 C       -8.8430    -3.2030     0.6730 C.ar  1 <1>   0.0000 
 23 C       -7.6470    -5.2520     0.6740 C.ar  1 <1>  -0.1500 
 24 C       -9.9150    -3.9110     1.2720 C.ar  1 <1>   0.3100 
 25 C       -9.0360    -1.8270     0.4010 C.ar  1 <1>  -0.1500 
 26 C       -8.7660    -5.8580     1.2590 C.ar  1 <1>   0.1600 
 27 N       -9.8600    -5.2350     1.5590 N.ar  1 <1>  -0.6200 
 28 C      -11.0970    -3.2220     1.5850 C.ar  1 <1>  -0.1500 
 29 C      -10.2030    -1.1860     0.7160 C.ar  1 <1>  -0.1500 
 30 C      -11.2480    -1.8890     1.3190 C.ar  1 <1>  -0.1500 
 31 H       -0.9540     1.0380     2.4030 H     1 <1>   0.0800 
 32 H       -0.5680     1.8330     0.9070 H     1 <1>   0.0800 
 33 H       -2.8480     2.5090     2.7800 H     1 <1>   0.0800 
 34 H       -1.4460     3.4960     2.4930 H     1 <1>   0.0800 
 35 H       -2.2040     4.0680     0.2750 H     1 <1>   0.0800 
 36 H       -3.6150     4.1890     1.2960 H     1 <1>   0.0800 
 37 H       -6.4340     0.9340    -2.7480 H     1 <1>   0.0800 
 38 H       -5.7490     2.4720    -3.2070 H     1 <1>   0.0800 
 39 H       -6.9040     2.3810    -1.9000 H     1 <1>   0.0800 
 40 H       -3.3340    -1.6030     0.1350 H     1 <1>   0.3700 
 41 H       -4.0770    -3.3320    -2.1260 H     1 <1>   0.0800 
 42 H       -5.2980    -4.8830    -0.8420 H     1 <1>   0.0800 
 43 H       -1.9090    -3.3350    -0.4660 H     1 <1>   0.0800 
 44 H       -2.5810    -4.8450    -1.0750 H     1 <1>   0.0800 
 45 H       -4.8490    -5.1640     1.4690 H     1 <1>   0.0800 
 46 H       -4.6330    -3.4340     1.7110 H     1 <1>   0.0800 
 47 H       -6.7450    -2.8760    -1.2400 H     1 <1>   0.0800 
 48 H       -6.2940    -2.2870     0.3300 H     1 <1>   0.0800 
 49 H       -6.8070    -5.8880     0.4750 H     1 <1>   0.1500 
 50 H       -8.2520    -1.2640    -0.0700 H     1 <1>   0.1500 
 51 H       -8.7110    -6.9110     1.4740 H     1 <1>   0.1500 
 52 H      -11.8880    -3.7850     2.0450 H     1 <1>   0.1500 
 53 H      -10.3310    -0.1380     0.5040 H     1 <1>   0.1500 
 54 H      -12.1610    -1.3740     1.5640 H     1 <1>   0.1500 
@<TRIPOS>BOND
  1   1   2  2   
  2   2   3  1   
  3   2   4  1   
  4   3   5  1   
  5   3   6  2   
  6   4   7  1   
  7   4  31  1   
  8   4  32  1   
  9   5   8  2   
 10   5   9  1   
 11   6  10  1   
 12   6  11  1   
 13   7  11  1   
 14   7  33  1   
 15   7  34  1   
 16   8  10  1   
 17   8  12  1   
 18   9  13  2   
 19   9  14  am  
 20  11  35  1   
 21  11  36  1   
 22  12  37  1   
 23  12  38  1   
 24  12  39  1   
 25  14  15  1   
 26  14  40  1   
 27  15  16  1   
 28  15  17  1   
 29  15  41  1   
 30  16  18  1   
 31  16  19  1   
 32  16  42  1   
 33  17  20  1   
 34  17  43  1   
 35  17  44  1   
 36  18  20  1   
 37  18  45  1   
 38  18  46  1   
 39  19  21  1   
 40  19  47  1   
 41  19  48  1   
 42  21  22  ar  
 43  21  23  ar  
 44  22  24  ar  
 45  22  25  ar  
 46  23  26  ar  
 47  23  49  1   
 48  24  27  ar  
 49  24  28  ar  
 50  25  29  ar  
 51  25  50  1   
 52  26  27  ar  
 53  26  51  1   
 54  28  30  ar  
 55  28  52  1   
 56  29  30  ar  
 57  29  53  1   
 58  30  54  1   
@<TRIPOS>SUBSTRUCTURE
  1 ****  19 GROUP 4 **** **** 0

# MOE 2024.06 (io_trps.svl 2023.06)
