@<TRIPOS>MOLECULE
NONAME
46 48 1 0 0 
SMALL
USER_CHARGES


@<TRIPOS>ATOM
  1 S       -0.7200     0.2530     0.6790 S.o2  1 <1>   1.0900 
  2 O       -1.0920     1.3600     1.5270 O.2   1 <1>  -0.6500 
  3 O        0.6580    -0.1370     0.4920 O.2   1 <1>  -0.6500 
  4 C       -1.6300    -1.2020     1.1100 C.3   1 <1>  -0.0550 
  5 C       -1.4680     0.4170    -0.9360 C.3   1 <1>  -0.0550 
  6 C       -1.7890    -1.9470    -0.2130 C.3   1 <1>   0.1760 
  7 C       -2.1810    -0.9030    -1.2800 C.3   1 <1>  -0.1600 
  8 N       -2.7940    -3.0330    -0.1010 N.pl3 1 <1>   0.3140 
  9 N       -4.0340    -2.7820     0.3560 N.2   1 <1>  -0.7070 
 10 C       -2.6320    -4.3480    -0.4010 C.2   1 <1>  -0.3320 
 11 C       -4.6330    -3.9320     0.3530 C.2   1 <1>   0.1080 
 12 C       -3.8030    -4.9570    -0.1120 C.2   1 <1>   0.0630 
 13 C       -1.3450    -4.9580    -0.9410 C.3   1 <1>  -0.0600 
 14 C       -6.0710    -4.0760     0.8020 C.3   1 <1>  -0.0590 
 15 N       -4.0880    -6.3360    -0.2870 N.am  1 <1>  -0.4930 
 16 C       -4.7000    -7.2140     0.5690 C.2   1 <1>   0.5440 
 17 O       -5.1090    -6.8290     1.6470 O.2   1 <1>  -0.5700 
 18 C       -4.8590    -8.6010     0.1770 C.ar  1 <1>   0.0860 
 19 C       -6.0140    -9.3070     0.5070 C.ar  1 <1>  -0.1500 
 20 C       -3.8740    -9.2820    -0.5430 C.ar  1 <1>  -0.1500 
 21 C       -6.2000   -10.6250     0.1270 C.ar  1 <1>   0.0820 
 22 C       -4.0460   -10.5990    -0.9290 C.ar  1 <1>  -0.1500 
 23 O       -7.3660   -11.2090     0.4970 O.3   1 <1>  -0.3630 
 24 C       -5.2070   -11.2750    -0.5990 C.ar  1 <1>  -0.1500 
 25 C       -7.6390   -12.5610     0.2020 C.3   1 <1>   0.0400 
 26 H       -2.5950    -0.9250     1.4910 H     1 <1>   0.0800 
 27 H       -1.1090    -1.7940     1.8360 H     1 <1>   0.0800 
 28 H       -0.7120     0.6390    -1.6660 H     1 <1>   0.0800 
 29 H       -2.1820     1.2190    -0.9320 H     1 <1>   0.0800 
 30 H       -0.8380    -2.3750    -0.4760 H     1 <1>   0.0800 
 31 H       -1.9120    -1.2430    -2.2650 H     1 <1>   0.0800 
 32 H       -3.2450    -0.7360    -1.2490 H     1 <1>   0.0800 
 33 H       -1.0880    -4.5120    -1.8850 H     1 <1>   0.0800 
 34 H       -1.4580    -6.0170    -1.0840 H     1 <1>   0.0800 
 35 H       -0.5400    -4.8000    -0.2450 H     1 <1>   0.0800 
 36 H       -6.6000    -3.1570     0.6350 H     1 <1>   0.0800 
 37 H       -6.0950    -4.3090     1.8500 H     1 <1>   0.0800 
 38 H       -6.5540    -4.8640     0.2560 H     1 <1>   0.0800 
 39 H       -3.7710    -6.7180    -1.1730 H     1 <1>   0.3700 
 40 H       -6.7860    -8.8170     1.0740 H     1 <1>   0.1500 
 41 H       -2.9570    -8.7810    -0.7960 H     1 <1>   0.1500 
 42 H       -3.2730   -11.1040    -1.4850 H     1 <1>   0.1500 
 43 H       -5.3190   -12.2960    -0.9110 H     1 <1>   0.1500 
 44 H       -8.6050   -12.8020     0.6070 H     1 <1>   0.0800 
 45 H       -6.8870   -13.1780     0.6620 H     1 <1>   0.0800 
 46 H       -7.6470   -12.6920    -0.8660 H     1 <1>   0.0800 
@<TRIPOS>BOND
  1   1   2  2   
  2   1   3  2   
  3   1   4  1   
  4   1   5  1   
  5   4   6  1   
  6   4  26  1   
  7   4  27  1   
  8   5   7  1   
  9   5  28  1   
 10   5  29  1   
 11   6   7  1   
 12   6   8  1   
 13   6  30  1   
 14   7  31  1   
 15   7  32  1   
 16   8   9  1   
 17   8  10  1   
 18   9  11  2   
 19  10  12  2   
 20  10  13  1   
 21  11  12  1   
 22  11  14  1   
 23  12  15  1   
 24  13  33  1   
 25  13  34  1   
 26  13  35  1   
 27  14  36  1   
 28  14  37  1   
 29  14  38  1   
 30  15  16  am  
 31  15  39  1   
 32  16  17  2   
 33  16  18  1   
 34  18  19  ar  
 35  18  20  ar  
 36  19  21  ar  
 37  19  40  1   
 38  20  22  ar  
 39  20  41  1   
 40  21  23  1   
 41  21  24  ar  
 42  22  24  ar  
 43  22  42  1   
 44  23  25  1   
 45  24  43  1   
 46  25  44  1   
 47  25  45  1   
 48  25  46  1   
@<TRIPOS>SUBSTRUCTURE
  1 ****  12 GROUP 4 **** **** 0

# MOE 2024.06 (io_trps.svl 2023.06)
