@<TRIPOS>MOLECULE
NONAME
44 46 1 0 0 
SMALL
USER_CHARGES


@<TRIPOS>ATOM
  1 O        0.5720    -1.0850     1.1390 O.3   1 <1>  -0.5600 
  2 C       -0.3680    -2.1160     1.0430 C.3   1 <1>   0.1200 
  3 C        0.9540    -0.4990    -0.0600 C.3   1 <1>   0.1200 
  4 C        0.3120    -3.4420     0.6500 C.3   1 <1>   0.1900 
  5 C        1.7460    -1.4790    -0.9420 C.3   1 <1>  -0.0800 
  6 N        0.4490    -3.6640    -0.8320 N.3   1 <1>  -0.8100 
  7 C        1.6950    -3.5610     1.3310 C.3   1 <1>   0.3430 
  8 C        0.8100    -2.4870    -1.6440 C.3   1 <1>   0.1100 
  9 C        2.9750    -2.0620    -0.2060 C.3   1 <1>   0.3430 
 10 C       -0.7090    -4.4000    -1.3990 C.3   1 <1>   0.2910 
 11 N        2.7880    -3.4520     0.3110 N.4   1 <1>  -0.9590 
 12 C       -0.7640    -5.8370    -0.8890 C.2   1 <1>   0.1080 
 13 C        4.0540    -4.0890     0.7610 C.3   1 <1>   0.2630 
 14 N       -1.4790    -6.2160     0.1300 N.2   1 <1>  -0.7070 
 15 C       -0.0630    -6.8960    -1.4550 C.2   1 <1>  -0.1500 
 16 N       -1.2650    -7.5410     0.2320 N.pl3 1 <1>   0.3140 
 17 C       -0.4050    -7.9690    -0.7130 C.2   1 <1>  -0.3020 
 18 C       -1.9280    -8.3690     1.2600 C.3   1 <1>   0.0960 
 19 C       -3.1420    -9.1050     0.6790 C.3   1 <1>  -0.2400 
 20 H       -0.8000    -2.2240     2.0220 H     1 <1>   0.0800 
 21 H       -1.1550    -1.8460     0.3590 H     1 <1>   0.0800 
 22 H        0.0740    -0.1320    -0.5620 H     1 <1>   0.0800 
 23 H        1.5690     0.3480     0.1910 H     1 <1>   0.0800 
 24 H       -0.2980    -4.2200     1.0710 H     1 <1>   0.0800 
 25 H        2.1420    -0.8590    -1.7260 H     1 <1>   0.0800 
 26 H        1.7440    -4.5260     1.8060 H     1 <1>   0.0800 
 27 H        1.8060    -2.8090     2.0950 H     1 <1>   0.0800 
 28 H        1.2900    -2.8390    -2.5420 H     1 <1>   0.0800 
 29 H       -0.0880    -1.9730    -1.9480 H     1 <1>   0.0800 
 30 H        3.2420    -1.4070     0.6080 H     1 <1>   0.0800 
 31 H        3.7990    -2.0710    -0.9000 H     1 <1>   0.0800 
 32 H       -1.6280    -3.8980    -1.1460 H     1 <1>   0.0800 
 33 H       -0.6300    -4.4310    -2.4710 H     1 <1>   0.0800 
 34 H        2.3610    -3.9750    -0.4800 H     1 <1>   0.4500 
 35 H        4.4590    -3.5570     1.6060 H     1 <1>   0.0800 
 36 H        4.7800    -4.0810    -0.0360 H     1 <1>   0.0800 
 37 H        3.8730    -5.1120     1.0490 H     1 <1>   0.0800 
 38 H        0.5970    -6.8450    -2.3020 H     1 <1>   0.1500 
 39 H       -0.0980    -8.9950    -0.8070 H     1 <1>   0.1500 
 40 H       -1.2150    -9.0740     1.6450 H     1 <1>   0.0800 
 41 H       -2.2410    -7.7240     2.0610 H     1 <1>   0.0800 
 42 H       -2.8380    -9.7640    -0.1150 H     1 <1>   0.0800 
 43 H       -3.8550    -8.3940     0.2980 H     1 <1>   0.0800 
 44 H       -3.6180    -9.6880     1.4460 H     1 <1>   0.0800 
@<TRIPOS>BOND
  1   1   2  1   
  2   1   3  1   
  3   2   4  1   
  4   2  20  1   
  5   2  21  1   
  6   3   5  1   
  7   3  22  1   
  8   3  23  1   
  9   4   6  1   
 10   4   7  1   
 11   4  24  1   
 12   5   8  1   
 13   5   9  1   
 14   5  25  1   
 15   6   8  1   
 16   6  10  1   
 17   7  11  1   
 18   7  26  1   
 19   7  27  1   
 20   8  28  1   
 21   8  29  1   
 22   9  11  1   
 23   9  30  1   
 24   9  31  1   
 25  10  12  1   
 26  10  32  1   
 27  10  33  1   
 28  11  13  1   
 29  11  34  1   
 30  12  14  2   
 31  12  15  1   
 32  13  35  1   
 33  13  36  1   
 34  13  37  1   
 35  14  16  1   
 36  15  17  2   
 37  15  38  1   
 38  16  17  1   
 39  16  18  1   
 40  17  39  1   
 41  18  19  1   
 42  18  40  1   
 43  18  41  1   
 44  19  42  1   
 45  19  43  1   
 46  19  44  1   
@<TRIPOS>SUBSTRUCTURE
  1 ****   6 GROUP 4 **** **** 0

# MOE 2024.06 (io_trps.svl 2023.06)
