@<TRIPOS>MOLECULE
NONAME
36 38 1 0 0 
SMALL
USER_CHARGES


@<TRIPOS>ATOM
  1 O       -2.2960     0.9690    -1.6150 O.2   1 <1>  -0.5700 
  2 C       -2.0430     0.7830    -0.4410 C.2   1 <1>   0.7160 
  3 N       -1.9050    -0.4990    -0.0030 N.am  1 <1>  -0.7300 
  4 C       -1.9210     1.8880     0.4760 C.2   1 <1>  -0.0860 
  5 C       -2.0700    -1.7160    -0.8300 C.3   1 <1>   0.2200 
  6 C       -1.6510     1.8250     1.8470 C.2   1 <1>   0.1390 
  7 C       -2.0430     3.2270     0.2500 C.2   1 <1>  -0.3020 
  8 C       -3.4180    -2.3770    -0.5710 C.3   1 <1>  -0.0800 
  9 C       -1.1300    -2.7900    -0.3010 C.3   1 <1>   0.1200 
 10 N       -1.6130     2.9890     2.4130 N.2   1 <1>  -0.7070 
 11 N       -1.8550     3.8600     1.4170 N.pl3 1 <1>   0.3000 
 12 C       -3.1530    -3.2250     0.6800 C.3   1 <1>   0.1200 
 13 C       -4.6250    -1.4270    -0.4500 C.3   1 <1>  -0.0160 
 14 O       -1.7640    -3.2870     0.8380 O.3   1 <1>  -0.5600 
 15 C       -5.9120    -2.2070    -0.2350 C.ar  1 <1>  -0.1430 
 16 C       -6.5700    -2.8270    -1.2780 C.ar  1 <1>  -0.1500 
 17 C       -6.4900    -2.3360     1.0120 C.ar  1 <1>  -0.1500 
 18 C       -7.7370    -3.5310    -1.0300 C.ar  1 <1>   0.1600 
 19 C       -7.6600    -3.0630     1.1530 C.ar  1 <1>   0.1600 
 20 N       -8.2960    -3.6670     0.1620 N.ar  1 <1>  -0.6200 
 21 H       -1.7200    -0.6940     0.9820 H     1 <1>   0.3700 
 22 H       -1.9020    -1.5000    -1.8720 H     1 <1>   0.0800 
 23 H       -1.4890     0.9110     2.3930 H     1 <1>   0.1500 
 24 H       -2.2520     3.7290    -0.6770 H     1 <1>   0.1500 
 25 H       -3.6100    -3.0570    -1.3820 H     1 <1>   0.0800 
 26 H       -0.1590    -2.4080    -0.0420 H     1 <1>   0.0800 
 27 H       -1.0330    -3.5970    -1.0060 H     1 <1>   0.0800 
 28 H       -1.8850     4.8760     1.5730 H     1 <1>   0.2700 
 29 H       -3.5390    -4.2240     0.5720 H     1 <1>   0.0800 
 30 H       -3.5620    -2.7710     1.5660 H     1 <1>   0.0800 
 31 H       -4.7100    -0.8400    -1.3480 H     1 <1>   0.0800 
 32 H       -4.4890    -0.7440     0.3690 H     1 <1>   0.0800 
 33 H       -6.1880    -2.7680    -2.2810 H     1 <1>   0.1500 
 34 H       -6.0440    -1.8790     1.8760 H     1 <1>   0.1500 
 35 H       -8.2360    -4.0090    -1.8550 H     1 <1>   0.1500 
 36 H       -8.0960    -3.1540     2.1330 H     1 <1>   0.1500 
@<TRIPOS>BOND
  1   1   2  2   
  2   2   3  am  
  3   2   4  1   
  4   3   5  1   
  5   3  21  1   
  6   4   6  1   
  7   4   7  2   
  8   5   8  1   
  9   5   9  1   
 10   5  22  1   
 11   6  10  2   
 12   6  23  1   
 13   7  11  1   
 14   7  24  1   
 15   8  12  1   
 16   8  13  1   
 17   8  25  1   
 18   9  14  1   
 19   9  26  1   
 20   9  27  1   
 21  10  11  1   
 22  11  28  1   
 23  12  14  1   
 24  12  29  1   
 25  12  30  1   
 26  13  15  1   
 27  13  31  1   
 28  13  32  1   
 29  15  16  ar  
 30  15  17  ar  
 31  16  18  ar  
 32  16  33  1   
 33  17  19  ar  
 34  17  34  1   
 35  18  20  ar  
 36  18  35  1   
 37  19  20  ar  
 38  19  36  1   
@<TRIPOS>SUBSTRUCTURE
  1 ****  13 GROUP 4 **** **** 0

# MOE 2024.06 (io_trps.svl 2023.06)
