@<TRIPOS>MOLECULE
NONAME
44 45 1 0 0 
SMALL
USER_CHARGES


@<TRIPOS>ATOM
  1 O       -0.6100     2.8680     2.8030 O.co2 1 <1>  -0.9000 
  2 C       -1.3240     3.0890     1.8240 C.2   1 <1>   0.9060 
  3 O       -2.3770     3.7300     1.9150 O.co2 1 <1>  -0.9000 
  4 C       -0.7300     2.8000     0.4690 C.3   1 <1>  -0.1860 
  5 C       -1.5830     3.1110    -0.7820 C.3   1 <1>   0.2000 
  6 C        0.5490     3.6260     0.4380 C.3   1 <1>   0.3430 
  7 O       -2.9170     2.9820    -0.4810 O.3   1 <1>  -0.6800 
  8 C       -1.3620     4.5240    -1.3390 C.3   1 <1>  -0.1600 
  9 N        0.2640     5.1070     0.4470 N.4   1 <1>  -0.9590 
 10 C       -1.0300     5.4930    -0.2110 C.3   1 <1>   0.3430 
 11 C        0.2780     5.6090     1.8650 C.3   1 <1>   0.3430 
 12 C        0.4150     7.1340     1.9150 C.3   1 <1>   0.1200 
 13 O        1.3270     7.5450     0.9120 O.3   1 <1>  -0.3630 
 14 C        1.5860     8.8580     0.6740 C.ar  1 <1>   0.0830 
 15 C        2.4550     9.1700    -0.3700 C.ar  1 <1>  -0.1430 
 16 C        1.0190     9.8830     1.4300 C.ar  1 <1>  -0.1500 
 17 C        2.7440    10.4980    -0.6420 C.ar  1 <1>  -0.1500 
 18 C        3.1050     8.0880    -1.2260 C.3   1 <1>  -0.0170 
 19 C        1.3140    11.2040     1.1450 C.ar  1 <1>  -0.1500 
 20 C        2.1760    11.5120     0.1100 C.ar  1 <1>  -0.1500 
 21 C        4.3460     7.5200    -0.5330 C.3   1 <1>  -0.2400 
 22 H       -0.4710     1.7600     0.4580 H     1 <1>   0.0800 
 23 H       -1.3740     2.3960    -1.5590 H     1 <1>   0.0800 
 24 H        1.0950     3.3750    -0.4560 H     1 <1>   0.0800 
 25 H        1.1620     3.3640     1.2870 H     1 <1>   0.0800 
 26 H       -3.0390     3.2840     0.4700 H     1 <1>   0.4000 
 27 H       -0.5500     4.5180    -2.0430 H     1 <1>   0.0800 
 28 H       -2.2420     4.8530    -1.8630 H     1 <1>   0.0800 
 29 H        1.0320     5.6120    -0.0180 H     1 <1>   0.4500 
 30 H       -1.8310     5.4540     0.5120 H     1 <1>   0.0800 
 31 H       -0.9650     6.5010    -0.5870 H     1 <1>   0.0800 
 32 H       -0.6190     5.3110     2.3850 H     1 <1>   0.0800 
 33 H        1.1090     5.1710     2.3930 H     1 <1>   0.0800 
 34 H        0.7850     7.4460     2.8760 H     1 <1>   0.0800 
 35 H       -0.5380     7.5960     1.7250 H     1 <1>   0.0800 
 36 H        0.3500     9.6820     2.2440 H     1 <1>   0.1500 
 37 H        3.4170    10.7550    -1.4410 H     1 <1>   0.1500 
 38 H        2.4000     7.2990    -1.4180 H     1 <1>   0.0800 
 39 H        3.3890     8.5000    -2.1790 H     1 <1>   0.0800 
 40 H        0.8750    11.9950     1.7290 H     1 <1>   0.1500 
 41 H        2.4080    12.5390    -0.1110 H     1 <1>   0.1500 
 42 H        4.0800     7.0880     0.4150 H     1 <1>   0.0800 
 43 H        5.0630     8.3040    -0.3620 H     1 <1>   0.0800 
 44 H        4.8020     6.7640    -1.1460 H     1 <1>   0.0800 
@<TRIPOS>BOND
  1   1   2  ar  
  2   2   3  ar  
  3   2   4  1   
  4   4   5  1   
  5   4   6  1   
  6   4  22  1   
  7   5   7  1   
  8   5   8  1   
  9   5  23  1   
 10   6   9  1   
 11   6  24  1   
 12   6  25  1   
 13   7  26  1   
 14   8  10  1   
 15   8  27  1   
 16   8  28  1   
 17   9  10  1   
 18   9  11  1   
 19   9  29  1   
 20  10  30  1   
 21  10  31  1   
 22  11  12  1   
 23  11  32  1   
 24  11  33  1   
 25  12  13  1   
 26  12  34  1   
 27  12  35  1   
 28  13  14  1   
 29  14  15  ar  
 30  14  16  ar  
 31  15  17  ar  
 32  15  18  1   
 33  16  19  ar  
 34  16  36  1   
 35  17  20  ar  
 36  17  37  1   
 37  18  21  1   
 38  18  38  1   
 39  18  39  1   
 40  19  20  ar  
 41  19  40  1   
 42  20  41  1   
 43  21  42  1   
 44  21  43  1   
 45  21  44  1   
@<TRIPOS>SUBSTRUCTURE
  1 ****   9 GROUP 4 **** **** 0

# MOE 2024.06 (io_trps.svl 2023.06)
