@<TRIPOS>MOLECULE
NONAME
44 46 1 0 0 
SMALL
USER_CHARGES


@<TRIPOS>ATOM
  1 O       -0.6320     0.6290    -0.0600 O.2   1 <1>  -0.5700 
  2 C       -0.7320     1.7320     0.4330 C.2   1 <1>   0.5440 
  3 N        0.3400     2.1570     1.1450 N.am  1 <1>  -0.8000 
  4 C       -1.9320     2.5240     0.2810 C.ar  1 <1>   0.0860 
  5 C       -1.9250     3.9100     0.4230 C.ar  1 <1>   0.1600 
  6 C       -3.1600     1.9430    -0.0200 C.ar  1 <1>  -0.1500 
  7 N       -2.9680     4.7130     0.3260 N.ar  1 <1>  -0.6200 
  8 C       -4.2580     2.7620    -0.1310 C.ar  1 <1>  -0.1500 
  9 C       -4.1380     4.1380     0.0590 C.ar  1 <1>   0.4100 
 10 N       -5.2360     4.9700    -0.0310 N.pl3 1 <1>  -0.8380 
 11 C       -6.5670     4.6070     0.5330 C.3   1 <1>   0.2090 
 12 C       -5.0630     6.4120    -0.3750 C.3   1 <1>   0.2090 
 13 C       -7.7170     4.8970    -0.4720 C.3   1 <1>   0.0000 
 14 C       -6.4130     7.1010    -0.6310 C.3   1 <1>  -0.1600 
 15 C       -9.0350     4.9820     0.3320 C.3   1 <1>   0.2000 
 16 C       -7.3940     6.1520    -1.3360 C.3   1 <1>  -0.1600 
 17 C       -7.9600     3.6670    -1.3630 C.3   1 <1>  -0.1600 
 18 O      -10.0540     5.5270    -0.4580 O.3   1 <1>  -0.5600 
 19 C       -9.4000     3.5210     0.6210 C.3   1 <1>  -0.1600 
 20 C       -8.8180     2.6980    -0.5370 C.3   1 <1>  -0.1600 
 21 C      -11.0850     6.1410     0.2470 C.3   1 <1>   0.0400 
 22 H        1.1340     1.5210     1.2360 H     1 <1>   0.3700 
 23 H        0.3380     2.9650     1.7650 H     1 <1>   0.3700 
 24 H       -0.9850     4.3900     0.6260 H     1 <1>   0.1500 
 25 H       -3.2350     0.8790    -0.1630 H     1 <1>   0.1500 
 26 H       -5.2150     2.3470    -0.3760 H     1 <1>   0.1500 
 27 H       -6.5790     3.5780     0.8440 H     1 <1>   0.0800 
 28 H       -6.7100     5.2020     1.4180 H     1 <1>   0.0800 
 29 H       -4.5370     6.9130     0.4200 H     1 <1>   0.0800 
 30 H       -4.4580     6.4720    -1.2640 H     1 <1>   0.0800 
 31 H       -6.8320     7.4290     0.3030 H     1 <1>   0.0800 
 32 H       -6.2490     7.9760    -1.2350 H     1 <1>   0.0800 
 33 H       -8.9230     5.5760     1.2240 H     1 <1>   0.0800 
 34 H       -6.9260     5.8320    -2.2510 H     1 <1>   0.0800 
 35 H       -8.2840     6.6860    -1.6140 H     1 <1>   0.0800 
 36 H       -8.5290     3.9680    -2.2270 H     1 <1>   0.0800 
 37 H       -7.0410     3.2200    -1.7000 H     1 <1>   0.0800 
 38 H       -8.9330     3.2170     1.5410 H     1 <1>   0.0800 
 39 H      -10.4620     3.3790     0.7160 H     1 <1>   0.0800 
 40 H       -8.2190     1.8890    -0.1560 H     1 <1>   0.0800 
 41 H       -9.6060     2.2920    -1.1490 H     1 <1>   0.0800 
 42 H      -11.8160     6.4840    -0.4630 H     1 <1>   0.0800 
 43 H      -10.6890     6.9800     0.7920 H     1 <1>   0.0800 
 44 H      -11.5360     5.4310     0.9180 H     1 <1>   0.0800 
@<TRIPOS>BOND
  1   1   2  2   
  2   2   3  am  
  3   2   4  1   
  4   3  22  1   
  5   3  23  1   
  6   4   5  ar  
  7   4   6  ar  
  8   5   7  ar  
  9   5  24  1   
 10   6   8  ar  
 11   6  25  1   
 12   7   9  ar  
 13   8   9  ar  
 14   8  26  1   
 15   9  10  1   
 16  10  11  1   
 17  10  12  1   
 18  11  13  1   
 19  11  27  1   
 20  11  28  1   
 21  12  14  1   
 22  12  29  1   
 23  12  30  1   
 24  13  15  1   
 25  13  16  1   
 26  13  17  1   
 27  14  16  1   
 28  14  31  1   
 29  14  32  1   
 30  15  18  1   
 31  15  19  1   
 32  15  33  1   
 33  16  34  1   
 34  16  35  1   
 35  17  20  1   
 36  17  36  1   
 37  17  37  1   
 38  18  21  1   
 39  19  20  1   
 40  19  38  1   
 41  19  39  1   
 42  20  40  1   
 43  20  41  1   
 44  21  42  1   
 45  21  43  1   
 46  21  44  1   
@<TRIPOS>SUBSTRUCTURE
  1 ****  10 GROUP 4 **** **** 0

# MOE 2024.06 (io_trps.svl 2023.06)
