@<TRIPOS>MOLECULE
NONAME
57 59 1 0 0 
SMALL
USER_CHARGES


@<TRIPOS>ATOM
  1 F       -5.6340    -2.2120    -2.5590 F     1 <1>  -0.1900 
  2 C       -5.2680    -1.2910    -1.7080 C.ar  1 <1>   0.1900 
  3 C       -5.5900    -1.4510    -0.3740 C.ar  1 <1>  -0.1500 
  4 C       -4.5750    -0.1920    -2.1750 C.ar  1 <1>  -0.1500 
  5 C       -5.2080    -0.4720     0.5320 C.ar  1 <1>  -0.1440 
  6 C       -4.1890     0.7790    -1.2670 C.ar  1 <1>  -0.1500 
  7 C       -4.5040     0.6370     0.0760 C.ar  1 <1>  -0.1500 
  8 C       -5.5630    -0.6080     2.0120 C.3   1 <1>   0.0450 
  9 C       -7.0060    -1.0350     2.2660 C.2   1 <1>   0.5690 
 10 O       -7.1730    -2.0440     2.9120 O.2   1 <1>  -0.5700 
 11 N       -8.0720    -0.3080     1.7900 N.am  1 <1>  -0.6600 
 12 C       -9.4600    -0.8360     1.9510 C.3   1 <1>   0.1400 
 13 C       -7.9280     0.9630     1.0170 C.3   1 <1>   0.1400 
 14 C      -10.3330    -0.4000     0.7720 C.3   1 <1>  -0.1600 
 15 C       -9.1740     1.8270     1.2070 C.3   1 <1>  -0.1600 
 16 C      -10.4430     1.1380     0.6440 C.3   1 <1>   0.2800 
 17 O      -10.4800     1.3610    -0.7380 O.3   1 <1>  -0.5600 
 18 C      -11.7450     1.6560     1.3250 C.3   1 <1>  -0.1600 
 19 C      -10.7980     2.6310    -1.2710 C.3   1 <1>   0.1200 
 20 C      -12.7040     2.4160     0.3910 C.3   1 <1>   0.3000 
 21 C      -11.8600     3.3990    -0.4600 C.3   1 <1>   0.2000 
 22 N      -13.3740     1.4090    -0.4650 N.am  1 <1>  -0.7300 
 23 C      -13.7830     3.1250     1.2220 C.3   1 <1>  -0.2400 
 24 O      -11.2030     4.3280     0.3560 O.3   1 <1>  -0.6800 
 25 C      -14.2190     1.6370    -1.5020 C.2   1 <1>   0.5690 
 26 O      -14.6030     2.7390    -1.8060 O.2   1 <1>  -0.5700 
 27 C      -14.6680     0.4470    -2.3280 C.3   1 <1>  -0.0990 
 28 C      -15.6120    -0.4890    -1.5580 C.3   1 <1>  -0.2400 
 29 H       -6.1320    -2.3270    -0.0600 H     1 <1>   0.1500 
 30 H       -4.3430    -0.1050    -3.2210 H     1 <1>   0.1500 
 31 H       -3.6440     1.6440    -1.6050 H     1 <1>   0.1500 
 32 H       -4.1910     1.4010     0.7670 H     1 <1>   0.1500 
 33 H       -5.3930     0.3170     2.5280 H     1 <1>   0.0800 
 34 H       -4.9090    -1.3410     2.4490 H     1 <1>   0.0800 
 35 H       -9.4380    -1.9120     1.9960 H     1 <1>   0.0800 
 36 H       -9.8720    -0.4710     2.8770 H     1 <1>   0.0800 
 37 H       -7.0660     1.5090     1.3560 H     1 <1>   0.0800 
 38 H       -7.7980     0.7330    -0.0290 H     1 <1>   0.0800 
 39 H      -11.3020    -0.8530     0.8630 H     1 <1>   0.0800 
 40 H       -9.8830    -0.8080    -0.1170 H     1 <1>   0.0800 
 41 H       -9.0120     2.7810     0.7460 H     1 <1>   0.0800 
 42 H       -9.2770     1.9960     2.2640 H     1 <1>   0.0800 
 43 H      -12.2820     0.8580     1.8030 H     1 <1>   0.0800 
 44 H      -11.4720     2.3130     2.1300 H     1 <1>   0.0800 
 45 H       -9.8950     3.2060    -1.3720 H     1 <1>   0.0800 
 46 H      -11.1880     2.4500    -2.2570 H     1 <1>   0.0800 
 47 H      -12.4910     3.9680    -1.1200 H     1 <1>   0.0800 
 48 H      -12.9280     0.4940    -0.4180 H     1 <1>   0.3700 
 49 H      -13.3360     3.8080     1.9210 H     1 <1>   0.0800 
 50 H      -14.3690     2.4100     1.7700 H     1 <1>   0.0800 
 51 H      -14.4340     3.6950     0.5840 H     1 <1>   0.0800 
 52 H      -10.6130     3.8630     0.9760 H     1 <1>   0.4000 
 53 H      -15.1710     0.8120    -3.2060 H     1 <1>   0.0800 
 54 H      -13.7990    -0.0960    -2.6520 H     1 <1>   0.0800 
 55 H      -16.4870     0.0520    -1.2410 H     1 <1>   0.0800 
 56 H      -15.1230    -0.8920    -0.6890 H     1 <1>   0.0800 
 57 H      -15.9220    -1.3040    -2.1890 H     1 <1>   0.0800 
@<TRIPOS>BOND
  1   1   2  1   
  2   2   3  ar  
  3   2   4  ar  
  4   3   5  ar  
  5   3  29  1   
  6   4   6  ar  
  7   4  30  1   
  8   5   7  ar  
  9   5   8  1   
 10   6   7  ar  
 11   6  31  1   
 12   7  32  1   
 13   8   9  1   
 14   8  33  1   
 15   8  34  1   
 16   9  10  2   
 17   9  11  am  
 18  11  12  1   
 19  11  13  1   
 20  12  14  1   
 21  12  35  1   
 22  12  36  1   
 23  13  15  1   
 24  13  37  1   
 25  13  38  1   
 26  14  16  1   
 27  14  39  1   
 28  14  40  1   
 29  15  16  1   
 30  15  41  1   
 31  15  42  1   
 32  16  17  1   
 33  16  18  1   
 34  17  19  1   
 35  18  20  1   
 36  18  43  1   
 37  18  44  1   
 38  19  21  1   
 39  19  45  1   
 40  19  46  1   
 41  20  21  1   
 42  20  22  1   
 43  20  23  1   
 44  21  24  1   
 45  21  47  1   
 46  22  25  am  
 47  22  48  1   
 48  23  49  1   
 49  23  50  1   
 50  23  51  1   
 51  24  52  1   
 52  25  26  2   
 53  25  27  1   
 54  27  28  1   
 55  27  53  1   
 56  27  54  1   
 57  28  55  1   
 58  28  56  1   
 59  28  57  1   
@<TRIPOS>SUBSTRUCTURE
  1 ****  16 GROUP 4 **** **** 0

# MOE 2024.06 (io_trps.svl 2023.06)
