@<TRIPOS>MOLECULE
NONAME
50 53 1 0 0 
SMALL
USER_CHARGES


@<TRIPOS>ATOM
  1 O       -1.2690     0.0660     0.7950 O.co2 1 <1>  -0.9000 
  2 C       -2.1590    -0.7770     1.0410 C.2   1 <1>   0.9790 
  3 O       -3.1630    -0.3730     1.6620 O.co2 1 <1>  -0.9000 
  4 C       -1.9800    -2.1770     0.6260 C.ar  1 <1>   0.1310 
  5 N       -2.9930    -3.0720     0.6060 N.ar  1 <1>  -0.6200 
  6 C       -0.6880    -2.5520     0.2450 C.ar  1 <1>   0.1600 
  7 C       -2.6420    -4.2860     0.2200 C.ar  1 <1>   0.4100 
  8 N       -0.3100    -3.7640    -0.1480 N.ar  1 <1>  -0.6200 
  9 N       -3.6400    -5.2520     0.1720 N.pl3 1 <1>  -0.8380 
 10 C       -1.3250    -4.6030    -0.1390 C.ar  1 <1>   0.1600 
 11 C       -4.0610    -5.7170    -1.1710 C.3   1 <1>   0.2090 
 12 C       -4.7940    -5.1060     1.0990 C.3   1 <1>   0.2090 
 13 C       -4.6820    -7.1060    -1.0320 C.3   1 <1>  -0.1600 
 14 C       -5.4440    -6.4740     1.2900 C.3   1 <1>  -0.1600 
 15 C       -5.8650    -7.1000    -0.0520 C.3   1 <1>   0.4240 
 16 O       -6.8320    -6.2680    -0.6510 O.3   1 <1>  -0.5600 
 17 C       -6.4040    -8.5340     0.1490 C.ar  1 <1>  -0.1440 
 18 C       -8.1530    -6.4080    -0.2320 C.3   1 <1>   0.1200 
 19 C       -7.7240    -8.8580    -0.1380 C.ar  1 <1>  -0.1440 
 20 C       -5.5730    -9.5360     0.6330 C.ar  1 <1>  -0.1500 
 21 C       -8.6590    -7.7830    -0.6560 C.3   1 <1>  -0.0170 
 22 C       -8.1900   -10.1500     0.0490 C.ar  1 <1>  -0.1500 
 23 C       -6.0190   -10.8340     0.8200 C.ar  1 <1>   0.0820 
 24 C       -7.3560   -11.1530     0.5340 C.ar  1 <1>   0.0820 
 25 O       -5.0710   -11.6970     1.2860 O.3   1 <1>  -0.3630 
 26 O       -7.8200   -12.4200     0.7500 O.3   1 <1>  -0.3630 
 27 C       -5.1030   -13.0690     0.9640 C.3   1 <1>   0.0400 
 28 C       -9.1850   -12.7530     0.6260 C.3   1 <1>   0.0400 
 29 H        0.0810    -1.7990     0.2700 H     1 <1>   0.1500 
 30 H       -1.1330    -5.6170    -0.4270 H     1 <1>   0.1500 
 31 H       -3.2140    -5.7560    -1.8330 H     1 <1>   0.0800 
 32 H       -4.7780    -5.0230    -1.5790 H     1 <1>   0.0800 
 33 H       -5.4980    -4.4010     0.6880 H     1 <1>   0.0800 
 34 H       -4.4520    -4.7250     2.0480 H     1 <1>   0.0800 
 35 H       -3.9170    -7.7760    -0.6890 H     1 <1>   0.0800 
 36 H       -5.0190    -7.4550    -1.9900 H     1 <1>   0.0800 
 37 H       -6.2870    -6.3920     1.9470 H     1 <1>   0.0800 
 38 H       -4.7280    -7.1110     1.7740 H     1 <1>   0.0800 
 39 H       -8.7310    -5.6320    -0.7010 H     1 <1>   0.0800 
 40 H       -8.2030    -6.2870     0.8360 H     1 <1>   0.0800 
 41 H       -4.5490    -9.3250     0.8760 H     1 <1>   0.1500 
 42 H       -8.7060    -7.8300    -1.7290 H     1 <1>   0.0800 
 43 H       -9.6500    -7.9300    -0.2660 H     1 <1>   0.0800 
 44 H       -9.2150   -10.3540    -0.1910 H     1 <1>   0.1500 
 45 H       -4.1220   -13.4750     1.1290 H     1 <1>   0.0800 
 46 H       -5.3810   -13.1820    -0.0700 H     1 <1>   0.0800 
 47 H       -5.8110   -13.5600     1.6060 H     1 <1>   0.0800 
 48 H       -9.3030   -13.7840     0.9090 H     1 <1>   0.0800 
 49 H       -9.4860   -12.6200    -0.3970 H     1 <1>   0.0800 
 50 H       -9.7590   -12.1260     1.2850 H     1 <1>   0.0800 
@<TRIPOS>BOND
  1   1   2  ar  
  2   2   3  ar  
  3   2   4  1   
  4   4   5  ar  
  5   4   6  ar  
  6   5   7  ar  
  7   6   8  ar  
  8   6  29  1   
  9   7   9  1   
 10   7  10  ar  
 11   8  10  ar  
 12   9  11  1   
 13   9  12  1   
 14  10  30  1   
 15  11  13  1   
 16  11  31  1   
 17  11  32  1   
 18  12  14  1   
 19  12  33  1   
 20  12  34  1   
 21  13  15  1   
 22  13  35  1   
 23  13  36  1   
 24  14  15  1   
 25  14  37  1   
 26  14  38  1   
 27  15  16  1   
 28  15  17  1   
 29  16  18  1   
 30  17  19  ar  
 31  17  20  ar  
 32  18  21  1   
 33  18  39  1   
 34  18  40  1   
 35  19  21  1   
 36  19  22  ar  
 37  20  23  ar  
 38  20  41  1   
 39  21  42  1   
 40  21  43  1   
 41  22  24  ar  
 42  22  44  1   
 43  23  24  ar  
 44  23  25  1   
 45  24  26  1   
 46  25  27  1   
 47  26  28  1   
 48  27  45  1   
 49  27  46  1   
 50  27  47  1   
 51  28  48  1   
 52  28  49  1   
 53  28  50  1   
@<TRIPOS>SUBSTRUCTURE
  1 ****  15 GROUP 4 **** **** 0

# MOE 2024.06 (io_trps.svl 2023.06)
