@<TRIPOS>MOLECULE
NONAME
54 56 1 0 0 
SMALL
USER_CHARGES


@<TRIPOS>ATOM
  1 O       -1.4330     0.5620    -2.6490 O.2   1 <1>  -0.5700 
  2 C       -2.2960     1.2470    -2.1580 C.2   1 <1>   0.5690 
  3 N       -3.5040     0.7090    -1.7910 N.am  1 <1>  -0.6600 
  4 C       -1.9100     2.6850    -1.8790 C.3   1 <1>   0.0690 
  5 C       -3.5520    -0.7780    -1.6040 C.3   1 <1>   0.3210 
  6 C       -4.7910     1.4310    -1.5280 C.3   1 <1>   0.1400 
  7 C       -0.9310     2.7210    -0.7140 C.2   1 <1>   0.1820 
  8 C       -2.8630    -1.1720    -0.2940 C.2   1 <1>   0.0460 
  9 C       -5.2320     1.2990    -0.0550 C.3   1 <1>   0.3430 
 10 N       -0.3620     3.8960    -0.2500 N.pl3 1 <1>  -0.6290 
 11 C       -0.4560     1.7040     0.0370 C.2   1 <1>   0.2000 
 12 N       -3.1810    -0.5850     0.8850 N.2   1 <1>  -0.5650 
 13 C       -1.9050    -2.1120    -0.1120 C.2   1 <1>  -0.3320 
 14 N       -6.5270     1.9940     0.2610 N.4   1 <1>  -0.9590 
 15 C        0.4580     3.5610     0.7790 C.cat 1 <1>   0.7910 
 16 C       -0.4540     5.2100    -0.6560 C.2   1 <1>   0.2290 
 17 N        0.4000     2.2330     0.9650 N.pl3 1 <1>  -0.7000 
 18 C       -2.4370    -1.1990     1.7490 C.2   1 <1>   0.0360 
 19 N       -1.6370    -2.1380     1.2060 N.pl3 1 <1>   0.0330 
 20 C       -1.1980    -3.0310    -1.0980 C.3   1 <1>  -0.0600 
 21 C       -6.7490     1.9610     1.7420 C.3   1 <1>   0.2630 
 22 C       -7.6980     1.3660    -0.4330 C.3   1 <1>   0.2630 
 23 C        1.2050     4.5410     1.4700 C.2   1 <1>  -0.1290 
 24 C        0.2580     6.1770    -0.0080 C.2   1 <1>  -0.1500 
 25 C        1.1000     5.8480     1.0730 C.2   1 <1>  -0.1500 
 26 C        2.1120     4.1500     2.6310 C.3   1 <1>  -0.1020 
 27 H       -2.7590     3.2940    -1.6510 H     1 <1>   0.0800 
 28 H       -1.4310     3.0820    -2.7550 H     1 <1>   0.0800 
 29 H       -3.0680    -1.2630    -2.4330 H     1 <1>   0.0800 
 30 H       -4.5700    -1.1210    -1.5820 H     1 <1>   0.0800 
 31 H       -5.5430     1.0010    -2.1670 H     1 <1>   0.0800 
 32 H       -4.6980     2.4680    -1.7890 H     1 <1>   0.0800 
 33 H       -4.4500     1.6990     0.5690 H     1 <1>   0.0800 
 34 H       -5.3320     0.2520     0.1840 H     1 <1>   0.0800 
 35 H       -0.6690     0.6460    -0.0330 H     1 <1>   0.1500 
 36 H       -6.4630     2.9840    -0.0230 H     1 <1>   0.4500 
 37 H       -1.0940     5.4480    -1.4900 H     1 <1>   0.1500 
 38 H        0.9370     1.7190     1.6650 H     1 <1>   0.4500 
 39 H       -2.4390    -1.0020     2.8080 H     1 <1>   0.1500 
 40 H       -0.9830    -2.7580     1.6960 H     1 <1>   0.2700 
 41 H       -1.5200    -2.8420    -2.1060 H     1 <1>   0.0800 
 42 H       -1.4060    -4.0600    -0.8630 H     1 <1>   0.0800 
 43 H       -0.1340    -2.8740    -1.0550 H     1 <1>   0.0800 
 44 H       -6.8180     0.9420     2.0880 H     1 <1>   0.0800 
 45 H       -7.6640     2.4730     1.9970 H     1 <1>   0.0800 
 46 H       -5.9330     2.4420     2.2560 H     1 <1>   0.0800 
 47 H       -7.7840     0.3280    -0.1570 H     1 <1>   0.0800 
 48 H       -7.5850     1.4310    -1.5030 H     1 <1>   0.0800 
 49 H       -8.6100     1.8710    -0.1570 H     1 <1>   0.0800 
 50 H        0.1910     7.2080    -0.3140 H     1 <1>   0.1500 
 51 H        1.6470     6.6390     1.5620 H     1 <1>   0.1500 
 52 H        2.8760     3.4690     2.2980 H     1 <1>   0.0800 
 53 H        1.5400     3.6810     3.4130 H     1 <1>   0.0800 
 54 H        2.5970     5.0160     3.0470 H     1 <1>   0.0800 
@<TRIPOS>BOND
  1   1   2  2   
  2   2   3  am  
  3   2   4  1   
  4   3   5  1   
  5   3   6  1   
  6   4   7  1   
  7   4  27  1   
  8   4  28  1   
  9   5   8  1   
 10   5  29  1   
 11   5  30  1   
 12   6   9  1   
 13   6  31  1   
 14   6  32  1   
 15   7  10  1   
 16   7  11  2   
 17   8  12  1   
 18   8  13  2   
 19   9  14  1   
 20   9  33  1   
 21   9  34  1   
 22  10  15  ar  
 23  10  16  1   
 24  11  17  1   
 25  11  35  1   
 26  12  18  2   
 27  13  19  1   
 28  13  20  1   
 29  14  21  1   
 30  14  22  1   
 31  14  36  1   
 32  15  17  ar  
 33  15  23  1   
 34  16  24  2   
 35  16  37  1   
 36  17  38  1   
 37  18  19  1   
 38  18  39  1   
 39  19  40  1   
 40  20  41  1   
 41  20  42  1   
 42  20  43  1   
 43  21  44  1   
 44  21  45  1   
 45  21  46  1   
 46  22  47  1   
 47  22  48  1   
 48  22  49  1   
 49  23  25  2   
 50  23  26  1   
 51  24  25  1   
 52  24  50  1   
 53  25  51  1   
 54  26  52  1   
 55  26  53  1   
 56  26  54  1   
@<TRIPOS>SUBSTRUCTURE
  1 ****  11 GROUP 4 **** **** 0

# MOE 2024.06 (io_trps.svl 2023.06)
