@<TRIPOS>MOLECULE
NONAME
54 57 1 0 0 
SMALL
USER_CHARGES


@<TRIPOS>ATOM
  1 S       -0.1170     0.3210     0.7350 S.o2  1 <1>   1.2040 
  2 O       -0.9910     0.2290     1.8820 O.2   1 <1>  -0.6500 
  3 O       -0.3000    -0.5550    -0.3990 O.2   1 <1>  -0.6500 
  4 C       -0.0790     2.0370     0.1560 C.ar  1 <1>  -0.0090 
  5 C        1.5480     0.0800     1.3230 C.3   1 <1>  -0.1350 
  6 C        0.2600     2.3480    -1.1550 C.ar  1 <1>  -0.1500 
  7 C       -0.3790     3.0910     1.0110 C.ar  1 <1>  -0.1500 
  8 C        0.2950     3.6580    -1.6000 C.ar  1 <1>  -0.1500 
  9 C       -0.3470     4.4040     0.5770 C.ar  1 <1>  -0.1500 
 10 C       -0.0070     4.6980    -0.7350 C.ar  1 <1>  -0.1430 
 11 C        0.0230     6.1360    -1.2200 C.3   1 <1>   0.4860 
 12 N        1.2020     6.8130    -0.6250 N.4   1 <1>  -0.9590 
 13 C        1.0760     8.3100    -0.6460 C.3   1 <1>   0.6030 
 14 C        2.4590     6.2560    -1.2470 C.3   1 <1>   0.3430 
 15 C        2.4640     8.9330    -0.5870 C.2   1 <1>  -0.3320 
 16 C        0.2410     8.8150     0.5700 C.3   1 <1>  -0.0800 
 17 C        3.7310     6.7690    -0.5670 C.3   1 <1>   0.0210 
 18 N        2.7220    10.2810    -0.5750 N.pl3 1 <1>   0.0330 
 19 C        3.6380     8.2670    -0.5310 C.2   1 <1>  -0.1810 
 20 C        0.7910     8.3510     1.9350 C.3   1 <1>  -0.2400 
 21 C       -1.2670     8.5160     0.5040 C.3   1 <1>  -0.2400 
 22 C        4.0790    10.4560    -0.4940 C.ar  1 <1>  -0.1520 
 23 C        4.6870     9.2060    -0.4610 C.ar  1 <1>   0.0000 
 24 C        4.8420    11.6250    -0.4440 C.ar  1 <1>  -0.1500 
 25 C        6.0800     9.1140    -0.3740 C.ar  1 <1>  -0.1500 
 26 C        6.2110    11.5220    -0.3600 C.ar  1 <1>  -0.1500 
 27 C        6.8300    10.2660    -0.3250 C.ar  1 <1>  -0.1500 
 28 H        1.6590    -0.9180     1.7010 H     1 <1>   0.0800 
 29 H        1.7710     0.7690     2.1130 H     1 <1>   0.0800 
 30 H        2.2520     0.2210     0.5260 H     1 <1>   0.0800 
 31 H        0.4860     1.5470    -1.8410 H     1 <1>   0.1500 
 32 H       -0.6550     2.8750     2.0320 H     1 <1>   0.1500 
 33 H        0.5500     3.8470    -2.6300 H     1 <1>   0.1500 
 34 H       -0.6020     5.1840     1.2760 H     1 <1>   0.1500 
 35 H       -0.8920     6.6190    -0.9310 H     1 <1>   0.0800 
 36 H        0.0850     6.1620    -2.2960 H     1 <1>   0.0800 
 37 H        1.2340     6.5770     0.3700 H     1 <1>   0.4500 
 38 H        0.6060     8.6250    -1.5640 H     1 <1>   0.0800 
 39 H        2.4950     6.5420    -2.2860 H     1 <1>   0.0800 
 40 H        2.4520     5.1800    -1.1960 H     1 <1>   0.0800 
 41 H        0.3170     9.8880     0.5580 H     1 <1>   0.0800 
 42 H        4.5900     6.4670    -1.1380 H     1 <1>   0.0800 
 43 H        3.8220     6.3750     0.4300 H     1 <1>   0.0800 
 44 H        2.0520    11.0580    -0.6030 H     1 <1>   0.2700 
 45 H        0.6750     7.2920     2.0790 H     1 <1>   0.0800 
 46 H        0.2640     8.8510     2.7310 H     1 <1>   0.0800 
 47 H        1.8340     8.6010     2.0350 H     1 <1>   0.0800 
 48 H       -1.4870     7.4920     0.7430 H     1 <1>   0.0800 
 49 H       -1.6670     8.7560    -0.4660 H     1 <1>   0.0800 
 50 H       -1.7850     9.1260     1.2270 H     1 <1>   0.0800 
 51 H        4.3630    12.5880    -0.4700 H     1 <1>   0.1500 
 52 H        6.5480     8.1480    -0.3470 H     1 <1>   0.1500 
 53 H        6.8220    12.4070    -0.3210 H     1 <1>   0.1500 
 54 H        7.9030    10.2150    -0.2590 H     1 <1>   0.1500 
@<TRIPOS>BOND
  1   1   2  2   
  2   1   3  2   
  3   1   4  1   
  4   1   5  1   
  5   4   6  ar  
  6   4   7  ar  
  7   5  28  1   
  8   5  29  1   
  9   5  30  1   
 10   6   8  ar  
 11   6  31  1   
 12   7   9  ar  
 13   7  32  1   
 14   8  10  ar  
 15   8  33  1   
 16   9  10  ar  
 17   9  34  1   
 18  10  11  1   
 19  11  12  1   
 20  11  35  1   
 21  11  36  1   
 22  12  13  1   
 23  12  14  1   
 24  12  37  1   
 25  13  15  1   
 26  13  16  1   
 27  13  38  1   
 28  14  17  1   
 29  14  39  1   
 30  14  40  1   
 31  15  18  1   
 32  15  19  2   
 33  16  20  1   
 34  16  21  1   
 35  16  41  1   
 36  17  19  1   
 37  17  42  1   
 38  17  43  1   
 39  18  22  1   
 40  18  44  1   
 41  19  23  1   
 42  20  45  1   
 43  20  46  1   
 44  20  47  1   
 45  21  48  1   
 46  21  49  1   
 47  21  50  1   
 48  22  23  ar  
 49  22  24  ar  
 50  23  25  ar  
 51  24  26  ar  
 52  24  51  1   
 53  25  27  ar  
 54  25  52  1   
 55  26  27  ar  
 56  26  53  1   
 57  27  54  1   
@<TRIPOS>SUBSTRUCTURE
  1 ****  12 GROUP 4 **** **** 0

# MOE 2024.06 (io_trps.svl 2023.06)
