@<TRIPOS>MOLECULE
NONAME
43 45 1 0 0 
SMALL
USER_CHARGES


@<TRIPOS>ATOM
  1 CL       1.0130    -1.6040    -2.4320 Cl    1 <1>  -0.1770 
  2 C        0.4910    -2.8520    -1.3320 C.ar  1 <1>   0.1770 
  3 C        1.0260    -4.1210    -1.4410 C.ar  1 <1>  -0.1500 
  4 C       -0.4480    -2.5550    -0.3670 C.ar  1 <1>  -0.1500 
  5 C        0.6190    -5.1240    -0.5740 C.ar  1 <1>  -0.1440 
  6 C       -0.8610    -3.5510     0.5000 C.ar  1 <1>  -0.1500 
  7 C       -0.3390    -4.8370     0.4000 C.ar  1 <1>  -0.1430 
  8 C        1.2530    -6.5000    -0.7390 C.3   1 <1>  -0.0960 
  9 C       -0.8470    -5.8910     1.3700 C.3   1 <1>   0.4870 
 10 N       -1.7390    -6.8270     0.6400 N.4   1 <1>  -0.9590 
 11 C       -2.8830    -6.1770    -0.0820 C.3   1 <1>   0.3430 
 12 C       -2.3120    -7.9210     1.4550 C.3   1 <1>   0.3430 
 13 C       -4.0900    -7.1150     0.1040 C.3   1 <1>   0.2000 
 14 C       -3.4850    -8.4250     0.6110 C.3   1 <1>  -0.0800 
 15 O       -4.9400    -6.6030     1.0770 O.3   1 <1>  -0.6800 
 16 C       -3.0570    -9.3090    -0.5920 C.3   1 <1>  -0.0170 
 17 C       -1.7970   -10.1280    -0.3530 C.ar  1 <1>   0.1670 
 18 N       -0.6460    -9.4730    -0.4580 N.ar  1 <1>  -0.6200 
 19 C       -1.8920   -11.4860    -0.0510 C.ar  1 <1>   0.1600 
 20 C        0.3930   -10.2770    -0.2670 C.ar  1 <1>   0.1600 
 21 N       -0.8540   -12.2720     0.1660 N.ar  1 <1>  -0.6200 
 22 C        0.2920   -11.6290     0.0370 C.ar  1 <1>   0.1600 
 23 H        1.7580    -4.3070    -2.2070 H     1 <1>   0.1500 
 24 H       -0.8440    -1.5570    -0.3000 H     1 <1>   0.1500 
 25 H       -1.5920    -3.3050     1.2520 H     1 <1>   0.1500 
 26 H        2.2270    -6.4090    -1.1880 H     1 <1>   0.0800 
 27 H        0.6480    -7.1120    -1.3830 H     1 <1>   0.0800 
 28 H        1.3820    -6.9940     0.2070 H     1 <1>   0.0800 
 29 H       -1.3870    -5.4150     2.1710 H     1 <1>   0.0800 
 30 H       -0.0130    -6.4260     1.7940 H     1 <1>   0.0800 
 31 H       -1.1520    -7.3010    -0.0720 H     1 <1>   0.4500 
 32 H       -3.1080    -5.2030     0.3200 H     1 <1>   0.0800 
 33 H       -2.6410    -6.0800    -1.1280 H     1 <1>   0.0800 
 34 H       -1.5880    -8.6940     1.6570 H     1 <1>   0.0800 
 35 H       -2.6810    -7.5300     2.3900 H     1 <1>   0.0800 
 36 H       -4.6640    -7.2240    -0.8020 H     1 <1>   0.0800 
 37 H       -4.1780    -8.9800     1.2210 H     1 <1>   0.0800 
 38 H       -4.5430    -6.5580     1.9670 H     1 <1>   0.4000 
 39 H       -2.8720    -8.7020    -1.4620 H     1 <1>   0.0800 
 40 H       -3.8710    -9.9630    -0.8510 H     1 <1>   0.0800 
 41 H       -2.8630   -11.9440     0.0160 H     1 <1>   0.1500 
 42 H        1.3780    -9.8510    -0.3540 H     1 <1>   0.1500 
 43 H        1.1940   -12.2000     0.1790 H     1 <1>   0.1500 
@<TRIPOS>BOND
  1   1   2  1   
  2   2   3  ar  
  3   2   4  ar  
  4   3   5  ar  
  5   3  23  1   
  6   4   6  ar  
  7   4  24  1   
  8   5   7  ar  
  9   5   8  1   
 10   6   7  ar  
 11   6  25  1   
 12   7   9  1   
 13   8  26  1   
 14   8  27  1   
 15   8  28  1   
 16   9  10  1   
 17   9  29  1   
 18   9  30  1   
 19  10  11  1   
 20  10  12  1   
 21  10  31  1   
 22  11  13  1   
 23  11  32  1   
 24  11  33  1   
 25  12  14  1   
 26  12  34  1   
 27  12  35  1   
 28  13  14  1   
 29  13  15  1   
 30  13  36  1   
 31  14  16  1   
 32  14  37  1   
 33  15  38  1   
 34  16  17  1   
 35  16  39  1   
 36  16  40  1   
 37  17  18  ar  
 38  17  19  ar  
 39  18  20  ar  
 40  19  21  ar  
 41  19  41  1   
 42  20  22  ar  
 43  20  42  1   
 44  21  22  ar  
 45  22  43  1   
@<TRIPOS>SUBSTRUCTURE
  1 ****  10 GROUP 4 **** **** 0

# MOE 2024.06 (io_trps.svl 2023.06)
