@<TRIPOS>MOLECULE
NONAME
56 60 1 0 0 
SMALL
USER_CHARGES


@<TRIPOS>ATOM
  1 O       -0.2130     0.3460    -0.3030 O.2   1 <1>  -0.5700 
  2 C       -1.2500     0.9340    -0.0710 C.2   1 <1>   0.5440 
  3 N       -2.4230     0.2140    -0.0200 N.am  1 <1>  -0.6600 
  4 C       -1.2210     2.3590     0.1240 C.ar  1 <1>   0.0860 
  5 C       -3.7730     0.7700    -0.3020 C.3   1 <1>   0.1400 
  6 C       -2.4370    -1.2660    -0.1680 C.3   1 <1>   0.1400 
  7 C       -0.4440     3.1880    -0.6600 C.ar  1 <1>   0.1600 
  8 C       -1.9500     3.0030     1.1050 C.ar  1 <1>   0.1600 
  9 C       -4.6010    -0.4210    -0.7860 C.3   1 <1>   0.2000 
 10 C       -3.9160    -1.6540    -0.2050 C.3   1 <1>  -0.0800 
 11 N       -0.4160     4.4910    -0.5220 N.ar  1 <1>  -0.6200 
 12 N       -1.9490     4.3020     1.2690 N.ar  1 <1>  -0.6200 
 13 O       -5.9110    -0.3470    -0.3380 O.3   1 <1>  -0.6800 
 14 C       -4.2070    -2.9310    -1.0110 C.3   1 <1>  -0.0170 
 15 C       -1.1770     5.0100     0.4420 C.ar  1 <1>   0.7200 
 16 C       -3.5420    -4.1440    -0.3850 C.ar  1 <1>   0.1670 
 17 N       -1.1630     6.3740     0.5980 N.pl3 1 <1>  -0.8380 
 18 N       -2.3210    -4.4060    -0.7380 N.ar  1 <1>  -0.6200 
 19 C       -4.2650    -4.9130     0.5400 C.ar  1 <1>  -0.1500 
 20 C       -1.9290     7.0940     1.6630 C.3   1 <1>   0.2090 
 21 C       -0.2910     7.2880    -0.2060 C.3   1 <1>   0.2090 
 22 C       -1.7160    -5.4830    -0.1750 C.ar  1 <1>   0.3100 
 23 C       -3.6840    -6.0000     1.1200 C.ar  1 <1>  -0.1500 
 24 C       -2.6150     8.3480     1.0920 C.3   1 <1>   0.1200 
 25 C       -1.0750     8.5310    -0.6640 C.3   1 <1>   0.1200 
 26 C       -2.3620    -6.3150     0.7660 C.ar  1 <1>   0.0000 
 27 C       -0.3940    -5.7860    -0.5370 C.ar  1 <1>  -0.1500 
 28 O       -1.6970     9.1650     0.4200 O.3   1 <1>  -0.5600 
 29 C       -1.6620    -7.4130     1.3040 C.ar  1 <1>  -0.1500 
 30 C        0.2700    -6.8590    -0.0020 C.ar  1 <1>  -0.1500 
 31 C       -0.3730    -7.6810     0.9290 C.ar  1 <1>  -0.1500 
 32 H       -4.1880     1.1750     0.6030 H     1 <1>   0.0800 
 33 H       -3.7220     1.5310    -1.0630 H     1 <1>   0.0800 
 34 H       -1.9460    -1.5350    -1.0900 H     1 <1>   0.0800 
 35 H       -1.9220    -1.7400     0.6510 H     1 <1>   0.0800 
 36 H        0.1720     2.7450    -1.4260 H     1 <1>   0.1500 
 37 H       -2.5510     2.4150     1.7760 H     1 <1>   0.1500 
 38 H       -4.6090    -0.4460    -1.8630 H     1 <1>   0.0800 
 39 H       -4.2330    -1.7950     0.8130 H     1 <1>   0.0800 
 40 H       -5.9410    -0.3620     0.6380 H     1 <1>   0.4000 
 41 H       -3.8510    -2.8180    -2.0200 H     1 <1>   0.0800 
 42 H       -5.2700    -3.0910    -1.0610 H     1 <1>   0.0800 
 43 H       -5.2750    -4.6350     0.7820 H     1 <1>   0.1500 
 44 H       -2.6830     6.4620     2.0990 H     1 <1>   0.0800 
 45 H       -1.2520     7.3870     2.4460 H     1 <1>   0.0800 
 46 H        0.5430     7.5990     0.3990 H     1 <1>   0.0800 
 47 H        0.1010     6.7930    -1.0760 H     1 <1>   0.0800 
 48 H       -4.2060    -6.6130     1.8330 H     1 <1>   0.1500 
 49 H       -3.0480     8.9270     1.8880 H     1 <1>   0.0800 
 50 H       -3.3930     8.0660     0.4050 H     1 <1>   0.0800 
 51 H       -1.8280     8.2520    -1.3790 H     1 <1>   0.0800 
 52 H       -0.4090     9.2390    -1.1210 H     1 <1>   0.0800 
 53 H        0.0820    -5.1430    -1.2530 H     1 <1>   0.1500 
 54 H       -2.1620    -8.0410     2.0200 H     1 <1>   0.1500 
 55 H        1.2840    -7.0790    -0.2880 H     1 <1>   0.1500 
 56 H        0.1600    -8.5200     1.3420 H     1 <1>   0.1500 
@<TRIPOS>BOND
  1   1   2  2   
  2   2   3  am  
  3   2   4  1   
  4   3   5  1   
  5   3   6  1   
  6   4   7  ar  
  7   4   8  ar  
  8   5   9  1   
  9   5  32  1   
 10   5  33  1   
 11   6  10  1   
 12   6  34  1   
 13   6  35  1   
 14   7  11  ar  
 15   7  36  1   
 16   8  12  ar  
 17   8  37  1   
 18   9  10  1   
 19   9  13  1   
 20   9  38  1   
 21  10  14  1   
 22  10  39  1   
 23  11  15  ar  
 24  12  15  ar  
 25  13  40  1   
 26  14  16  1   
 27  14  41  1   
 28  14  42  1   
 29  15  17  1   
 30  16  18  ar  
 31  16  19  ar  
 32  17  20  1   
 33  17  21  1   
 34  18  22  ar  
 35  19  23  ar  
 36  19  43  1   
 37  20  24  1   
 38  20  44  1   
 39  20  45  1   
 40  21  25  1   
 41  21  46  1   
 42  21  47  1   
 43  22  26  ar  
 44  22  27  ar  
 45  23  26  ar  
 46  23  48  1   
 47  24  28  1   
 48  24  49  1   
 49  24  50  1   
 50  25  28  1   
 51  25  51  1   
 52  25  52  1   
 53  26  29  ar  
 54  27  30  ar  
 55  27  53  1   
 56  29  31  ar  
 57  29  54  1   
 58  30  31  ar  
 59  30  55  1   
 60  31  56  1   
@<TRIPOS>SUBSTRUCTURE
  1 ****   3 GROUP 4 **** **** 0

# MOE 2024.06 (io_trps.svl 2023.06)
