@<TRIPOS>MOLECULE
NONAME
45 47 1 0 0 
SMALL
USER_CHARGES


@<TRIPOS>ATOM
  1 N       -1.0860    -0.0680     0.0420 N.ar  1 <1>  -0.6200 
  2 C       -1.9070     0.9580     0.2110 C.ar  1 <1>   0.4100 
  3 C        0.0820     0.2840    -0.4760 C.ar  1 <1>   0.1600 
  4 N       -3.1740     0.6180     0.7200 N.pl3 1 <1>  -0.8380 
  5 C       -1.5400     2.3150    -0.1270 C.ar  1 <1>   0.4100 
  6 C        0.4260     1.5770    -0.8140 C.ar  1 <1>   0.1600 
  7 C       -3.3520    -0.6270     1.5360 C.3   1 <1>   0.2090 
  8 C       -4.3470     0.9100    -0.1600 C.3   1 <1>   0.2090 
  9 N       -0.3660     2.6260    -0.6550 N.ar  1 <1>  -0.6200 
 10 N       -2.3960     3.4130     0.0920 N.pl3 1 <1>  -0.8380 
 11 C       -3.7470    -1.8430     0.6730 C.3   1 <1>   0.2090 
 12 C       -4.7400    -0.3070    -1.0220 C.3   1 <1>   0.2090 
 13 C       -2.8040     3.6720     1.4990 C.3   1 <1>   0.1290 
 14 C       -2.2330     4.6460    -0.7260 C.3   1 <1>   0.1290 
 15 N       -4.9340    -1.5490    -0.2010 N.pl3 1 <1>  -0.8380 
 16 C       -6.0830    -2.2690    -0.1840 C.ar  1 <1>   0.1000 
 17 C       -6.1370    -3.6500    -0.4590 C.ar  1 <1>  -0.1430 
 18 C       -7.2890    -1.6270     0.1180 C.ar  1 <1>  -0.1500 
 19 C       -7.3410    -4.3090    -0.4020 C.ar  1 <1>   0.2110 
 20 C       -4.8780    -4.4190    -0.8520 C.3   1 <1>  -0.0970 
 21 C       -8.4680    -2.3190     0.1610 C.ar  1 <1>   0.2110 
 22 N       -8.4860    -3.6500    -0.0940 N.ar  1 <1>  -0.1790 
 23 H        0.7960    -0.5030    -0.6400 H     1 <1>   0.1500 
 24 H        1.3980     1.7650    -1.2340 H     1 <1>   0.1500 
 25 H       -4.1200    -0.4550     2.2670 H     1 <1>   0.0800 
 26 H       -2.4430    -0.8470     2.0690 H     1 <1>   0.0800 
 27 H       -4.1240     1.7360    -0.8120 H     1 <1>   0.0800 
 28 H       -5.1810     1.1970     0.4540 H     1 <1>   0.0800 
 29 H       -3.9660    -2.6710     1.3220 H     1 <1>   0.0800 
 30 H       -2.9090    -2.1140     0.0530 H     1 <1>   0.0800 
 31 H       -3.9550    -0.4830    -1.7370 H     1 <1>   0.0800 
 32 H       -5.6370    -0.0840    -1.5710 H     1 <1>   0.0800 
 33 H       -2.6230     2.8060     2.1120 H     1 <1>   0.0800 
 34 H       -3.8530     3.9040     1.5330 H     1 <1>   0.0800 
 35 H       -2.2420     4.4970     1.8990 H     1 <1>   0.0800 
 36 H       -2.0430     4.3810    -1.7520 H     1 <1>   0.0800 
 37 H       -1.4010     5.2220    -0.3560 H     1 <1>   0.0800 
 38 H       -3.1290     5.2400    -0.6810 H     1 <1>   0.0800 
 39 H       -7.2650    -0.5720     0.3280 H     1 <1>   0.1500 
 40 H       -7.4000    -5.3660    -0.6080 H     1 <1>   0.1500 
 41 H       -4.3010    -3.8470    -1.5580 H     1 <1>   0.0800 
 42 H       -5.1180    -5.3630    -1.3080 H     1 <1>   0.0800 
 43 H       -4.2690    -4.6070     0.0140 H     1 <1>   0.0800 
 44 H       -9.3950    -1.8220     0.4000 H     1 <1>   0.1500 
 45 H       -9.3730    -4.1650    -0.0580 H     1 <1>   0.4570 
@<TRIPOS>BOND
  1   1   2  ar  
  2   1   3  ar  
  3   2   4  1   
  4   2   5  ar  
  5   3   6  ar  
  6   3  23  1   
  7   4   7  1   
  8   4   8  1   
  9   5   9  ar  
 10   5  10  1   
 11   6   9  ar  
 12   6  24  1   
 13   7  11  1   
 14   7  25  1   
 15   7  26  1   
 16   8  12  1   
 17   8  27  1   
 18   8  28  1   
 19  10  13  1   
 20  10  14  1   
 21  11  15  1   
 22  11  29  1   
 23  11  30  1   
 24  12  15  1   
 25  12  31  1   
 26  12  32  1   
 27  13  33  1   
 28  13  34  1   
 29  13  35  1   
 30  14  36  1   
 31  14  37  1   
 32  14  38  1   
 33  15  16  1   
 34  16  17  ar  
 35  16  18  ar  
 36  17  19  ar  
 37  17  20  1   
 38  18  21  ar  
 39  18  39  1   
 40  19  22  ar  
 41  19  40  1   
 42  20  41  1   
 43  20  42  1   
 44  20  43  1   
 45  21  22  ar  
 46  21  44  1   
 47  22  45  1   
@<TRIPOS>SUBSTRUCTURE
  1 ****   8 GROUP 4 **** **** 0

# MOE 2024.06 (io_trps.svl 2023.06)
