@<TRIPOS>MOLECULE
NONAME
43 45 1 0 0 
SMALL
USER_CHARGES


@<TRIPOS>ATOM
  1 CL      -0.8330     0.3230    -0.2810 Cl    1 <1>  -0.1770 
  2 C       -2.1440    -0.8240    -0.4740 C.ar  1 <1>   0.1770 
  3 C       -3.2200    -0.8630     0.4070 C.ar  1 <1>   0.1660 
  4 C       -2.0800    -1.7050    -1.5330 C.ar  1 <1>  -0.1500 
  5 N       -4.2210    -1.7250     0.3010 N.ar  1 <1>  -0.6200 
  6 C       -3.3190     0.0950     1.5800 C.3   1 <1>  -0.0960 
  7 C       -3.1230    -2.5960    -1.6460 C.ar  1 <1>  -0.1500 
  8 C       -4.1620    -2.5750    -0.7200 C.ar  1 <1>   0.4100 
  9 N       -5.1950    -3.4740    -0.8570 N.pl3 1 <1>  -0.8380 
 10 C       -6.5300    -2.8860    -1.1350 C.3   1 <1>   0.2090 
 11 C       -5.3410    -4.4850     0.2220 C.3   1 <1>   0.2090 
 12 C       -7.3620    -3.1380     0.1250 C.3   1 <1>  -0.0800 
 13 C       -6.8060    -4.4610     0.6710 C.3   1 <1>  -0.0800 
 14 C       -8.9100    -3.0870    -0.0510 C.3   1 <1>   0.2800 
 15 C       -7.6130    -5.6580     0.1430 C.3   1 <1>  -0.1600 
 16 O       -9.2580    -3.4000    -1.3520 O.3   1 <1>  -0.6800 
 17 C       -9.5780    -4.1460     0.8470 C.3   1 <1>  -0.1600 
 18 C       -9.5000    -1.6920     0.2520 C.3   1 <1>  -0.1600 
 19 C       -9.0890    -5.5850     0.5770 C.3   1 <1>  -0.1600 
 20 C       -8.9730    -0.5430    -0.6250 C.3   1 <1>  -0.2400 
 21 H       -1.2590    -1.6890    -2.2250 H     1 <1>   0.1500 
 22 H       -2.8130     1.0200     1.3780 H     1 <1>   0.0800 
 23 H       -2.8890    -0.3610     2.4520 H     1 <1>   0.0800 
 24 H       -4.3520     0.3170     1.7820 H     1 <1>   0.0800 
 25 H       -3.1610    -3.3180    -2.4390 H     1 <1>   0.1500 
 26 H       -6.4570    -1.8360    -1.3560 H     1 <1>   0.0800 
 27 H       -6.9420    -3.3940    -1.9890 H     1 <1>   0.0800 
 28 H       -5.0600    -5.4560    -0.1490 H     1 <1>   0.0800 
 29 H       -4.7000    -4.2320     1.0500 H     1 <1>   0.0800 
 30 H       -7.0810    -2.3810     0.8360 H     1 <1>   0.0800 
 31 H       -6.8430    -4.4680     1.7460 H     1 <1>   0.0800 
 32 H       -7.5650    -5.6560    -0.9340 H     1 <1>   0.0800 
 33 H       -7.1800    -6.5820     0.4850 H     1 <1>   0.0800 
 34 H      -10.2280    -3.4190    -1.4280 H     1 <1>   0.4000 
 35 H       -9.3490    -3.9010     1.8690 H     1 <1>   0.0800 
 36 H      -10.6490    -4.1030     0.7500 H     1 <1>   0.0800 
 37 H      -10.5700    -1.7370     0.1520 H     1 <1>   0.0800 
 38 H       -9.2940    -1.4490     1.2800 H     1 <1>   0.0800 
 39 H       -9.2310    -6.1700     1.4690 H     1 <1>   0.0800 
 40 H       -9.6900    -6.0280    -0.1980 H     1 <1>   0.0800 
 41 H       -9.1020    -0.7680    -1.6690 H     1 <1>   0.0800 
 42 H       -7.9300    -0.3630    -0.4340 H     1 <1>   0.0800 
 43 H       -9.5120     0.3620    -0.4040 H     1 <1>   0.0800 
@<TRIPOS>BOND
  1   1   2  1   
  2   2   3  ar  
  3   2   4  ar  
  4   3   5  ar  
  5   3   6  1   
  6   4   7  ar  
  7   4  21  1   
  8   5   8  ar  
  9   6  22  1   
 10   6  23  1   
 11   6  24  1   
 12   7   8  ar  
 13   7  25  1   
 14   8   9  1   
 15   9  10  1   
 16   9  11  1   
 17  10  12  1   
 18  10  26  1   
 19  10  27  1   
 20  11  13  1   
 21  11  28  1   
 22  11  29  1   
 23  12  13  1   
 24  12  14  1   
 25  12  30  1   
 26  13  15  1   
 27  13  31  1   
 28  14  16  1   
 29  14  17  1   
 30  14  18  1   
 31  15  19  1   
 32  15  32  1   
 33  15  33  1   
 34  16  34  1   
 35  17  19  1   
 36  17  35  1   
 37  17  36  1   
 38  18  20  1   
 39  18  37  1   
 40  18  38  1   
 41  19  39  1   
 42  19  40  1   
 43  20  41  1   
 44  20  42  1   
 45  20  43  1   
@<TRIPOS>SUBSTRUCTURE
  1 ****  10 GROUP 4 **** **** 0

# MOE 2024.06 (io_trps.svl 2023.06)
