@<TRIPOS>MOLECULE
NONAME
49 51 1 0 0 
SMALL
USER_CHARGES


@<TRIPOS>ATOM
  1 S       -0.0780     0.1470     0.0640 S.o2  1 <1>   1.3330 
  2 O       -0.3130     1.5420     0.3340 O.2   1 <1>  -0.6500 
  3 O        0.8130    -0.2610    -0.9910 O.2   1 <1>  -0.6500 
  4 N        0.6640    -0.4100     1.4320 N.am  1 <1>  -0.9780 
  5 C       -1.6340    -0.7510    -0.0040 C.3   1 <1>  -0.0550 
  6 C       -1.4800    -2.2820    -0.0760 C.3   1 <1>  -0.1600 
  7 C       -2.8450    -2.9950    -0.1520 C.3   1 <1>  -0.0990 
  8 C       -2.7500    -4.5170    -0.2130 C.2   1 <1>   0.5690 
  9 O       -1.6670    -5.0440    -0.1160 O.2   1 <1>  -0.5700 
 10 N       -3.8900    -5.2540    -0.3720 N.am  1 <1>  -0.6600 
 11 C       -5.2790    -4.7380    -0.4450 C.3   1 <1>   0.1400 
 12 C       -3.8800    -6.7360    -0.4290 C.3   1 <1>   0.1400 
 13 C       -6.1640    -5.9810    -0.5560 C.3   1 <1>   0.2000 
 14 C       -5.3080    -7.1510    -0.0750 C.3   1 <1>  -0.0800 
 15 O       -7.2980    -5.8670     0.2330 O.3   1 <1>  -0.6800 
 16 C       -5.7380    -8.4930    -0.6900 C.3   1 <1>  -0.0170 
 17 C       -4.8580    -9.6320    -0.2060 C.ar  1 <1>   0.1670 
 18 N       -3.7890    -9.8930    -0.8930 N.ar  1 <1>  -0.6200 
 19 C       -5.2290   -10.3340     0.9520 C.ar  1 <1>  -0.1500 
 20 C       -2.9870   -10.8990    -0.4580 C.ar  1 <1>   0.3100 
 21 C       -4.4460   -11.3500     1.4090 C.ar  1 <1>  -0.1500 
 22 C       -3.2770   -11.6600     0.6950 C.ar  1 <1>   0.0000 
 23 C       -1.8190   -11.1960    -1.1790 C.ar  1 <1>  -0.1500 
 24 C       -2.3910   -12.6870     1.0790 C.ar  1 <1>  -0.1500 
 25 C       -0.9700   -12.1980    -0.7890 C.ar  1 <1>  -0.1500 
 26 C       -1.2610   -12.9510     0.3530 C.ar  1 <1>  -0.1500 
 27 H        1.1030     0.4210     1.8220 H     1 <1>   0.4200 
 28 H        1.4250    -0.9860     1.0760 H     1 <1>   0.4200 
 29 H       -2.2120    -0.5010     0.8650 H     1 <1>   0.0800 
 30 H       -2.1820    -0.4180    -0.8650 H     1 <1>   0.0800 
 31 H       -0.8940    -2.5430    -0.9420 H     1 <1>   0.0800 
 32 H       -0.9490    -2.6290     0.7950 H     1 <1>   0.0800 
 33 H       -3.3670    -2.6580    -1.0280 H     1 <1>   0.0800 
 34 H       -3.4270    -2.7350     0.7120 H     1 <1>   0.0800 
 35 H       -5.5030    -4.1840     0.4500 H     1 <1>   0.0800 
 36 H       -5.3990    -4.1130    -1.3120 H     1 <1>   0.0800 
 37 H       -3.6240    -7.0480    -1.4280 H     1 <1>   0.0800 
 38 H       -3.1630    -7.1500     0.2620 H     1 <1>   0.0800 
 39 H       -6.4740    -6.1160    -1.5790 H     1 <1>   0.0800 
 40 H       -5.3590    -7.2180     0.9980 H     1 <1>   0.0800 
 41 H       -7.0520    -5.8130     1.1760 H     1 <1>   0.4000 
 42 H       -5.6810    -8.4400    -1.7630 H     1 <1>   0.0800 
 43 H       -6.7630    -8.6960    -0.4310 H     1 <1>   0.0800 
 44 H       -6.1320   -10.0590     1.4670 H     1 <1>   0.1500 
 45 H       -4.6970   -11.9100     2.2910 H     1 <1>   0.1500 
 46 H       -1.6130   -10.6050    -2.0510 H     1 <1>   0.1500 
 47 H       -2.6190   -13.2610     1.9590 H     1 <1>   0.1500 
 48 H       -0.0780   -12.4150    -1.3500 H     1 <1>   0.1500 
 49 H       -0.5850   -13.7350     0.6490 H     1 <1>   0.1500 
@<TRIPOS>BOND
  1   1   2  2   
  2   1   3  2   
  3   1   4  am  
  4   1   5  1   
  5   4  27  1   
  6   4  28  1   
  7   5   6  1   
  8   5  29  1   
  9   5  30  1   
 10   6   7  1   
 11   6  31  1   
 12   6  32  1   
 13   7   8  1   
 14   7  33  1   
 15   7  34  1   
 16   8   9  2   
 17   8  10  am  
 18  10  11  1   
 19  10  12  1   
 20  11  13  1   
 21  11  35  1   
 22  11  36  1   
 23  12  14  1   
 24  12  37  1   
 25  12  38  1   
 26  13  14  1   
 27  13  15  1   
 28  13  39  1   
 29  14  16  1   
 30  14  40  1   
 31  15  41  1   
 32  16  17  1   
 33  16  42  1   
 34  16  43  1   
 35  17  18  ar  
 36  17  19  ar  
 37  18  20  ar  
 38  19  21  ar  
 39  19  44  1   
 40  20  22  ar  
 41  20  23  ar  
 42  21  22  ar  
 43  21  45  1   
 44  22  24  ar  
 45  23  25  ar  
 46  23  46  1   
 47  24  26  ar  
 48  24  47  1   
 49  25  26  ar  
 50  25  48  1   
 51  26  49  1   
@<TRIPOS>SUBSTRUCTURE
  1 ****  12 GROUP 4 **** **** 0

# MOE 2024.06 (io_trps.svl 2023.06)
