@<TRIPOS>MOLECULE
NONAME
49 52 1 0 0 
SMALL
USER_CHARGES


@<TRIPOS>ATOM
  1 O       -0.4910    -0.0080     0.8660 O.2   1 <1>  -0.5700 
  2 C       -1.5100     0.6510     0.9260 C.2   1 <1>   0.5440 
  3 N       -2.7220     0.0040     1.0310 N.am  1 <1>  -0.6600 
  4 C       -1.4380     2.0940     0.8640 C.ar  1 <1>   0.0860 
  5 C       -2.8300    -1.4870     1.1310 C.3   1 <1>   0.1400 
  6 C       -4.0430     0.6600     0.7840 C.3   1 <1>   0.1400 
  7 C       -1.1470     2.7720    -0.3220 C.ar  1 <1>   0.1660 
  8 C       -1.6850     2.8590     1.9950 C.ar  1 <1>  -0.1500 
  9 C       -3.6320    -2.0600    -0.0520 C.3   1 <1>   0.3440 
 10 C       -4.7770    -0.0260    -0.3850 C.3   1 <1>   0.2950 
 11 N       -1.1100     4.0890    -0.4480 N.ar  1 <1>  -0.6200 
 12 C       -0.8480     1.9950    -1.5930 C.3   1 <1>  -0.0970 
 13 C       -1.6390     4.2300     1.8750 C.ar  1 <1>  -0.1500 
 14 O       -4.8700    -1.4040    -0.1650 O.3   1 <1>  -0.5600 
 15 C       -3.8590    -3.5580     0.1300 C.ar  1 <1>  -0.1430 
 16 C       -6.2010     0.5130    -0.5470 C.3   1 <1>  -0.1950 
 17 C       -1.3510     4.7940     0.6430 C.ar  1 <1>   0.1670 
 18 C       -2.9220    -4.4560    -0.3640 C.ar  1 <1>  -0.1500 
 19 C       -4.9760    -4.0490     0.7930 C.ar  1 <1>  -0.1500 
 20 C       -6.9250     0.4090    -1.8510 C.3   1 <1>  -0.2000 
 21 C       -6.4720     1.7500    -1.3460 C.3   1 <1>  -0.2000 
 22 C       -1.2950     6.2980     0.4840 C.3   1 <1>  -0.0970 
 23 C       -3.0980    -5.8190    -0.1980 C.ar  1 <1>  -0.1500 
 24 C       -5.1530    -5.4120     0.9600 C.ar  1 <1>  -0.1500 
 25 C       -4.2140    -6.2980     0.4640 C.ar  1 <1>  -0.1500 
 26 H       -1.8560    -1.9430     1.1490 H     1 <1>   0.0800 
 27 H       -3.3270    -1.7460     2.0500 H     1 <1>   0.0800 
 28 H       -4.6460     0.5840     1.6730 H     1 <1>   0.0800 
 29 H       -3.9240     1.7030     0.5540 H     1 <1>   0.0800 
 30 H       -1.9050     2.3850     2.9360 H     1 <1>   0.1500 
 31 H       -3.0880    -1.8960    -0.9660 H     1 <1>   0.0800 
 32 H       -4.2300     0.1310    -1.2990 H     1 <1>   0.0800 
 33 H       -1.6340     1.2920    -1.7970 H     1 <1>   0.0800 
 34 H        0.0800     1.4640    -1.4810 H     1 <1>   0.0800 
 35 H       -0.7590     2.6620    -2.4320 H     1 <1>   0.0800 
 36 H       -1.8220     4.8540     2.7300 H     1 <1>   0.1500 
 37 H       -6.7860     0.3720     0.3460 H     1 <1>   0.1000 
 38 H       -2.0480    -4.0990    -0.8800 H     1 <1>   0.1500 
 39 H       -5.7150    -3.3680     1.1800 H     1 <1>   0.1500 
 40 H       -6.4170    -0.0380    -2.6890 H     1 <1>   0.1000 
 41 H       -7.9750     0.1690    -1.8340 H     1 <1>   0.1000 
 42 H       -7.2160     2.4440    -0.9950 H     1 <1>   0.1000 
 43 H       -5.6640     2.2400    -1.8630 H     1 <1>   0.1000 
 44 H       -1.5020     6.7960     1.4120 H     1 <1>   0.0800 
 45 H       -2.0180     6.6080    -0.2480 H     1 <1>   0.0800 
 46 H       -0.3160     6.5850     0.1450 H     1 <1>   0.0800 
 47 H       -2.3670    -6.5070    -0.5850 H     1 <1>   0.1500 
 48 H       -6.0240    -5.7800     1.4740 H     1 <1>   0.1500 
 49 H       -4.3520    -7.3570     0.5930 H     1 <1>   0.1500 
@<TRIPOS>BOND
  1   1   2  2   
  2   2   3  am  
  3   2   4  1   
  4   3   5  1   
  5   3   6  1   
  6   4   7  ar  
  7   4   8  ar  
  8   5   9  1   
  9   5  26  1   
 10   5  27  1   
 11   6  10  1   
 12   6  28  1   
 13   6  29  1   
 14   7  11  ar  
 15   7  12  1   
 16   8  13  ar  
 17   8  30  1   
 18   9  14  1   
 19   9  15  1   
 20   9  31  1   
 21  10  14  1   
 22  10  16  1   
 23  10  32  1   
 24  11  17  ar  
 25  12  33  1   
 26  12  34  1   
 27  12  35  1   
 28  13  17  ar  
 29  13  36  1   
 30  15  18  ar  
 31  15  19  ar  
 32  16  20  1   
 33  16  21  1   
 34  16  37  1   
 35  17  22  1   
 36  18  23  ar  
 37  18  38  1   
 38  19  24  ar  
 39  19  39  1   
 40  20  21  1   
 41  20  40  1   
 42  20  41  1   
 43  21  42  1   
 44  21  43  1   
 45  22  44  1   
 46  22  45  1   
 47  22  46  1   
 48  23  25  ar  
 49  23  47  1   
 50  24  25  ar  
 51  24  48  1   
 52  25  49  1   
@<TRIPOS>SUBSTRUCTURE
  1 ****   3 GROUP 4 **** **** 0

# MOE 2024.06 (io_trps.svl 2023.06)
