@<TRIPOS>MOLECULE
NONAME
43 45 1 0 0 
SMALL
USER_CHARGES


@<TRIPOS>ATOM
  1 S        0.3710     0.3520    -1.2780 S.3   1 <1>  -0.0800 
  2 C        1.0470    -0.7000    -0.0610 C.2   1 <1>  -0.1400 
  3 C        0.6000     1.7050    -0.1960 C.2   1 <1>   0.2280 
  4 C        1.3770     0.0400     1.0110 C.2   1 <1>   0.0460 
  5 C        1.1640    -2.1710    -0.3800 C.3   1 <1>   0.5230 
  6 N        1.1120     1.3920     0.9260 N.2   1 <1>  -0.5650 
  7 C        2.0080    -0.4270     2.3070 C.3   1 <1>  -0.0590 
  8 N       -0.1010    -2.8520    -0.0010 N.4   1 <1>  -0.9590 
  9 C       -1.3170    -2.4400    -0.7540 C.3   1 <1>   0.3430 
 10 C       -0.0550    -4.3410    -0.0730 C.3   1 <1>   0.3430 
 11 C       -2.3180    -3.5500    -0.4390 C.3   1 <1>   0.2000 
 12 C       -1.4450    -4.8020    -0.5320 C.3   1 <1>  -0.0800 
 13 O       -2.7250    -3.4010     0.8910 O.3   1 <1>  -0.5600 
 14 C       -1.9690    -6.0260     0.2460 C.3   1 <1>   0.0200 
 15 C       -3.8950    -2.6640     1.0770 C.3   1 <1>   0.0400 
 16 C       -1.0610    -7.2230     0.0360 C.2   1 <1>  -0.0400 
 17 O        0.1710    -7.1900     0.4700 O.3   1 <1>  -0.0190 
 18 C       -1.2560    -8.4120    -0.5530 C.2   1 <1>  -0.1500 
 19 N        0.8160    -8.2800     0.1870 N.2   1 <1>  -0.4100 
 20 C       -0.0210    -9.0420    -0.4230 C.2   1 <1>   0.1080 
 21 C        0.3020   -10.4310    -0.9270 C.3   1 <1>  -0.0590 
 22 H        0.2980     2.6780    -0.5450 H     1 <1>   0.1500 
 23 H        1.9800    -2.5880     0.1870 H     1 <1>   0.0800 
 24 H        1.3730    -2.3070    -1.4290 H     1 <1>   0.0800 
 25 H        2.1870    -1.4850     2.3000 H     1 <1>   0.0800 
 26 H        1.3600    -0.1860     3.1310 H     1 <1>   0.0800 
 27 H        2.9440     0.0830     2.4530 H     1 <1>   0.0800 
 28 H       -0.3140    -2.6140     0.9790 H     1 <1>   0.4500 
 29 H       -1.6820    -1.4770    -0.4360 H     1 <1>   0.0800 
 30 H       -1.1130    -2.4200    -1.8110 H     1 <1>   0.0800 
 31 H        0.6920    -4.6790    -0.7740 H     1 <1>   0.0800 
 32 H        0.1720    -4.7480     0.9000 H     1 <1>   0.0800 
 33 H       -3.1720    -3.5770    -1.0970 H     1 <1>   0.0800 
 34 H       -1.3650    -5.0790    -1.5690 H     1 <1>   0.0800 
 35 H       -2.9600    -6.2720    -0.0920 H     1 <1>   0.0800 
 36 H       -2.0240    -5.8160     1.3010 H     1 <1>   0.0800 
 37 H       -4.0930    -2.6090     2.1340 H     1 <1>   0.0800 
 38 H       -4.7150    -3.1630     0.5880 H     1 <1>   0.0800 
 39 H       -3.7680    -1.6700     0.6840 H     1 <1>   0.0800 
 40 H       -2.1320    -8.8190    -1.0240 H     1 <1>   0.1500 
 41 H       -0.3480   -11.1480    -0.4610 H     1 <1>   0.0800 
 42 H        1.3210   -10.6810    -0.6920 H     1 <1>   0.0800 
 43 H        0.1710   -10.4740    -1.9930 H     1 <1>   0.0800 
@<TRIPOS>BOND
  1   1   2  1   
  2   1   3  1   
  3   2   4  2   
  4   2   5  1   
  5   3   6  2   
  6   3  22  1   
  7   4   6  1   
  8   4   7  1   
  9   5   8  1   
 10   5  23  1   
 11   5  24  1   
 12   7  25  1   
 13   7  26  1   
 14   7  27  1   
 15   8   9  1   
 16   8  10  1   
 17   8  28  1   
 18   9  11  1   
 19   9  29  1   
 20   9  30  1   
 21  10  12  1   
 22  10  31  1   
 23  10  32  1   
 24  11  12  1   
 25  11  13  1   
 26  11  33  1   
 27  12  14  1   
 28  12  34  1   
 29  13  15  1   
 30  14  16  1   
 31  14  35  1   
 32  14  36  1   
 33  15  37  1   
 34  15  38  1   
 35  15  39  1   
 36  16  17  1   
 37  16  18  2   
 38  17  19  1   
 39  18  20  1   
 40  18  40  1   
 41  19  20  2   
 42  20  21  1   
 43  21  41  1   
 44  21  42  1   
 45  21  43  1   
@<TRIPOS>SUBSTRUCTURE
  1 ****  10 GROUP 4 **** **** 0

# MOE 2024.06 (io_trps.svl 2023.06)
