@<TRIPOS>MOLECULE
NONAME
50 53 1 0 0 
SMALL
USER_CHARGES


@<TRIPOS>ATOM
  1 O        1.6870     0.5040    -0.9700 O.3   1 <1>  -0.3630 
  2 C        2.6550    -0.2480    -0.3960 C.ar  1 <1>   0.0830 
  3 C        0.5850    -0.0860    -1.6270 C.3   1 <1>   0.0400 
  4 C        3.5380     0.3920     0.4310 C.ar  1 <1>  -0.1500 
  5 C        2.7800    -1.6300    -0.6100 C.ar  1 <1>  -0.1500 
  6 C        4.6090    -0.2840     1.0590 C.ar  1 <1>   0.0000 
  7 C        3.7810    -2.3200     0.0170 C.ar  1 <1>  -0.1500 
  8 C        4.7030    -1.6830     0.8630 C.ar  1 <1>   0.3100 
  9 C        5.5970     0.3350     1.8680 C.ar  1 <1>  -0.1440 
 10 N        5.6540    -2.4450     1.4520 N.ar  1 <1>  -0.6200 
 11 C        6.5220    -0.4770     2.4620 C.ar  1 <1>  -0.1500 
 12 C        5.7000     1.8460     2.0650 C.3   1 <1>   0.3430 
 13 C        6.5030    -1.8570     2.2300 C.ar  1 <1>   0.1600 
 14 O        4.5660     2.2910     2.7170 O.3   1 <1>  -0.6800 
 15 C        5.8710     2.6210     0.7260 C.3   1 <1>   0.4230 
 16 N        6.7430     1.9130    -0.2880 N.4   1 <1>  -0.9590 
 17 C        6.3900     4.0690     0.9190 C.3   1 <1>  -0.1600 
 18 C        8.2060     2.0330     0.1000 C.3   1 <1>   0.3430 
 19 C        6.5480     2.5610    -1.6290 C.3   1 <1>   0.3430 
 20 C        7.4560     4.4210    -0.1490 C.3   1 <1>  -0.0800 
 21 C        8.7000     3.5110     0.0690 C.3   1 <1>   0.4180 
 22 C        6.8040     4.0790    -1.5130 C.3   1 <1>  -0.1600 
 23 O        9.5390     3.6520    -1.0120 O.3   1 <1>  -0.6800 
 24 C        9.5610     3.8440     1.2790 C.2   1 <1>  -0.2880 
 25 C        9.4470     4.8690     2.1330 C.2   1 <1>  -0.3000 
 26 H       -0.0950     0.6980    -1.9090 H     1 <1>   0.0800 
 27 H        0.0980    -0.7660    -0.9510 H     1 <1>   0.0800 
 28 H        0.9330    -0.5990    -2.5060 H     1 <1>   0.0800 
 29 H        3.3740     1.4360     0.6050 H     1 <1>   0.1500 
 30 H        2.0980    -2.1530    -1.2560 H     1 <1>   0.1500 
 31 H        3.8880    -3.3810    -0.1210 H     1 <1>   0.1500 
 32 H        7.2890    -0.0960     3.1130 H     1 <1>   0.1500 
 33 H        6.5320     2.0660     2.7120 H     1 <1>   0.0800 
 34 H        7.2450    -2.4670     2.7210 H     1 <1>   0.1500 
 35 H        4.3220     1.6650     3.4310 H     1 <1>   0.4000 
 36 H        4.8880     2.6920     0.2930 H     1 <1>   0.0800 
 37 H        6.4650     0.9200    -0.3360 H     1 <1>   0.4500 
 38 H        5.5530     4.7420     0.8460 H     1 <1>   0.0800 
 39 H        6.7900     4.1950     1.9090 H     1 <1>   0.0800 
 40 H        8.3370     1.6490     1.0970 H     1 <1>   0.0800 
 41 H        8.8190     1.4510    -0.5670 H     1 <1>   0.0800 
 42 H        7.2410     2.1350    -2.3380 H     1 <1>   0.0800 
 43 H        5.5460     2.3850    -1.9880 H     1 <1>   0.0800 
 44 H        7.7220     5.4630    -0.0970 H     1 <1>   0.0800 
 45 H        7.4330     4.3920    -2.3290 H     1 <1>   0.0800 
 46 H        5.8730     4.6080    -1.6240 H     1 <1>   0.0800 
 47 H       10.0440     4.4850    -0.9080 H     1 <1>   0.4000 
 48 H       10.3590     3.1270     1.3940 H     1 <1>   0.1500 
 49 H       10.1180     5.0270     2.9630 H     1 <1>   0.1500 
 50 H        8.7000     5.6440     2.0930 H     1 <1>   0.1500 
@<TRIPOS>BOND
  1   1   2  1   
  2   1   3  1   
  3   2   4  ar  
  4   2   5  ar  
  5   3  26  1   
  6   3  27  1   
  7   3  28  1   
  8   4   6  ar  
  9   4  29  1   
 10   5   7  ar  
 11   5  30  1   
 12   6   8  ar  
 13   6   9  ar  
 14   7   8  ar  
 15   7  31  1   
 16   8  10  ar  
 17   9  11  ar  
 18   9  12  1   
 19  10  13  ar  
 20  11  13  ar  
 21  11  32  1   
 22  12  14  1   
 23  12  15  1   
 24  12  33  1   
 25  13  34  1   
 26  14  35  1   
 27  15  16  1   
 28  15  17  1   
 29  15  36  1   
 30  16  18  1   
 31  16  19  1   
 32  16  37  1   
 33  17  20  1   
 34  17  38  1   
 35  17  39  1   
 36  18  21  1   
 37  18  40  1   
 38  18  41  1   
 39  19  22  1   
 40  19  42  1   
 41  19  43  1   
 42  20  21  1   
 43  20  22  1   
 44  20  44  1   
 45  21  23  1   
 46  21  24  1   
 47  22  45  1   
 48  22  46  1   
 49  23  47  1   
 50  24  25  2   
 51  24  48  1   
 52  25  49  1   
 53  25  50  1   
@<TRIPOS>SUBSTRUCTURE
  1 ****  15 GROUP 4 **** **** 0

# MOE 2024.06 (io_trps.svl 2023.06)
