@<TRIPOS>MOLECULE
NONAME
51 54 1 0 0 
SMALL
USER_CHARGES


@<TRIPOS>ATOM
  1 O       -0.5650    -1.1150     1.1910 O.co2 1 <1>  -0.9000 
  2 C       -0.1940    -1.4580     0.0530 C.2   1 <1>   0.9790 
  3 O       -0.9180    -1.1740    -0.9200 O.co2 1 <1>  -0.9000 
  4 C        1.0770    -2.0990    -0.1440 C.ar  1 <1>  -0.1790 
  5 C        1.2160    -3.4960    -0.1440 C.ar  1 <1>   0.4100 
  6 C        2.2140    -1.3250    -0.3230 C.ar  1 <1>  -0.1500 
  7 N        2.3880    -4.1170    -0.2750 N.ar  1 <1>  -0.6200 
  8 N        0.1530    -4.3620     0.0080 N.pl3 1 <1>  -0.8380 
  9 C        3.4190    -1.9680    -0.4760 C.ar  1 <1>  -0.1500 
 10 C        3.4450    -3.3490    -0.4410 C.ar  1 <1>   0.1600 
 11 C       -0.0620    -4.9820     1.3290 C.3   1 <1>   0.2090 
 12 C       -1.0920    -4.2020    -0.7780 C.3   1 <1>   0.2090 
 13 C       -0.6040    -6.3930     1.1060 C.3   1 <1>  -0.1600 
 14 C       -1.6580    -5.5930    -1.0490 C.3   1 <1>  -0.1600 
 15 C       -1.8850    -6.3820     0.2550 C.3   1 <1>   0.4240 
 16 O       -2.8370    -5.7050     1.0420 O.3   1 <1>  -0.5600 
 17 C       -2.3520    -7.8230    -0.0520 C.ar  1 <1>  -0.1440 
 18 C       -4.1790    -5.8690     0.7160 C.3   1 <1>   0.1200 
 19 C       -3.6210    -8.2650     0.3010 C.ar  1 <1>  -0.1440 
 20 C       -1.5050    -8.7100    -0.7050 C.ar  1 <1>  -0.1500 
 21 C       -4.5740    -7.3140     1.0020 C.3   1 <1>  -0.0170 
 22 C       -4.0230    -9.5600     0.0150 C.ar  1 <1>  -0.1500 
 23 C       -1.8890   -10.0090    -0.9920 C.ar  1 <1>   0.0820 
 24 C       -3.1730   -10.4470    -0.6380 C.ar  1 <1>   0.0820 
 25 O       -0.9490   -10.7670    -1.6220 O.3   1 <1>  -0.3630 
 26 O       -3.5670   -11.7160    -0.9550 O.3   1 <1>  -0.3630 
 27 C       -0.7730   -12.1190    -1.2630 C.3   1 <1>   0.0400 
 28 C       -4.8980   -12.1510    -0.7860 C.3   1 <1>   0.0400 
 29 H        2.1340    -0.2510    -0.3340 H     1 <1>   0.1500 
 30 H        4.3240    -1.4080    -0.6170 H     1 <1>   0.1500 
 31 H        4.3900    -3.8490    -0.5550 H     1 <1>   0.1500 
 32 H       -0.7620    -4.3850     1.8910 H     1 <1>   0.0800 
 33 H        0.8680    -5.0190     1.8690 H     1 <1>   0.0800 
 34 H       -0.8780    -3.6950    -1.7040 H     1 <1>   0.0800 
 35 H       -1.8010    -3.6110    -0.2210 H     1 <1>   0.0800 
 36 H       -0.8070    -6.8620     2.0510 H     1 <1>   0.0800 
 37 H        0.1640    -6.9590     0.6160 H     1 <1>   0.0800 
 38 H       -0.9490    -6.1150    -1.6630 H     1 <1>   0.0800 
 39 H       -2.5670    -5.5160    -1.6120 H     1 <1>   0.0800 
 40 H       -4.3290    -5.6180    -0.3190 H     1 <1>   0.0800 
 41 H       -4.7490    -5.1910     1.3270 H     1 <1>   0.0800 
 42 H       -0.5200    -8.4010    -1.0050 H     1 <1>   0.1500 
 43 H       -5.5810    -7.4780     0.6650 H     1 <1>   0.0800 
 44 H       -4.5380    -7.4870     2.0630 H     1 <1>   0.0800 
 45 H       -5.0090    -9.8600     0.3100 H     1 <1>   0.1500 
 46 H        0.2260   -12.4090    -1.5330 H     1 <1>   0.0800 
 47 H       -1.4840   -12.7170    -1.8040 H     1 <1>   0.0800 
 48 H       -0.9160   -12.2240    -0.2020 H     1 <1>   0.0800 
 49 H       -4.9740   -13.1510    -1.1730 H     1 <1>   0.0800 
 50 H       -5.5520   -11.4970    -1.3360 H     1 <1>   0.0800 
 51 H       -5.1370   -12.1470     0.2630 H     1 <1>   0.0800 
@<TRIPOS>BOND
  1   1   2  ar  
  2   2   3  ar  
  3   2   4  1   
  4   4   5  ar  
  5   4   6  ar  
  6   5   7  ar  
  7   5   8  1   
  8   6   9  ar  
  9   6  29  1   
 10   7  10  ar  
 11   8  11  1   
 12   8  12  1   
 13   9  10  ar  
 14   9  30  1   
 15  10  31  1   
 16  11  13  1   
 17  11  32  1   
 18  11  33  1   
 19  12  14  1   
 20  12  34  1   
 21  12  35  1   
 22  13  15  1   
 23  13  36  1   
 24  13  37  1   
 25  14  15  1   
 26  14  38  1   
 27  14  39  1   
 28  15  16  1   
 29  15  17  1   
 30  16  18  1   
 31  17  19  ar  
 32  17  20  ar  
 33  18  21  1   
 34  18  40  1   
 35  18  41  1   
 36  19  21  1   
 37  19  22  ar  
 38  20  23  ar  
 39  20  42  1   
 40  21  43  1   
 41  21  44  1   
 42  22  24  ar  
 43  22  45  1   
 44  23  24  ar  
 45  23  25  1   
 46  24  26  1   
 47  25  27  1   
 48  26  28  1   
 49  27  46  1   
 50  27  47  1   
 51  27  48  1   
 52  28  49  1   
 53  28  50  1   
 54  28  51  1   
@<TRIPOS>SUBSTRUCTURE
  1 ****  15 GROUP 4 **** **** 0

# MOE 2024.06 (io_trps.svl 2023.06)
