@<TRIPOS>MOLECULE
NONAME
55 57 1 0 0 
SMALL
USER_CHARGES


@<TRIPOS>ATOM
  1 O        1.5220     0.7610     0.5400 O.2   1 <1>  -0.5700 
  2 C        2.2460    -0.2130     0.4470 C.2   1 <1>   0.7160 
  3 N        3.6080    -0.0530     0.6020 N.am  1 <1>  -0.6600 
  4 C        1.6640    -1.5070     0.1800 C.2   1 <1>  -0.0860 
  5 C        4.5600    -1.1880     0.8350 C.3   1 <1>   0.1400 
  6 C        4.2240     1.2970     0.7340 C.3   1 <1>   0.1400 
  7 C        0.6680    -2.1580     0.8400 C.2   1 <1>  -0.0400 
  8 C        2.0160    -2.3890    -0.8630 C.2   1 <1>  -0.1500 
  9 C        5.5300    -1.4090    -0.3390 C.3   1 <1>   0.1400 
 10 C        4.6910     1.8250    -0.6280 C.3   1 <1>  -0.1600 
 11 O        0.4260    -3.3270     0.2990 O.3   1 <1>  -0.2800 
 12 C       -0.1500    -1.7390     2.0440 C.3   1 <1>  -0.0600 
 13 C        1.2300    -3.4750    -0.7300 C.2   1 <1>  -0.0400 
 14 N        6.2340    -0.1500    -0.7390 N.am  1 <1>  -0.6600 
 15 C        5.3780     0.7860    -1.5250 C.3   1 <1>   0.1400 
 16 C        1.1370    -4.7470    -1.5430 C.3   1 <1>  -0.0600 
 17 C        7.5170     0.0950    -0.3170 C.2   1 <1>   0.5690 
 18 O        8.1300    -0.7130     0.3410 O.2   1 <1>  -0.5700 
 19 C        8.2230     1.4040    -0.6120 C.3   1 <1>  -0.0990 
 20 C        8.2020     2.3090     0.6220 C.3   1 <1>   0.0210 
 21 C        8.6110     3.7180     0.2460 C.2   1 <1>   0.1080 
 22 N        7.7640     4.5530    -0.2690 N.2   1 <1>  -0.7070 
 23 C        9.8830     4.2700     0.3870 C.2   1 <1>  -0.1810 
 24 N        8.4780     5.6750    -0.4680 N.pl3 1 <1>   0.3000 
 25 C        9.7630     5.5320    -0.0810 C.2   1 <1>  -0.3320 
 26 C       11.1050     3.5630     0.9480 C.3   1 <1>  -0.0590 
 27 C       10.7830     6.6520    -0.1990 C.3   1 <1>  -0.0600 
 28 H        4.0190    -2.0990     1.0190 H     1 <1>   0.0800 
 29 H        5.1370    -0.9860     1.7200 H     1 <1>   0.0800 
 30 H        5.0670     1.2380     1.4010 H     1 <1>   0.0800 
 31 H        3.5230     1.9900     1.1680 H     1 <1>   0.0800 
 32 H        2.7640    -2.1920    -1.6090 H     1 <1>   0.1500 
 33 H        4.9920    -1.8010    -1.1830 H     1 <1>   0.0800 
 34 H        6.2490    -2.1570    -0.0540 H     1 <1>   0.0800 
 35 H        5.3560     2.6540    -0.4690 H     1 <1>   0.0800 
 36 H        3.8380     2.2150    -1.1530 H     1 <1>   0.0800 
 37 H        0.1490    -0.7650     2.3840 H     1 <1>   0.0800 
 38 H       -0.0140    -2.4470     2.8400 H     1 <1>   0.0800 
 39 H       -1.1910    -1.7090     1.7770 H     1 <1>   0.0800 
 40 H        5.9520     1.2770    -2.2910 H     1 <1>   0.0800 
 41 H        4.6160     0.2180    -2.0300 H     1 <1>   0.0800 
 42 H        1.8460    -4.7270    -2.3500 H     1 <1>   0.0800 
 43 H        0.1460    -4.8460    -1.9470 H     1 <1>   0.0800 
 44 H        1.3430    -5.5940    -0.9140 H     1 <1>   0.0800 
 45 H        7.7750     1.9140    -1.4400 H     1 <1>   0.0800 
 46 H        9.2420     1.1950    -0.8800 H     1 <1>   0.0800 
 47 H        8.8560     1.9150     1.3780 H     1 <1>   0.0800 
 48 H        7.2110     2.3470     1.0350 H     1 <1>   0.0800 
 49 H        8.0600     6.5230    -0.8690 H     1 <1>   0.2700 
 50 H       11.2760     2.6480     0.4100 H     1 <1>   0.0800 
 51 H       10.9480     3.3340     1.9860 H     1 <1>   0.0800 
 52 H       11.9800     4.1780     0.8600 H     1 <1>   0.0800 
 53 H       11.7390     6.3430     0.1810 H     1 <1>   0.0800 
 54 H       10.4580     7.5090     0.3630 H     1 <1>   0.0800 
 55 H       10.9030     6.9350    -1.2300 H     1 <1>   0.0800 
@<TRIPOS>BOND
  1   1   2  2   
  2   2   3  am  
  3   2   4  1   
  4   3   5  1   
  5   3   6  1   
  6   4   7  2   
  7   4   8  1   
  8   5   9  1   
  9   5  28  1   
 10   5  29  1   
 11   6  10  1   
 12   6  30  1   
 13   6  31  1   
 14   7  11  1   
 15   7  12  1   
 16   8  13  2   
 17   8  32  1   
 18   9  14  1   
 19   9  33  1   
 20   9  34  1   
 21  10  15  1   
 22  10  35  1   
 23  10  36  1   
 24  11  13  1   
 25  12  37  1   
 26  12  38  1   
 27  12  39  1   
 28  13  16  1   
 29  14  15  1   
 30  14  17  am  
 31  15  40  1   
 32  15  41  1   
 33  16  42  1   
 34  16  43  1   
 35  16  44  1   
 36  17  18  2   
 37  17  19  1   
 38  19  20  1   
 39  19  45  1   
 40  19  46  1   
 41  20  21  1   
 42  20  47  1   
 43  20  48  1   
 44  21  22  2   
 45  21  23  1   
 46  22  24  1   
 47  23  25  2   
 48  23  26  1   
 49  24  25  1   
 50  24  49  1   
 51  25  27  1   
 52  26  50  1   
 53  26  51  1   
 54  26  52  1   
 55  27  53  1   
 56  27  54  1   
 57  27  55  1   
@<TRIPOS>SUBSTRUCTURE
  1 ****   6 GROUP 4 **** **** 0

# MOE 2024.06 (io_trps.svl 2023.06)
