@<TRIPOS>MOLECULE
NONAME
52 55 1 0 0 
SMALL
USER_CHARGES


@<TRIPOS>ATOM
  1 F       -3.4610     3.8330    -0.1250 F     1 <1>  -0.3400 
  2 C       -4.2230     2.8890     0.4150 C.3   1 <1>   1.1640 
  3 F       -3.4210     2.1410     1.1600 F     1 <1>  -0.3400 
  4 F       -5.0440     3.5070     1.2550 F     1 <1>  -0.3400 
  5 C       -5.0020     2.0650    -0.6220 C.ar  1 <1>  -0.1440 
  6 C       -5.6430     0.8940    -0.2340 C.ar  1 <1>  -0.1500 
  7 C       -5.1010     2.4660    -1.9520 C.ar  1 <1>  -0.1500 
  8 C       -6.3890     0.1290    -1.1270 C.ar  1 <1>   0.0860 
  9 C       -5.8220     1.7110    -2.8600 C.ar  1 <1>  -0.1500 
 10 C       -7.0890    -1.0580    -0.6800 C.2   1 <1>   0.5440 
 11 C       -6.4580     0.5550    -2.4500 C.ar  1 <1>  -0.1500 
 12 O       -6.4520    -2.0530    -0.3930 O.2   1 <1>  -0.5700 
 13 N       -8.4610    -1.0740    -0.5480 N.am  1 <1>  -0.6600 
 14 C       -9.3210     0.1410    -0.7010 C.3   1 <1>   0.1400 
 15 C       -9.1710    -2.3100    -0.0960 C.3   1 <1>   0.1400 
 16 C      -10.0230     0.4900     0.6290 C.3   1 <1>   0.1440 
 17 C      -10.5900    -2.0090     0.4200 C.3   1 <1>  -0.1600 
 18 C      -11.0770     1.5340     0.3070 C.ar  1 <1>   0.1670 
 19 C      -10.6000    -0.7710     1.3320 C.3   1 <1>  -0.1600 
 20 C       -9.0760     1.2770     1.5740 C.3   1 <1>  -0.1600 
 21 N      -12.2300     1.2980    -0.2670 N.ar  1 <1>  -0.6200 
 22 C      -10.6680     2.7840     0.6640 C.ar  1 <1>  -0.1430 
 23 C       -9.2940     2.7710     1.2840 C.3   1 <1>  -0.0170 
 24 C      -12.9980     2.3720    -0.4690 C.ar  1 <1>   0.7200 
 25 C      -11.5200     3.8290     0.4140 C.ar  1 <1>   0.1600 
 26 N      -12.6870     3.6340    -0.1530 N.ar  1 <1>  -0.6200 
 27 N      -14.2260     2.1580    -1.0640 N.pl3 1 <1>  -0.8380 
 28 C      -14.8280     0.8010    -1.1710 C.3   1 <1>   0.1290 
 29 C      -15.0510     3.2770    -1.5990 C.3   1 <1>   0.1290 
 30 H       -5.5750     0.5510     0.7860 H     1 <1>   0.1500 
 31 H       -4.6180     3.3670    -2.2940 H     1 <1>   0.1500 
 32 H       -5.8880     2.0260    -3.8880 H     1 <1>   0.1500 
 33 H       -7.0190    -0.0310    -3.1580 H     1 <1>   0.1500 
 34 H      -10.0660    -0.0640    -1.4510 H     1 <1>   0.0800 
 35 H       -8.7560     0.9890    -1.0420 H     1 <1>   0.0800 
 36 H       -8.6000    -2.7640     0.6960 H     1 <1>   0.0800 
 37 H       -9.2170    -3.0100    -0.9130 H     1 <1>   0.0800 
 38 H      -10.9570    -2.8640     0.9590 H     1 <1>   0.0800 
 39 H      -11.2510    -1.8510    -0.4160 H     1 <1>   0.0800 
 40 H      -11.6030    -0.5770     1.6710 H     1 <1>   0.0800 
 41 H      -10.0090    -1.0090     2.1980 H     1 <1>   0.0800 
 42 H       -8.0470     0.9860     1.4610 H     1 <1>   0.0800 
 43 H       -9.3640     1.1040     2.5970 H     1 <1>   0.0800 
 44 H       -8.5700     3.1330     0.5740 H     1 <1>   0.0800 
 45 H       -9.2530     3.3610     2.1840 H     1 <1>   0.0800 
 46 H      -11.2420     4.8340     0.6790 H     1 <1>   0.1500 
 47 H      -14.4780     0.1680    -0.3730 H     1 <1>   0.0800 
 48 H      -14.5540     0.3600    -2.1130 H     1 <1>   0.0800 
 49 H      -15.9000     0.8640    -1.1050 H     1 <1>   0.0800 
 50 H      -14.4220     4.0850    -1.9300 H     1 <1>   0.0800 
 51 H      -15.7080     3.6390    -0.8280 H     1 <1>   0.0800 
 52 H      -15.6350     2.9390    -2.4370 H     1 <1>   0.0800 
@<TRIPOS>BOND
  1   1   2  1   
  2   2   3  1   
  3   2   4  1   
  4   2   5  1   
  5   5   6  ar  
  6   5   7  ar  
  7   6   8  ar  
  8   6  30  1   
  9   7   9  ar  
 10   7  31  1   
 11   8  10  1   
 12   8  11  ar  
 13   9  11  ar  
 14   9  32  1   
 15  10  12  2   
 16  10  13  am  
 17  11  33  1   
 18  13  14  1   
 19  13  15  1   
 20  14  16  1   
 21  14  34  1   
 22  14  35  1   
 23  15  17  1   
 24  15  36  1   
 25  15  37  1   
 26  16  18  1   
 27  16  19  1   
 28  16  20  1   
 29  17  19  1   
 30  17  38  1   
 31  17  39  1   
 32  18  21  ar  
 33  18  22  ar  
 34  19  40  1   
 35  19  41  1   
 36  20  23  1   
 37  20  42  1   
 38  20  43  1   
 39  21  24  ar  
 40  22  23  1   
 41  22  25  ar  
 42  23  44  1   
 43  23  45  1   
 44  24  26  ar  
 45  24  27  1   
 46  25  26  ar  
 47  25  46  1   
 48  27  28  1   
 49  27  29  1   
 50  28  47  1   
 51  28  48  1   
 52  28  49  1   
 53  29  50  1   
 54  29  51  1   
 55  29  52  1   
@<TRIPOS>SUBSTRUCTURE
  1 ****  14 GROUP 4 **** **** 0

# MOE 2024.06 (io_trps.svl 2023.06)
