@<TRIPOS>MOLECULE
NONAME
54 56 1 0 0 
SMALL
USER_CHARGES


@<TRIPOS>ATOM
  1 O       -0.0210     1.2660    -1.2930 O.2   1 <1>  -0.5700 
  2 C       -0.1450     2.4490    -1.0780 C.2   1 <1>   0.5690 
  3 N       -0.8620     2.9300    -0.0140 N.am  1 <1>  -0.6600 
  4 C        0.5110     3.4320    -2.0490 C.3   1 <1>   0.1810 
  5 C       -1.0240     4.4040     0.2100 C.3   1 <1>   0.3640 
  6 C       -1.4600     2.0350     1.0190 C.3   1 <1>   0.0600 
  7 O        0.7690     4.6820    -1.4590 O.3   1 <1>  -0.5600 
  8 C       -2.4970     4.7850     0.4290 C.ar  1 <1>  -0.1430 
  9 C       -0.3720     5.2920    -0.8800 C.3   1 <1>   0.2610 
 10 C       -3.5500     4.4200    -0.4170 C.ar  1 <1>  -0.1430 
 11 C       -2.7780     5.5530     1.5540 C.ar  1 <1>  -0.1500 
 12 C       -0.0520     6.6760    -0.2910 C.2   1 <1>   0.5690 
 13 C       -4.8420     4.8230    -0.1090 C.ar  1 <1>  -0.1500 
 14 C       -3.3720     3.5830    -1.6790 C.3   1 <1>  -0.0960 
 15 C       -4.0680     5.9500     1.8490 C.ar  1 <1>  -0.1500 
 16 O       -0.7910     7.5790    -0.6110 O.2   1 <1>  -0.5700 
 17 N        0.9990     6.8990     0.5750 N.am  1 <1>  -0.6600 
 18 C       -5.1040     5.5830     1.0150 C.ar  1 <1>  -0.1500 
 19 C        1.2830     8.2770     1.0760 C.3   1 <1>   0.2840 
 20 C        2.0630     5.9020     0.8980 C.3   1 <1>   0.0600 
 21 C        2.5950     8.7910     0.4990 C.ar  1 <1>  -0.1430 
 22 C        3.6960     9.0110     1.3160 C.ar  1 <1>  -0.1500 
 23 C        2.6980     9.0440    -0.8600 C.ar  1 <1>  -0.1500 
 24 C        4.8850     9.4750     0.7810 C.ar  1 <1>  -0.1500 
 25 C        3.8850     9.5090    -1.3970 C.ar  1 <1>  -0.1500 
 26 C        4.9860     9.7270    -0.5850 C.ar  1 <1>   0.0830 
 27 O        6.1120    10.1800    -1.1890 O.3   1 <1>  -0.3630 
 28 C        7.2930    10.4170    -0.4560 C.3   1 <1>   0.0400 
 29 H       -0.1240     3.5800    -2.9030 H     1 <1>   0.0800 
 30 H        1.4500     3.0290    -2.3810 H     1 <1>   0.0800 
 31 H       -0.5050     4.6150     1.1270 H     1 <1>   0.0800 
 32 H       -1.0980     2.3080     1.9940 H     1 <1>   0.0800 
 33 H       -1.1970     1.0080     0.8310 H     1 <1>   0.0800 
 34 H       -2.5320     2.1210     1.0050 H     1 <1>   0.0800 
 35 H       -1.0780     5.4500    -1.6730 H     1 <1>   0.0800 
 36 H       -1.9880     5.8580     2.2190 H     1 <1>   0.1500 
 37 H       -5.6630     4.5470    -0.7460 H     1 <1>   0.1500 
 38 H       -4.2560     3.6180    -2.2910 H     1 <1>   0.0800 
 39 H       -3.1910     2.5560    -1.4180 H     1 <1>   0.0800 
 40 H       -2.5560     3.9440    -2.2730 H     1 <1>   0.0800 
 41 H       -4.2650     6.5460     2.7230 H     1 <1>   0.1500 
 42 H       -6.1110     5.8880     1.2380 H     1 <1>   0.1500 
 43 H        0.4930     8.9570     0.8050 H     1 <1>   0.0800 
 44 H        1.3330     8.2560     2.1500 H     1 <1>   0.0800 
 45 H        2.4510     6.0820     1.8850 H     1 <1>   0.0800 
 46 H        2.8660     5.9960     0.1870 H     1 <1>   0.0800 
 47 H        1.6870     4.8960     0.8620 H     1 <1>   0.0800 
 48 H        3.6320     8.8210     2.3730 H     1 <1>   0.1500 
 49 H        1.8490     8.8750    -1.5020 H     1 <1>   0.1500 
 50 H        5.7180     9.6360     1.4380 H     1 <1>   0.1500 
 51 H        3.9650     9.7040    -2.4510 H     1 <1>   0.1500 
 52 H        8.0470    10.7610    -1.1400 H     1 <1>   0.0800 
 53 H        7.6070     9.4970     0.0040 H     1 <1>   0.0800 
 54 H        7.0980    11.1730     0.2840 H     1 <1>   0.0800 
@<TRIPOS>BOND
  1   1   2  2   
  2   2   3  am  
  3   2   4  1   
  4   3   5  1   
  5   3   6  1   
  6   4   7  1   
  7   4  29  1   
  8   4  30  1   
  9   5   8  1   
 10   5   9  1   
 11   5  31  1   
 12   6  32  1   
 13   6  33  1   
 14   6  34  1   
 15   7   9  1   
 16   8  10  ar  
 17   8  11  ar  
 18   9  12  1   
 19   9  35  1   
 20  10  13  ar  
 21  10  14  1   
 22  11  15  ar  
 23  11  36  1   
 24  12  16  2   
 25  12  17  am  
 26  13  18  ar  
 27  13  37  1   
 28  14  38  1   
 29  14  39  1   
 30  14  40  1   
 31  15  18  ar  
 32  15  41  1   
 33  17  19  1   
 34  17  20  1   
 35  18  42  1   
 36  19  21  1   
 37  19  43  1   
 38  19  44  1   
 39  20  45  1   
 40  20  46  1   
 41  20  47  1   
 42  21  22  ar  
 43  21  23  ar  
 44  22  24  ar  
 45  22  48  1   
 46  23  25  ar  
 47  23  49  1   
 48  24  26  ar  
 49  24  50  1   
 50  25  26  ar  
 51  25  51  1   
 52  26  27  1   
 53  27  28  1   
 54  28  52  1   
 55  28  53  1   
 56  28  54  1   
@<TRIPOS>SUBSTRUCTURE
  1 ****  12 GROUP 4 **** **** 0

# MOE 2024.06 (io_trps.svl 2023.06)
