@<TRIPOS>MOLECULE
NONAME
51 53 1 0 0 
SMALL
USER_CHARGES


@<TRIPOS>ATOM
  1 O       -0.5160     0.2380    -0.1490 O.2   1 <1>  -0.5700 
  2 C       -1.6060     0.7800    -0.1480 C.2   1 <1>   0.5440 
  3 N       -1.6600     2.1550    -0.0540 N.am  1 <1>  -0.6600 
  4 C       -2.7930    -0.0360    -0.2330 C.ar  1 <1>   0.0860 
  5 C       -0.4360     3.0000    -0.1950 C.3   1 <1>   0.1400 
  6 C       -2.8520     2.9340     0.3980 C.3   1 <1>   0.1400 
  7 C       -2.9670    -1.1170     0.6270 C.ar  1 <1>   0.1600 
  8 C       -3.8020     0.1950    -1.1630 C.ar  1 <1>  -0.1500 
  9 C       -0.7430     4.2660    -1.0110 C.3   1 <1>   0.1200 
 10 C       -3.0270     4.1970    -0.4620 C.3   1 <1>   0.1200 
 11 N       -4.0140    -1.9240     0.6600 N.ar  1 <1>  -0.6200 
 12 C       -4.8950    -0.6380    -1.1480 C.ar  1 <1>  -0.1500 
 13 O       -1.8470     4.9480    -0.4810 O.3   1 <1>  -0.5600 
 14 C       -4.9710    -1.6790    -0.2270 C.ar  1 <1>   0.4100 
 15 N       -6.0670    -2.4990    -0.2210 N.pl3 1 <1>  -0.8690 
 16 C       -6.1530    -3.7190     0.6060 C.3   1 <1>   0.2090 
 17 C       -7.5100    -4.3790     0.3770 C.3   1 <1>  -0.1600 
 18 C       -7.6690    -5.6390     1.2350 C.3   1 <1>  -0.0170 
 19 C       -9.0130    -6.2940     0.9660 C.ar  1 <1>  -0.1440 
 20 C       -9.1340    -7.2600    -0.0200 C.ar  1 <1>  -0.1500 
 21 C      -10.1320    -5.9300     1.6990 C.ar  1 <1>  -0.1500 
 22 C      -10.3550    -7.8640    -0.2780 C.ar  1 <1>   0.0820 
 23 C      -11.3560    -6.5260     1.4490 C.ar  1 <1>  -0.1500 
 24 O      -10.3780    -8.7990    -1.2610 O.3   1 <1>  -0.3620 
 25 C      -11.4720    -7.4920     0.4640 C.ar  1 <1>  -0.1500 
 26 C      -11.5640    -9.4870    -1.5890 C.3   1 <1>   0.0400 
 27 H        0.3470     2.4460    -0.6840 H     1 <1>   0.0800 
 28 H       -0.0840     3.2800     0.7820 H     1 <1>   0.0800 
 29 H       -2.7070     3.2300     1.4220 H     1 <1>   0.0800 
 30 H       -3.7460     2.3400     0.3530 H     1 <1>   0.0800 
 31 H       -2.1790    -1.3170     1.3340 H     1 <1>   0.1500 
 32 H       -3.7150     1.0010    -1.8700 H     1 <1>   0.1500 
 33 H       -0.9550     4.0120    -2.0350 H     1 <1>   0.0800 
 34 H        0.0990     4.9350    -0.9890 H     1 <1>   0.0800 
 35 H       -3.8040     4.8190    -0.0540 H     1 <1>   0.0800 
 36 H       -3.2860     3.9360    -1.4730 H     1 <1>   0.0800 
 37 H       -5.7000    -0.4980    -1.8430 H     1 <1>   0.1500 
 38 H       -6.6710    -2.4940    -1.0430 H     1 <1>   0.4000 
 39 H       -6.0370    -3.4520     1.6440 H     1 <1>   0.0800 
 40 H       -5.3560    -4.3900     0.3330 H     1 <1>   0.0800 
 41 H       -7.6060    -4.6480    -0.6600 H     1 <1>   0.0800 
 42 H       -8.2910    -3.6830     0.6280 H     1 <1>   0.0800 
 43 H       -7.5950    -5.3840     2.2780 H     1 <1>   0.0800 
 44 H       -6.8800    -6.3360     1.0110 H     1 <1>   0.0800 
 45 H       -8.2820    -7.5570    -0.6020 H     1 <1>   0.1500 
 46 H      -10.0540    -5.1790     2.4660 H     1 <1>   0.1500 
 47 H      -12.2190    -6.2380     2.0230 H     1 <1>   0.1500 
 48 H      -12.4320    -7.9380     0.2910 H     1 <1>   0.1500 
 49 H      -11.3410   -10.1770    -2.3820 H     1 <1>   0.0800 
 50 H      -12.3000    -8.7760    -1.9180 H     1 <1>   0.0800 
 51 H      -11.9060   -10.0250    -0.7220 H     1 <1>   0.0800 
@<TRIPOS>BOND
  1   1   2  2   
  2   2   3  am  
  3   2   4  1   
  4   3   5  1   
  5   3   6  1   
  6   4   7  ar  
  7   4   8  ar  
  8   5   9  1   
  9   5  27  1   
 10   5  28  1   
 11   6  10  1   
 12   6  29  1   
 13   6  30  1   
 14   7  11  ar  
 15   7  31  1   
 16   8  12  ar  
 17   8  32  1   
 18   9  13  1   
 19   9  33  1   
 20   9  34  1   
 21  10  13  1   
 22  10  35  1   
 23  10  36  1   
 24  11  14  ar  
 25  12  14  ar  
 26  12  37  1   
 27  14  15  1   
 28  15  16  1   
 29  15  38  1   
 30  16  17  1   
 31  16  39  1   
 32  16  40  1   
 33  17  18  1   
 34  17  41  1   
 35  17  42  1   
 36  18  19  1   
 37  18  43  1   
 38  18  44  1   
 39  19  20  ar  
 40  19  21  ar  
 41  20  22  ar  
 42  20  45  1   
 43  21  23  ar  
 44  21  46  1   
 45  22  24  1   
 46  22  25  ar  
 47  23  25  ar  
 48  23  47  1   
 49  24  26  1   
 50  25  48  1   
 51  26  49  1   
 52  26  50  1   
 53  26  51  1   
@<TRIPOS>SUBSTRUCTURE
  1 ****  15 GROUP 4 **** **** 0

# MOE 2024.06 (io_trps.svl 2023.06)
