@<TRIPOS>MOLECULE
NONAME
53 57 1 0 0 
SMALL
USER_CHARGES


@<TRIPOS>ATOM
  1 CL      -2.1960    -0.6050    -1.1670 Cl    1 <1>  -0.1770 
  2 C       -2.0830    -2.1460    -0.3500 C.ar  1 <1>   0.1770 
  3 C       -1.5000    -3.2130    -0.9940 C.ar  1 <1>  -0.1500 
  4 C       -2.5920    -2.2550     0.9420 C.ar  1 <1>  -0.1500 
  5 C       -1.4290    -4.4340    -0.3270 C.ar  1 <1>   0.0000 
  6 C       -2.5240    -3.4620     1.6060 C.ar  1 <1>  -0.1500 
  7 C       -1.9450    -4.5600     0.9600 C.ar  1 <1>  -0.1520 
  8 C       -0.9050    -5.7020    -0.6980 C.ar  1 <1>   0.0000 
  9 N       -1.7710    -5.8700     1.3770 N.pl3 1 <1>   0.0480 
 10 C       -1.1250    -6.5640     0.3700 C.ar  1 <1>  -0.1520 
 11 C       -0.2710    -6.1630    -1.8500 C.ar  1 <1>  -0.1500 
 12 C       -2.2650    -6.4410     2.6530 C.3   1 <1>   0.1570 
 13 C       -0.7080    -7.8950     0.2990 C.ar  1 <1>  -0.1500 
 14 C        0.1370    -7.4780    -1.9190 C.ar  1 <1>  -0.1500 
 15 C       -3.1550    -7.6610     2.4550 C.2   1 <1>   0.5690 
 16 C       -0.0820    -8.3420    -0.8450 C.ar  1 <1>  -0.1500 
 17 O       -2.7540    -8.6820     2.9660 O.2   1 <1>  -0.5700 
 18 N       -4.3560    -7.6230     1.7730 N.am  1 <1>  -0.6600 
 19 C       -4.9200    -6.3730     1.1700 C.3   1 <1>   0.2200 
 20 C       -5.1150    -8.8990     1.5470 C.3   1 <1>   0.0600 
 21 C       -4.8350    -6.3650    -0.3610 C.3   1 <1>  -0.1600 
 22 C       -6.3910    -6.0860     1.5250 C.3   1 <1>  -0.1600 
 23 C       -5.9930    -5.4600    -0.7750 C.3   1 <1>  -0.0800 
 24 C       -7.1200    -5.8510     0.1900 C.3   1 <1>  -0.0800 
 25 C       -6.3470    -5.4980    -2.2710 C.3   1 <1>   0.1400 
 26 C       -7.8620    -7.1320    -0.2500 C.3   1 <1>  -0.0990 
 27 N       -7.3160    -6.5630    -2.6020 N.am  1 <1>  -0.7300 
 28 C       -8.1090    -7.2290    -1.7390 C.2   1 <1>   0.5690 
 29 O       -9.0040    -7.9240    -2.1450 O.2   1 <1>  -0.5700 
 30 H       -1.1060    -3.1120    -1.9880 H     1 <1>   0.1500 
 31 H       -3.0300    -1.3890     1.4060 H     1 <1>   0.1500 
 32 H       -2.9090    -3.5490     2.6060 H     1 <1>   0.1500 
 33 H       -0.1040    -5.4890    -2.6700 H     1 <1>   0.1500 
 34 H       -1.4120    -6.7260     3.2390 H     1 <1>   0.0800 
 35 H       -2.8110    -5.7000     3.1990 H     1 <1>   0.0800 
 36 H       -0.8700    -8.5670     1.1230 H     1 <1>   0.1500 
 37 H        0.6290    -7.8490    -2.8020 H     1 <1>   0.1500 
 38 H        0.2440    -9.3650    -0.9150 H     1 <1>   0.1500 
 39 H       -4.3700    -5.5230     1.5220 H     1 <1>   0.0800 
 40 H       -5.3150    -9.0410     0.5020 H     1 <1>   0.0800 
 41 H       -6.0420    -8.8840     2.0900 H     1 <1>   0.0800 
 42 H       -4.5510    -9.7510     1.8850 H     1 <1>   0.0800 
 43 H       -3.8930    -5.9770    -0.7010 H     1 <1>   0.0800 
 44 H       -4.9780    -7.3460    -0.7730 H     1 <1>   0.0800 
 45 H       -6.8510    -6.8600     2.1110 H     1 <1>   0.0800 
 46 H       -6.4270    -5.1780     2.0990 H     1 <1>   0.0800 
 47 H       -5.6920    -4.4500    -0.5480 H     1 <1>   0.0800 
 48 H       -7.8320    -5.0460     0.2690 H     1 <1>   0.0800 
 49 H       -5.4510    -5.6320    -2.8540 H     1 <1>   0.0800 
 50 H       -6.7850    -4.5550    -2.5490 H     1 <1>   0.0800 
 51 H       -8.8050    -7.1940     0.2610 H     1 <1>   0.0800 
 52 H       -7.2970    -8.0040     0.0150 H     1 <1>   0.0800 
 53 H       -7.5360    -6.6950    -3.5920 H     1 <1>   0.3700 
@<TRIPOS>BOND
  1   1   2  1   
  2   2   3  ar  
  3   2   4  ar  
  4   3   5  ar  
  5   3  30  1   
  6   4   6  ar  
  7   4  31  1   
  8   5   7  ar  
  9   5   8  1   
 10   6   7  ar  
 11   6  32  1   
 12   7   9  1   
 13   8  10  ar  
 14   8  11  ar  
 15   9  10  1   
 16   9  12  1   
 17  10  13  ar  
 18  11  14  ar  
 19  11  33  1   
 20  12  15  1   
 21  12  34  1   
 22  12  35  1   
 23  13  16  ar  
 24  13  36  1   
 25  14  16  ar  
 26  14  37  1   
 27  15  17  2   
 28  15  18  am  
 29  16  38  1   
 30  18  19  1   
 31  18  20  1   
 32  19  21  1   
 33  19  22  1   
 34  19  39  1   
 35  20  40  1   
 36  20  41  1   
 37  20  42  1   
 38  21  23  1   
 39  21  43  1   
 40  21  44  1   
 41  22  24  1   
 42  22  45  1   
 43  22  46  1   
 44  23  24  1   
 45  23  25  1   
 46  23  47  1   
 47  24  26  1   
 48  24  48  1   
 49  25  27  1   
 50  25  49  1   
 51  25  50  1   
 52  26  28  1   
 53  26  51  1   
 54  26  52  1   
 55  27  28  am  
 56  27  53  1   
 57  28  29  2   
@<TRIPOS>SUBSTRUCTURE
  1 ****  21 GROUP 4 **** **** 0

# MOE 2024.06 (io_trps.svl 2023.06)
