@<TRIPOS>MOLECULE
NONAME
22 23 1 0 0 
SMALL
USER_CHARGES


@<TRIPOS>ATOM
  1 CL       0.3210     0.0160    -0.4550 Cl    1 <1>  -0.1770 
  2 C        0.1720     1.7510    -0.3700 C.ar  1 <1>   0.1770 
  3 C       -1.0320     2.3440    -0.6940 C.ar  1 <1>  -0.1500 
  4 C        1.2670     2.5030     0.0220 C.ar  1 <1>  -0.1500 
  5 C       -1.1190     3.7200    -0.6150 C.ar  1 <1>   0.1770 
  6 C        1.1680     3.8860     0.0920 C.ar  1 <1>  -0.0320 
  7 CL      -2.6210     4.5080    -1.0150 Cl    1 <1>  -0.1770 
  8 C       -0.0390     4.4940    -0.2260 C.ar  1 <1>  -0.1500 
  9 C        2.3640     4.7180     0.5190 C.3   1 <1>  -0.0680 
 10 C        2.9010     5.7710    -0.3970 C.3   1 <1>   0.2960 
 11 C        3.6860     4.5280    -0.1720 C.3   1 <1>  -0.2000 
 12 N        3.4180     7.0280     0.1690 N.4   1 <1>  -0.7460 
 13 H       -1.8760     1.7520    -0.9970 H     1 <1>   0.1500 
 14 H        2.1830     1.9970     0.2700 H     1 <1>   0.1500 
 15 H       -0.1640     5.5600    -0.1730 H     1 <1>   0.1500 
 16 H        2.3860     4.8850     1.5820 H     1 <1>   0.1000 
 17 H        2.4160     5.8960    -1.3550 H     1 <1>   0.1000 
 18 H        3.7420     3.8020    -0.9670 H     1 <1>   0.1000 
 19 H        4.5760     4.5370     0.4330 H     1 <1>   0.1000 
 20 H        3.8800     6.8540     1.0680 H     1 <1>   0.4500 
 21 H        2.6600     7.7020     0.3210 H     1 <1>   0.4500 
 22 H        4.1060     7.4510    -0.4640 H     1 <1>   0.4500 
@<TRIPOS>BOND
  1   1   2  1   
  2   2   3  ar  
  3   2   4  ar  
  4   3   5  ar  
  5   3  13  1   
  6   4   6  ar  
  7   4  14  1   
  8   5   7  1   
  9   5   8  ar  
 10   6   8  ar  
 11   6   9  1   
 12   8  15  1   
 13   9  10  1   
 14   9  11  1   
 15   9  16  1   
 16  10  11  1   
 17  10  12  1   
 18  10  17  1   
 19  11  18  1   
 20  11  19  1   
 21  12  20  1   
 22  12  21  1   
 23  12  22  1   
@<TRIPOS>SUBSTRUCTURE
  1 ****   6 GROUP 4 **** **** 0

# MOE 2024.06 (io_trps.svl 2023.06)
