@<TRIPOS>MOLECULE
NONAME
57 60 1 0 0 
SMALL
USER_CHARGES


@<TRIPOS>ATOM
  1 F       -0.7420    -0.2670    -0.5830 F     1 <1>  -0.1900 
  2 C       -1.9690     0.1800    -0.4960 C.ar  1 <1>   0.1900 
  3 C       -2.4230     0.8890     0.6230 C.ar  1 <1>   0.0830 
  4 C       -2.7970    -0.0810    -1.5710 C.ar  1 <1>  -0.1500 
  5 O       -1.7070     1.2100     1.7380 O.3   1 <1>  -0.3630 
  6 C       -3.7390     1.3210     0.6180 C.ar  1 <1>  -0.1500 
  7 C       -4.1050     0.3660    -1.5430 C.ar  1 <1>  -0.1500 
  8 C       -0.3630     0.8260     1.9270 C.3   1 <1>   0.0400 
  9 C       -4.6060     1.0710    -0.4480 C.ar  1 <1>   0.0530 
 10 C       -5.9640     1.5490    -0.4080 C.2   1 <1>   0.0870 
 11 O       -6.1930     2.7780    -0.0210 O.3   1 <1>  -0.0190 
 12 C       -7.1740     0.9890    -0.6920 C.2   1 <1>  -0.0860 
 13 N       -7.4590     3.0920    -0.0360 N.2   1 <1>  -0.4100 
 14 C       -8.0720     2.0360    -0.4390 C.2   1 <1>   0.3720 
 15 C       -7.5210    -0.3350    -1.1140 C.2   1 <1>   0.7160 
 16 N       -9.4680     1.9870    -0.6040 N.pl3 1 <1>  -0.8210 
 17 O       -6.6810    -1.1770    -1.3690 O.2   1 <1>  -0.5700 
 18 N       -8.8290    -0.6990    -1.2310 N.am  1 <1>  -0.7300 
 19 C       -9.9050     2.7060    -1.8330 C.3   1 <1>   0.1290 
 20 C      -10.2100     2.4890     0.5890 C.3   1 <1>   0.1290 
 21 C       -9.3370    -1.9810    -1.7560 C.3   1 <1>   0.1400 
 22 C       -9.1810    -3.0750    -0.6900 C.3   1 <1>  -0.0800 
 23 C       -9.6860    -4.4370    -1.1660 C.3   1 <1>   0.3430 
 24 C       -9.9390    -2.7840     0.6090 C.3   1 <1>  -0.1600 
 25 N      -10.6760    -4.8940    -0.1500 N.4   1 <1>  -0.8520 
 26 C      -10.3690    -4.1530     1.1020 C.3   1 <1>   0.3430 
 27 C      -10.7280    -6.3760    -0.0610 C.3   1 <1>   0.2960 
 28 C      -11.1850    -7.0410     1.1940 C.3   1 <1>  -0.2000 
 29 C       -9.7440    -7.1260     0.7730 C.3   1 <1>  -0.2000 
 30 H       -2.4200    -0.6280    -2.4170 H     1 <1>   0.1500 
 31 H       -4.1010     1.8700     1.4690 H     1 <1>   0.1500 
 32 H       -4.7480     0.1660    -2.3820 H     1 <1>   0.1500 
 33 H       -0.0440     1.1880     2.8870 H     1 <1>   0.0800 
 34 H        0.2400     1.2660     1.1530 H     1 <1>   0.0800 
 35 H       -0.2990    -0.2480     1.9030 H     1 <1>   0.0800 
 36 H       -9.4970     0.0690    -1.0520 H     1 <1>   0.3700 
 37 H       -9.3680     2.3320    -2.6880 H     1 <1>   0.0800 
 38 H       -9.7070     3.7610    -1.7360 H     1 <1>   0.0800 
 39 H      -10.9590     2.5580    -1.9940 H     1 <1>   0.0800 
 40 H       -9.8280     2.0230     1.4810 H     1 <1>   0.0800 
 41 H      -11.2570     2.2570     0.4970 H     1 <1>   0.0800 
 42 H      -10.0910     3.5560     0.6810 H     1 <1>   0.0800 
 43 H       -8.7710    -2.2430    -2.6360 H     1 <1>   0.0800 
 44 H      -10.3690    -1.8620    -2.0370 H     1 <1>   0.0800 
 45 H       -8.1320    -3.1890    -0.4720 H     1 <1>   0.0800 
 46 H       -8.8570    -5.1250    -1.2130 H     1 <1>   0.0800 
 47 H      -10.1420    -4.3700    -2.1400 H     1 <1>   0.0800 
 48 H      -10.8120    -2.1830     0.4240 H     1 <1>   0.0800 
 49 H       -9.3190    -2.2800     1.3310 H     1 <1>   0.0800 
 50 H      -11.6040    -4.5740    -0.4550 H     1 <1>   0.4500 
 51 H      -11.2240    -4.0980     1.7560 H     1 <1>   0.0800 
 52 H       -9.5480    -4.6210     1.6180 H     1 <1>   0.0800 
 53 H      -11.0250    -6.8320    -0.9940 H     1 <1>   0.1000 
 54 H      -11.7770    -7.9370     1.1190 H     1 <1>   0.1000 
 55 H      -11.4240    -6.4730     2.0750 H     1 <1>   0.1000 
 56 H       -9.0060    -6.6090     1.3600 H     1 <1>   0.1000 
 57 H       -9.3860    -8.0790     0.4230 H     1 <1>   0.1000 
@<TRIPOS>BOND
  1   1   2  1   
  2   2   3  ar  
  3   2   4  ar  
  4   3   5  1   
  5   3   6  ar  
  6   4   7  ar  
  7   4  30  1   
  8   5   8  1   
  9   6   9  ar  
 10   6  31  1   
 11   7   9  ar  
 12   7  32  1   
 13   8  33  1   
 14   8  34  1   
 15   8  35  1   
 16   9  10  1   
 17  10  11  1   
 18  10  12  2   
 19  11  13  1   
 20  12  14  1   
 21  12  15  1   
 22  13  14  2   
 23  14  16  1   
 24  15  17  2   
 25  15  18  am  
 26  16  19  1   
 27  16  20  1   
 28  18  21  1   
 29  18  36  1   
 30  19  37  1   
 31  19  38  1   
 32  19  39  1   
 33  20  40  1   
 34  20  41  1   
 35  20  42  1   
 36  21  22  1   
 37  21  43  1   
 38  21  44  1   
 39  22  23  1   
 40  22  24  1   
 41  22  45  1   
 42  23  25  1   
 43  23  46  1   
 44  23  47  1   
 45  24  26  1   
 46  24  48  1   
 47  24  49  1   
 48  25  26  1   
 49  25  27  1   
 50  25  50  1   
 51  26  51  1   
 52  26  52  1   
 53  27  28  1   
 54  27  29  1   
 55  27  53  1   
 56  28  29  1   
 57  28  54  1   
 58  28  55  1   
 59  29  56  1   
 60  29  57  1   
@<TRIPOS>SUBSTRUCTURE
  1 ****  15 GROUP 4 **** **** 0

# MOE 2024.06 (io_trps.svl 2023.06)
