@<TRIPOS>MOLECULE
NONAME
52 55 1 0 0 
SMALL
USER_CHARGES


@<TRIPOS>ATOM
  1 F       -1.8760    -0.3250    -1.7050 F     1 <1>  -0.1900 
  2 C       -2.5420    -1.2850    -1.1260 C.ar  1 <1>   0.1900 
  3 C       -3.0180    -2.3290    -1.8960 C.ar  1 <1>  -0.1500 
  4 C       -2.7480    -1.2260     0.2370 C.ar  1 <1>  -0.1500 
  5 C       -3.7300    -3.3500    -1.2860 C.ar  1 <1>  -0.1440 
  6 C       -3.4620    -2.2470     0.8380 C.ar  1 <1>  -0.1500 
  7 C       -3.9750    -3.3140     0.0960 C.ar  1 <1>   0.0860 
  8 C       -4.2330    -4.5120    -2.1330 C.3   1 <1>  -0.0960 
  9 C       -4.7450    -4.3380     0.7770 C.2   1 <1>   0.5440 
 10 O       -4.1640    -5.1730     1.4440 O.2   1 <1>  -0.5700 
 11 N       -6.1220    -4.3780     0.7050 N.am  1 <1>  -0.6600 
 12 C       -6.9480    -3.3780    -0.0390 C.3   1 <1>   0.1400 
 13 C       -6.8920    -5.4410     1.4220 C.3   1 <1>   0.1400 
 14 C       -7.9260    -2.6420     0.9040 C.3   1 <1>   0.1430 
 15 C       -8.3750    -5.0670     1.5950 C.3   1 <1>  -0.1600 
 16 C       -8.9850    -1.9980     0.0270 C.ar  1 <1>   0.1670 
 17 C       -8.5280    -3.5870     1.9790 C.3   1 <1>  -0.1600 
 18 C       -7.2550    -1.4050     1.5580 C.3   1 <1>  -0.1600 
 19 N       -9.9730    -2.6290    -0.5590 N.ar  1 <1>  -0.6200 
 20 C       -8.7770    -0.6590    -0.1090 C.ar  1 <1>  -0.1430 
 21 C       -7.5610    -0.1990     0.6540 C.3   1 <1>  -0.0170 
 22 C      -10.7820    -1.8640    -1.2960 C.ar  1 <1>   0.7200 
 23 C       -9.6580     0.0470    -0.8880 C.ar  1 <1>   0.1600 
 24 N      -10.6640    -0.5460    -1.4870 N.ar  1 <1>  -0.6200 
 25 N      -11.8370    -2.4980    -1.9230 N.pl3 1 <1>  -0.8380 
 26 C      -12.2790    -3.8670    -1.5400 C.3   1 <1>   0.1290 
 27 C      -12.6370    -1.8330    -2.9900 C.3   1 <1>   0.1290 
 28 H       -2.8230    -2.3330    -2.9530 H     1 <1>   0.1500 
 29 H       -2.3540    -0.4040     0.8080 H     1 <1>   0.1500 
 30 H       -3.6280    -2.2310     1.9020 H     1 <1>   0.1500 
 31 H       -3.8060    -4.4850    -3.1200 H     1 <1>   0.0800 
 32 H       -5.3030    -4.4730    -2.2250 H     1 <1>   0.0800 
 33 H       -3.9600    -5.4480    -1.6770 H     1 <1>   0.0800 
 34 H       -7.5140    -3.9080    -0.7860 H     1 <1>   0.0800 
 35 H       -6.3350    -2.6630    -0.5550 H     1 <1>   0.0800 
 36 H       -6.4520    -5.5840     2.3950 H     1 <1>   0.0800 
 37 H       -6.8050    -6.3680     0.8810 H     1 <1>   0.0800 
 38 H       -8.8090    -5.6920     2.3550 H     1 <1>   0.0800 
 39 H       -8.9050    -5.2610     0.6780 H     1 <1>   0.0800 
 40 H       -9.5670    -3.3530     2.1360 H     1 <1>   0.0800 
 41 H       -8.0170    -3.4440     2.9150 H     1 <1>   0.0800 
 42 H       -6.1990    -1.5450     1.7060 H     1 <1>   0.0800 
 43 H       -7.7090    -1.2170     2.5150 H     1 <1>   0.0800 
 44 H       -6.7500    -0.0190    -0.0310 H     1 <1>   0.0800 
 45 H       -7.7610     0.6880     1.2300 H     1 <1>   0.0800 
 46 H       -9.5370     1.1080    -1.0240 H     1 <1>   0.1500 
 47 H      -12.0450    -4.0640    -0.5080 H     1 <1>   0.0800 
 48 H      -11.7780    -4.5910    -2.1570 H     1 <1>   0.0800 
 49 H      -13.3430    -3.9620    -1.6680 H     1 <1>   0.0800 
 50 H      -12.0320    -1.1250    -3.5290 H     1 <1>   0.0800 
 51 H      -13.4680    -1.3160    -2.5450 H     1 <1>   0.0800 
 52 H      -13.0030    -2.5650    -3.6880 H     1 <1>   0.0800 
@<TRIPOS>BOND
  1   1   2  1   
  2   2   3  ar  
  3   2   4  ar  
  4   3   5  ar  
  5   3  28  1   
  6   4   6  ar  
  7   4  29  1   
  8   5   7  ar  
  9   5   8  1   
 10   6   7  ar  
 11   6  30  1   
 12   7   9  1   
 13   8  31  1   
 14   8  32  1   
 15   8  33  1   
 16   9  10  2   
 17   9  11  am  
 18  11  12  1   
 19  11  13  1   
 20  12  14  1   
 21  12  34  1   
 22  12  35  1   
 23  13  15  1   
 24  13  36  1   
 25  13  37  1   
 26  14  16  1   
 27  14  17  1   
 28  14  18  1   
 29  15  17  1   
 30  15  38  1   
 31  15  39  1   
 32  16  19  ar  
 33  16  20  ar  
 34  17  40  1   
 35  17  41  1   
 36  18  21  1   
 37  18  42  1   
 38  18  43  1   
 39  19  22  ar  
 40  20  21  1   
 41  20  23  ar  
 42  21  44  1   
 43  21  45  1   
 44  22  24  ar  
 45  22  25  1   
 46  23  24  ar  
 47  23  46  1   
 48  25  26  1   
 49  25  27  1   
 50  26  47  1   
 51  26  48  1   
 52  26  49  1   
 53  27  50  1   
 54  27  51  1   
 55  27  52  1   
@<TRIPOS>SUBSTRUCTURE
  1 ****  12 GROUP 4 **** **** 0

# MOE 2024.06 (io_trps.svl 2023.06)
