@<TRIPOS>MOLECULE
NONAME
55 57 1 0 0 
SMALL
USER_CHARGES


@<TRIPOS>ATOM
  1 O       -2.2210    -0.0860     2.3650 O.2   1 <1>  -0.5700 
  2 C       -1.9760     0.5810     1.3870 C.2   1 <1>   0.5690 
  3 N       -1.5910     0.0080     0.2010 N.am  1 <1>  -0.6600 
  4 C       -2.1540     2.0910     1.5170 C.3   1 <1>   0.1810 
  5 C       -1.4200    -1.4820     0.0900 C.3   1 <1>   0.3640 
  6 C       -1.3660     0.7920    -1.0570 C.3   1 <1>   0.1400 
  7 O       -0.9640     2.7900     1.1780 O.3   1 <1>  -0.3630 
  8 C        0.0540    -1.9100     0.2120 C.ar  1 <1>  -0.1440 
  9 C       -2.0630    -2.0300    -1.2260 C.3   1 <1>   0.2000 
 10 C       -1.1470    -0.1120    -2.2790 C.3   1 <1>   0.1200 
 11 C       -0.9430     4.1430     1.1080 C.ar  1 <1>   0.0820 
 12 C        1.1200    -1.0160     0.2690 C.ar  1 <1>  -0.1500 
 13 C        0.3340    -3.2700     0.2900 C.ar  1 <1>  -0.1500 
 14 O       -2.1220    -1.1070    -2.2930 O.3   1 <1>  -0.5600 
 15 C       -3.5000    -2.5070    -0.9840 C.3   1 <1>   0.1200 
 16 C        0.2330     4.7220     0.6630 C.ar  1 <1>  -0.1500 
 17 C       -2.0230     4.9530     1.4490 C.ar  1 <1>  -0.1500 
 18 C        2.4230    -1.4700     0.3690 C.ar  1 <1>  -0.1500 
 19 C        1.6360    -3.7270     0.3910 C.ar  1 <1>  -0.1500 
 20 O       -3.4960    -3.6860    -0.2440 O.3   1 <1>  -0.6800 
 21 C        0.3560     6.0990     0.5370 C.ar  1 <1>   0.1170 
 22 C       -1.9120     6.3270     1.3310 C.ar  1 <1>  -0.1500 
 23 C        2.6840    -2.8260     0.4260 C.ar  1 <1>  -0.1500 
 24 N        1.5730     6.6320     0.0880 N.am  1 <1>  -0.5470 
 25 C       -0.7340     6.8940     0.8790 C.ar  1 <1>  -0.1500 
 26 C        1.8460     7.8090    -0.5520 C.2   1 <1>   0.5690 
 27 O        1.0060     8.6110    -0.8700 O.2   1 <1>  -0.5700 
 28 C        3.2980     8.1040    -0.8850 C.3   1 <1>  -0.0990 
 29 C        3.8670     7.1720    -1.9670 C.3   1 <1>  -0.2400 
 30 H       -2.4050     2.3350     2.5330 H     1 <1>   0.0800 
 31 H       -2.9400     2.4120     0.8600 H     1 <1>   0.0800 
 32 H       -1.9260    -1.9530     0.9150 H     1 <1>   0.0800 
 33 H       -2.2220     1.4160    -1.2440 H     1 <1>   0.0800 
 34 H       -0.5090     1.4320    -0.9380 H     1 <1>   0.0800 
 35 H       -1.4910    -2.8650    -1.5870 H     1 <1>   0.0800 
 36 H       -0.1750    -0.5750    -2.2590 H     1 <1>   0.0800 
 37 H       -1.2390     0.4580    -3.1860 H     1 <1>   0.0800 
 38 H        0.9540     0.0440     0.2460 H     1 <1>   0.1500 
 39 H       -0.4680    -3.9880     0.2790 H     1 <1>   0.1500 
 40 H       -4.0000    -2.6990    -1.9170 H     1 <1>   0.0800 
 41 H       -4.0470    -1.7660    -0.4260 H     1 <1>   0.0800 
 42 H        1.0570     4.0840     0.4080 H     1 <1>   0.1500 
 43 H       -2.9480     4.5420     1.8070 H     1 <1>   0.1500 
 44 H        3.2360    -0.7660     0.4090 H     1 <1>   0.1500 
 45 H        1.8340    -4.7830     0.4460 H     1 <1>   0.1500 
 46 H       -3.3140    -4.4550    -0.8200 H     1 <1>   0.4000 
 47 H       -2.7430     6.9610     1.5920 H     1 <1>   0.1500 
 48 H        3.6980    -3.1790     0.5050 H     1 <1>   0.1500 
 49 H        2.3770     6.0210     0.2120 H     1 <1>   0.3700 
 50 H       -0.6640     7.9630     0.7970 H     1 <1>   0.1500 
 51 H        3.3660     9.1220    -1.2280 H     1 <1>   0.0800 
 52 H        3.8840     8.0260     0.0120 H     1 <1>   0.0800 
 53 H        3.2830     7.2560    -2.8680 H     1 <1>   0.0800 
 54 H        3.8510     6.1470    -1.6400 H     1 <1>   0.0800 
 55 H        4.8820     7.4450    -2.1920 H     1 <1>   0.0800 
@<TRIPOS>BOND
  1   1   2  2   
  2   2   3  am  
  3   2   4  1   
  4   3   5  1   
  5   3   6  1   
  6   4   7  1   
  7   4  30  1   
  8   4  31  1   
  9   5   8  1   
 10   5   9  1   
 11   5  32  1   
 12   6  10  1   
 13   6  33  1   
 14   6  34  1   
 15   7  11  1   
 16   8  12  ar  
 17   8  13  ar  
 18   9  14  1   
 19   9  15  1   
 20   9  35  1   
 21  10  14  1   
 22  10  36  1   
 23  10  37  1   
 24  11  16  ar  
 25  11  17  ar  
 26  12  18  ar  
 27  12  38  1   
 28  13  19  ar  
 29  13  39  1   
 30  15  20  1   
 31  15  40  1   
 32  15  41  1   
 33  16  21  ar  
 34  16  42  1   
 35  17  22  ar  
 36  17  43  1   
 37  18  23  ar  
 38  18  44  1   
 39  19  23  ar  
 40  19  45  1   
 41  20  46  1   
 42  21  24  1   
 43  21  25  ar  
 44  22  25  ar  
 45  22  47  1   
 46  23  48  1   
 47  24  26  am  
 48  24  49  1   
 49  25  50  1   
 50  26  27  2   
 51  26  28  1   
 52  28  29  1   
 53  28  51  1   
 54  28  52  1   
 55  29  53  1   
 56  29  54  1   
 57  29  55  1   
@<TRIPOS>SUBSTRUCTURE
  1 ****   7 GROUP 4 **** **** 0

# MOE 2024.06 (io_trps.svl 2023.06)
