@<TRIPOS>MOLECULE
NONAME
45 48 1 0 0 
SMALL
USER_CHARGES


@<TRIPOS>ATOM
  1 O       -1.0690    -1.3850    -0.9140 O.co2 1 <1>  -0.9000 
  2 C       -0.1840    -2.2590    -0.9070 C.2   1 <1>   1.0330 
  3 O        0.0640    -2.8700    -1.9610 O.co2 1 <1>  -0.9000 
  4 C        0.5330    -2.5450     0.2890 C.2   1 <1>  -0.2330 
  5 C        0.2140    -3.5440     1.2080 C.2   1 <1>   0.3720 
  6 C        1.6450    -1.9680     0.8100 C.2   1 <1>   0.0870 
  7 N        1.0600    -3.5680     2.1780 N.2   1 <1>  -0.4100 
  8 N       -0.8650    -4.4290     1.1450 N.pl3 1 <1>  -0.8210 
  9 O        1.9150    -2.6120     1.9220 O.3   1 <1>  -0.0190 
 10 C        2.4880    -0.8740     0.3820 C.ar  1 <1>   0.0530 
 11 C       -0.7750    -5.3900     0.0130 C.3   1 <1>   0.2090 
 12 C       -2.1900    -3.7590     1.1900 C.3   1 <1>   0.2090 
 13 C        3.7960    -0.7520     0.8550 C.ar  1 <1>  -0.1500 
 14 C        2.0410     0.1030    -0.5080 C.ar  1 <1>  -0.1500 
 15 C       -1.8280    -6.4920     0.1990 C.3   1 <1>  -0.0800 
 16 C       -3.2820    -4.8130     1.3990 C.3   1 <1>  -0.1600 
 17 C        4.6180     0.2880     0.4600 C.ar  1 <1>  -0.1500 
 18 C        2.8560     1.1450    -0.9090 C.ar  1 <1>  -0.1500 
 19 C       -3.2390    -5.8740     0.2860 C.3   1 <1>  -0.0800 
 20 C       -1.7650    -7.5310    -0.9330 C.3   1 <1>  -0.1600 
 21 C        4.1490     1.2420    -0.4260 C.ar  1 <1>  -0.1500 
 22 C       -4.2990    -6.9660     0.5010 C.3   1 <1>  -0.1600 
 23 C       -2.8290    -8.6220    -0.7400 C.3   1 <1>  -0.1600 
 24 C       -4.2350    -8.0180    -0.6160 C.3   1 <1>  -0.1600 
 25 H       -0.9460    -4.8790    -0.9190 H     1 <1>   0.0800 
 26 H        0.2120    -5.8190    -0.0110 H     1 <1>   0.0800 
 27 H       -2.2020    -3.0450     1.9950 H     1 <1>   0.0800 
 28 H       -2.3680    -3.2320     0.2680 H     1 <1>   0.0800 
 29 H        4.1740    -1.4890     1.5410 H     1 <1>   0.1500 
 30 H        1.0370     0.0530    -0.8930 H     1 <1>   0.1500 
 31 H       -1.6070    -6.9910     1.1270 H     1 <1>   0.0800 
 32 H       -3.1340    -5.2740     2.3590 H     1 <1>   0.0800 
 33 H       -4.2400    -4.3260     1.4020 H     1 <1>   0.0800 
 34 H        5.6220     0.3550     0.8410 H     1 <1>   0.1500 
 35 H        2.4790     1.8790    -1.5990 H     1 <1>   0.1500 
 36 H       -3.4460    -5.3790    -0.6490 H     1 <1>   0.0800 
 37 H       -1.9230    -7.0390    -1.8780 H     1 <1>   0.0800 
 38 H       -0.7880    -7.9820    -0.9540 H     1 <1>   0.0800 
 39 H        4.7830     2.0520    -0.7380 H     1 <1>   0.1500 
 40 H       -4.1330    -7.4440     1.4510 H     1 <1>   0.0800 
 41 H       -5.2780    -6.5210     0.5170 H     1 <1>   0.0800 
 42 H       -2.8010    -9.3030    -1.5720 H     1 <1>   0.0800 
 43 H       -2.6040    -9.1810     0.1520 H     1 <1>   0.0800 
 44 H       -4.9470    -8.8000    -0.4160 H     1 <1>   0.0800 
 45 H       -4.5050    -7.5570    -1.5510 H     1 <1>   0.0800 
@<TRIPOS>BOND
  1   1   2  ar  
  2   2   3  ar  
  3   2   4  1   
  4   4   5  1   
  5   4   6  2   
  6   5   7  2   
  7   5   8  1   
  8   6   9  1   
  9   6  10  1   
 10   7   9  1   
 11   8  11  1   
 12   8  12  1   
 13  10  13  ar  
 14  10  14  ar  
 15  11  15  1   
 16  11  25  1   
 17  11  26  1   
 18  12  16  1   
 19  12  27  1   
 20  12  28  1   
 21  13  17  ar  
 22  13  29  1   
 23  14  18  ar  
 24  14  30  1   
 25  15  19  1   
 26  15  20  1   
 27  15  31  1   
 28  16  19  1   
 29  16  32  1   
 30  16  33  1   
 31  17  21  ar  
 32  17  34  1   
 33  18  21  ar  
 34  18  35  1   
 35  19  22  1   
 36  19  36  1   
 37  20  23  1   
 38  20  37  1   
 39  20  38  1   
 40  21  39  1   
 41  22  24  1   
 42  22  40  1   
 43  22  41  1   
 44  23  24  1   
 45  23  42  1   
 46  23  43  1   
 47  24  44  1   
 48  24  45  1   
@<TRIPOS>SUBSTRUCTURE
  1 ****   4 GROUP 4 **** **** 0

# MOE 2024.06 (io_trps.svl 2023.06)
