@<TRIPOS>MOLECULE
NONAME
52 54 1 0 0 
SMALL
USER_CHARGES


@<TRIPOS>ATOM
  1 O        2.1920     2.1030     0.8340 O.3   1 <1>  -0.0190 
  2 N        2.8910     1.0130     0.7560 N.2   1 <1>  -0.4100 
  3 C        1.1920     2.1040    -0.0070 C.2   1 <1>  -0.0400 
  4 C        2.3220     0.2860    -0.1380 C.2   1 <1>   0.1080 
  5 C        1.2130     0.9390    -0.6710 C.2   1 <1>  -0.1500 
  6 C        0.2730     3.3080    -0.0820 C.3   1 <1>   0.0200 
  7 C        2.8000    -1.0900    -0.5470 C.3   1 <1>  -0.0590 
  8 C        1.0240     4.5350    -0.6380 C.3   1 <1>  -0.0800 
  9 C        0.2060     5.8200    -0.7640 C.3   1 <1>   0.2000 
 10 C        2.2380     4.9420     0.2100 C.3   1 <1>   0.3430 
 11 O       -0.5410     6.0210     0.3950 O.3   1 <1>  -0.6800 
 12 C        1.2950     6.8930    -0.8270 C.3   1 <1>   0.3430 
 13 N        2.3730     6.4270     0.1040 N.4   1 <1>  -0.9590 
 14 C        2.2240     7.0610     1.4440 C.3   1 <1>   0.4860 
 15 C        2.4900     8.5460     1.3060 C.ar  1 <1>  -0.1430 
 16 C        3.7770     9.0070     1.0650 C.ar  1 <1>  -0.1500 
 17 C        1.4490     9.4570     1.4180 C.ar  1 <1>  -0.1500 
 18 C        4.0300    10.3600     0.9230 C.ar  1 <1>   0.0830 
 19 C        1.6910    10.8120     1.2690 C.ar  1 <1>  -0.1500 
 20 O        5.3230    10.7120     0.7070 O.3   1 <1>  -0.3630 
 21 C        2.9700    11.2710     1.0040 C.ar  1 <1>   0.0830 
 22 C        5.8840    11.7280     1.5130 C.3   1 <1>   0.0400 
 23 O        3.1350    12.6090     0.8330 O.3   1 <1>  -0.3630 
 24 C        3.2330    13.1170    -0.4860 C.3   1 <1>   0.1200 
 25 C        3.3510    13.7750    -1.8620 C.3   1 <1>  -0.2400 
 26 H        0.5600     0.5600    -1.4350 H     1 <1>   0.1500 
 27 H       -0.5590     3.0720    -0.7230 H     1 <1>   0.0800 
 28 H       -0.1100     3.5020     0.9050 H     1 <1>   0.0800 
 29 H        2.0270    -1.8140    -0.3650 H     1 <1>   0.0800 
 30 H        3.6700    -1.3620     0.0220 H     1 <1>   0.0800 
 31 H        3.0520    -1.0950    -1.5910 H     1 <1>   0.0800 
 32 H        1.3940     4.2780    -1.6160 H     1 <1>   0.0800 
 33 H       -0.4510     5.8450    -1.6180 H     1 <1>   0.0800 
 34 H        3.1270     4.4400    -0.1390 H     1 <1>   0.0800 
 35 H        2.0660     4.6600     1.2360 H     1 <1>   0.0800 
 36 H       -1.4090     5.5650     0.3440 H     1 <1>   0.4000 
 37 H        0.9070     7.8620    -0.5600 H     1 <1>   0.0800 
 38 H        1.6860     6.9370    -1.8300 H     1 <1>   0.0800 
 39 H        3.2930     6.7000    -0.2640 H     1 <1>   0.4500 
 40 H        1.2290     6.8970     1.8250 H     1 <1>   0.0800 
 41 H        2.9310     6.6350     2.1370 H     1 <1>   0.0800 
 42 H        4.6100     8.3300     0.9930 H     1 <1>   0.1500 
 43 H        0.4440     9.1260     1.6230 H     1 <1>   0.1500 
 44 H        0.8880    11.5240     1.3550 H     1 <1>   0.1500 
 45 H        6.9530    11.6270     1.4850 H     1 <1>   0.0800 
 46 H        5.5290    11.6150     2.5230 H     1 <1>   0.0800 
 47 H        5.6020    12.6880     1.1220 H     1 <1>   0.0800 
 48 H        4.0500    12.4630    -0.7390 H     1 <1>   0.0800 
 49 H        2.3010    12.6680    -0.7860 H     1 <1>   0.0800 
 50 H        4.2930    14.2860    -1.9510 H     1 <1>   0.0800 
 51 H        2.5620    14.4930    -2.0010 H     1 <1>   0.0800 
 52 H        3.2860    13.0400    -2.6460 H     1 <1>   0.0800 
@<TRIPOS>BOND
  1   1   2  1   
  2   1   3  1   
  3   2   4  2   
  4   3   5  2   
  5   3   6  1   
  6   4   5  1   
  7   4   7  1   
  8   5  26  1   
  9   6   8  1   
 10   6  27  1   
 11   6  28  1   
 12   7  29  1   
 13   7  30  1   
 14   7  31  1   
 15   8   9  1   
 16   8  10  1   
 17   8  32  1   
 18   9  11  1   
 19   9  12  1   
 20   9  33  1   
 21  10  13  1   
 22  10  34  1   
 23  10  35  1   
 24  11  36  1   
 25  12  13  1   
 26  12  37  1   
 27  12  38  1   
 28  13  14  1   
 29  13  39  1   
 30  14  15  1   
 31  14  40  1   
 32  14  41  1   
 33  15  16  ar  
 34  15  17  ar  
 35  16  18  ar  
 36  16  42  1   
 37  17  19  ar  
 38  17  43  1   
 39  18  20  1   
 40  18  21  ar  
 41  19  21  ar  
 42  19  44  1   
 43  20  22  1   
 44  21  23  1   
 45  22  45  1   
 46  22  46  1   
 47  22  47  1   
 48  23  24  1   
 49  24  25  1   
 50  24  48  1   
 51  24  49  1   
 52  25  50  1   
 53  25  51  1   
 54  25  52  1   
@<TRIPOS>SUBSTRUCTURE
  1 ****  13 GROUP 4 **** **** 0

# MOE 2024.06 (io_trps.svl 2023.06)
