@<TRIPOS>MOLECULE
NONAME
41 43 1 0 0 
SMALL
USER_CHARGES


@<TRIPOS>ATOM
  1 CL       1.6900    -0.8390     2.5300 Cl    1 <1>  -0.1770 
  2 C        2.6330    -0.6880     1.0650 C.ar  1 <1>   0.1770 
  3 C        2.8060    -1.7720     0.2200 C.ar  1 <1>   0.1770 
  4 C        3.2070     0.5330     0.7610 C.ar  1 <1>  -0.1500 
  5 CL       2.0910    -3.3230     0.5920 Cl    1 <1>  -0.1770 
  6 C        3.5510    -1.6420    -0.9380 C.ar  1 <1>  -0.1500 
  7 C        3.9630     0.6720    -0.3960 C.ar  1 <1>  -0.1440 
  8 C        4.1260    -0.4180    -1.2430 C.ar  1 <1>  -0.1500 
  9 C        4.6070     2.0130    -0.7420 C.3   1 <1>   0.0450 
 10 C        5.2870     2.6920     0.4430 C.2   1 <1>   0.5690 
 11 O        4.7340     3.6640     0.9040 O.2   1 <1>  -0.5700 
 12 N        6.4860     2.2410     0.9450 N.am  1 <1>  -0.6600 
 13 C        7.2990     3.1330     1.8370 C.3   1 <1>   0.1400 
 14 C        7.2020     1.0140     0.4740 C.3   1 <1>   0.1400 
 15 C        8.5100     3.7930     1.1240 C.3   1 <1>   0.2200 
 16 C        8.3880     1.3290    -0.4610 C.3   1 <1>  -0.0190 
 17 N        8.3660     3.8360    -0.3710 N.am  1 <1>  -0.6600 
 18 C        9.8450     3.1340     1.5230 C.3   1 <1>   0.1200 
 19 C        8.2640     2.6920    -1.1210 C.2   1 <1>   0.5690 
 20 C        9.7600     1.1640     0.2080 C.3   1 <1>   0.1200 
 21 C        8.0960     5.1800    -0.9530 C.3   1 <1>   0.0600 
 22 O        9.7940     1.7370     1.4780 O.3   1 <1>  -0.5600 
 23 O        8.0570     2.7150    -2.3120 O.2   1 <1>  -0.5700 
 24 H        3.0590     1.3640     1.4300 H     1 <1>   0.1500 
 25 H        3.6750    -2.4880    -1.5900 H     1 <1>   0.1500 
 26 H        4.7020    -0.3200    -2.1490 H     1 <1>   0.1500 
 27 H        3.8440     2.6710    -1.1150 H     1 <1>   0.0800 
 28 H        5.3320     1.8970    -1.5260 H     1 <1>   0.0800 
 29 H        6.6770     3.9190     2.2280 H     1 <1>   0.0800 
 30 H        7.6370     2.5670     2.6880 H     1 <1>   0.0800 
 31 H        7.5470     0.4620     1.3320 H     1 <1>   0.0800 
 32 H        6.5180     0.3710    -0.0460 H     1 <1>   0.0800 
 33 H        8.5670     4.8070     1.4770 H     1 <1>   0.0800 
 34 H        8.3640     0.6020    -1.2520 H     1 <1>   0.0800 
 35 H       10.0710     3.3960     2.5410 H     1 <1>   0.0800 
 36 H       10.6500     3.4830     0.9000 H     1 <1>   0.0800 
 37 H       10.5450     1.5900    -0.3960 H     1 <1>   0.0800 
 38 H        9.9670     0.1160     0.3390 H     1 <1>   0.0800 
 39 H        8.8960     5.8550    -0.7040 H     1 <1>   0.0800 
 40 H        7.1690     5.5620    -0.5610 H     1 <1>   0.0800 
 41 H        8.0180     5.1240    -2.0250 H     1 <1>   0.0800 
@<TRIPOS>BOND
  1   1   2  1   
  2   2   3  ar  
  3   2   4  ar  
  4   3   5  1   
  5   3   6  ar  
  6   4   7  ar  
  7   4  24  1   
  8   6   8  ar  
  9   6  25  1   
 10   7   8  ar  
 11   7   9  1   
 12   8  26  1   
 13   9  10  1   
 14   9  27  1   
 15   9  28  1   
 16  10  11  2   
 17  10  12  am  
 18  12  13  1   
 19  12  14  1   
 20  13  15  1   
 21  13  29  1   
 22  13  30  1   
 23  14  16  1   
 24  14  31  1   
 25  14  32  1   
 26  15  17  1   
 27  15  18  1   
 28  15  33  1   
 29  16  19  1   
 30  16  20  1   
 31  16  34  1   
 32  17  19  am  
 33  17  21  1   
 34  18  22  1   
 35  18  35  1   
 36  18  36  1   
 37  19  23  2   
 38  20  22  1   
 39  20  37  1   
 40  20  38  1   
 41  21  39  1   
 42  21  40  1   
 43  21  41  1   
@<TRIPOS>SUBSTRUCTURE
  1 ****  12 GROUP 4 **** **** 0

# MOE 2024.06 (io_trps.svl 2023.06)
