@<TRIPOS>MOLECULE
NONAME
53 56 1 0 0 
SMALL
USER_CHARGES


@<TRIPOS>ATOM
  1 F       -0.9920    -0.5200    -0.5070 F     1 <1>  -0.1900 
  2 C       -2.2930    -0.4520    -0.4150 C.ar  1 <1>   0.1900 
  3 C       -2.8650    -0.2840     0.8310 C.ar  1 <1>  -0.1500 
  4 C       -3.0490    -0.5510    -1.5670 C.ar  1 <1>  -0.1500 
  5 C       -4.2450    -0.2120     0.9220 C.ar  1 <1>  -0.1500 
  6 C       -4.4280    -0.4770    -1.4620 C.ar  1 <1>  -0.1500 
  7 C       -5.0290    -0.3060    -0.2210 C.ar  1 <1>  -0.1430 
  8 C       -6.5440    -0.2270    -0.1160 C.3   1 <1>  -0.0160 
  9 C       -7.1460    -1.6300     0.0320 C.3   1 <1>  -0.1600 
 10 C       -8.6830    -1.5850     0.1420 C.3   1 <1>  -0.0990 
 11 C       -9.3440    -2.9500     0.3080 C.2   1 <1>   0.5690 
 12 O       -8.6730    -3.9410     0.1330 O.2   1 <1>  -0.5700 
 13 N      -10.6740    -3.0470     0.6390 N.am  1 <1>  -0.6600 
 14 C      -11.2590    -4.3980     0.9030 C.3   1 <1>   0.1400 
 15 C      -11.6210    -1.8940     0.7150 C.3   1 <1>   0.1400 
 16 C      -11.7150    -5.0590    -0.4040 C.3   1 <1>   0.1400 
 17 C      -12.9320    -2.1140    -0.0570 C.3   1 <1>  -0.1600 
 18 N      -12.9520    -4.4160    -0.9460 N.am  1 <1>  -0.6600 
 19 C      -12.8100    -2.9810    -1.3170 C.3   1 <1>   0.1400 
 20 C      -14.1650    -5.0510    -1.0710 C.2   1 <1>   0.6300 
 21 O      -15.1300    -4.4910    -1.5370 O.2   1 <1>  -0.5700 
 22 C      -14.3300    -6.4970    -0.6220 C.3   1 <1>  -0.1000 
 23 C      -15.6050    -6.9370     0.0700 C.3   1 <1>   0.0000 
 24 C      -14.2850    -6.8830     0.7950 C.3   1 <1>  -0.2000 
 25 C      -16.9260    -7.0490    -0.6550 C.3   1 <1>  -0.2000 
 26 C      -16.8790    -7.3340     0.7780 C.3   1 <1>  -0.2000 
 27 H       -2.2440    -0.2140     1.7050 H     1 <1>   0.1500 
 28 H       -2.5670    -0.6830    -2.5180 H     1 <1>   0.1500 
 29 H       -4.7070    -0.0850     1.8860 H     1 <1>   0.1500 
 30 H       -5.0320    -0.5560    -2.3500 H     1 <1>   0.1500 
 31 H       -6.9380     0.2490    -0.9960 H     1 <1>   0.0800 
 32 H       -6.8130     0.3770     0.7320 H     1 <1>   0.0800 
 33 H       -6.7390    -2.1020     0.9090 H     1 <1>   0.0800 
 34 H       -6.8660    -2.2270    -0.8190 H     1 <1>   0.0800 
 35 H       -9.0830    -1.1280    -0.7440 H     1 <1>   0.0800 
 36 H       -8.9450    -0.9790     0.9900 H     1 <1>   0.0800 
 37 H      -12.0830    -4.3250     1.5900 H     1 <1>   0.0800 
 38 H      -10.5090    -5.0200     1.3610 H     1 <1>   0.0800 
 39 H      -11.1540    -1.0140     0.3140 H     1 <1>   0.0800 
 40 H      -11.8470    -1.6950     1.7490 H     1 <1>   0.0800 
 41 H      -11.8800    -6.1040    -0.2180 H     1 <1>   0.0800 
 42 H      -10.9240    -4.9900    -1.1320 H     1 <1>   0.0800 
 43 H      -13.3010    -1.1480    -0.3490 H     1 <1>   0.0800 
 44 H      -13.6750    -2.5370     0.5950 H     1 <1>   0.0800 
 45 H      -11.8670    -2.8160    -1.8100 H     1 <1>   0.0800 
 46 H      -13.5900    -2.7100    -2.0080 H     1 <1>   0.0800 
 47 H      -13.9620    -7.1740    -1.3680 H     1 <1>   0.1000 
 48 H      -14.1880    -6.1320     1.5590 H     1 <1>   0.1000 
 49 H      -13.8580    -7.8220     1.0960 H     1 <1>   0.1000 
 50 H      -17.0220    -7.8430    -1.3730 H     1 <1>   0.1000 
 51 H      -17.3580    -6.1300    -1.0140 H     1 <1>   0.1000 
 52 H      -17.2820    -6.6320     1.4870 H     1 <1>   0.1000 
 53 H      -16.9550    -8.3480     1.1280 H     1 <1>   0.1000 
@<TRIPOS>BOND
  1   1   2  1   
  2   2   3  ar  
  3   2   4  ar  
  4   3   5  ar  
  5   3  27  1   
  6   4   6  ar  
  7   4  28  1   
  8   5   7  ar  
  9   5  29  1   
 10   6   7  ar  
 11   6  30  1   
 12   7   8  1   
 13   8   9  1   
 14   8  31  1   
 15   8  32  1   
 16   9  10  1   
 17   9  33  1   
 18   9  34  1   
 19  10  11  1   
 20  10  35  1   
 21  10  36  1   
 22  11  12  2   
 23  11  13  am  
 24  13  14  1   
 25  13  15  1   
 26  14  16  1   
 27  14  37  1   
 28  14  38  1   
 29  15  17  1   
 30  15  39  1   
 31  15  40  1   
 32  16  18  1   
 33  16  41  1   
 34  16  42  1   
 35  17  19  1   
 36  17  43  1   
 37  17  44  1   
 38  18  19  1   
 39  18  20  am  
 40  19  45  1   
 41  19  46  1   
 42  20  21  2   
 43  20  22  1   
 44  22  23  1   
 45  22  24  1   
 46  22  47  1   
 47  23  24  1   
 48  23  25  1   
 49  23  26  1   
 50  24  48  1   
 51  24  49  1   
 52  25  26  1   
 53  25  50  1   
 54  25  51  1   
 55  26  52  1   
 56  26  53  1   
@<TRIPOS>SUBSTRUCTURE
  1 ****  11 GROUP 4 **** **** 0

# MOE 2024.06 (io_trps.svl 2023.06)
