@<TRIPOS>MOLECULE
NONAME
47 50 1 0 0 
SMALL
USER_CHARGES


@<TRIPOS>ATOM
  1 O        1.5670    -1.1390    -2.6590 O.2   1 <1>  -0.5700 
  2 C        1.8500    -1.4700    -1.5230 C.2   1 <1>   0.5440 
  3 N        2.5910    -0.6090    -0.7470 N.am  1 <1>  -0.6600 
  4 C        1.3880    -2.7490    -1.0190 C.ar  1 <1>   0.0860 
  5 C        2.6580    -0.6390     0.7320 C.3   1 <1>   0.1400 
  6 C        3.0820     0.6870    -1.2680 C.3   1 <1>   0.1400 
  7 C        0.0890    -3.1810    -1.2090 C.ar  1 <1>  -0.1500 
  8 C        2.2050    -3.6340    -0.3310 C.ar  1 <1>  -0.1500 
  9 C        2.9190     0.8070     1.1370 C.3   1 <1>  -0.1600 
 10 C        3.6570     1.4100    -0.0550 C.3   1 <1>  -0.1600 
 11 C       -0.3460    -4.4050    -0.7130 C.ar  1 <1>   0.4100 
 12 C        1.6960    -4.8310     0.1260 C.ar  1 <1>   0.1600 
 13 N        0.4470    -5.2310    -0.0400 N.ar  1 <1>  -0.6200 
 14 N       -1.6500    -4.8490    -0.8880 N.pl3 1 <1>  -0.8380 
 15 C       -1.8690    -6.2990    -1.1780 C.3   1 <1>   0.3770 
 16 C       -2.7590    -3.9280    -1.2750 C.3   1 <1>   0.1290 
 17 C       -2.1190    -7.0830     0.1090 C.2   1 <1>   0.1820 
 18 N       -2.5460    -8.4040     0.1610 N.pl3 1 <1>  -0.6290 
 19 C       -1.9690    -6.6460     1.3750 C.2   1 <1>   0.2000 
 20 C       -2.6430    -8.7320     1.4730 C.cat 1 <1>   0.7910 
 21 C       -2.8370    -9.3390    -0.8100 C.2   1 <1>   0.2290 
 22 N       -2.3010    -7.6720     2.2200 N.pl3 1 <1>  -0.7000 
 23 C       -3.0510   -10.0190     1.8620 C.2   1 <1>  -0.1410 
 24 C       -3.2340   -10.5960    -0.4510 C.2   1 <1>  -0.1500 
 25 C       -3.3480   -10.9530     0.9080 C.2   1 <1>  -0.1500 
 26 H        3.4810    -1.2610     1.0350 H     1 <1>   0.0800 
 27 H        1.7400    -1.0070     1.1600 H     1 <1>   0.0800 
 28 H        2.2530     1.2380    -1.6800 H     1 <1>   0.0800 
 29 H        3.8250     0.5320    -2.0320 H     1 <1>   0.0800 
 30 H       -0.5770    -2.5500    -1.7630 H     1 <1>   0.1500 
 31 H        3.2370    -3.3850    -0.1640 H     1 <1>   0.1500 
 32 H        3.4870     0.8720     2.0480 H     1 <1>   0.0800 
 33 H        1.9770     1.3080     1.2740 H     1 <1>   0.0800 
 34 H        3.5240     2.4750    -0.1250 H     1 <1>   0.0800 
 35 H        4.7080     1.1910     0.0150 H     1 <1>   0.0800 
 36 H        2.3540    -5.5000     0.6570 H     1 <1>   0.1500 
 37 H       -1.0040    -6.7030    -1.6760 H     1 <1>   0.0800 
 38 H       -2.7120    -6.4110    -1.8360 H     1 <1>   0.0800 
 39 H       -2.6330    -2.9720    -0.7950 H     1 <1>   0.0800 
 40 H       -3.7060    -4.3360    -0.9670 H     1 <1>   0.0800 
 41 H       -2.7650    -3.7860    -2.3430 H     1 <1>   0.0800 
 42 H       -1.6420    -5.6710     1.7060 H     1 <1>   0.1500 
 43 H       -2.7410    -9.0530    -1.8460 H     1 <1>   0.1500 
 44 H       -2.2780    -7.6470     3.2420 H     1 <1>   0.4500 
 45 H       -3.1200   -10.2430     2.9100 H     1 <1>   0.1500 
 46 H       -3.4660   -11.3350    -1.2000 H     1 <1>   0.1500 
 47 H       -3.6650   -11.9520     1.1670 H     1 <1>   0.1500 
@<TRIPOS>BOND
  1   1   2  2   
  2   2   3  am  
  3   2   4  1   
  4   3   5  1   
  5   3   6  1   
  6   4   7  ar  
  7   4   8  ar  
  8   5   9  1   
  9   5  26  1   
 10   5  27  1   
 11   6  10  1   
 12   6  28  1   
 13   6  29  1   
 14   7  11  ar  
 15   7  30  1   
 16   8  12  ar  
 17   8  31  1   
 18   9  10  1   
 19   9  32  1   
 20   9  33  1   
 21  10  34  1   
 22  10  35  1   
 23  11  13  ar  
 24  11  14  1   
 25  12  13  ar  
 26  12  36  1   
 27  14  15  1   
 28  14  16  1   
 29  15  17  1   
 30  15  37  1   
 31  15  38  1   
 32  16  39  1   
 33  16  40  1   
 34  16  41  1   
 35  17  18  1   
 36  17  19  2   
 37  18  20  ar  
 38  18  21  1   
 39  19  22  1   
 40  19  42  1   
 41  20  22  ar  
 42  20  23  1   
 43  21  24  2   
 44  21  43  1   
 45  22  44  1   
 46  23  25  2   
 47  23  45  1   
 48  24  25  1   
 49  24  46  1   
 50  25  47  1   
@<TRIPOS>SUBSTRUCTURE
  1 ****  11 GROUP 4 **** **** 0

# MOE 2024.06 (io_trps.svl 2023.06)
