@<TRIPOS>MOLECULE
NONAME
30 31 1 0 0 
SMALL
USER_CHARGES


@<TRIPOS>ATOM
  1 O        0.3000     0.8700    -0.4780 O.co2 1 <1>  -0.9000 
  2 C        0.2050     1.5630     0.5420 C.2   1 <1>   0.9470 
  3 O       -0.6860     1.3880     1.3790 O.co2 1 <1>  -0.9000 
  4 C        1.2090     2.6810     0.7820 C.3   1 <1>  -0.2470 
  5 C        1.7130     3.5140    -0.3630 C.3   1 <1>  -0.0680 
  6 C        2.6430     2.5790     0.3610 C.3   1 <1>  -0.2000 
  7 C        1.8420     5.0330    -0.2400 C.ar  1 <1>  -0.0320 
  8 C        0.7580     5.9210    -0.2670 C.ar  1 <1>  -0.1440 
  9 C        3.1300     5.5390    -0.1130 C.ar  1 <1>  -0.1500 
 10 C        1.0150     7.2820    -0.1300 C.ar  1 <1>  -0.1500 
 11 C       -0.7260     5.5430    -0.4400 C.3   1 <1>   0.0640 
 12 C        3.3650     6.8940     0.0130 C.ar  1 <1>  -0.1500 
 13 C        2.3010     7.7690     0.0090 C.ar  1 <1>  -0.1500 
 14 C       -1.3680     5.1250     0.8860 C.3   1 <1>  -0.2400 
 15 C       -1.0210     4.5250    -1.5470 C.3   1 <1>  -0.2400 
 16 H        1.0190     3.1720     1.7170 H     1 <1>   0.1000 
 17 H        1.4570     3.2080    -1.3620 H     1 <1>   0.1000 
 18 H        3.3760     2.9440     1.0560 H     1 <1>   0.1000 
 19 H        2.9490     1.6730    -0.1330 H     1 <1>   0.1000 
 20 H        3.9680     4.8670    -0.1160 H     1 <1>   0.1500 
 21 H        0.2030     7.9870    -0.1320 H     1 <1>   0.1500 
 22 H       -1.2400     6.4370    -0.7480 H     1 <1>   0.0800 
 23 H        4.3710     7.2610     0.1150 H     1 <1>   0.1500 
 24 H        2.4690     8.8260     0.1120 H     1 <1>   0.1500 
 25 H       -0.9950     4.1720     1.2090 H     1 <1>   0.0800 
 26 H       -2.4330     5.0390     0.7730 H     1 <1>   0.0800 
 27 H       -1.1560     5.8510     1.6480 H     1 <1>   0.0800 
 28 H       -0.8110     3.5220    -1.2220 H     1 <1>   0.0800 
 29 H       -0.4320     4.7420    -2.4200 H     1 <1>   0.0800 
 30 H       -2.0610     4.5630    -1.8130 H     1 <1>   0.0800 
@<TRIPOS>BOND
  1   1   2  ar  
  2   2   3  ar  
  3   2   4  1   
  4   4   5  1   
  5   4   6  1   
  6   4  16  1   
  7   5   6  1   
  8   5   7  1   
  9   5  17  1   
 10   6  18  1   
 11   6  19  1   
 12   7   8  ar  
 13   7   9  ar  
 14   8  10  ar  
 15   8  11  1   
 16   9  12  ar  
 17   9  20  1   
 18  10  13  ar  
 19  10  21  1   
 20  11  14  1   
 21  11  15  1   
 22  11  22  1   
 23  12  13  ar  
 24  12  23  1   
 25  13  24  1   
 26  14  25  1   
 27  14  26  1   
 28  14  27  1   
 29  15  28  1   
 30  15  29  1   
 31  15  30  1   
@<TRIPOS>SUBSTRUCTURE
  1 ****   7 GROUP 4 **** **** 0

# MOE 2024.06 (io_trps.svl 2023.06)
