@<TRIPOS>MOLECULE
NONAME
51 54 1 0 0 
SMALL
USER_CHARGES


@<TRIPOS>ATOM
  1 O        0.2920    -0.6250     2.3410 O.2   1 <1>  -0.5700 
  2 C        0.8440    -1.3530     1.5470 C.2   1 <1>   0.5690 
  3 N        1.4430    -0.8920     0.3900 N.am  1 <1>  -0.4770 
  4 C        0.8770    -2.8500     1.8900 C.3   1 <1>   0.1710 
  5 C        1.4990     0.4120    -0.1190 C.ar  1 <1>   0.1170 
  6 C        2.1040    -1.8100    -0.5840 C.3   1 <1>   0.1400 
  7 N        0.1970    -3.7550     0.9100 N.3   1 <1>  -0.8100 
  8 C        2.1630     0.4550    -1.3270 C.ar  1 <1>  -0.1430 
  9 C        0.9910     1.5890     0.4170 C.ar  1 <1>  -0.1500 
 10 C        2.6290    -0.9230    -1.7210 C.3   1 <1>  -0.0170 
 11 C        0.7270    -5.1400     0.9460 C.3   1 <1>   0.2530 
 12 C       -1.2810    -3.7590     1.0590 C.3   1 <1>   0.1100 
 13 C        2.3350     1.6380    -2.0200 C.ar  1 <1>  -0.1500 
 14 C        1.1560     2.7830    -0.2670 C.ar  1 <1>  -0.1500 
 15 C        2.2220    -5.2460     0.6230 C.ar  1 <1>   0.1670 
 16 C       -1.9750    -2.4880     0.5390 C.3   1 <1>   0.2000 
 17 C        1.8250     2.8090    -1.4820 C.ar  1 <1>  -0.1500 
 18 N        2.5940    -5.0680    -0.6400 N.ar  1 <1>  -0.6200 
 19 C        3.1130    -5.5300     1.6500 C.ar  1 <1>  -0.1500 
 20 O       -3.3510    -2.6920     0.5700 O.3   1 <1>  -0.5600 
 21 C       -1.6690    -2.1360    -0.9180 C.3   1 <1>  -0.1600 
 22 C        3.8900    -5.1790    -0.8840 C.ar  1 <1>   0.1600 
 23 C        4.4610    -5.6370     1.3820 C.ar  1 <1>  -0.1500 
 24 C       -3.9630    -1.8110    -0.3090 C.3   1 <1>   0.1200 
 25 C       -3.0120    -1.7110    -1.4930 C.3   1 <1>  -0.1600 
 26 C        4.8500    -5.4560     0.0730 C.ar  1 <1>  -0.1500 
 27 H        0.4430    -2.9880     2.8640 H     1 <1>   0.0800 
 28 H        1.9150    -3.1080     1.9700 H     1 <1>   0.0800 
 29 H        1.3890    -2.5140    -0.9710 H     1 <1>   0.0800 
 30 H        2.9110    -2.3380    -0.1080 H     1 <1>   0.0800 
 31 H        0.4710     1.5770     1.3560 H     1 <1>   0.1500 
 32 H        2.2060    -1.2230    -2.6620 H     1 <1>   0.0800 
 33 H        3.7020    -0.9660    -1.7720 H     1 <1>   0.0800 
 34 H        0.2020    -5.7320     0.2160 H     1 <1>   0.0800 
 35 H        0.5330    -5.5690     1.9140 H     1 <1>   0.0800 
 36 H       -1.5440    -3.9040     2.0930 H     1 <1>   0.0800 
 37 H       -1.6840    -4.5820     0.4940 H     1 <1>   0.0800 
 38 H        2.8550     1.6510    -2.9610 H     1 <1>   0.1500 
 39 H        0.7620     3.6930     0.1490 H     1 <1>   0.1500 
 40 H       -1.7730    -1.6490     1.1810 H     1 <1>   0.0800 
 41 H        1.9490     3.7400    -2.0070 H     1 <1>   0.1500 
 42 H        2.7570    -5.6680     2.6550 H     1 <1>   0.1500 
 43 H       -1.2810    -2.9910    -1.4430 H     1 <1>   0.0800 
 44 H       -0.9470    -1.3420    -0.9650 H     1 <1>   0.0800 
 45 H        4.2040    -5.0440    -1.9050 H     1 <1>   0.1500 
 46 H        5.1760    -5.8560     2.1570 H     1 <1>   0.1500 
 47 H       -4.0660    -0.8620     0.1900 H     1 <1>   0.0800 
 48 H       -4.9300    -2.1970    -0.5820 H     1 <1>   0.0800 
 49 H       -3.3230    -2.3890    -2.2680 H     1 <1>   0.0800 
 50 H       -2.9890    -0.7090    -1.8860 H     1 <1>   0.0800 
 51 H        5.8850    -5.5290    -0.2050 H     1 <1>   0.1500 
@<TRIPOS>BOND
  1   1   2  2   
  2   2   3  am  
  3   2   4  1   
  4   3   5  1   
  5   3   6  1   
  6   4   7  1   
  7   4  27  1   
  8   4  28  1   
  9   5   8  ar  
 10   5   9  ar  
 11   6  10  1   
 12   6  29  1   
 13   6  30  1   
 14   7  11  1   
 15   7  12  1   
 16   8  10  1   
 17   8  13  ar  
 18   9  14  ar  
 19   9  31  1   
 20  10  32  1   
 21  10  33  1   
 22  11  15  1   
 23  11  34  1   
 24  11  35  1   
 25  12  16  1   
 26  12  36  1   
 27  12  37  1   
 28  13  17  ar  
 29  13  38  1   
 30  14  17  ar  
 31  14  39  1   
 32  15  18  ar  
 33  15  19  ar  
 34  16  20  1   
 35  16  21  1   
 36  16  40  1   
 37  17  41  1   
 38  18  22  ar  
 39  19  23  ar  
 40  19  42  1   
 41  20  24  1   
 42  21  25  1   
 43  21  43  1   
 44  21  44  1   
 45  22  26  ar  
 46  22  45  1   
 47  23  26  ar  
 48  23  46  1   
 49  24  25  1   
 50  24  47  1   
 51  24  48  1   
 52  25  49  1   
 53  25  50  1   
 54  26  51  1   
@<TRIPOS>SUBSTRUCTURE
  1 ****   3 GROUP 4 **** **** 0

# MOE 2024.06 (io_trps.svl 2023.06)
