@<TRIPOS>MOLECULE
NONAME
38 40 1 0 0 
SMALL
USER_CHARGES


@<TRIPOS>ATOM
  1 O       -2.3800     2.4310    -0.6640 O.2   1 <1>  -0.5700 
  2 C       -2.2370     1.3500    -0.1390 C.2   1 <1>   0.6300 
  3 N       -3.0500     0.2940    -0.4580 N.am  1 <1>  -0.6600 
  4 C       -1.1190     1.2060     0.8920 C.3   1 <1>  -0.1000 
  5 C       -2.8950    -1.0660     0.1700 C.3   1 <1>   0.3640 
  6 C       -4.1880     0.5260    -1.3980 C.3   1 <1>   0.1400 
  7 C       -1.4110     1.0590     2.3600 C.3   1 <1>  -0.2000 
  8 C       -0.7970     2.3210     1.8460 C.3   1 <1>  -0.2000 
  9 C       -1.5630    -1.6830    -0.2660 C.ar  1 <1>  -0.1440 
 10 C       -4.0410    -2.0900    -0.1110 C.3   1 <1>   0.2000 
 11 C       -4.8530    -0.7690    -1.8650 C.3   1 <1>   0.1200 
 12 C       -1.1470    -1.6470    -1.5910 C.ar  1 <1>  -0.1500 
 13 C       -0.7460    -2.2940     0.6760 C.ar  1 <1>  -0.1500 
 14 O       -5.1610    -1.5430    -0.7540 O.3   1 <1>  -0.5600 
 15 C       -4.5610    -2.7470     1.1760 C.3   1 <1>   0.1200 
 16 C        0.0580    -2.2140    -1.9670 C.ar  1 <1>  -0.1500 
 17 C        0.4590    -2.8620     0.3020 C.ar  1 <1>  -0.1500 
 18 O       -3.5350    -3.3950     1.8580 O.3   1 <1>  -0.6800 
 19 C        0.8620    -2.8220    -1.0210 C.ar  1 <1>  -0.1500 
 20 H       -0.2750     0.6810     0.4810 H     1 <1>   0.1000 
 21 H       -2.8570    -0.9200     1.2340 H     1 <1>   0.0800 
 22 H       -4.9230     1.1360    -0.9030 H     1 <1>   0.0800 
 23 H       -3.8360     1.0720    -2.2560 H     1 <1>   0.0800 
 24 H       -2.4330     1.0940     2.6970 H     1 <1>   0.1000 
 25 H       -0.8060     0.3830     2.9390 H     1 <1>   0.1000 
 26 H        0.2370     2.5270     2.0610 H     1 <1>   0.1000 
 27 H       -1.3950     3.2160     1.8020 H     1 <1>   0.1000 
 28 H       -3.6710    -2.8670    -0.7570 H     1 <1>   0.0800 
 29 H       -4.2100    -1.3270    -2.5240 H     1 <1>   0.0800 
 30 H       -5.7710    -0.5470    -2.3790 H     1 <1>   0.0800 
 31 H       -1.7570    -1.1710    -2.3380 H     1 <1>   0.1500 
 32 H       -1.0450    -2.3330     1.7100 H     1 <1>   0.1500 
 33 H       -5.3230    -3.4720     0.9480 H     1 <1>   0.0800 
 34 H       -4.9680    -1.9970     1.8330 H     1 <1>   0.0800 
 35 H        0.3720    -2.1790    -2.9960 H     1 <1>   0.1500 
 36 H        1.0840    -3.3330     1.0410 H     1 <1>   0.1500 
 37 H       -3.2310    -4.1820     1.3630 H     1 <1>   0.4000 
 38 H        1.8000    -3.2620    -1.3120 H     1 <1>   0.1500 
@<TRIPOS>BOND
  1   1   2  2   
  2   2   3  am  
  3   2   4  1   
  4   3   5  1   
  5   3   6  1   
  6   4   7  1   
  7   4   8  1   
  8   4  20  1   
  9   5   9  1   
 10   5  10  1   
 11   5  21  1   
 12   6  11  1   
 13   6  22  1   
 14   6  23  1   
 15   7   8  1   
 16   7  24  1   
 17   7  25  1   
 18   8  26  1   
 19   8  27  1   
 20   9  12  ar  
 21   9  13  ar  
 22  10  14  1   
 23  10  15  1   
 24  10  28  1   
 25  11  14  1   
 26  11  29  1   
 27  11  30  1   
 28  12  16  ar  
 29  12  31  1   
 30  13  17  ar  
 31  13  32  1   
 32  15  18  1   
 33  15  33  1   
 34  15  34  1   
 35  16  19  ar  
 36  16  35  1   
 37  17  19  ar  
 38  17  36  1   
 39  18  37  1   
 40  19  38  1   
@<TRIPOS>SUBSTRUCTURE
  1 ****   5 GROUP 4 **** **** 0

# MOE 2024.06 (io_trps.svl 2023.06)
