@<TRIPOS>MOLECULE
NONAME
42 44 1 0 0 
SMALL
USER_CHARGES


@<TRIPOS>ATOM
  1 F       -0.1100    -8.0040     1.9290 F     1 <1>  -0.1900 
  2 C       -1.0280    -7.1080     1.6860 C.ar  1 <1>   0.1900 
  3 C       -1.0940    -6.5510     0.4220 C.ar  1 <1>  -0.1500 
  4 C       -1.8980    -6.7560     2.6990 C.ar  1 <1>  -0.1500 
  5 C       -2.0740    -5.6050     0.1600 C.ar  1 <1>  -0.1440 
  6 C       -2.8710    -5.8080     2.4320 C.ar  1 <1>  -0.1500 
  7 C       -2.9550    -5.2380     1.1700 C.ar  1 <1>  -0.1500 
  8 C       -2.2130    -4.9830    -1.2260 C.3   1 <1>   0.0450 
  9 C       -3.3740    -5.6060    -1.9780 C.2   1 <1>   0.5690 
 10 O       -4.2810    -4.9060    -2.3580 O.2   1 <1>  -0.5700 
 11 N       -3.3770    -6.9480    -2.1700 N.am  1 <1>  -0.7300 
 12 C       -4.5170    -7.7370    -2.6860 C.3   1 <1>   0.2200 
 13 C       -5.1960    -8.5040    -1.5560 C.3   1 <1>  -0.0800 
 14 C       -3.9750    -8.8900    -3.5190 C.3   1 <1>   0.1200 
 15 C       -4.3370    -9.7690    -1.4320 C.3   1 <1>   0.1200 
 16 C       -5.3770    -7.7370    -0.2320 C.3   1 <1>  -0.0170 
 17 O       -3.5560    -9.8440    -2.5900 O.3   1 <1>  -0.5600 
 18 C       -6.0720    -8.5930     0.8140 C.ar  1 <1>  -0.1430 
 19 C       -5.3750    -9.1900     1.8450 C.ar  1 <1>  -0.1500 
 20 C       -7.4330    -8.8160     0.7870 C.ar  1 <1>  -0.1500 
 21 C       -6.0540    -9.9660     2.7700 C.ar  1 <1>   0.1600 
 22 C       -8.0150    -9.6090     1.7630 C.ar  1 <1>   0.1600 
 23 N       -7.3580   -10.1910     2.7530 N.ar  1 <1>  -0.6200 
 24 H       -0.3900    -6.8610    -0.3290 H     1 <1>   0.1500 
 25 H       -1.8120    -7.2110     3.6690 H     1 <1>   0.1500 
 26 H       -3.5640    -5.5130     3.2030 H     1 <1>   0.1500 
 27 H       -3.7210    -4.5050     0.9750 H     1 <1>   0.1500 
 28 H       -1.3140    -5.1250    -1.7970 H     1 <1>   0.0800 
 29 H       -2.3810    -3.9260    -1.1340 H     1 <1>   0.0800 
 30 H       -2.6230    -7.5240    -1.7880 H     1 <1>   0.3700 
 31 H       -5.1970    -7.1120    -3.2390 H     1 <1>   0.0800 
 32 H       -6.1670    -8.8100    -1.9030 H     1 <1>   0.0800 
 33 H       -3.1490    -8.6020    -4.1440 H     1 <1>   0.0800 
 34 H       -4.7550    -9.3300    -4.1160 H     1 <1>   0.0800 
 35 H       -4.9430   -10.6560    -1.3590 H     1 <1>   0.0800 
 36 H       -3.6680    -9.7160    -0.5910 H     1 <1>   0.0800 
 37 H       -5.9540    -6.8460    -0.4090 H     1 <1>   0.0800 
 38 H       -4.4220    -7.4310     0.1560 H     1 <1>   0.0800 
 39 H       -4.3120    -9.0600     1.9390 H     1 <1>   0.1500 
 40 H       -8.0460    -8.3810     0.0200 H     1 <1>   0.1500 
 41 H       -5.4940   -10.4250     3.5670 H     1 <1>   0.1500 
 42 H       -9.0790    -9.7720     1.7270 H     1 <1>   0.1500 
@<TRIPOS>BOND
  1   1   2  1   
  2   2   3  ar  
  3   2   4  ar  
  4   3   5  ar  
  5   3  24  1   
  6   4   6  ar  
  7   4  25  1   
  8   5   7  ar  
  9   5   8  1   
 10   6   7  ar  
 11   6  26  1   
 12   7  27  1   
 13   8   9  1   
 14   8  28  1   
 15   8  29  1   
 16   9  10  2   
 17   9  11  am  
 18  11  12  1   
 19  11  30  1   
 20  12  13  1   
 21  12  14  1   
 22  12  31  1   
 23  13  15  1   
 24  13  16  1   
 25  13  32  1   
 26  14  17  1   
 27  14  33  1   
 28  14  34  1   
 29  15  17  1   
 30  15  35  1   
 31  15  36  1   
 32  16  18  1   
 33  16  37  1   
 34  16  38  1   
 35  18  19  ar  
 36  18  20  ar  
 37  19  21  ar  
 38  19  39  1   
 39  20  22  ar  
 40  20  40  1   
 41  21  23  ar  
 42  21  41  1   
 43  22  23  ar  
 44  22  42  1   
@<TRIPOS>SUBSTRUCTURE
  1 ****  16 GROUP 4 **** **** 0

# MOE 2024.06 (io_trps.svl 2023.06)
