@<TRIPOS>MOLECULE
NONAME
47 48 1 0 0 
SMALL
USER_CHARGES


@<TRIPOS>ATOM
  1 S        0.8280     0.7340    -1.4630 S.o2  1 <1>   1.3330 
  2 O        0.1720     0.4040    -2.7080 O.2   1 <1>  -0.6500 
  3 O        2.2710     0.7940    -1.4090 O.2   1 <1>  -0.6500 
  4 N        0.3140    -0.3960    -0.3030 N.am  1 <1>  -0.8490 
  5 C        0.1780     2.2880    -0.8470 C.3   1 <1>  -0.0550 
  6 C        1.1580    -1.5950    -0.2950 C.3   1 <1>   0.1160 
  7 C       -1.0940    -0.7830    -0.4540 C.3   1 <1>   0.1160 
  8 C        0.6710     2.6580     0.5630 C.3   1 <1>  -0.0800 
  9 C       -0.0650     3.8680     1.1170 C.3   1 <1>   0.2000 
 10 C        2.1480     3.0580     0.6240 C.3   1 <1>   0.2090 
 11 O       -1.2690     3.4680     1.6850 O.3   1 <1>  -0.6800 
 12 C        0.8910     4.4720     2.1390 C.3   1 <1>   0.2090 
 13 N        2.2550     4.1460     1.6380 N.pl3 1 <1>  -0.8380 
 14 C        3.0110     5.2320     1.2520 C.ar  1 <1>   0.4100 
 15 N        2.5200     5.9900     0.2780 N.ar  1 <1>  -0.6200 
 16 C        4.2240     5.4820     1.8830 C.ar  1 <1>  -0.1500 
 17 C        3.2530     7.0320    -0.0820 C.ar  1 <1>   0.1670 
 18 C        4.9810     6.5650     1.5090 C.ar  1 <1>  -0.1500 
 19 C        4.4720     7.3550     0.4980 C.ar  1 <1>  -0.1500 
 20 C        2.6810     7.8990    -1.2060 C.3   1 <1>   0.0630 
 21 C        3.6010     7.9110    -2.4340 C.3   1 <1>  -0.2400 
 22 C        2.3980     9.3290    -0.7260 C.3   1 <1>  -0.2400 
 23 H        0.4400     3.0750    -1.5280 H     1 <1>   0.0800 
 24 H       -0.8930     2.2280    -0.8270 H     1 <1>   0.0800 
 25 H        0.8190    -2.2860     0.4570 H     1 <1>   0.0800 
 26 H        2.1770    -1.3270    -0.0690 H     1 <1>   0.0800 
 27 H        1.1330    -2.0760    -1.2590 H     1 <1>   0.0800 
 28 H       -1.3840    -1.4410     0.3480 H     1 <1>   0.0800 
 29 H       -1.2480    -1.2880    -1.3940 H     1 <1>   0.0800 
 30 H       -1.7250     0.0880    -0.4210 H     1 <1>   0.0800 
 31 H        0.5370     1.8260     1.2320 H     1 <1>   0.0800 
 32 H       -0.2680     4.5930     0.3470 H     1 <1>   0.0800 
 33 H        2.4860     3.4170    -0.3350 H     1 <1>   0.0800 
 34 H        2.7620     2.2210     0.9110 H     1 <1>   0.0800 
 35 H       -1.1040     2.8390     2.4130 H     1 <1>   0.4000 
 36 H        0.7610     4.0170     3.1040 H     1 <1>   0.0800 
 37 H        0.7460     5.5370     2.2150 H     1 <1>   0.0800 
 38 H        4.5450     4.8150     2.6590 H     1 <1>   0.1500 
 39 H        5.9240     6.7880     1.9790 H     1 <1>   0.1500 
 40 H        5.0240     8.2150     0.1660 H     1 <1>   0.1500 
 41 H        1.7410     7.4670    -1.5100 H     1 <1>   0.0800 
 42 H        4.5420     8.3790    -2.2070 H     1 <1>   0.0800 
 43 H        3.1360     8.4470    -3.2420 H     1 <1>   0.0800 
 44 H        3.7870     6.9010    -2.7560 H     1 <1>   0.0800 
 45 H        3.3080     9.8300    -0.4520 H     1 <1>   0.0800 
 46 H        1.7480     9.3020     0.1310 H     1 <1>   0.0800 
 47 H        1.9140     9.8930    -1.5030 H     1 <1>   0.0800 
@<TRIPOS>BOND
  1   1   2  2   
  2   1   3  2   
  3   1   4  am  
  4   1   5  1   
  5   4   6  1   
  6   4   7  1   
  7   5   8  1   
  8   5  23  1   
  9   5  24  1   
 10   6  25  1   
 11   6  26  1   
 12   6  27  1   
 13   7  28  1   
 14   7  29  1   
 15   7  30  1   
 16   8   9  1   
 17   8  10  1   
 18   8  31  1   
 19   9  11  1   
 20   9  12  1   
 21   9  32  1   
 22  10  13  1   
 23  10  33  1   
 24  10  34  1   
 25  11  35  1   
 26  12  13  1   
 27  12  36  1   
 28  12  37  1   
 29  13  14  1   
 30  14  15  ar  
 31  14  16  ar  
 32  15  17  ar  
 33  16  18  ar  
 34  16  38  1   
 35  17  19  ar  
 36  17  20  1   
 37  18  19  ar  
 38  18  39  1   
 39  19  40  1   
 40  20  21  1   
 41  20  22  1   
 42  20  41  1   
 43  21  42  1   
 44  21  43  1   
 45  21  44  1   
 46  22  45  1   
 47  22  46  1   
 48  22  47  1   
@<TRIPOS>SUBSTRUCTURE
  1 ****  10 GROUP 4 **** **** 0

# MOE 2024.06 (io_trps.svl 2023.06)
