@<TRIPOS>MOLECULE
NONAME
51 54 1 0 0 
SMALL
USER_CHARGES


@<TRIPOS>ATOM
  1 O       -0.7990     0.0990     1.9590 O.2   1 <1>  -0.5700 
  2 C       -1.5080     0.7350     1.2170 C.2   1 <1>   0.5690 
  3 N       -2.4290     0.1160     0.4180 N.am  1 <1>  -0.6600 
  4 C       -1.3510     2.2470     1.2010 C.3   1 <1>  -0.0990 
  5 C       -3.3900     0.7530    -0.5180 C.3   1 <1>   0.1400 
  6 C       -2.5860    -1.3590     0.3910 C.3   1 <1>   0.1400 
  7 C       -0.5770     2.7530    -0.0280 C.3   1 <1>  -0.0800 
  8 C       -4.4380    -0.3290    -0.7720 C.3   1 <1>   0.2000 
  9 C       -3.6350    -1.6340    -0.6960 C.3   1 <1>  -0.0800 
 10 C        0.8470     2.2080    -0.1230 C.3   1 <1>  -0.1600 
 11 C       -0.3780     4.2670    -0.0270 C.3   1 <1>  -0.1600 
 12 O       -5.3580    -0.2840     0.2650 O.3   1 <1>  -0.6800 
 13 C       -4.4860    -2.8980    -0.4470 C.3   1 <1>  -0.0170 
 14 C        1.6010     3.2050    -1.0060 C.3   1 <1>  -0.1600 
 15 C        0.7880     4.5050    -0.9860 C.3   1 <1>  -0.1600 
 16 C       -3.7570    -4.2460    -0.5140 C.ar  1 <1>  -0.1440 
 17 C       -4.4330    -5.4270    -0.1170 C.ar  1 <1>   0.0000 
 18 C       -2.4700    -4.3900    -0.9520 C.ar  1 <1>  -0.1500 
 19 C       -3.7250    -6.6530    -0.1790 C.ar  1 <1>   0.3100 
 20 C       -5.7750    -5.4670     0.3330 C.ar  1 <1>  -0.1500 
 21 C       -1.8630    -5.6520    -0.9770 C.ar  1 <1>   0.1600 
 22 N       -2.4430    -6.7480    -0.6090 N.ar  1 <1>  -0.6200 
 23 C       -4.3710    -7.8360     0.2170 C.ar  1 <1>  -0.1500 
 24 C       -6.3760    -6.6370     0.7090 C.ar  1 <1>  -0.1500 
 25 C       -5.6670    -7.8390     0.6530 C.ar  1 <1>  -0.1500 
 26 H       -2.3210     2.7060     1.2390 H     1 <1>   0.0800 
 27 H       -0.8290     2.5370     2.0950 H     1 <1>   0.0800 
 28 H       -3.8340     1.6440    -0.1090 H     1 <1>   0.0800 
 29 H       -2.8820     0.9880    -1.4370 H     1 <1>   0.0800 
 30 H       -1.6430    -1.8310     0.1740 H     1 <1>   0.0800 
 31 H       -2.9300    -1.6920     1.3550 H     1 <1>   0.0800 
 32 H       -1.1020     2.4830    -0.9280 H     1 <1>   0.0800 
 33 H       -4.9630    -0.2010    -1.7030 H     1 <1>   0.0800 
 34 H       -3.1250    -1.7390    -1.6370 H     1 <1>   0.0800 
 35 H        1.2970     2.1940     0.8560 H     1 <1>   0.0800 
 36 H        0.8710     1.2110    -0.5290 H     1 <1>   0.0800 
 37 H       -1.2660     4.7930    -0.3340 H     1 <1>   0.0800 
 38 H       -0.0950     4.5970     0.9580 H     1 <1>   0.0800 
 39 H       -4.8720    -0.2600     1.1140 H     1 <1>   0.4000 
 40 H       -5.2850    -2.9160    -1.1680 H     1 <1>   0.0800 
 41 H       -4.9350    -2.8100     0.5270 H     1 <1>   0.0800 
 42 H        2.5980     3.3630    -0.6310 H     1 <1>   0.0800 
 43 H        1.6640     2.8320    -2.0140 H     1 <1>   0.0800 
 44 H        0.4100     4.7060    -1.9740 H     1 <1>   0.0800 
 45 H        1.3870     5.3410    -0.6670 H     1 <1>   0.0800 
 46 H       -1.8730    -3.5670    -1.2920 H     1 <1>   0.1500 
 47 H       -6.3470    -4.5590     0.3800 H     1 <1>   0.1500 
 48 H       -0.8460    -5.7130    -1.3260 H     1 <1>   0.1500 
 49 H       -3.8050    -8.7480     0.1630 H     1 <1>   0.1500 
 50 H       -7.3970    -6.6480     1.0500 H     1 <1>   0.1500 
 51 H       -6.1500    -8.7530     0.9530 H     1 <1>   0.1500 
@<TRIPOS>BOND
  1   1   2  2   
  2   2   3  am  
  3   2   4  1   
  4   3   5  1   
  5   3   6  1   
  6   4   7  1   
  7   4  26  1   
  8   4  27  1   
  9   5   8  1   
 10   5  28  1   
 11   5  29  1   
 12   6   9  1   
 13   6  30  1   
 14   6  31  1   
 15   7  10  1   
 16   7  11  1   
 17   7  32  1   
 18   8   9  1   
 19   8  12  1   
 20   8  33  1   
 21   9  13  1   
 22   9  34  1   
 23  10  14  1   
 24  10  35  1   
 25  10  36  1   
 26  11  15  1   
 27  11  37  1   
 28  11  38  1   
 29  12  39  1   
 30  13  16  1   
 31  13  40  1   
 32  13  41  1   
 33  14  15  1   
 34  14  42  1   
 35  14  43  1   
 36  15  44  1   
 37  15  45  1   
 38  16  17  ar  
 39  16  18  ar  
 40  17  19  ar  
 41  17  20  ar  
 42  18  21  ar  
 43  18  46  1   
 44  19  22  ar  
 45  19  23  ar  
 46  20  24  ar  
 47  20  47  1   
 48  21  22  ar  
 49  21  48  1   
 50  23  25  ar  
 51  23  49  1   
 52  24  25  ar  
 53  24  50  1   
 54  25  51  1   
@<TRIPOS>SUBSTRUCTURE
  1 ****   6 GROUP 4 **** **** 0

# MOE 2024.06 (io_trps.svl 2023.06)
