@<TRIPOS>MOLECULE
NONAME
51 55 1 0 0 
SMALL
USER_CHARGES


@<TRIPOS>ATOM
  1 O        1.0390    -0.8040    -1.9400 O.3   1 <1>  -0.5600 
  2 C        1.9720    -0.8680    -0.8860 C.3   1 <1>   0.4240 
  3 C       -0.2900    -1.1020    -1.6440 C.3   1 <1>   0.1200 
  4 C        1.6860    -2.0540     0.0620 C.ar  1 <1>  -0.1440 
  5 C        1.9300     0.4700    -0.1270 C.3   1 <1>  -0.1600 
  6 C        3.3360    -1.0520    -1.5690 C.3   1 <1>  -0.1600 
  7 C       -0.3890    -2.5730    -1.2510 C.3   1 <1>  -0.0160 
  8 C        0.5700    -2.8650    -0.1140 C.ar  1 <1>  -0.1440 
  9 C        2.5450    -2.3300     1.1210 C.ar  1 <1>  -0.1500 
 10 C        2.3030     1.6450    -1.0290 C.3   1 <1>   0.2090 
 11 C        3.6940     0.1410    -2.4550 C.3   1 <1>   0.2090 
 12 C        0.3260    -3.9300     0.7390 C.ar  1 <1>  -0.1500 
 13 C        2.3010    -3.3900     1.9740 C.ar  1 <1>  -0.1500 
 14 N        3.6310     1.3760    -1.6330 N.pl3 1 <1>  -0.8220 
 15 C        1.1940    -4.1990     1.7910 C.ar  1 <1>   0.0820 
 16 C        4.7720     2.0220    -1.1860 C.2   1 <1>   0.5620 
 17 O        1.0290    -5.2190     2.6700 O.3   1 <1>  -0.3630 
 18 O        5.9600     1.7060    -1.6200 O.3   1 <1>  -0.0190 
 19 N        4.8270     2.9600    -0.3200 N.2   1 <1>  -0.5650 
 20 C       -0.0550    -6.1140     2.5590 C.3   1 <1>   0.0400 
 21 N        6.8440     2.4410    -1.0390 N.2   1 <1>  -0.4100 
 22 C        6.1560     3.2000    -0.2560 C.2   1 <1>   0.4620 
 23 C        6.7130     4.2170     0.6230 C.ar  1 <1>   0.0540 
 24 C        8.0910     4.4360     0.6950 C.ar  1 <1>  -0.1500 
 25 C        5.9010     5.0170     1.4310 C.ar  1 <1>  -0.1500 
 26 C        8.6310     5.3990     1.5290 C.ar  1 <1>  -0.1500 
 27 C        6.4340     5.9810     2.2670 C.ar  1 <1>  -0.1500 
 28 C        7.8020     6.1740     2.3180 C.ar  1 <1>  -0.1500 
 29 H       -0.8760    -0.9080    -2.5240 H     1 <1>   0.0800 
 30 H       -0.6290    -0.4650    -0.8460 H     1 <1>   0.0800 
 31 H        2.6290     0.4450     0.6870 H     1 <1>   0.0800 
 32 H        0.9580     0.6260     0.2980 H     1 <1>   0.0800 
 33 H        3.3170    -1.9510    -2.1570 H     1 <1>   0.0800 
 34 H        4.1090    -1.1620    -0.8330 H     1 <1>   0.0800 
 35 H       -0.1430    -3.1870    -2.0990 H     1 <1>   0.0800 
 36 H       -1.3980    -2.7920    -0.9540 H     1 <1>   0.0800 
 37 H        3.4150    -1.7210     1.2940 H     1 <1>   0.1500 
 38 H        2.3220     2.5580    -0.4580 H     1 <1>   0.0800 
 39 H        1.5740     1.7580    -1.8140 H     1 <1>   0.0800 
 40 H        2.9920     0.2220    -3.2690 H     1 <1>   0.0800 
 41 H        4.6760     0.0070    -2.8740 H     1 <1>   0.0800 
 42 H       -0.5410    -4.5400     0.5740 H     1 <1>   0.1500 
 43 H        2.9700    -3.5980     2.7900 H     1 <1>   0.1500 
 44 H        0.0270    -6.8360     3.3510 H     1 <1>   0.0800 
 45 H       -0.0010    -6.6090     1.6060 H     1 <1>   0.0800 
 46 H       -0.9730    -5.5640     2.6590 H     1 <1>   0.0800 
 47 H        8.7530     3.8420     0.0890 H     1 <1>   0.1500 
 48 H        4.8340     4.8820     1.4040 H     1 <1>   0.1500 
 49 H        9.6970     5.5450     1.5640 H     1 <1>   0.1500 
 50 H        5.7830     6.5830     2.8780 H     1 <1>   0.1500 
 51 H        8.2190     6.9240     2.9680 H     1 <1>   0.1500 
@<TRIPOS>BOND
  1   1   2  1   
  2   1   3  1   
  3   2   4  1   
  4   2   5  1   
  5   2   6  1   
  6   3   7  1   
  7   3  29  1   
  8   3  30  1   
  9   4   8  ar  
 10   4   9  ar  
 11   5  10  1   
 12   5  31  1   
 13   5  32  1   
 14   6  11  1   
 15   6  33  1   
 16   6  34  1   
 17   7   8  1   
 18   7  35  1   
 19   7  36  1   
 20   8  12  ar  
 21   9  13  ar  
 22   9  37  1   
 23  10  14  1   
 24  10  38  1   
 25  10  39  1   
 26  11  14  1   
 27  11  40  1   
 28  11  41  1   
 29  12  15  ar  
 30  12  42  1   
 31  13  15  ar  
 32  13  43  1   
 33  14  16  1   
 34  15  17  1   
 35  16  18  1   
 36  16  19  2   
 37  17  20  1   
 38  18  21  1   
 39  19  22  1   
 40  20  44  1   
 41  20  45  1   
 42  20  46  1   
 43  21  22  2   
 44  22  23  1   
 45  23  24  ar  
 46  23  25  ar  
 47  24  26  ar  
 48  24  47  1   
 49  25  27  ar  
 50  25  48  1   
 51  26  28  ar  
 52  26  49  1   
 53  27  28  ar  
 54  27  50  1   
 55  28  51  1   
@<TRIPOS>SUBSTRUCTURE
  1 ****   5 GROUP 4 **** **** 0

# MOE 2024.06 (io_trps.svl 2023.06)
