@<TRIPOS>MOLECULE
NONAME
42 43 1 0 0 
SMALL
USER_CHARGES


@<TRIPOS>ATOM
  1 O        1.1390     4.5500     2.9950 O.co2 1 <1>  -0.9000 
  2 C        0.0030     4.0870     2.7310 C.2   1 <1>   0.9790 
  3 O       -0.6870     3.6490     3.6700 O.co2 1 <1>  -0.9000 
  4 C       -0.5250     4.1290     1.3610 C.ar  1 <1>   0.1310 
  5 N        0.2880     4.3700     0.3400 N.ar  1 <1>  -0.6200 
  6 C       -1.8730     3.9720     1.0850 C.ar  1 <1>  -0.1500 
  7 C       -0.2330     4.5820    -0.8480 C.ar  1 <1>   0.7200 
  8 C       -2.3160     4.1460    -0.2080 C.ar  1 <1>   0.1660 
  9 N       -1.5060     4.4790    -1.1880 N.ar  1 <1>  -0.6200 
 10 N        0.6600     5.0520    -1.7770 N.pl3 1 <1>  -0.8380 
 11 C       -3.7780     3.9780    -0.5570 C.3   1 <1>  -0.0970 
 12 C        0.9210     6.5150    -1.7280 C.3   1 <1>   0.2090 
 13 C        1.7950     4.1750    -2.1460 C.3   1 <1>   0.2090 
 14 C        1.4570     6.9830    -0.3500 C.3   1 <1>   0.3430 
 15 C        3.1440     4.7090    -1.6450 C.3   1 <1>  -0.1600 
 16 N        2.8350     6.5300     0.1110 N.4   1 <1>  -0.9590 
 17 C        3.1420     5.0800    -0.1590 C.3   1 <1>   0.3430 
 18 C        2.9240     6.7740     1.5900 C.3   1 <1>   0.4230 
 19 C        2.7530     8.2680     1.8850 C.3   1 <1>  -0.2400 
 20 C        4.2790     6.3260     2.1500 C.3   1 <1>  -0.2400 
 21 H       -2.5460     3.7290     1.8880 H     1 <1>   0.1500 
 22 H       -4.3520     3.7080     0.3110 H     1 <1>   0.0800 
 23 H       -3.8840     3.2080    -1.2980 H     1 <1>   0.0800 
 24 H       -4.1610     4.9000    -0.9560 H     1 <1>   0.0800 
 25 H       -0.0150     7.0160    -1.9060 H     1 <1>   0.0800 
 26 H        1.5910     6.8080    -2.5170 H     1 <1>   0.0800 
 27 H        1.8190     4.0720    -3.2180 H     1 <1>   0.0800 
 28 H        1.6250     3.1930    -1.7330 H     1 <1>   0.0800 
 29 H        0.7350     6.6760     0.3900 H     1 <1>   0.0800 
 30 H        1.4430     8.0580    -0.3560 H     1 <1>   0.0800 
 31 H        3.4890     5.5270    -2.2490 H     1 <1>   0.0800 
 32 H        3.8510     3.9110    -1.7760 H     1 <1>   0.0800 
 33 H        3.5510     7.0980    -0.3440 H     1 <1>   0.4500 
 34 H        4.1330     4.8730     0.2060 H     1 <1>   0.0800 
 35 H        2.4810     4.4390     0.3970 H     1 <1>   0.0800 
 36 H        2.1430     6.2270     2.0950 H     1 <1>   0.0800 
 37 H        3.4610     8.8580     1.3310 H     1 <1>   0.0800 
 38 H        2.9180     8.4440     2.9330 H     1 <1>   0.0800 
 39 H        1.7530     8.6000     1.6800 H     1 <1>   0.0800 
 40 H        5.0950     6.7330     1.5830 H     1 <1>   0.0800 
 41 H        4.3420     5.2540     2.1870 H     1 <1>   0.0800 
 42 H        4.3730     6.6590     3.1690 H     1 <1>   0.0800 
@<TRIPOS>BOND
  1   1   2  ar  
  2   2   3  ar  
  3   2   4  1   
  4   4   5  ar  
  5   4   6  ar  
  6   5   7  ar  
  7   6   8  ar  
  8   6  21  1   
  9   7   9  ar  
 10   7  10  1   
 11   8   9  ar  
 12   8  11  1   
 13  10  12  1   
 14  10  13  1   
 15  11  22  1   
 16  11  23  1   
 17  11  24  1   
 18  12  14  1   
 19  12  25  1   
 20  12  26  1   
 21  13  15  1   
 22  13  27  1   
 23  13  28  1   
 24  14  16  1   
 25  14  29  1   
 26  14  30  1   
 27  15  17  1   
 28  15  31  1   
 29  15  32  1   
 30  16  17  1   
 31  16  18  1   
 32  16  33  1   
 33  17  34  1   
 34  17  35  1   
 35  18  19  1   
 36  18  20  1   
 37  18  36  1   
 38  19  37  1   
 39  19  38  1   
 40  19  39  1   
 41  20  40  1   
 42  20  41  1   
 43  20  42  1   
@<TRIPOS>SUBSTRUCTURE
  1 ****   5 GROUP 4 **** **** 0

# MOE 2024.06 (io_trps.svl 2023.06)
