@<TRIPOS>MOLECULE
NONAME
50 53 1 0 0 
SMALL
USER_CHARGES


@<TRIPOS>ATOM
  1 S       -0.5830     0.2380    -0.0890 S.o2  1 <1>   1.0900 
  2 O       -0.6820     1.4660     0.6630 O.2   1 <1>  -0.6500 
  3 O        0.6430    -0.1660    -0.7360 O.2   1 <1>  -0.6500 
  4 C       -1.1530    -1.1330     0.8730 C.3   1 <1>  -0.0550 
  5 C       -1.9010     0.1270    -1.2910 C.3   1 <1>  -0.0550 
  6 C       -1.7460    -2.0890    -0.1600 C.3   1 <1>   0.1760 
  7 C       -2.5880    -1.2420    -1.1350 C.3   1 <1>  -0.1600 
  8 N       -2.5600    -3.1530     0.4790 N.pl3 1 <1>   0.3140 
  9 N       -3.4720    -2.8540     1.4220 N.2   1 <1>  -0.7070 
 10 C       -2.5550    -4.4810     0.1950 C.2   1 <1>  -0.3320 
 11 C       -4.0360    -3.9850     1.7140 C.2   1 <1>   0.1080 
 12 C       -3.5030    -5.0460     0.9750 C.2   1 <1>   0.0630 
 13 C       -1.6440    -5.1380    -0.8330 C.3   1 <1>  -0.0600 
 14 C       -5.1310    -4.0780     2.7530 C.3   1 <1>  -0.0590 
 15 N       -3.8320    -6.4240     1.0130 N.am  1 <1>  -0.4930 
 16 C       -5.0660    -7.0190     0.9650 C.2   1 <1>   0.5440 
 17 O       -6.0700    -6.3330     0.9360 O.2   1 <1>  -0.5700 
 18 C       -5.1740    -8.4670     0.9550 C.ar  1 <1>   0.0860 
 19 C       -4.2160    -9.2830     0.3490 C.ar  1 <1>  -0.1500 
 20 C       -6.2590    -9.1040     1.5580 C.ar  1 <1>  -0.1500 
 21 C       -4.3300   -10.6610     0.3570 C.ar  1 <1>  -0.1500 
 22 C       -6.3800   -10.4810     1.5690 C.ar  1 <1>  -0.1500 
 23 C       -5.4140   -11.2710     0.9690 C.ar  1 <1>  -0.1440 
 24 C       -5.5440   -12.7900     0.9680 C.3   1 <1>   0.2390 
 25 N       -5.9460   -13.2970    -0.3580 N.pl3 1 <1>   0.3140 
 26 N       -5.6670   -14.5140    -0.7710 N.2   1 <1>  -0.4180 
 27 C       -6.6200   -12.6990    -1.3230 C.2   1 <1>   0.0360 
 28 N       -6.1660   -14.6210    -1.9510 N.2   1 <1>   0.0000 
 29 N       -6.7670   -13.4920    -2.3120 N.2   1 <1>  -0.3380 
 30 H       -1.9180    -0.8020     1.5500 H     1 <1>   0.0800 
 31 H       -0.3530    -1.5900     1.4220 H     1 <1>   0.0800 
 32 H       -1.5020     0.2380    -2.2810 H     1 <1>   0.0800 
 33 H       -2.6190     0.9090    -1.1250 H     1 <1>   0.0800 
 34 H       -0.9360    -2.5460    -0.7000 H     1 <1>   0.0800 
 35 H       -2.6860    -1.7360    -2.0860 H     1 <1>   0.0800 
 36 H       -3.5720    -1.0870    -0.7210 H     1 <1>   0.0800 
 37 H       -1.7930    -4.6900    -1.8000 H     1 <1>   0.0800 
 38 H       -1.8610    -6.1880    -0.9160 H     1 <1>   0.0800 
 39 H       -0.6140    -5.0240    -0.5470 H     1 <1>   0.0800 
 40 H       -5.0100    -3.2990     3.4830 H     1 <1>   0.0800 
 41 H       -5.0960    -5.0290     3.2480 H     1 <1>   0.0800 
 42 H       -6.0860    -3.9650     2.2750 H     1 <1>   0.0800 
 43 H       -3.0280    -7.0440     1.0410 H     1 <1>   0.3700 
 44 H       -3.3730    -8.8370    -0.1490 H     1 <1>   0.1500 
 45 H       -7.0190    -8.4980     2.0230 H     1 <1>   0.1500 
 46 H       -3.5700   -11.2570    -0.1230 H     1 <1>   0.1500 
 47 H       -7.2360   -10.9260     2.0490 H     1 <1>   0.1500 
 48 H       -6.2770   -13.1080     1.6860 H     1 <1>   0.0800 
 49 H       -4.6020   -13.2370     1.2290 H     1 <1>   0.0800 
 50 H       -6.9830   -11.6890    -1.2670 H     1 <1>   0.1500 
@<TRIPOS>BOND
  1   1   2  2   
  2   1   3  2   
  3   1   4  1   
  4   1   5  1   
  5   4   6  1   
  6   4  30  1   
  7   4  31  1   
  8   5   7  1   
  9   5  32  1   
 10   5  33  1   
 11   6   7  1   
 12   6   8  1   
 13   6  34  1   
 14   7  35  1   
 15   7  36  1   
 16   8   9  1   
 17   8  10  1   
 18   9  11  2   
 19  10  12  2   
 20  10  13  1   
 21  11  12  1   
 22  11  14  1   
 23  12  15  1   
 24  13  37  1   
 25  13  38  1   
 26  13  39  1   
 27  14  40  1   
 28  14  41  1   
 29  14  42  1   
 30  15  16  am  
 31  15  43  1   
 32  16  17  2   
 33  16  18  1   
 34  18  19  ar  
 35  18  20  ar  
 36  19  21  ar  
 37  19  44  1   
 38  20  22  ar  
 39  20  45  1   
 40  21  23  ar  
 41  21  46  1   
 42  22  23  ar  
 43  22  47  1   
 44  23  24  1   
 45  24  25  1   
 46  24  48  1   
 47  24  49  1   
 48  25  26  1   
 49  25  27  1   
 50  26  28  2   
 51  27  29  2   
 52  27  50  1   
 53  28  29  1   
@<TRIPOS>SUBSTRUCTURE
  1 ****  15 GROUP 4 **** **** 0

# MOE 2024.06 (io_trps.svl 2023.06)
