@<TRIPOS>MOLECULE
NONAME
45 46 1 0 0 
SMALL
USER_CHARGES


@<TRIPOS>ATOM
  1 CL      -2.0800    -1.2980    -3.2240 Cl    1 <1>  -0.1770 
  2 C       -2.7350    -1.6780    -1.6520 C.ar  1 <1>   0.1770 
  3 C       -2.9220    -3.0000    -1.2980 C.ar  1 <1>  -0.1500 
  4 C       -3.0550    -0.6490    -0.7860 C.ar  1 <1>  -0.1500 
  5 C       -3.4430    -3.3050    -0.0500 C.ar  1 <1>   0.0830 
  6 C       -3.5730    -0.9510     0.4620 C.ar  1 <1>  -0.1500 
  7 O       -3.6050    -4.6200     0.2340 O.3   1 <1>  -0.3630 
  8 C       -3.7670    -2.2730     0.8310 C.ar  1 <1>  -0.1500 
  9 C       -4.1270    -5.0460     1.4850 C.3   1 <1>   0.1810 
 10 C       -4.2120    -6.5670     1.5760 C.2   1 <1>   0.5690 
 11 O       -3.6120    -7.1090     2.4750 O.2   1 <1>  -0.5700 
 12 N       -4.9750    -7.2920     0.6960 N.am  1 <1>  -0.6600 
 13 C       -5.7120    -6.7600    -0.4770 C.3   1 <1>   0.1400 
 14 C       -5.1070    -8.7650     0.7830 C.3   1 <1>   0.1400 
 15 C       -6.2260    -8.0000    -1.2080 C.3   1 <1>   0.2000 
 16 C       -6.2600    -9.1110    -0.1610 C.3   1 <1>  -0.0800 
 17 O       -7.4930    -7.8050    -1.7310 O.3   1 <1>  -0.6800 
 18 C       -6.1670   -10.5100    -0.7940 C.3   1 <1>  -0.0550 
 19 S       -6.3210   -11.8360     0.4010 S.o2  1 <1>   1.3330 
 20 O       -7.6250   -11.7250     1.0140 O.2   1 <1>  -0.6500 
 21 O       -5.1380   -11.8610     1.2300 O.2   1 <1>  -0.6500 
 22 N       -6.3040   -13.2260    -0.5750 N.am  1 <1>  -0.8490 
 23 C       -4.9520   -13.6830    -0.9140 C.3   1 <1>   0.1160 
 24 C       -7.0680   -14.3290     0.0160 C.3   1 <1>   0.1160 
 25 H       -2.6650    -3.7850    -1.9830 H     1 <1>   0.1500 
 26 H       -2.8980     0.3710    -1.0880 H     1 <1>   0.1500 
 27 H       -3.8250    -0.1580     1.1450 H     1 <1>   0.1500 
 28 H       -4.1690    -2.4750     1.8060 H     1 <1>   0.1500 
 29 H       -3.4770    -4.6830     2.2600 H     1 <1>   0.0800 
 30 H       -5.1090    -4.6280     1.6050 H     1 <1>   0.0800 
 31 H       -6.5270    -6.1440    -0.1380 H     1 <1>   0.0800 
 32 H       -5.0550    -6.1950    -1.1150 H     1 <1>   0.0800 
 33 H       -4.1850    -9.2170     0.4570 H     1 <1>   0.0800 
 34 H       -5.3120    -9.0740     1.7950 H     1 <1>   0.0800 
 35 H       -5.5580    -8.2430    -2.0180 H     1 <1>   0.0800 
 36 H       -7.1710    -9.0360     0.4090 H     1 <1>   0.0800 
 37 H       -8.1410    -7.6480    -1.0170 H     1 <1>   0.4000 
 38 H       -5.2360   -10.6050    -1.3160 H     1 <1>   0.0800 
 39 H       -6.9570   -10.6090    -1.5130 H     1 <1>   0.0800 
 40 H       -5.0030   -14.5080    -1.6050 H     1 <1>   0.0800 
 41 H       -4.4270   -14.0000    -0.0280 H     1 <1>   0.0800 
 42 H       -4.3950   -12.8860    -1.3780 H     1 <1>   0.0800 
 43 H       -7.0500   -15.1870    -0.6340 H     1 <1>   0.0800 
 44 H       -8.0960   -14.0340     0.1520 H     1 <1>   0.0800 
 45 H       -6.6560   -14.5990     0.9750 H     1 <1>   0.0800 
@<TRIPOS>BOND
  1   1   2  1   
  2   2   3  ar  
  3   2   4  ar  
  4   3   5  ar  
  5   3  25  1   
  6   4   6  ar  
  7   4  26  1   
  8   5   7  1   
  9   5   8  ar  
 10   6   8  ar  
 11   6  27  1   
 12   7   9  1   
 13   8  28  1   
 14   9  10  1   
 15   9  29  1   
 16   9  30  1   
 17  10  11  2   
 18  10  12  am  
 19  12  13  1   
 20  12  14  1   
 21  13  15  1   
 22  13  31  1   
 23  13  32  1   
 24  14  16  1   
 25  14  33  1   
 26  14  34  1   
 27  15  16  1   
 28  15  17  1   
 29  15  35  1   
 30  16  18  1   
 31  16  36  1   
 32  17  37  1   
 33  18  19  1   
 34  18  38  1   
 35  18  39  1   
 36  19  20  2   
 37  19  21  2   
 38  19  22  am  
 39  22  23  1   
 40  22  24  1   
 41  23  40  1   
 42  23  41  1   
 43  23  42  1   
 44  24  43  1   
 45  24  44  1   
 46  24  45  1   
@<TRIPOS>SUBSTRUCTURE
  1 ****  12 GROUP 4 **** **** 0

# MOE 2024.06 (io_trps.svl 2023.06)
