@<TRIPOS>MOLECULE
NONAME
23 23 1 0 0 
SMALL
USER_CHARGES


@<TRIPOS>ATOM
  1 O        0.8000     1.2700     1.5000 O.2   1 <1>  -0.5700 
  2 C        0.4800     1.9560     0.5600 C.2   1 <1>   0.6590 
  3 O       -0.7540     1.9540     0.0740 O.3   1 <1>  -0.4300 
  4 C        1.4670     2.8840    -0.1220 C.3   1 <1>   0.0810 
  5 C       -1.7630     1.1370     0.6210 C.3   1 <1>   0.1200 
  6 C        2.7640     2.1870    -0.4970 C.2   1 <1>   0.0060 
  7 C       -3.0450     1.3770    -0.1690 C.3   1 <1>  -0.2400 
  8 N        3.3420     1.2300     0.2310 N.pl3 1 <1>   0.0330 
  9 N        3.4530     2.4470    -1.5540 N.2   1 <1>  -0.3380 
 10 C        4.4350     0.9270    -0.4660 C.2   1 <1>   0.0070 
 11 N        4.5200     1.6430    -1.5330 N.2   1 <1>  -0.3380 
 12 C        5.4370    -0.1270    -0.0470 C.3   1 <1>  -0.0600 
 13 H        1.6860     3.6980     0.5410 H     1 <1>   0.0800 
 14 H        1.0180     3.2880    -1.0100 H     1 <1>   0.0800 
 15 H       -1.8920     1.4000     1.6580 H     1 <1>   0.0800 
 16 H       -1.4490     0.1090     0.5450 H     1 <1>   0.0800 
 17 H       -3.3420     2.4080    -0.0920 H     1 <1>   0.0800 
 18 H       -3.8350     0.7640     0.2260 H     1 <1>   0.0800 
 19 H       -2.8970     1.1200    -1.2030 H     1 <1>   0.0800 
 20 H        2.9930     0.8280     1.1070 H     1 <1>   0.2700 
 21 H        5.8630     0.1260     0.9060 H     1 <1>   0.0800 
 22 H        6.2280    -0.1860    -0.7740 H     1 <1>   0.0800 
 23 H        4.9580    -1.0870     0.0190 H     1 <1>   0.0800 
@<TRIPOS>BOND
  1   1   2  2   
  2   2   3  1   
  3   2   4  1   
  4   3   5  1   
  5   4   6  1   
  6   4  13  1   
  7   4  14  1   
  8   5   7  1   
  9   5  15  1   
 10   5  16  1   
 11   6   8  1   
 12   6   9  2   
 13   7  17  1   
 14   7  18  1   
 15   7  19  1   
 16   8  10  1   
 17   8  20  1   
 18   9  11  1   
 19  10  11  2   
 20  10  12  1   
 21  12  21  1   
 22  12  22  1   
 23  12  23  1   
@<TRIPOS>SUBSTRUCTURE
  1 ****   6 GROUP 4 **** **** 0

# MOE 2024.06 (io_trps.svl 2023.06)
