@<TRIPOS>MOLECULE
NONAME
47 48 1 0 0 
SMALL
USER_CHARGES


@<TRIPOS>ATOM
  1 F       -0.1500    -1.3280     1.5890 F     1 <1>  -0.3400 
  2 C       -0.3420    -2.6310     1.7350 C.3   1 <1>   0.8800 
  3 F        0.5250    -3.0260     2.6580 F     1 <1>  -0.3400 
  4 O       -0.0170    -3.2560     0.5150 O.3   1 <1>  -0.3630 
  5 C       -0.3910    -4.5360     0.2710 C.ar  1 <1>   0.0830 
  6 C       -0.9470    -5.3820     1.2270 C.ar  1 <1>  -0.1500 
  7 C       -0.2020    -5.0030    -1.0200 C.ar  1 <1>  -0.1500 
  8 C       -1.3120    -6.6710     0.8810 C.ar  1 <1>  -0.1500 
  9 C       -0.5660    -6.2930    -1.3640 C.ar  1 <1>  -0.1500 
 10 C       -1.1270    -7.1350    -0.4150 C.ar  1 <1>  -0.1440 
 11 C       -1.5390    -8.5500    -0.7860 C.3   1 <1>   0.4870 
 12 N       -2.9860    -8.7110    -0.5580 N.4   1 <1>  -0.9590 
 13 C       -3.4700   -10.1400    -0.6210 C.3   1 <1>   0.3430 
 14 C       -3.8670    -7.7680    -1.2940 C.3   1 <1>   0.3430 
 15 C       -5.0190   -10.2430    -0.6470 C.3   1 <1>   0.2000 
 16 C       -5.2660    -7.7380    -0.6440 C.3   1 <1>  -0.1600 
 17 O       -5.4280   -10.2280    -1.9810 O.3   1 <1>  -0.6800 
 18 C       -5.6430    -9.0520     0.1220 C.3   1 <1>  -0.1060 
 19 C       -4.9450    -9.1110     1.4980 C.2   1 <1>   0.9060 
 20 C       -7.1800    -9.1560     0.3610 C.3   1 <1>  -0.1600 
 21 O       -4.1580    -8.2090     1.8220 O.co2 1 <1>  -0.9000 
 22 O       -4.9860   -10.1670     2.1270 O.co2 1 <1>  -0.9000 
 23 C       -8.0980    -9.3390    -0.8630 C.3   1 <1>  -0.1600 
 24 C       -9.5690    -9.2330    -0.4510 C.3   1 <1>  -0.2400 
 25 H       -1.3510    -2.8210     2.0560 H     1 <1>   0.0800 
 26 H       -1.1020    -5.0750     2.2450 H     1 <1>   0.1500 
 27 H        0.2350    -4.3480    -1.7530 H     1 <1>   0.1500 
 28 H       -1.7480    -7.3060     1.6380 H     1 <1>   0.1500 
 29 H       -0.4070    -6.6280    -2.3740 H     1 <1>   0.1500 
 30 H       -0.9950    -9.2470    -0.1700 H     1 <1>   0.0800 
 31 H       -1.3060    -8.7450    -1.8190 H     1 <1>   0.0800 
 32 H       -3.1500    -8.4260     0.4430 H     1 <1>   0.4500 
 33 H       -3.0770   -10.6400    -1.4890 H     1 <1>   0.0800 
 34 H       -3.1200   -10.6560     0.2590 H     1 <1>   0.0800 
 35 H       -3.4490    -6.7740    -1.2850 H     1 <1>   0.0800 
 36 H       -3.9560    -8.0970    -2.3170 H     1 <1>   0.0800 
 37 H       -5.3280   -11.1830    -0.2180 H     1 <1>   0.0800 
 38 H       -5.3230    -6.9000     0.0300 H     1 <1>   0.0800 
 39 H       -5.9690    -7.5390    -1.4290 H     1 <1>   0.0800 
 40 H       -6.4060   -10.2240    -2.0060 H     1 <1>   0.4000 
 41 H       -7.3610    -9.9830     1.0290 H     1 <1>   0.0800 
 42 H       -7.4830    -8.2690     0.8910 H     1 <1>   0.0800 
 43 H       -7.8990    -8.5910    -1.6100 H     1 <1>   0.0800 
 44 H       -7.9460   -10.3120    -1.2940 H     1 <1>   0.0800 
 45 H       -9.7750    -8.2620    -0.0360 H     1 <1>   0.0800 
 46 H       -9.8070    -9.9810     0.2850 H     1 <1>   0.0800 
 47 H      -10.2040    -9.3810    -1.3060 H     1 <1>   0.0800 
@<TRIPOS>BOND
  1   1   2  1   
  2   2   3  1   
  3   2   4  1   
  4   2  25  1   
  5   4   5  1   
  6   5   6  ar  
  7   5   7  ar  
  8   6   8  ar  
  9   6  26  1   
 10   7   9  ar  
 11   7  27  1   
 12   8  10  ar  
 13   8  28  1   
 14   9  10  ar  
 15   9  29  1   
 16  10  11  1   
 17  11  12  1   
 18  11  30  1   
 19  11  31  1   
 20  12  13  1   
 21  12  14  1   
 22  12  32  1   
 23  13  15  1   
 24  13  33  1   
 25  13  34  1   
 26  14  16  1   
 27  14  35  1   
 28  14  36  1   
 29  15  17  1   
 30  15  18  1   
 31  15  37  1   
 32  16  18  1   
 33  16  38  1   
 34  16  39  1   
 35  17  40  1   
 36  18  19  1   
 37  18  20  1   
 38  19  21  ar  
 39  19  22  ar  
 40  20  23  1   
 41  20  41  1   
 42  20  42  1   
 43  23  24  1   
 44  23  43  1   
 45  23  44  1   
 46  24  45  1   
 47  24  46  1   
 48  24  47  1   
@<TRIPOS>SUBSTRUCTURE
  1 ****  12 GROUP 4 **** **** 0

# MOE 2024.06 (io_trps.svl 2023.06)
