@<TRIPOS>MOLECULE
NONAME
40 42 1 0 0 
SMALL
USER_CHARGES


@<TRIPOS>ATOM
  1 CL       0.1310     0.3180     0.7030 Cl    1 <1>  -0.1230 
  2 C        0.9840    -1.2040     0.5280 C.2   1 <1>   0.1230 
  3 C        2.2240    -1.3830     0.0130 C.2   1 <1>  -0.3020 
  4 C        0.4800    -2.4380     0.9080 C.2   1 <1>  -0.1500 
  5 N        2.5170    -2.7070     0.0590 N.pl3 1 <1>   0.0480 
  6 C        1.4390    -3.3770     0.6020 C.2   1 <1>  -0.2370 
  7 C        3.7920    -3.2990    -0.3940 C.3   1 <1>   0.0160 
  8 C        1.4010    -4.8040     0.8000 C.2   1 <1>   0.7150 
  9 O        2.3980    -5.3980     1.1680 O.2   1 <1>  -0.5700 
 10 N        0.2580    -5.5300     0.5620 N.am  1 <1>  -0.6600 
 11 C       -0.8370    -5.0910    -0.3440 C.3   1 <1>   0.1400 
 12 C        0.1950    -7.0020     0.7590 C.3   1 <1>   0.1400 
 13 C       -1.8010    -6.2760    -0.3890 C.3   1 <1>   0.2000 
 14 C       -0.8910    -7.4940    -0.2050 C.3   1 <1>  -0.0800 
 15 O       -2.6610    -6.1700     0.6940 O.3   1 <1>  -0.6800 
 16 C       -1.6080    -8.7760     0.2620 C.3   1 <1>   0.0200 
 17 C       -0.6960    -9.9910     0.2970 C.2   1 <1>  -0.0400 
 18 O       -1.1540   -11.1010     0.8110 O.3   1 <1>  -0.0190 
 19 C        0.5650   -10.2200    -0.1060 C.2   1 <1>  -0.1500 
 20 N       -0.2710   -12.0560     0.7780 N.2   1 <1>  -0.4100 
 21 C        0.7760   -11.5540     0.2300 C.2   1 <1>   0.1080 
 22 C        2.0590   -12.3170    -0.0120 C.3   1 <1>  -0.0590 
 23 H        2.8960    -0.6390    -0.3720 H     1 <1>   0.1500 
 24 H       -0.4810    -2.5900     1.3650 H     1 <1>   0.1500 
 25 H        4.3790    -2.5550    -0.9000 H     1 <1>   0.0800 
 26 H        3.5900    -4.1150    -1.0630 H     1 <1>   0.0800 
 27 H        4.3330    -3.6650     0.4600 H     1 <1>   0.0800 
 28 H       -1.3300    -4.2040     0.0100 H     1 <1>   0.0800 
 29 H       -0.4290    -4.9100    -1.3240 H     1 <1>   0.0800 
 30 H        1.1450    -7.4640     0.5500 H     1 <1>   0.0800 
 31 H       -0.0760    -7.2050     1.7820 H     1 <1>   0.0800 
 32 H       -2.3890    -6.3100    -1.2910 H     1 <1>   0.0800 
 33 H       -0.4220    -7.6920    -1.1530 H     1 <1>   0.0800 
 34 H       -2.1380    -5.9720     1.4970 H     1 <1>   0.4000 
 35 H       -2.4280    -8.9870    -0.4010 H     1 <1>   0.0800 
 36 H       -2.0160    -8.6310     1.2470 H     1 <1>   0.0800 
 37 H        1.2770    -9.5700    -0.5790 H     1 <1>   0.1500 
 38 H        2.8710   -11.8380     0.5030 H     1 <1>   0.0800 
 39 H        2.2720   -12.3480    -1.0640 H     1 <1>   0.0800 
 40 H        1.9610   -13.3240     0.3540 H     1 <1>   0.0800 
@<TRIPOS>BOND
  1   1   2  1   
  2   2   3  2   
  3   2   4  1   
  4   3   5  1   
  5   3  23  1   
  6   4   6  2   
  7   4  24  1   
  8   5   6  1   
  9   5   7  1   
 10   6   8  1   
 11   7  25  1   
 12   7  26  1   
 13   7  27  1   
 14   8   9  2   
 15   8  10  am  
 16  10  11  1   
 17  10  12  1   
 18  11  13  1   
 19  11  28  1   
 20  11  29  1   
 21  12  14  1   
 22  12  30  1   
 23  12  31  1   
 24  13  14  1   
 25  13  15  1   
 26  13  32  1   
 27  14  16  1   
 28  14  33  1   
 29  15  34  1   
 30  16  17  1   
 31  16  35  1   
 32  16  36  1   
 33  17  18  1   
 34  17  19  2   
 35  18  20  1   
 36  19  21  1   
 37  19  37  1   
 38  20  21  2   
 39  21  22  1   
 40  22  38  1   
 41  22  39  1   
 42  22  40  1   
@<TRIPOS>SUBSTRUCTURE
  1 ****  10 GROUP 4 **** **** 0

# MOE 2024.06 (io_trps.svl 2023.06)
