@<TRIPOS>MOLECULE
NONAME
41 42 1 0 0 
SMALL
USER_CHARGES


@<TRIPOS>ATOM
  1 S       -0.8290    -0.5240     0.7220 S.3   1 <1>  -0.0800 
  2 C       -1.6690    -1.1020    -0.6820 C.2   1 <1>   0.4420 
  3 C       -0.8740     1.0510     0.0080 C.2   1 <1>   0.1980 
  4 N       -1.9060    -0.1590    -1.5210 N.2   1 <1>  -0.3380 
  5 N       -1.9650    -2.4480    -0.7180 N.am  1 <1>  -0.4940 
  6 N       -1.4510     1.0640    -1.1220 N.2   1 <1>  -0.3380 
  7 C       -0.2530     2.2100     0.7550 C.3   1 <1>   0.0200 
  8 C       -2.6220    -3.1560    -1.6830 C.2   1 <1>   0.5690 
  9 C       -0.4480     3.4880    -0.0690 C.3   1 <1>   0.3430 
 10 O       -3.0510    -2.6770    -2.6980 O.2   1 <1>  -0.5700 
 11 C       -2.8320    -4.6400    -1.4490 C.3   1 <1>  -0.0990 
 12 N        0.0780     4.7170     0.6150 N.4   1 <1>  -0.9590 
 13 C       -3.9210    -4.9030    -0.3970 C.3   1 <1>  -0.1600 
 14 C       -0.3930     5.9350    -0.1170 C.3   1 <1>   0.2630 
 15 C        1.5730     4.7270     0.7110 C.3   1 <1>   0.2630 
 16 C       -4.1980    -6.4040    -0.2310 C.3   1 <1>   0.0960 
 17 N       -5.1360    -6.6340     0.8830 N.pl3 1 <1>   0.3140 
 18 N       -4.7480    -6.6460     2.1490 N.2   1 <1>  -0.7070 
 19 C       -6.4550    -6.8410     0.8380 C.2   1 <1>   0.0360 
 20 C       -5.8570    -6.8630     2.7770 C.2   1 <1>   0.3660 
 21 N       -6.9490    -6.9910     2.0130 N.2   1 <1>  -0.5650 
 22 H       -1.6670    -2.9760     0.0960 H     1 <1>   0.3700 
 23 H        0.7910     2.0030     0.8970 H     1 <1>   0.0800 
 24 H       -0.7380     2.3050     1.7090 H     1 <1>   0.0800 
 25 H       -1.5040     3.6070    -0.2550 H     1 <1>   0.0800 
 26 H        0.0340     3.3670    -1.0270 H     1 <1>   0.0800 
 27 H       -1.9010    -5.0850    -1.1450 H     1 <1>   0.0800 
 28 H       -3.1190    -5.0880    -2.3850 H     1 <1>   0.0800 
 29 H       -0.3170     4.7570     1.5690 H     1 <1>   0.4500 
 30 H       -4.8290    -4.4060    -0.6960 H     1 <1>   0.0800 
 31 H       -3.6100    -4.4960     0.5510 H     1 <1>   0.0800 
 32 H       -0.0110     5.9390    -1.1250 H     1 <1>   0.0800 
 33 H       -0.0550     6.8290     0.3830 H     1 <1>   0.0800 
 34 H       -1.4710     5.9550    -0.1580 H     1 <1>   0.0800 
 35 H        2.0120     4.6730    -0.2720 H     1 <1>   0.0800 
 36 H        1.9220     3.8880     1.2910 H     1 <1>   0.0800 
 37 H        1.9110     5.6330     1.1880 H     1 <1>   0.0800 
 38 H       -3.2860    -6.9280    -0.0060 H     1 <1>   0.0800 
 39 H       -4.6180    -6.8130    -1.1320 H     1 <1>   0.0800 
 40 H       -7.0150    -6.8730    -0.0790 H     1 <1>   0.1500 
 41 H       -5.9260    -6.9400     3.8510 H     1 <1>   0.1500 
@<TRIPOS>BOND
  1   1   2  1   
  2   1   3  1   
  3   2   4  2   
  4   2   5  1   
  5   3   6  2   
  6   3   7  1   
  7   4   6  1   
  8   5   8  am  
  9   5  22  1   
 10   7   9  1   
 11   7  23  1   
 12   7  24  1   
 13   8  10  2   
 14   8  11  1   
 15   9  12  1   
 16   9  25  1   
 17   9  26  1   
 18  11  13  1   
 19  11  27  1   
 20  11  28  1   
 21  12  14  1   
 22  12  15  1   
 23  12  29  1   
 24  13  16  1   
 25  13  30  1   
 26  13  31  1   
 27  14  32  1   
 28  14  33  1   
 29  14  34  1   
 30  15  35  1   
 31  15  36  1   
 32  15  37  1   
 33  16  17  1   
 34  16  38  1   
 35  16  39  1   
 36  17  18  1   
 37  17  19  1   
 38  18  20  2   
 39  19  21  2   
 40  19  40  1   
 41  20  21  1   
 42  20  41  1   
@<TRIPOS>SUBSTRUCTURE
  1 ****   5 GROUP 4 **** **** 0

# MOE 2024.06 (io_trps.svl 2023.06)
