@<TRIPOS>MOLECULE
NONAME
42 43 1 0 0 
SMALL
USER_CHARGES


@<TRIPOS>ATOM
  1 S        0.5320     0.4780     0.5670 S.o2  1 <1>   1.3330 
  2 O        1.5710     0.8610     1.4970 O.2   1 <1>  -0.6500 
  3 O       -0.6660    -0.1670     1.0520 O.2   1 <1>  -0.6500 
  4 N        1.2400    -0.5290    -0.6020 N.am  1 <1>  -0.8490 
  5 C        0.0400     1.9030    -0.4040 C.3   1 <1>  -0.0550 
  6 C        2.6430    -0.2050    -0.8820 C.3   1 <1>   0.1160 
  7 C        1.1160    -1.9500    -0.2600 C.3   1 <1>   0.1160 
  8 C       -0.8760     2.9010     0.3380 C.3   1 <1>  -0.0800 
  9 C       -1.2660     4.0460    -0.5880 C.3   1 <1>   0.2000 
 10 C       -0.1590     3.6240     1.4880 C.3   1 <1>   0.1100 
 11 O       -2.3740     4.6760    -0.0540 O.3   1 <1>  -0.6800 
 12 C       -0.0800     4.9970    -0.4620 C.3   1 <1>   0.1100 
 13 N        0.3730     4.8850     0.9400 N.3   1 <1>  -0.8100 
 14 C        1.8350     4.9780     1.0780 C.3   1 <1>   0.2530 
 15 C        2.3380     6.3160     0.5510 C.ar  1 <1>  -0.1440 
 16 C        3.2360     6.3970    -0.5080 C.ar  1 <1>   0.1900 
 17 C        1.8990     7.4980     1.1350 C.ar  1 <1>  -0.1500 
 18 F        3.6580     5.3000    -1.0810 F     1 <1>  -0.1900 
 19 C        3.7090     7.6010    -0.9950 C.ar  1 <1>  -0.1500 
 20 C        2.3530     8.7230     0.6690 C.ar  1 <1>  -0.1500 
 21 C        3.2490     8.7500    -0.3850 C.ar  1 <1>   0.1900 
 22 F        3.6750     9.9050    -0.8190 F     1 <1>  -0.1900 
 23 H        0.9190     2.4070    -0.7520 H     1 <1>   0.0800 
 24 H       -0.4910     1.5460    -1.2650 H     1 <1>   0.0800 
 25 H        3.0080    -0.8120    -1.6930 H     1 <1>   0.0800 
 26 H        3.2520    -0.3820    -0.0100 H     1 <1>   0.0800 
 27 H        2.7370     0.8290    -1.1640 H     1 <1>   0.0800 
 28 H        1.5600    -2.5600    -1.0270 H     1 <1>   0.0800 
 29 H        0.0760    -2.2200    -0.1770 H     1 <1>   0.0800 
 30 H        1.6010    -2.1520     0.6810 H     1 <1>   0.0800 
 31 H       -1.7470     2.3740     0.6920 H     1 <1>   0.0800 
 32 H       -1.4880     3.7510    -1.5990 H     1 <1>   0.0800 
 33 H        0.6080     3.0300     1.9510 H     1 <1>   0.0800 
 34 H       -0.8810     3.8710     2.2490 H     1 <1>   0.0800 
 35 H       -2.0800     5.1390     0.7580 H     1 <1>   0.4000 
 36 H       -0.3500     6.0110    -0.7060 H     1 <1>   0.0800 
 37 H        0.7000     4.6770    -1.1320 H     1 <1>   0.0800 
 38 H        2.0940     4.9010     2.1200 H     1 <1>   0.0800 
 39 H        2.3030     4.1560     0.5630 H     1 <1>   0.0800 
 40 H        1.1950     7.4580     1.9500 H     1 <1>   0.1500 
 41 H        4.4030     7.6430    -1.8130 H     1 <1>   0.1500 
 42 H        2.0180     9.6430     1.1140 H     1 <1>   0.1500 
@<TRIPOS>BOND
  1   1   2  2   
  2   1   3  2   
  3   1   4  am  
  4   1   5  1   
  5   4   6  1   
  6   4   7  1   
  7   5   8  1   
  8   5  23  1   
  9   5  24  1   
 10   6  25  1   
 11   6  26  1   
 12   6  27  1   
 13   7  28  1   
 14   7  29  1   
 15   7  30  1   
 16   8   9  1   
 17   8  10  1   
 18   8  31  1   
 19   9  11  1   
 20   9  12  1   
 21   9  32  1   
 22  10  13  1   
 23  10  33  1   
 24  10  34  1   
 25  11  35  1   
 26  12  13  1   
 27  12  36  1   
 28  12  37  1   
 29  13  14  1   
 30  14  15  1   
 31  14  38  1   
 32  14  39  1   
 33  15  16  ar  
 34  15  17  ar  
 35  16  18  1   
 36  16  19  ar  
 37  17  20  ar  
 38  17  40  1   
 39  19  21  ar  
 40  19  41  1   
 41  20  21  ar  
 42  20  42  1   
 43  21  22  1   
@<TRIPOS>SUBSTRUCTURE
  1 ****  14 GROUP 4 **** **** 0

# MOE 2024.06 (io_trps.svl 2023.06)
