@<TRIPOS>MOLECULE
NONAME
38 39 1 0 0 
SMALL
USER_CHARGES


@<TRIPOS>ATOM
  1 S       -1.4020    -0.5530    -0.9140 S.3   1 <1>  -0.0800 
  2 C       -1.2600    -1.6580     0.4120 C.2   1 <1>   0.4420 
  3 C       -0.9550     0.7100     0.1840 C.2   1 <1>   0.1980 
  4 N       -0.9050    -1.0710     1.4970 N.2   1 <1>  -0.3380 
  5 N       -1.5580    -2.9750     0.1370 N.am  1 <1>  -0.4940 
  6 N       -0.7340     0.2790     1.3610 N.2   1 <1>  -0.3380 
  7 C       -0.8890     2.1470    -0.3300 C.3   1 <1>   0.3800 
  8 C       -1.5510    -4.0750     0.9570 C.2   1 <1>   0.5440 
  9 O       -2.0890     2.5150    -0.9480 O.3   1 <1>  -0.5600 
 10 C        0.2220     2.3430    -1.3600 C.3   1 <1>  -0.2400 
 11 O       -1.0060    -4.0280     2.0390 O.2   1 <1>  -0.5700 
 12 C       -2.1390    -5.3100     0.4900 C.ar  1 <1>   0.0860 
 13 C       -3.1800     2.6400    -0.0860 C.3   1 <1>   0.0400 
 14 C       -3.4500    -5.3950    -0.0020 C.ar  1 <1>   0.0820 
 15 C       -1.3820    -6.4830     0.5210 C.ar  1 <1>  -0.1500 
 16 O       -4.2460    -4.2970     0.0000 O.3   1 <1>  -0.3620 
 17 C       -3.9640    -6.6110    -0.4360 C.ar  1 <1>  -0.1500 
 18 C       -1.8900    -7.6870     0.0740 C.ar  1 <1>  -0.1500 
 19 C       -4.6620    -3.6690    -1.2120 C.3   1 <1>   0.9600 
 20 C       -3.1850    -7.7520    -0.4070 C.ar  1 <1>  -0.1500 
 21 F       -5.3850    -4.5380    -1.9150 F     1 <1>  -0.3400 
 22 F       -3.5630    -3.4640    -1.9430 F     1 <1>  -0.3400 
 23 C       -5.4470    -2.3400    -1.0190 C.3   1 <1>   0.6000 
 24 F       -4.7160    -1.4160    -0.3940 F     1 <1>  -0.3400 
 25 F       -6.5220    -2.4970    -0.2440 F     1 <1>  -0.3400 
 26 H       -1.8690    -3.1490    -0.8150 H     1 <1>   0.3700 
 27 H       -0.7190     2.8120     0.5000 H     1 <1>   0.0800 
 28 H        0.0440     1.7310    -2.2250 H     1 <1>   0.0800 
 29 H        1.1680     2.0680    -0.9300 H     1 <1>   0.0800 
 30 H        0.2650     3.3750    -1.6570 H     1 <1>   0.0800 
 31 H       -4.0250     2.9720    -0.6630 H     1 <1>   0.0800 
 32 H       -2.9550     3.3670     0.6750 H     1 <1>   0.0800 
 33 H       -3.4040     1.6850     0.3590 H     1 <1>   0.0800 
 34 H       -0.3780    -6.4410     0.9090 H     1 <1>   0.1500 
 35 H       -4.9790    -6.6820    -0.7860 H     1 <1>   0.1500 
 36 H       -1.2820    -8.5760     0.1050 H     1 <1>   0.1500 
 37 H       -3.5860    -8.6910    -0.7500 H     1 <1>   0.1500 
 38 H       -5.7740    -1.9250    -1.9540 H     1 <1>   0.0800 
@<TRIPOS>BOND
  1   1   2  1   
  2   1   3  1   
  3   2   4  2   
  4   2   5  1   
  5   3   6  2   
  6   3   7  1   
  7   4   6  1   
  8   5   8  am  
  9   5  26  1   
 10   7   9  1   
 11   7  10  1   
 12   7  27  1   
 13   8  11  2   
 14   8  12  1   
 15   9  13  1   
 16  10  28  1   
 17  10  29  1   
 18  10  30  1   
 19  12  14  ar  
 20  12  15  ar  
 21  13  31  1   
 22  13  32  1   
 23  13  33  1   
 24  14  16  1   
 25  14  17  ar  
 26  15  18  ar  
 27  15  34  1   
 28  16  19  1   
 29  17  20  ar  
 30  17  35  1   
 31  18  20  ar  
 32  18  36  1   
 33  19  21  1   
 34  19  22  1   
 35  19  23  1   
 36  20  37  1   
 37  23  24  1   
 38  23  25  1   
 39  23  38  1   
@<TRIPOS>SUBSTRUCTURE
  1 ****   5 GROUP 4 **** **** 0

# MOE 2024.06 (io_trps.svl 2023.06)
