@<TRIPOS>MOLECULE
NONAME
54 57 1 0 0 
SMALL
USER_CHARGES


@<TRIPOS>ATOM
  1 O        0.0200    -0.4480    -0.2280 O.2   1 <1>  -0.5700 
  2 C        1.0900    -0.9680    -0.4830 C.2   1 <1>   0.5440 
  3 N        2.2350    -0.1970    -0.4870 N.am  1 <1>  -0.6600 
  4 C        1.1200    -2.3880    -0.7670 C.ar  1 <1>   0.0860 
  5 C        3.6130    -0.7580    -0.4000 C.3   1 <1>   0.1400 
  6 C        2.1760     1.2890    -0.3810 C.3   1 <1>   0.1400 
  7 C        0.6020    -3.3220     0.1090 C.ar  1 <1>  -0.1500 
  8 C        1.6560    -2.9110    -1.9360 C.ar  1 <1>  -0.1500 
  9 C        4.2670    -0.3220     0.9160 C.3   1 <1>  -0.1600 
 10 C        2.8140     1.7390     0.9380 C.3   1 <1>  -0.1600 
 11 C        0.6440    -4.6770    -0.1850 C.ar  1 <1>   0.4100 
 12 C        1.6580    -4.2740    -2.1450 C.ar  1 <1>   0.1600 
 13 C        4.2450     1.2040     1.0850 C.3   1 <1>  -0.1600 
 14 N        1.1730    -5.1650    -1.2980 N.ar  1 <1>  -0.6200 
 15 N        0.1230    -5.5710     0.7150 N.pl3 1 <1>  -0.8690 
 16 C       -0.4180    -6.8800     0.3030 C.3   1 <1>   0.4330 
 17 C       -1.8460    -7.0090     0.8100 C.ar  1 <1>  -0.1430 
 18 C        0.4790    -7.9600     0.8950 C.3   1 <1>  -0.1600 
 19 C       -2.2600    -8.1900     1.4200 C.ar  1 <1>   0.0820 
 20 C       -2.7570    -5.9710     0.6630 C.ar  1 <1>  -0.1500 
 21 C       -0.2060    -9.3310     0.8700 C.3   1 <1>   0.2800 
 22 O       -1.4330    -9.2550     1.5660 O.3   1 <1>  -0.3630 
 23 C       -3.5540    -8.3140     1.8980 C.ar  1 <1>  -0.1500 
 24 C       -4.0520    -6.0990     1.1380 C.ar  1 <1>  -0.1500 
 25 C       -0.4990    -9.8330    -0.5510 C.3   1 <1>  -0.2400 
 26 C        0.6480   -10.3600     1.6130 C.3   1 <1>  -0.2400 
 27 C       -4.4500    -7.2690     1.7600 C.ar  1 <1>  -0.1500 
 28 H        4.1920    -0.3950    -1.2320 H     1 <1>   0.0800 
 29 H        3.6000    -1.8330    -0.4420 H     1 <1>   0.0800 
 30 H        1.1580     1.6360    -0.4280 H     1 <1>   0.0800 
 31 H        2.7100     1.7190    -1.2100 H     1 <1>   0.0800 
 32 H        0.1600    -2.9910     1.0290 H     1 <1>   0.1500 
 33 H        2.0650    -2.2460    -2.6760 H     1 <1>   0.1500 
 34 H        5.2830    -0.6730     0.9430 H     1 <1>   0.0800 
 35 H        3.7400    -0.7830     1.7340 H     1 <1>   0.0800 
 36 H        2.2050     1.3840     1.7510 H     1 <1>   0.0800 
 37 H        2.8210     2.8130     0.9790 H     1 <1>   0.0800 
 38 H        2.0810    -4.6580    -3.0580 H     1 <1>   0.1500 
 39 H        4.8730     1.6560     0.3370 H     1 <1>   0.0800 
 40 H        4.6340     1.4690     2.0530 H     1 <1>   0.0800 
 41 H       -0.4300    -5.1800     1.4770 H     1 <1>   0.4000 
 42 H       -0.4320    -6.9680    -0.7700 H     1 <1>   0.0800 
 43 H        0.7090    -7.7100     1.9140 H     1 <1>   0.0800 
 44 H        1.3980    -7.9930     0.3390 H     1 <1>   0.0800 
 45 H       -2.4630    -5.0580     0.1730 H     1 <1>   0.1500 
 46 H       -3.8510    -9.2300     2.3750 H     1 <1>   0.1500 
 47 H       -4.7490    -5.2870     1.0220 H     1 <1>   0.1500 
 48 H       -1.1740    -9.1760    -1.0680 H     1 <1>   0.0800 
 49 H       -0.9420   -10.8120    -0.5120 H     1 <1>   0.0800 
 50 H        0.4130    -9.8970    -1.1160 H     1 <1>   0.0800 
 51 H        0.8180   -10.0420     2.6250 H     1 <1>   0.0800 
 52 H        1.5990   -10.4750     1.1270 H     1 <1>   0.0800 
 53 H        0.1540   -11.3150     1.6260 H     1 <1>   0.0800 
 54 H       -5.4550    -7.3690     2.1320 H     1 <1>   0.1500 
@<TRIPOS>BOND
  1   1   2  2   
  2   2   3  am  
  3   2   4  1   
  4   3   5  1   
  5   3   6  1   
  6   4   7  ar  
  7   4   8  ar  
  8   5   9  1   
  9   5  28  1   
 10   5  29  1   
 11   6  10  1   
 12   6  30  1   
 13   6  31  1   
 14   7  11  ar  
 15   7  32  1   
 16   8  12  ar  
 17   8  33  1   
 18   9  13  1   
 19   9  34  1   
 20   9  35  1   
 21  10  13  1   
 22  10  36  1   
 23  10  37  1   
 24  11  14  ar  
 25  11  15  1   
 26  12  14  ar  
 27  12  38  1   
 28  13  39  1   
 29  13  40  1   
 30  15  16  1   
 31  15  41  1   
 32  16  17  1   
 33  16  18  1   
 34  16  42  1   
 35  17  19  ar  
 36  17  20  ar  
 37  18  21  1   
 38  18  43  1   
 39  18  44  1   
 40  19  22  1   
 41  19  23  ar  
 42  20  24  ar  
 43  20  45  1   
 44  21  22  1   
 45  21  25  1   
 46  21  26  1   
 47  23  27  ar  
 48  23  46  1   
 49  24  27  ar  
 50  24  47  1   
 51  25  48  1   
 52  25  49  1   
 53  25  50  1   
 54  26  51  1   
 55  26  52  1   
 56  26  53  1   
 57  27  54  1   
@<TRIPOS>SUBSTRUCTURE
  1 ****  11 GROUP 4 **** **** 0

# MOE 2024.06 (io_trps.svl 2023.06)
