@<TRIPOS>MOLECULE
NONAME
52 54 1 0 0 
SMALL
USER_CHARGES


@<TRIPOS>ATOM
  1 CL      -1.1670    -0.4830    -2.1730 Cl    1 <1>  -0.1770 
  2 C       -2.1580    -0.9940    -0.8230 C.ar  1 <1>   0.1770 
  3 C       -2.8120    -0.0970     0.0240 C.ar  1 <1>   0.0830 
  4 C       -2.2940    -2.3600    -0.6480 C.ar  1 <1>  -0.1500 
  5 O       -2.7550     1.2560    -0.0600 O.3   1 <1>  -0.3630 
  6 C       -3.6050    -0.6060     1.0400 C.ar  1 <1>  -0.1500 
  7 C       -3.1000    -2.8600     0.3660 C.ar  1 <1>  -0.1430 
  8 C       -1.5360     1.9170    -0.3180 C.3   1 <1>   0.1200 
  9 C       -3.7440    -1.9710     1.2170 C.ar  1 <1>  -0.1500 
 10 C       -3.2850    -4.3570     0.5350 C.3   1 <1>   0.4870 
 11 C       -1.5950     3.2950     0.3420 C.3   1 <1>  -0.1600 
 12 N       -4.0160    -4.9330    -0.6420 N.4   1 <1>  -0.9590 
 13 C       -0.3020     4.0820     0.1030 C.3   1 <1>  -0.2400 
 14 C       -5.4830    -4.6540    -0.7690 C.3   1 <1>   0.4230 
 15 C       -3.7800    -6.4070    -0.7030 C.3   1 <1>   0.2630 
 16 C       -6.2770    -4.6290     0.5350 C.3   1 <1>  -0.1600 
 17 C       -5.7970    -3.3260    -1.4500 C.3   1 <1>  -0.1600 
 18 C       -7.5870    -3.9270     0.1580 C.3   1 <1>  -0.0800 
 19 C       -7.2310    -2.9820    -1.0180 C.3   1 <1>  -0.0800 
 20 C       -8.2950    -3.2740     1.3680 C.3   1 <1>   0.1400 
 21 C       -7.4150    -1.4860    -0.6950 C.3   1 <1>  -0.0990 
 22 N       -9.1300    -2.1430     0.9230 N.am  1 <1>  -0.7300 
 23 C       -8.7500    -1.2580    -0.0230 C.2   1 <1>   0.5690 
 24 O       -9.4400    -0.3210    -0.3220 O.2   1 <1>  -0.5700 
 25 H       -1.7620    -3.0110    -1.3190 H     1 <1>   0.1500 
 26 H       -4.1100     0.0840     1.6960 H     1 <1>   0.1500 
 27 H       -0.7280     1.3350     0.0910 H     1 <1>   0.0800 
 28 H       -1.4230     2.0170    -1.3830 H     1 <1>   0.0800 
 29 H       -4.3630    -2.3210     2.0260 H     1 <1>   0.1500 
 30 H       -3.8110    -4.5690     1.4500 H     1 <1>   0.0800 
 31 H       -2.3080    -4.8070     0.6090 H     1 <1>   0.0800 
 32 H       -2.4250     3.8460    -0.0650 H     1 <1>   0.0800 
 33 H       -1.7470     3.1750     1.4000 H     1 <1>   0.0800 
 34 H       -3.5840    -4.5050    -1.4710 H     1 <1>   0.4500 
 35 H       -0.1380     4.2270    -0.9500 H     1 <1>   0.0800 
 36 H        0.5410     3.5570     0.5180 H     1 <1>   0.0800 
 37 H       -0.3680     5.0470     0.5740 H     1 <1>   0.0800 
 38 H       -5.9240    -5.4180    -1.3910 H     1 <1>   0.0800 
 39 H       -4.2230    -6.8950     0.1500 H     1 <1>   0.0800 
 40 H       -2.7220    -6.6200    -0.7120 H     1 <1>   0.0800 
 41 H       -4.2160    -6.8190    -1.5990 H     1 <1>   0.0800 
 42 H       -6.4620    -5.6200     0.9120 H     1 <1>   0.0800 
 43 H       -5.7830    -4.0400     1.2820 H     1 <1>   0.0800 
 44 H       -5.1340    -2.5470    -1.1310 H     1 <1>   0.0800 
 45 H       -5.7370    -3.4150    -2.5200 H     1 <1>   0.0800 
 46 H       -8.2590    -4.6740    -0.2320 H     1 <1>   0.0800 
 47 H       -7.9030    -3.2140    -1.8300 H     1 <1>   0.0800 
 48 H       -7.5730    -2.8950     2.0720 H     1 <1>   0.0800 
 49 H       -8.9090    -4.0010     1.8730 H     1 <1>   0.0800 
 50 H       -7.3660    -0.9000    -1.5950 H     1 <1>   0.0800 
 51 H       -6.6490    -1.1400    -0.0250 H     1 <1>   0.0800 
 52 H      -10.0160    -1.9610     1.4010 H     1 <1>   0.3700 
@<TRIPOS>BOND
  1   1   2  1   
  2   2   3  ar  
  3   2   4  ar  
  4   3   5  1   
  5   3   6  ar  
  6   4   7  ar  
  7   4  25  1   
  8   5   8  1   
  9   6   9  ar  
 10   6  26  1   
 11   7   9  ar  
 12   7  10  1   
 13   8  11  1   
 14   8  27  1   
 15   8  28  1   
 16   9  29  1   
 17  10  12  1   
 18  10  30  1   
 19  10  31  1   
 20  11  13  1   
 21  11  32  1   
 22  11  33  1   
 23  12  14  1   
 24  12  15  1   
 25  12  34  1   
 26  13  35  1   
 27  13  36  1   
 28  13  37  1   
 29  14  16  1   
 30  14  17  1   
 31  14  38  1   
 32  15  39  1   
 33  15  40  1   
 34  15  41  1   
 35  16  18  1   
 36  16  42  1   
 37  16  43  1   
 38  17  19  1   
 39  17  44  1   
 40  17  45  1   
 41  18  19  1   
 42  18  20  1   
 43  18  46  1   
 44  19  21  1   
 45  19  47  1   
 46  20  22  1   
 47  20  48  1   
 48  20  49  1   
 49  21  23  1   
 50  21  50  1   
 51  21  51  1   
 52  22  23  am  
 53  22  52  1   
 54  23  24  2   
@<TRIPOS>SUBSTRUCTURE
  1 ****   9 GROUP 4 **** **** 0

# MOE 2024.06 (io_trps.svl 2023.06)
