@<TRIPOS>MOLECULE
NONAME
54 58 1 0 0 
SMALL
USER_CHARGES


@<TRIPOS>ATOM
  1 O       -3.3830     2.3930    -2.1340 O.2   1 <1>  -0.5700 
  2 C       -3.3530     2.0790    -0.9650 C.2   1 <1>   0.5690 
  3 N       -4.3270     1.2670    -0.4280 N.am  1 <1>  -0.6600 
  4 C       -2.1860     2.5980    -0.1100 C.3   1 <1>  -0.0190 
  5 C       -4.3050     0.6370     0.9230 C.3   1 <1>   0.1400 
  6 C       -5.5170     0.8640    -1.2300 C.3   1 <1>   0.1400 
  7 C       -1.6480     3.9620    -0.5960 C.3   1 <1>  -0.1600 
  8 C       -1.0370     1.5700    -0.0590 C.3   1 <1>  -0.1600 
  9 C       -4.2610    -0.8830     0.7570 C.3   1 <1>  -0.1600 
 10 C       -5.4950    -0.6510    -1.4300 C.3   1 <1>  -0.1600 
 11 C       -0.4900     4.4590     0.2810 C.3   1 <1>  -0.1600 
 12 C        0.1260     2.0610     0.8160 C.3   1 <1>  -0.1600 
 13 C       -5.4320    -1.3930    -0.0890 C.3   1 <1>   0.4600 
 14 C        0.6420     3.4250     0.3390 C.3   1 <1>  -0.1600 
 15 O       -6.6000    -1.1130     0.6530 O.3   1 <1>  -0.5600 
 16 C       -5.3150    -2.8990    -0.2980 C.2   1 <1>  -0.3320 
 17 C       -7.7620    -1.8550     0.3670 C.3   1 <1>   0.1200 
 18 N       -4.2590    -3.5620    -0.8590 N.pl3 1 <1>   0.0330 
 19 C       -6.2640    -3.7900     0.0520 C.2   1 <1>  -0.1810 
 20 C       -7.5600    -3.3460     0.6820 C.3   1 <1>   0.0210 
 21 C       -4.5490    -4.9040    -0.8520 C.ar  1 <1>  -0.1520 
 22 C       -5.8060    -5.0810    -0.2810 C.ar  1 <1>   0.0000 
 23 C       -3.8080    -5.9990    -1.3050 C.ar  1 <1>  -0.1500 
 24 C       -6.3340    -6.3700    -0.1540 C.ar  1 <1>  -0.1500 
 25 C       -4.3390    -7.2610    -1.1750 C.ar  1 <1>  -0.1500 
 26 C       -5.6030    -7.4470    -0.5990 C.ar  1 <1>  -0.1500 
 27 H       -2.5510     2.7610     0.8860 H     1 <1>   0.0800 
 28 H       -5.1950     0.9210     1.4590 H     1 <1>   0.0800 
 29 H       -3.4560     0.9530     1.4990 H     1 <1>   0.0800 
 30 H       -5.5230     1.3570    -2.1870 H     1 <1>   0.0800 
 31 H       -6.4110     1.1530    -0.7030 H     1 <1>   0.0800 
 32 H       -2.4440     4.6850    -0.5870 H     1 <1>   0.0800 
 33 H       -1.3040     3.8690    -1.6130 H     1 <1>   0.0800 
 34 H       -0.6800     1.3960    -1.0600 H     1 <1>   0.0800 
 35 H       -1.3990     0.6330     0.3240 H     1 <1>   0.0800 
 36 H       -4.2910    -1.3600     1.7190 H     1 <1>   0.0800 
 37 H       -3.3320    -1.1500     0.2890 H     1 <1>   0.0800 
 38 H       -4.6300    -0.8990    -2.0170 H     1 <1>   0.0800 
 39 H       -6.3560    -0.9640    -1.9870 H     1 <1>   0.0800 
 40 H       -0.8510     4.6520     1.2760 H     1 <1>   0.0800 
 41 H       -0.1100     5.3850    -0.1170 H     1 <1>   0.0800 
 42 H        0.9280     1.3440     0.7850 H     1 <1>   0.0800 
 43 H       -0.2040     2.1430     1.8370 H     1 <1>   0.0800 
 44 H        1.4140     3.7720     1.0030 H     1 <1>   0.0800 
 45 H        1.0740     3.3180    -0.6420 H     1 <1>   0.0800 
 46 H       -8.0060    -1.7220    -0.6720 H     1 <1>   0.0800 
 47 H       -8.5620    -1.4540     0.9640 H     1 <1>   0.0800 
 48 H       -3.3980    -3.1460    -1.2260 H     1 <1>   0.2700 
 49 H       -8.3800    -3.9150     0.2840 H     1 <1>   0.0800 
 50 H       -7.5180    -3.4960     1.7460 H     1 <1>   0.0800 
 51 H       -2.8390    -5.8480    -1.7450 H     1 <1>   0.1500 
 52 H       -7.3030    -6.4970     0.2900 H     1 <1>   0.1500 
 53 H       -3.7890    -8.1210    -1.5150 H     1 <1>   0.1500 
 54 H       -5.9950    -8.4440    -0.5090 H     1 <1>   0.1500 
@<TRIPOS>BOND
  1   1   2  2   
  2   2   3  am  
  3   2   4  1   
  4   3   5  1   
  5   3   6  1   
  6   4   7  1   
  7   4   8  1   
  8   4  27  1   
  9   5   9  1   
 10   5  28  1   
 11   5  29  1   
 12   6  10  1   
 13   6  30  1   
 14   6  31  1   
 15   7  11  1   
 16   7  32  1   
 17   7  33  1   
 18   8  12  1   
 19   8  34  1   
 20   8  35  1   
 21   9  13  1   
 22   9  36  1   
 23   9  37  1   
 24  10  13  1   
 25  10  38  1   
 26  10  39  1   
 27  11  14  1   
 28  11  40  1   
 29  11  41  1   
 30  12  14  1   
 31  12  42  1   
 32  12  43  1   
 33  13  15  1   
 34  13  16  1   
 35  14  44  1   
 36  14  45  1   
 37  15  17  1   
 38  16  18  1   
 39  16  19  2   
 40  17  20  1   
 41  17  46  1   
 42  17  47  1   
 43  18  21  1   
 44  18  48  1   
 45  19  20  1   
 46  19  22  1   
 47  20  49  1   
 48  20  50  1   
 49  21  22  ar  
 50  21  23  ar  
 51  22  24  ar  
 52  23  25  ar  
 53  23  51  1   
 54  24  26  ar  
 55  24  52  1   
 56  25  26  ar  
 57  25  53  1   
 58  26  54  1   
@<TRIPOS>SUBSTRUCTURE
  1 ****   9 GROUP 4 **** **** 0

# MOE 2024.06 (io_trps.svl 2023.06)
