@<TRIPOS>MOLECULE
NONAME
45 46 1 0 0 
SMALL
USER_CHARGES


@<TRIPOS>ATOM
  1 O       -1.3830     0.6740    -2.8970 O.2   1 <1>  -0.5700 
  2 C       -1.7480     0.9760    -1.7860 C.2   1 <1>   0.5690 
  3 N       -2.0640     0.0270    -0.8440 N.am  1 <1>  -0.6600 
  4 C       -1.8310     2.4640    -1.4790 C.3   1 <1>  -0.0990 
  5 C       -1.9060    -1.4190    -1.1650 C.3   1 <1>   0.3200 
  6 C       -2.4940     0.3390     0.5540 C.3   1 <1>   0.1400 
  7 C       -0.5180     2.9980    -0.8820 C.3   1 <1>  -0.1600 
  8 C       -3.2450    -2.1200    -1.0490 C.2   1 <1>  -0.3320 
  9 C       -4.0140     0.5150     0.6510 C.3   1 <1>   0.1200 
 10 C       -0.5990     4.4980    -0.5810 C.3   1 <1>  -0.0160 
 11 N       -3.6070    -2.9850    -0.0790 N.pl3 1 <1>   0.0480 
 12 C       -4.3070    -2.0050    -1.8770 C.2   1 <1>   0.0770 
 13 O       -4.3290     0.9090     1.9430 O.3   1 <1>  -0.6800 
 14 C        0.7030     4.9830     0.0350 C.ar  1 <1>  -0.1440 
 15 C       -4.8790    -3.3280    -0.3860 C.2   1 <1>   0.0360 
 16 C       -2.8200    -3.4680     1.0700 C.3   1 <1>   0.0160 
 17 N       -5.3370    -2.7600    -1.4540 N.2   1 <1>  -0.5650 
 18 C        1.7680     5.3410    -0.7780 C.ar  1 <1>  -0.1500 
 19 C        0.8410     5.0670     1.4120 C.ar  1 <1>  -0.1500 
 20 C        2.9570     5.7790    -0.2210 C.ar  1 <1>  -0.1500 
 21 C        2.0300     5.5050     1.9700 C.ar  1 <1>  -0.1500 
 22 C        3.0890     5.8620     1.1540 C.ar  1 <1>  -0.1500 
 23 H       -2.6520     2.6660    -0.8200 H     1 <1>   0.0800 
 24 H       -2.0310     2.9800    -2.4010 H     1 <1>   0.0800 
 25 H       -1.1830    -1.8550    -0.4990 H     1 <1>   0.0800 
 26 H       -1.5370    -1.5510    -2.1680 H     1 <1>   0.0800 
 27 H       -2.0160     1.2410     0.8900 H     1 <1>   0.0800 
 28 H       -2.1870    -0.4550     1.2100 H     1 <1>   0.0800 
 29 H        0.2840     2.8190    -1.5790 H     1 <1>   0.0800 
 30 H       -0.2840     2.4680     0.0250 H     1 <1>   0.0800 
 31 H       -4.5290    -0.4070     0.4510 H     1 <1>   0.0800 
 32 H       -4.3580     1.2760    -0.0260 H     1 <1>   0.0800 
 33 H       -1.4120     4.6930     0.0960 H     1 <1>   0.0800 
 34 H       -0.7900     5.0440    -1.4890 H     1 <1>   0.0800 
 35 H       -4.3820    -1.4000    -2.7660 H     1 <1>   0.1500 
 36 H       -5.2990     0.9940     2.0450 H     1 <1>   0.4000 
 37 H       -5.4460    -4.0150     0.2160 H     1 <1>   0.1500 
 38 H       -2.6580    -2.6590     1.7580 H     1 <1>   0.0800 
 39 H       -1.8760    -3.8460     0.7230 H     1 <1>   0.0800 
 40 H       -3.3550    -4.2560     1.5680 H     1 <1>   0.0800 
 41 H        1.6750     5.2770    -1.8480 H     1 <1>   0.1500 
 42 H        0.0250     4.7900     2.0560 H     1 <1>   0.1500 
 43 H        3.7790     6.0550    -0.8580 H     1 <1>   0.1500 
 44 H        2.1300     5.5680     3.0390 H     1 <1>   0.1500 
 45 H        4.0120     6.2030     1.5870 H     1 <1>   0.1500 
@<TRIPOS>BOND
  1   1   2  2   
  2   2   3  am  
  3   2   4  1   
  4   3   5  1   
  5   3   6  1   
  6   4   7  1   
  7   4  23  1   
  8   4  24  1   
  9   5   8  1   
 10   5  25  1   
 11   5  26  1   
 12   6   9  1   
 13   6  27  1   
 14   6  28  1   
 15   7  10  1   
 16   7  29  1   
 17   7  30  1   
 18   8  11  1   
 19   8  12  2   
 20   9  13  1   
 21   9  31  1   
 22   9  32  1   
 23  10  14  1   
 24  10  33  1   
 25  10  34  1   
 26  11  15  1   
 27  11  16  1   
 28  12  17  1   
 29  12  35  1   
 30  13  36  1   
 31  14  18  ar  
 32  14  19  ar  
 33  15  17  2   
 34  15  37  1   
 35  16  38  1   
 36  16  39  1   
 37  16  40  1   
 38  18  20  ar  
 39  18  41  1   
 40  19  21  ar  
 41  19  42  1   
 42  20  22  ar  
 43  20  43  1   
 44  21  22  ar  
 45  21  44  1   
 46  22  45  1   
@<TRIPOS>SUBSTRUCTURE
  1 ****   3 GROUP 4 **** **** 0

# MOE 2024.06 (io_trps.svl 2023.06)
