@<TRIPOS>MOLECULE
NONAME
54 57 1 0 0 
SMALL
USER_CHARGES


@<TRIPOS>ATOM
  1 O       -3.1980     1.3910    -1.5590 O.2   1 <1>  -0.5700 
  2 C       -2.5240     1.2110    -0.5750 C.2   1 <1>   0.5690 
  3 N       -2.1570    -0.0280    -0.1750 N.am  1 <1>  -0.7300 
  4 C       -2.0800     2.4030     0.2390 C.3   1 <1>  -0.0990 
  5 C       -2.5450    -1.2760    -0.8680 C.3   1 <1>   0.2200 
  6 C       -1.4710     3.4730    -0.6730 C.3   1 <1>   0.0960 
  7 C       -3.7810    -1.8500    -0.1960 C.3   1 <1>  -0.0800 
  8 C       -1.5130    -2.3610    -0.5910 C.3   1 <1>   0.1200 
  9 N       -0.8680     4.5500     0.1380 N.pl3 1 <1>   0.0480 
 10 C       -3.1870    -2.6720     0.9550 C.3   1 <1>   0.1200 
 11 C       -4.6030    -2.7150    -1.1720 C.3   1 <1>  -0.0170 
 12 O       -1.8310    -2.8690     0.6680 O.3   1 <1>  -0.5600 
 13 C        0.4410     4.8390     0.3600 C.2   1 <1>   0.0060 
 14 C       -1.5450     5.4670     0.8530 C.2   1 <1>  -0.3020 
 15 C       -5.9030    -3.1930    -0.5340 C.ar  1 <1>  -0.1440 
 16 N        0.6200     5.8470     1.1510 N.2   1 <1>  -0.5650 
 17 C        1.6060     4.0760    -0.2530 C.3   1 <1>   0.0200 
 18 C       -0.6260     6.2440     1.4610 C.2   1 <1>   0.0770 
 19 C       -7.0160    -2.3360    -0.3540 C.ar  1 <1>   0.0000 
 20 C       -6.0280    -4.4850    -0.1130 C.ar  1 <1>  -0.1500 
 21 C        1.8230     2.7170     0.4220 C.3   1 <1>  -0.2400 
 22 C       -8.1670    -2.8770     0.2700 C.ar  1 <1>   0.3100 
 23 C       -7.0570    -0.9800    -0.7560 C.ar  1 <1>  -0.1500 
 24 C       -7.2150    -4.9200     0.4850 C.ar  1 <1>   0.1600 
 25 N       -8.2500    -4.1670     0.6820 N.ar  1 <1>  -0.6200 
 26 C       -9.2820    -2.0490     0.4740 C.ar  1 <1>  -0.1500 
 27 C       -8.1610    -0.2010    -0.5440 C.ar  1 <1>  -0.1500 
 28 C       -9.2890    -0.7380     0.0800 C.ar  1 <1>  -0.1500 
 29 H       -1.6620    -0.1790     0.7070 H     1 <1>   0.3700 
 30 H       -2.9360     2.8040     0.7480 H     1 <1>   0.0800 
 31 H       -1.3560     2.0910     0.9690 H     1 <1>   0.0800 
 32 H       -2.6770    -1.0930    -1.9210 H     1 <1>   0.0800 
 33 H       -2.2310     3.8970    -1.3050 H     1 <1>   0.0800 
 34 H       -0.7170     3.0370    -1.3020 H     1 <1>   0.0800 
 35 H       -4.4080    -1.0650     0.1890 H     1 <1>   0.0800 
 36 H       -0.5040    -1.9870    -0.5880 H     1 <1>   0.0800 
 37 H       -1.6020    -3.1650    -1.3010 H     1 <1>   0.0800 
 38 H       -3.6590    -3.6310     1.0720 H     1 <1>   0.0800 
 39 H       -3.2480    -2.1310     1.8830 H     1 <1>   0.0800 
 40 H       -4.0200    -3.5640    -1.4830 H     1 <1>   0.0800 
 41 H       -4.8330    -2.1530    -2.0600 H     1 <1>   0.0800 
 42 H       -2.6180     5.5180     0.8910 H     1 <1>   0.1500 
 43 H        1.4460     3.9490    -1.3080 H     1 <1>   0.0800 
 44 H        2.4970     4.6680    -0.1320 H     1 <1>   0.0800 
 45 H       -0.7960     7.0830     2.1150 H     1 <1>   0.1500 
 46 H       -5.2280    -5.1950    -0.2240 H     1 <1>   0.1500 
 47 H        0.9830     2.0690     0.2590 H     1 <1>   0.0800 
 48 H        1.9560     2.8570     1.4810 H     1 <1>   0.0800 
 49 H        2.7040     2.2460     0.0240 H     1 <1>   0.0800 
 50 H       -6.2050    -0.5430    -1.2430 H     1 <1>   0.1500 
 51 H       -7.2710    -5.9480     0.8040 H     1 <1>   0.1500 
 52 H      -10.1390    -2.4850     0.9540 H     1 <1>   0.1500 
 53 H       -8.1770     0.8300    -0.8550 H     1 <1>   0.1500 
 54 H      -10.1510    -0.1150     0.2430 H     1 <1>   0.1500 
@<TRIPOS>BOND
  1   1   2  2   
  2   2   3  am  
  3   2   4  1   
  4   3   5  1   
  5   3  29  1   
  6   4   6  1   
  7   4  30  1   
  8   4  31  1   
  9   5   7  1   
 10   5   8  1   
 11   5  32  1   
 12   6   9  1   
 13   6  33  1   
 14   6  34  1   
 15   7  10  1   
 16   7  11  1   
 17   7  35  1   
 18   8  12  1   
 19   8  36  1   
 20   8  37  1   
 21   9  13  1   
 22   9  14  1   
 23  10  12  1   
 24  10  38  1   
 25  10  39  1   
 26  11  15  1   
 27  11  40  1   
 28  11  41  1   
 29  13  16  2   
 30  13  17  1   
 31  14  18  2   
 32  14  42  1   
 33  15  19  ar  
 34  15  20  ar  
 35  16  18  1   
 36  17  21  1   
 37  17  43  1   
 38  17  44  1   
 39  18  45  1   
 40  19  22  ar  
 41  19  23  ar  
 42  20  24  ar  
 43  20  46  1   
 44  21  47  1   
 45  21  48  1   
 46  21  49  1   
 47  22  25  ar  
 48  22  26  ar  
 49  23  27  ar  
 50  23  50  1   
 51  24  25  ar  
 52  24  51  1   
 53  26  28  ar  
 54  26  52  1   
 55  27  28  ar  
 56  27  53  1   
 57  28  54  1   
@<TRIPOS>SUBSTRUCTURE
  1 ****   3 GROUP 4 **** **** 0

# MOE 2024.06 (io_trps.svl 2023.06)
