@<TRIPOS>MOLECULE
NONAME
48 50 1 0 0 
SMALL
USER_CHARGES


@<TRIPOS>ATOM
  1 O       -2.2750    -0.5530    -2.6500 O.co2 1 <1>  -0.9000 
  2 C       -2.1010     0.0430    -1.5730 C.2   1 <1>   0.9790 
  3 O       -1.0390     0.6590    -1.3860 O.co2 1 <1>  -0.9000 
  4 C       -3.0910    -0.1130    -0.5310 C.ar  1 <1>  -0.1790 
  5 C       -3.9540     0.8660    -0.0030 C.ar  1 <1>   0.0830 
  6 C       -3.2290    -1.4130    -0.0530 C.ar  1 <1>  -0.1500 
  7 O       -4.0000     2.1800    -0.3420 O.3   1 <1>  -0.3630 
  8 C       -4.8970     0.5060     0.9490 C.ar  1 <1>  -0.1500 
  9 C       -4.1990    -1.7750     0.8620 C.ar  1 <1>  -0.1430 
 10 C       -3.0510     2.8170    -1.1680 C.3   1 <1>   0.0400 
 11 C       -5.0330    -0.8000     1.3810 C.ar  1 <1>  -0.1500 
 12 C       -4.3600    -3.2340     1.2290 C.3   1 <1>   0.4870 
 13 N       -4.5960    -3.9820    -0.0360 N.4   1 <1>  -0.9590 
 14 C       -5.8930    -3.5750    -0.6610 C.3   1 <1>   0.3430 
 15 C       -4.6580    -5.4530     0.2010 C.3   1 <1>   0.3430 
 16 C       -6.8910    -4.6750    -0.2910 C.3   1 <1>   0.2000 
 17 C       -6.0190    -5.9310    -0.3180 C.3   1 <1>  -0.0800 
 18 O       -7.3470    -4.4430     1.0060 O.3   1 <1>  -0.6800 
 19 C       -6.5570    -7.1470     0.4610 C.3   1 <1>   0.0210 
 20 C       -5.6100    -8.3260     0.3520 C.2   1 <1>   0.1080 
 21 N       -4.3940    -8.2980     0.8040 N.2   1 <1>  -0.7070 
 22 C       -5.9290    -9.5490    -0.2270 C.2   1 <1>  -0.1500 
 23 N       -3.9030    -9.5270     0.5340 N.pl3 1 <1>   0.3000 
 24 C       -4.8140   -10.2970    -0.0970 C.2   1 <1>  -0.3320 
 25 C       -4.5600   -11.7280    -0.5360 C.3   1 <1>  -0.0600 
 26 H       -2.5480    -2.1450    -0.4540 H     1 <1>   0.1500 
 27 H       -5.5390     1.2720     1.3450 H     1 <1>   0.1500 
 28 H       -3.3250     3.8510    -1.2580 H     1 <1>   0.0800 
 29 H       -3.0580     2.3560    -2.1400 H     1 <1>   0.0800 
 30 H       -2.0810     2.7380    -0.7100 H     1 <1>   0.0800 
 31 H       -5.7910    -1.0420     2.1060 H     1 <1>   0.1500 
 32 H       -5.1950    -3.3620     1.8990 H     1 <1>   0.0800 
 33 H       -3.4630    -3.5850     1.7120 H     1 <1>   0.0800 
 34 H       -3.8320    -3.7270    -0.6780 H     1 <1>   0.4500 
 35 H       -6.2290    -2.6080    -0.3240 H     1 <1>   0.0800 
 36 H       -5.7760    -3.5480    -1.7320 H     1 <1>   0.0800 
 37 H       -3.8580    -5.9720    -0.3020 H     1 <1>   0.0800 
 38 H       -4.5890    -5.6640     1.2570 H     1 <1>   0.0800 
 39 H       -7.7330    -4.7090    -0.9610 H     1 <1>   0.0800 
 40 H       -5.8830    -6.2260    -1.3440 H     1 <1>   0.0800 
 41 H       -8.1420    -4.9800     1.2050 H     1 <1>   0.4000 
 42 H       -7.5200    -7.4300     0.0760 H     1 <1>   0.0800 
 43 H       -6.6700    -6.9120     1.5050 H     1 <1>   0.0800 
 44 H       -6.8690    -9.8230    -0.6740 H     1 <1>   0.1500 
 45 H       -2.9510    -9.8150     0.7940 H     1 <1>   0.2700 
 46 H       -5.4370   -12.1300    -1.0110 H     1 <1>   0.0800 
 47 H       -4.3220   -12.3420     0.3150 H     1 <1>   0.0800 
 48 H       -3.7450   -11.7650    -1.2360 H     1 <1>   0.0800 
@<TRIPOS>BOND
  1   1   2  ar  
  2   2   3  ar  
  3   2   4  1   
  4   4   5  ar  
  5   4   6  ar  
  6   5   7  1   
  7   5   8  ar  
  8   6   9  ar  
  9   6  26  1   
 10   7  10  1   
 11   8  11  ar  
 12   8  27  1   
 13   9  11  ar  
 14   9  12  1   
 15  10  28  1   
 16  10  29  1   
 17  10  30  1   
 18  11  31  1   
 19  12  13  1   
 20  12  32  1   
 21  12  33  1   
 22  13  14  1   
 23  13  15  1   
 24  13  34  1   
 25  14  16  1   
 26  14  35  1   
 27  14  36  1   
 28  15  17  1   
 29  15  37  1   
 30  15  38  1   
 31  16  17  1   
 32  16  18  1   
 33  16  39  1   
 34  17  19  1   
 35  17  40  1   
 36  18  41  1   
 37  19  20  1   
 38  19  42  1   
 39  19  43  1   
 40  20  21  2   
 41  20  22  1   
 42  21  23  1   
 43  22  24  2   
 44  22  44  1   
 45  23  24  1   
 46  23  45  1   
 47  24  25  1   
 48  25  46  1   
 49  25  47  1   
 50  25  48  1   
@<TRIPOS>SUBSTRUCTURE
  1 ****  13 GROUP 4 **** **** 0

# MOE 2024.06 (io_trps.svl 2023.06)
