@<TRIPOS>MOLECULE
NONAME
28 29 1 0 0 
SMALL
USER_CHARGES


@<TRIPOS>ATOM
  1 CL       0.1000     0.3620     1.5500 Cl    1 <1>  -0.1770 
  2 C        1.1190    -0.8450     0.7820 C.ar  1 <1>   0.1770 
  3 C        0.7210    -2.1730     0.6440 C.ar  1 <1>   0.4100 
  4 C        2.3510    -0.4880     0.3090 C.ar  1 <1>   0.1600 
  5 N        1.5260    -3.0530     0.0740 N.ar  1 <1>  -0.6200 
  6 N       -0.5070    -2.6580     1.0630 N.pl3 1 <1>  -0.8380 
  7 N        3.1590    -1.3620    -0.2680 N.ar  1 <1>  -0.6200 
  8 C        2.6920    -2.5960    -0.3480 C.ar  1 <1>   0.4770 
  9 C       -0.5910    -3.9540     1.7920 C.3   1 <1>   0.2090 
 10 C       -1.7630    -2.1450     0.4540 C.3   1 <1>   0.2090 
 11 C        3.6090    -3.6050    -0.9980 C.3   1 <1>  -0.0960 
 12 C       -0.9260    -5.0750     0.8200 C.3   1 <1>  -0.0550 
 13 C       -2.1890    -3.0820    -0.6640 C.3   1 <1>  -0.0550 
 14 S       -2.4540    -4.7180    -0.0160 S.o2  1 <1>   1.0900 
 15 O       -3.5020    -4.6390     0.9770 O.2   1 <1>  -0.6500 
 16 O       -2.5980    -5.6310    -1.1260 O.2   1 <1>  -0.6500 
 17 H        2.6870     0.5300     0.4040 H     1 <1>   0.1500 
 18 H       -1.3490    -3.8870     2.5560 H     1 <1>   0.0800 
 19 H        0.3510    -4.1610     2.2730 H     1 <1>   0.0800 
 20 H       -1.6060    -1.1600     0.0510 H     1 <1>   0.0800 
 21 H       -2.5310    -2.0830     1.2080 H     1 <1>   0.0800 
 22 H        3.0540    -4.4690    -1.3140 H     1 <1>   0.0800 
 23 H        4.3610    -3.9070    -0.2930 H     1 <1>   0.0800 
 24 H        4.0860    -3.1650    -1.8540 H     1 <1>   0.0800 
 25 H       -1.0110    -5.9990     1.3560 H     1 <1>   0.0800 
 26 H       -0.1270    -5.1730     0.1110 H     1 <1>   0.0800 
 27 H       -1.4250    -3.0980    -1.4170 H     1 <1>   0.0800 
 28 H       -3.0940    -2.7170    -1.1100 H     1 <1>   0.0800 
@<TRIPOS>BOND
  1   1   2  1   
  2   2   3  ar  
  3   2   4  ar  
  4   3   5  ar  
  5   3   6  1   
  6   4   7  ar  
  7   4  17  1   
  8   5   8  ar  
  9   6   9  1   
 10   6  10  1   
 11   7   8  ar  
 12   8  11  1   
 13   9  12  1   
 14   9  18  1   
 15   9  19  1   
 16  10  13  1   
 17  10  20  1   
 18  10  21  1   
 19  11  22  1   
 20  11  23  1   
 21  11  24  1   
 22  12  14  1   
 23  12  25  1   
 24  12  26  1   
 25  13  14  1   
 26  13  27  1   
 27  13  28  1   
 28  14  15  2   
 29  14  16  2   
@<TRIPOS>SUBSTRUCTURE
  1 ****   6 GROUP 4 **** **** 0

# MOE 2024.06 (io_trps.svl 2023.06)
