@<TRIPOS>MOLECULE
NONAME
54 56 1 0 0 
SMALL
USER_CHARGES


@<TRIPOS>ATOM
  1 CL      -0.3800     0.3260    -0.0860 Cl    1 <1>  -0.1770 
  2 C       -0.3210     2.0720     0.0060 C.ar  1 <1>   0.1770 
  3 C        0.7270     2.7660    -0.5770 C.ar  1 <1>  -0.1440 
  4 C       -1.3420     2.7260     0.6690 C.ar  1 <1>  -0.1500 
  5 C        0.7260     4.1470    -0.4810 C.ar  1 <1>  -0.1500 
  6 C        1.8480     2.0420    -1.3080 C.3   1 <1>  -0.0960 
  7 C       -1.3500     4.1120     0.7820 C.ar  1 <1>  -0.0090 
  8 C       -0.2970     4.8070     0.1890 C.ar  1 <1>   0.0830 
  9 S       -2.7090     4.9420     1.6530 S.o2  1 <1>   1.4470 
 10 O       -0.2610     6.1530     0.2230 O.3   1 <1>  -0.3630 
 11 O       -3.3180     3.9680     2.5350 O.2   1 <1>  -0.6500 
 12 O       -2.3190     6.2090     2.2350 O.2   1 <1>  -0.6500 
 13 N       -3.8560     5.2790     0.4510 N.am  1 <1>  -0.8490 
 14 C        0.6320     6.7440     1.1370 C.3   1 <1>   0.1200 
 15 C       -5.1550     5.6210     1.0550 C.3   1 <1>   0.1960 
 16 C       -3.4140     6.3390    -0.4600 C.3   1 <1>   0.1960 
 17 C        0.4090     8.2520     1.1000 C.3   1 <1>  -0.2400 
 18 C       -6.2760     5.8070     0.0030 C.3   1 <1>   0.0000 
 19 C       -4.4360     6.5490    -1.5800 C.3   1 <1>  -0.1600 
 20 C       -7.5860     6.1730     0.7310 C.3   1 <1>   0.2000 
 21 C       -5.8270     6.8740    -1.0210 C.3   1 <1>  -0.1600 
 22 C       -6.6200     4.4630    -0.6620 C.3   1 <1>  -0.1600 
 23 O       -8.4890     6.7350    -0.1790 O.3   1 <1>  -0.5600 
 24 C       -8.1570     4.8360     1.2170 C.3   1 <1>  -0.1600 
 25 C       -7.5940     3.7540     0.2860 C.3   1 <1>  -0.1600 
 26 C       -9.4660     7.5530     0.3850 C.3   1 <1>   0.0400 
 27 H       -2.1390     2.1460     1.1030 H     1 <1>   0.1500 
 28 H        1.5130     4.7250    -0.9310 H     1 <1>   0.1500 
 29 H        2.5720     2.7370    -1.6920 H     1 <1>   0.0800 
 30 H        1.4450     1.4790    -2.1310 H     1 <1>   0.0800 
 31 H        2.3470     1.3650    -0.6380 H     1 <1>   0.0800 
 32 H        0.4240     6.3540     2.1190 H     1 <1>   0.0800 
 33 H        1.6380     6.4940     0.8490 H     1 <1>   0.0800 
 34 H       -5.4460     4.8370     1.7340 H     1 <1>   0.0800 
 35 H       -5.0480     6.5260     1.6300 H     1 <1>   0.0800 
 36 H       -3.2710     7.2590     0.0840 H     1 <1>   0.0800 
 37 H       -2.4770     6.0660    -0.9110 H     1 <1>   0.0800 
 38 H       -0.6020     8.4780     1.3900 H     1 <1>   0.0800 
 39 H        0.5980     8.6330     0.1130 H     1 <1>   0.0800 
 40 H        1.0780     8.7350     1.7900 H     1 <1>   0.0800 
 41 H       -4.1070     7.3550    -2.2120 H     1 <1>   0.0800 
 42 H       -4.4800     5.6590    -2.1830 H     1 <1>   0.0800 
 43 H       -7.4140     6.8710     1.5330 H     1 <1>   0.0800 
 44 H       -6.5340     6.9390    -1.8290 H     1 <1>   0.0800 
 45 H       -5.7970     7.8340    -0.5370 H     1 <1>   0.0800 
 46 H       -7.1290     4.6490    -1.5930 H     1 <1>   0.0800 
 47 H       -5.7490     3.8630    -0.8630 H     1 <1>   0.0800 
 48 H       -7.8120     4.6490     2.2190 H     1 <1>   0.0800 
 49 H       -9.2330     4.8320     1.2210 H     1 <1>   0.0800 
 50 H       -7.0740     3.0070     0.8610 H     1 <1>   0.0800 
 51 H       -8.3800     3.2780    -0.2740 H     1 <1>   0.0800 
 52 H      -10.1100     7.8950    -0.4060 H     1 <1>   0.0800 
 53 H       -8.9920     8.3970     0.8550 H     1 <1>   0.0800 
 54 H      -10.0390     6.9910     1.1010 H     1 <1>   0.0800 
@<TRIPOS>BOND
  1   1   2  1   
  2   2   3  ar  
  3   2   4  ar  
  4   3   5  ar  
  5   3   6  1   
  6   4   7  ar  
  7   4  27  1   
  8   5   8  ar  
  9   5  28  1   
 10   6  29  1   
 11   6  30  1   
 12   6  31  1   
 13   7   8  ar  
 14   7   9  1   
 15   8  10  1   
 16   9  11  2   
 17   9  12  2   
 18   9  13  am  
 19  10  14  1   
 20  13  15  1   
 21  13  16  1   
 22  14  17  1   
 23  14  32  1   
 24  14  33  1   
 25  15  18  1   
 26  15  34  1   
 27  15  35  1   
 28  16  19  1   
 29  16  36  1   
 30  16  37  1   
 31  17  38  1   
 32  17  39  1   
 33  17  40  1   
 34  18  20  1   
 35  18  21  1   
 36  18  22  1   
 37  19  21  1   
 38  19  41  1   
 39  19  42  1   
 40  20  23  1   
 41  20  24  1   
 42  20  43  1   
 43  21  44  1   
 44  21  45  1   
 45  22  25  1   
 46  22  46  1   
 47  22  47  1   
 48  23  26  1   
 49  24  25  1   
 50  24  48  1   
 51  24  49  1   
 52  25  50  1   
 53  25  51  1   
 54  26  52  1   
 55  26  53  1   
 56  26  54  1   
@<TRIPOS>SUBSTRUCTURE
  1 ****  13 GROUP 4 **** **** 0

# MOE 2024.06 (io_trps.svl 2023.06)
