@<TRIPOS>MOLECULE
NONAME
43 45 1 0 0 
SMALL
USER_CHARGES


@<TRIPOS>ATOM
  1 F       -0.5020     0.5420     0.1740 F     1 <1>  -0.3400 
  2 C       -1.6250    -0.0190    -0.2580 C.3   1 <1>   1.1640 
  3 F       -1.8060     0.4080    -1.4990 F     1 <1>  -0.3400 
  4 F       -2.6060     0.4930     0.4700 F     1 <1>  -0.3400 
  5 C       -1.5840    -1.5580    -0.1780 C.ar  1 <1>  -0.1440 
  6 C       -0.4870    -2.2560     0.2840 C.ar  1 <1>  -0.1500 
  7 C       -2.7040    -2.2920    -0.5900 C.ar  1 <1>  -0.1500 
  8 C       -0.4760    -3.6580     0.3460 C.ar  1 <1>   0.3610 
  9 C       -2.7130    -3.6620    -0.5340 C.ar  1 <1>  -0.1500 
 10 N        0.6370    -4.3310     0.7970 N.ar  1 <1>  -0.1790 
 11 C       -1.6060    -4.3930    -0.0610 C.ar  1 <1>   0.0000 
 12 C        0.6950    -5.6720     0.8510 C.ar  1 <1>   0.2180 
 13 C       -1.5770    -5.8200     0.0290 C.ar  1 <1>   0.1000 
 14 C       -0.3900    -6.4120     0.4620 C.ar  1 <1>  -0.1500 
 15 C        1.9690    -6.3290     1.3540 C.3   1 <1>  -0.0970 
 16 N       -2.6770    -6.5490    -0.2730 N.pl3 1 <1>  -0.8690 
 17 C       -2.9530    -8.0290    -0.1270 C.3   1 <1>   0.3500 
 18 C       -2.7050    -8.6610     1.2740 C.2   1 <1>   0.5690 
 19 C       -2.2170    -8.7720    -1.2560 C.3   1 <1>  -0.1600 
 20 O       -2.1720    -8.0400     2.1650 O.2   1 <1>  -0.5700 
 21 N       -3.0820    -9.9370     1.5300 N.am  1 <1>  -0.7300 
 22 C       -2.8850   -10.0950    -1.6690 C.3   1 <1>  -0.1600 
 23 C       -3.7380   -10.9060     0.6300 C.3   1 <1>   0.1400 
 24 C       -2.8620   -11.1940    -0.5930 C.3   1 <1>  -0.1600 
 25 H        0.3890    -1.7190     0.6070 H     1 <1>   0.1500 
 26 H       -3.5750    -1.7690    -0.9570 H     1 <1>   0.1500 
 27 H       -3.5930    -4.1870    -0.8610 H     1 <1>   0.1500 
 28 H        1.4400    -3.7790     1.1020 H     1 <1>   0.4570 
 29 H       -0.3320    -7.4820     0.5150 H     1 <1>   0.1500 
 30 H        2.1800    -6.0160     2.3610 H     1 <1>   0.0800 
 31 H        2.8010    -6.0740     0.7210 H     1 <1>   0.0800 
 32 H        1.8660    -7.4010     1.3560 H     1 <1>   0.0800 
 33 H       -3.5270    -6.0560    -0.5610 H     1 <1>   0.4000 
 34 H       -4.0060    -8.1470    -0.3070 H     1 <1>   0.0800 
 35 H       -1.2020    -8.9670    -0.9640 H     1 <1>   0.0800 
 36 H       -2.1940    -8.1390    -2.1250 H     1 <1>   0.0800 
 37 H       -2.8900   -10.2640     2.4800 H     1 <1>   0.3700 
 38 H       -2.3640   -10.4700    -2.5340 H     1 <1>   0.0800 
 39 H       -3.9010    -9.9090    -1.9730 H     1 <1>   0.0800 
 40 H       -4.7020   -10.5320     0.3260 H     1 <1>   0.0800 
 41 H       -3.8940   -11.8220     1.1740 H     1 <1>   0.0800 
 42 H       -1.8520   -11.3950    -0.2790 H     1 <1>   0.0800 
 43 H       -3.2330   -12.0960    -1.0480 H     1 <1>   0.0800 
@<TRIPOS>BOND
  1   1   2  1   
  2   2   3  1   
  3   2   4  1   
  4   2   5  1   
  5   5   6  ar  
  6   5   7  ar  
  7   6   8  ar  
  8   6  25  1   
  9   7   9  ar  
 10   7  26  1   
 11   8  10  ar  
 12   8  11  ar  
 13   9  11  ar  
 14   9  27  1   
 15  10  12  ar  
 16  10  28  1   
 17  11  13  ar  
 18  12  14  ar  
 19  12  15  1   
 20  13  14  ar  
 21  13  16  1   
 22  14  29  1   
 23  15  30  1   
 24  15  31  1   
 25  15  32  1   
 26  16  17  1   
 27  16  33  1   
 28  17  18  1   
 29  17  19  1   
 30  17  34  1   
 31  18  20  2   
 32  18  21  am  
 33  19  22  1   
 34  19  35  1   
 35  19  36  1   
 36  21  23  1   
 37  21  37  1   
 38  22  24  1   
 39  22  38  1   
 40  22  39  1   
 41  23  24  1   
 42  23  40  1   
 43  23  41  1   
 44  24  42  1   
 45  24  43  1   
@<TRIPOS>SUBSTRUCTURE
  1 ****  13 GROUP 4 **** **** 0

# MOE 2024.06 (io_trps.svl 2023.06)
