@<TRIPOS>MOLECULE
NONAME
46 48 1 0 0 
SMALL
USER_CHARGES


@<TRIPOS>ATOM
  1 F       -0.4540    -0.6350    -0.0590 F     1 <1>  -0.1900 
  2 C       -0.5180    -1.9370     0.0300 C.ar  1 <1>   0.1900 
  3 C       -1.7060    -2.5200     0.4260 C.ar  1 <1>  -0.1500 
  4 C        0.6040    -2.6820    -0.2760 C.ar  1 <1>  -0.1500 
  5 C       -1.7680    -3.9010     0.5180 C.ar  1 <1>  -0.1500 
  6 C        0.5300    -4.0620    -0.1800 C.ar  1 <1>  -0.1500 
  7 C       -0.6530    -4.6740     0.2160 C.ar  1 <1>  -0.1430 
  8 C       -0.7240    -6.1890     0.3140 C.3   1 <1>  -0.0160 
  9 C       -1.0570    -6.7990    -1.0510 C.3   1 <1>  -0.0990 
 10 C       -1.1960    -8.3050    -0.9500 C.2   1 <1>   0.5690 
 11 O       -0.2060    -8.9730    -1.1270 O.2   1 <1>  -0.5700 
 12 N       -2.4030    -8.8750    -0.6520 N.am  1 <1>  -0.6600 
 13 C       -3.6920    -8.1760    -0.4240 C.3   1 <1>   0.1400 
 14 C       -2.5610   -10.3380    -0.4640 C.3   1 <1>   0.1400 
 15 C       -4.7180    -9.2910    -0.2240 C.3   1 <1>   0.2000 
 16 C       -3.9120   -10.5050     0.2300 C.3   1 <1>  -0.0800 
 17 O       -5.6570    -8.9510     0.7340 O.3   1 <1>  -0.6800 
 18 C       -4.6000   -11.8440    -0.0770 C.3   1 <1>   0.0210 
 19 C       -3.7110   -13.0100     0.3070 C.2   1 <1>   0.1080 
 20 N       -3.2930   -13.2040     1.5190 N.2   1 <1>  -0.7070 
 21 C       -3.2380   -13.9760    -0.5740 C.2   1 <1>  -0.1500 
 22 N       -2.5330   -14.3130     1.4430 N.pl3 1 <1>   0.3000 
 23 C       -2.4840   -14.7990     0.1840 C.2   1 <1>  -0.3320 
 24 C       -1.7060   -16.0370    -0.2220 C.3   1 <1>  -0.0600 
 25 H       -2.5570    -1.9060     0.6560 H     1 <1>   0.1500 
 26 H        1.5110    -2.1920    -0.5800 H     1 <1>   0.1500 
 27 H       -2.6870    -4.3690     0.8260 H     1 <1>   0.1500 
 28 H        1.3950    -4.6580    -0.4150 H     1 <1>   0.1500 
 29 H        0.2190    -6.5770     0.6590 H     1 <1>   0.0800 
 30 H       -1.4710    -6.4720     1.0340 H     1 <1>   0.0800 
 31 H       -0.2640    -6.5770    -1.7420 H     1 <1>   0.0800 
 32 H       -1.9570    -6.3660    -1.4440 H     1 <1>   0.0800 
 33 H       -3.6160    -7.5650     0.4580 H     1 <1>   0.0800 
 34 H       -3.9530    -7.5740    -1.2770 H     1 <1>   0.0800 
 35 H       -2.5570   -10.8160    -1.4280 H     1 <1>   0.0800 
 36 H       -1.7590   -10.7410     0.1340 H     1 <1>   0.0800 
 37 H       -5.2310    -9.4820    -1.1520 H     1 <1>   0.0800 
 38 H       -3.7280   -10.4410     1.2890 H     1 <1>   0.0800 
 39 H       -5.2630    -9.0030     1.6270 H     1 <1>   0.4000 
 40 H       -4.8400   -11.9070    -1.1230 H     1 <1>   0.0800 
 41 H       -5.5170   -11.9120     0.4820 H     1 <1>   0.0800 
 42 H       -3.4430   -14.0320    -1.6280 H     1 <1>   0.1500 
 43 H       -2.0630   -14.7110     2.2650 H     1 <1>   0.2700 
 44 H       -1.8230   -16.2180    -1.2750 H     1 <1>   0.0800 
 45 H       -2.0660   -16.8960     0.3160 H     1 <1>   0.0800 
 46 H       -0.6590   -15.9030    -0.0120 H     1 <1>   0.0800 
@<TRIPOS>BOND
  1   1   2  1   
  2   2   3  ar  
  3   2   4  ar  
  4   3   5  ar  
  5   3  25  1   
  6   4   6  ar  
  7   4  26  1   
  8   5   7  ar  
  9   5  27  1   
 10   6   7  ar  
 11   6  28  1   
 12   7   8  1   
 13   8   9  1   
 14   8  29  1   
 15   8  30  1   
 16   9  10  1   
 17   9  31  1   
 18   9  32  1   
 19  10  11  2   
 20  10  12  am  
 21  12  13  1   
 22  12  14  1   
 23  13  15  1   
 24  13  33  1   
 25  13  34  1   
 26  14  16  1   
 27  14  35  1   
 28  14  36  1   
 29  15  16  1   
 30  15  17  1   
 31  15  37  1   
 32  16  18  1   
 33  16  38  1   
 34  17  39  1   
 35  18  19  1   
 36  18  40  1   
 37  18  41  1   
 38  19  20  2   
 39  19  21  1   
 40  20  22  1   
 41  21  23  2   
 42  21  42  1   
 43  22  23  1   
 44  22  43  1   
 45  23  24  1   
 46  24  44  1   
 47  24  45  1   
 48  24  46  1   
@<TRIPOS>SUBSTRUCTURE
  1 ****  12 GROUP 4 **** **** 0

# MOE 2024.06 (io_trps.svl 2023.06)
