@<TRIPOS>MOLECULE
NONAME
47 49 1 0 0 
SMALL
USER_CHARGES


@<TRIPOS>ATOM
  1 S        0.2820     0.6090    -0.8540 S.o2  1 <1>   1.4470 
  2 O       -0.1440     1.9830    -1.0280 O.2   1 <1>  -0.6500 
  3 O        0.8450    -0.1290    -1.9640 O.2   1 <1>  -0.6500 
  4 N        1.3810     0.5480     0.4440 N.am  1 <1>  -0.8490 
  5 C       -1.1150    -0.3390    -0.1880 C.ar  1 <1>  -0.0090 
  6 C        1.7110     1.8340     1.0900 C.3   1 <1>   0.1960 
  7 C        2.4710    -0.4400     0.3570 C.3   1 <1>   0.1960 
  8 C       -1.3660    -1.6410    -0.6040 C.ar  1 <1>  -0.1500 
  9 C       -1.9550     0.2080     0.7710 C.ar  1 <1>  -0.1500 
 10 C        2.8440     2.6690     0.4310 C.3   1 <1>   0.2200 
 11 C        3.7810     0.0150    -0.3290 C.3   1 <1>  -0.0190 
 12 C       -2.4210    -2.3940    -0.0920 C.ar  1 <1>   0.0830 
 13 C       -3.0020    -0.5230     1.3000 C.ar  1 <1>  -0.1500 
 14 N        3.1020     2.3220    -1.0000 N.am  1 <1>  -0.6600 
 15 C        4.1510     2.5770     1.2450 C.3   1 <1>   0.1200 
 16 C        3.6190     1.1090    -1.3650 C.2   1 <1>   0.5690 
 17 C        4.8910     0.3980     0.6610 C.3   1 <1>   0.1200 
 18 O       -2.6540    -3.6610    -0.5430 O.3   1 <1>  -0.3630 
 19 C       -3.2480    -1.8210     0.8910 C.ar  1 <1>   0.0830 
 20 C        2.7200     3.3470    -2.0110 C.3   1 <1>   0.0600 
 21 O        4.4380     1.2680     1.6530 O.3   1 <1>  -0.5600 
 22 O        4.0070     0.8860    -2.4880 O.2   1 <1>  -0.5700 
 23 C       -2.0570    -4.1640    -1.7190 C.3   1 <1>   0.0400 
 24 O       -4.3090    -2.4100     1.5150 O.3   1 <1>  -0.3620 
 25 C       -4.5630    -3.7960     1.4660 C.3   1 <1>   0.0400 
 26 H        0.8260     2.4440     1.1360 H     1 <1>   0.0800 
 27 H        1.9760     1.6380     2.1140 H     1 <1>   0.0800 
 28 H        2.7070    -0.7660     1.3560 H     1 <1>   0.0800 
 29 H        2.1020    -1.3080    -0.1630 H     1 <1>   0.0800 
 30 H       -0.7070    -2.0560    -1.3430 H     1 <1>   0.1500 
 31 H       -1.7860     1.2160     1.1090 H     1 <1>   0.1500 
 32 H        2.5420     3.7010     0.4690 H     1 <1>   0.0800 
 33 H        4.1550    -0.8420    -0.8580 H     1 <1>   0.0800 
 34 H       -3.6430    -0.0840     2.0450 H     1 <1>   0.1500 
 35 H        4.0440     3.1570     2.1440 H     1 <1>   0.0800 
 36 H        4.9840     2.9720     0.6890 H     1 <1>   0.0800 
 37 H        5.7270     0.8490     0.1520 H     1 <1>   0.0800 
 38 H        5.2410    -0.4860     1.1640 H     1 <1>   0.0800 
 39 H        1.7000     3.6530    -1.8550 H     1 <1>   0.0800 
 40 H        2.8020     2.9450    -3.0070 H     1 <1>   0.0800 
 41 H        3.3680     4.2010    -1.9280 H     1 <1>   0.0800 
 42 H       -2.4970    -5.1200    -1.9350 H     1 <1>   0.0800 
 43 H       -1.0000    -4.2800    -1.5550 H     1 <1>   0.0800 
 44 H       -2.2500    -3.4820    -2.5290 H     1 <1>   0.0800 
 45 H       -5.3420    -4.0180     2.1710 H     1 <1>   0.0800 
 46 H       -3.6650    -4.3260     1.7310 H     1 <1>   0.0800 
 47 H       -4.8850    -4.0560     0.4740 H     1 <1>   0.0800 
@<TRIPOS>BOND
  1   1   2  2   
  2   1   3  2   
  3   1   4  am  
  4   1   5  1   
  5   4   6  1   
  6   4   7  1   
  7   5   8  ar  
  8   5   9  ar  
  9   6  10  1   
 10   6  26  1   
 11   6  27  1   
 12   7  11  1   
 13   7  28  1   
 14   7  29  1   
 15   8  12  ar  
 16   8  30  1   
 17   9  13  ar  
 18   9  31  1   
 19  10  14  1   
 20  10  15  1   
 21  10  32  1   
 22  11  16  1   
 23  11  17  1   
 24  11  33  1   
 25  12  18  1   
 26  12  19  ar  
 27  13  19  ar  
 28  13  34  1   
 29  14  16  am  
 30  14  20  1   
 31  15  21  1   
 32  15  35  1   
 33  15  36  1   
 34  16  22  2   
 35  17  21  1   
 36  17  37  1   
 37  17  38  1   
 38  18  23  1   
 39  19  24  1   
 40  20  39  1   
 41  20  40  1   
 42  20  41  1   
 43  23  42  1   
 44  23  43  1   
 45  23  44  1   
 46  24  25  1   
 47  25  45  1   
 48  25  46  1   
 49  25  47  1   
@<TRIPOS>SUBSTRUCTURE
  1 ****   1 GROUP 4 **** **** 0

# MOE 2024.06 (io_trps.svl 2023.06)
