@<TRIPOS>MOLECULE
NONAME
43 44 1 0 0 
SMALL
USER_CHARGES


@<TRIPOS>ATOM
  1 O       -0.7380    -0.9780     0.6580 O.2   1 <1>  -0.5700 
  2 C       -1.7210    -1.4760     0.1790 C.2   1 <1>   0.5690 
  3 N       -1.8430    -1.8340    -1.1080 N.am  1 <1>  -0.7300 
  4 C       -2.9700    -1.7930     0.9530 C.3   1 <1>  -0.0990 
  5 C       -3.1320    -2.5000    -1.4240 C.3   1 <1>   0.2810 
  6 C       -3.9610    -2.1750    -0.1690 C.3   1 <1>   0.0000 
  7 C       -2.9940    -4.0110    -1.6650 C.2   1 <1>   0.6590 
  8 C       -5.0430    -1.0960    -0.4200 C.3   1 <1>   0.2250 
  9 C       -5.1270    -3.1140     0.2220 C.3   1 <1>   0.2250 
 10 O       -3.3050    -4.5080    -2.7170 O.2   1 <1>  -0.5700 
 11 O       -2.5330    -4.7370    -0.6520 O.3   1 <1>  -0.4300 
 12 N       -5.9370    -1.8840     0.4820 N.am  1 <1>  -0.5100 
 13 C       -2.3640    -6.1310    -0.7570 C.3   1 <1>   0.1200 
 14 C       -7.2950    -1.8440     0.4480 C.2   1 <1>   0.7800 
 15 C       -1.8380    -6.6420     0.5810 C.3   1 <1>  -0.2400 
 16 O       -7.9700    -2.8270     0.6800 O.2   1 <1>  -0.5700 
 17 O       -7.8470    -0.6700     0.1360 O.3   1 <1>  -0.4300 
 18 C       -9.2230    -0.3710     0.0420 C.3   1 <1>   0.2800 
 19 C       -9.8700    -1.2020    -1.0720 C.3   1 <1>  -0.2400 
 20 C       -9.2850     1.1100    -0.3330 C.3   1 <1>  -0.2400 
 21 C       -9.9050    -0.5780     1.3990 C.3   1 <1>  -0.2400 
 22 H       -1.0540    -1.8010    -1.7580 H     1 <1>   0.3700 
 23 H       -3.2900    -0.9480     1.5340 H     1 <1>   0.0800 
 24 H       -2.7720    -2.6290     1.5990 H     1 <1>   0.0800 
 25 H       -3.5650    -2.0520    -2.3010 H     1 <1>   0.0800 
 26 H       -5.4280    -1.0770    -1.4250 H     1 <1>   0.0000 
 27 H       -4.8120    -0.1250    -0.0180 H     1 <1>   0.0000 
 28 H       -4.9550    -3.6840     1.1180 H     1 <1>   0.0000 
 29 H       -5.5340    -3.6820    -0.5960 H     1 <1>   0.0000 
 30 H       -1.6650    -6.3320    -1.5510 H     1 <1>   0.0800 
 31 H       -3.3170    -6.5760    -0.9930 H     1 <1>   0.0800 
 32 H       -0.8950    -6.1790     0.8090 H     1 <1>   0.0800 
 33 H       -1.6930    -7.7060     0.5300 H     1 <1>   0.0800 
 34 H       -2.5430    -6.4300     1.3640 H     1 <1>   0.0800 
 35 H       -9.3240    -1.0880    -1.9910 H     1 <1>   0.0800 
 36 H      -10.8800    -0.8740    -1.2330 H     1 <1>   0.0800 
 37 H       -9.9070    -2.2440    -0.8090 H     1 <1>   0.0800 
 38 H       -8.7890     1.2790    -1.2720 H     1 <1>   0.0800 
 39 H       -8.8130     1.7070     0.4260 H     1 <1>   0.0800 
 40 H      -10.3070     1.4290    -0.4280 H     1 <1>   0.0800 
 41 H       -9.9420    -1.6190     1.6610 H     1 <1>   0.0800 
 42 H      -10.9170    -0.2180     1.3600 H     1 <1>   0.0800 
 43 H       -9.3810    -0.0390     2.1670 H     1 <1>   0.0800 
@<TRIPOS>BOND
  1   1   2  2   
  2   2   3  am  
  3   2   4  1   
  4   3   5  1   
  5   3  22  1   
  6   4   6  1   
  7   4  23  1   
  8   4  24  1   
  9   5   6  1   
 10   5   7  1   
 11   5  25  1   
 12   6   8  1   
 13   6   9  1   
 14   7  10  2   
 15   7  11  1   
 16   8  12  1   
 17   8  26  1   
 18   8  27  1   
 19   9  12  1   
 20   9  28  1   
 21   9  29  1   
 22  11  13  1   
 23  12  14  am  
 24  13  15  1   
 25  13  30  1   
 26  13  31  1   
 27  14  16  2   
 28  14  17  1   
 29  15  32  1   
 30  15  33  1   
 31  15  34  1   
 32  17  18  1   
 33  18  19  1   
 34  18  20  1   
 35  18  21  1   
 36  19  35  1   
 37  19  36  1   
 38  19  37  1   
 39  20  38  1   
 40  20  39  1   
 41  20  40  1   
 42  21  41  1   
 43  21  42  1   
 44  21  43  1   
@<TRIPOS>SUBSTRUCTURE
  1 ****   9 GROUP 4 **** **** 0

# MOE 2024.06 (io_trps.svl 2023.06)
