@<TRIPOS>MOLECULE
NONAME
43 47 1 0 0 
SMALL
USER_CHARGES


@<TRIPOS>ATOM
  1 O       -0.8660     0.3070    -1.2580 O.2   1 <1>  -0.5700 
  2 C       -1.5450     0.8150    -0.3830 C.2   1 <1>   0.5440 
  3 N       -2.3740     0.0180     0.3630 N.am  1 <1>  -0.6600 
  4 C       -1.4740     2.2430    -0.1690 C.ar  1 <1>   0.0860 
  5 C       -3.1990     0.4520     1.5290 C.3   1 <1>   0.2350 
  6 C       -2.9410    -1.2550    -0.1650 C.3   1 <1>   0.2350 
  7 C       -0.2740     2.8990     0.2040 C.ar  1 <1>   0.0000 
  8 C       -2.5800     3.0350    -0.3320 C.ar  1 <1>  -0.1500 
  9 C       -4.5740    -0.1300     1.2700 C.3   1 <1>  -0.2420 
 10 C       -4.4080    -1.2210     0.2400 C.3   1 <1>  -0.2420 
 11 C       -0.3120     4.3010     0.3740 C.ar  1 <1>   0.3100 
 12 C        0.9520     2.2320     0.4200 C.ar  1 <1>  -0.1500 
 13 C       -2.5180     4.4140    -0.1360 C.ar  1 <1>   0.2780 
 14 C       -5.4350    -0.0070     2.5280 C.2   1 <1>   0.9470 
 15 C       -5.2550    -0.0130    -0.0720 C.3   1 <1>  -0.2000 
 16 C       -5.0340    -2.6130     0.1420 C.2   1 <1>   0.9470 
 17 N       -1.4340     5.0390     0.2050 N.ar  1 <1>  -0.6200 
 18 C        0.8680     4.9700     0.7400 C.ar  1 <1>  -0.1500 
 19 C        2.0840     2.9130     0.7780 C.ar  1 <1>  -0.1500 
 20 C       -3.7870     5.2310    -0.3180 C.3   1 <1>  -0.0680 
 21 O       -6.4650     0.6810     2.4880 O.co2 1 <1>  -0.9000 
 22 O       -4.9930    -0.4370     3.6020 O.co2 1 <1>  -0.9000 
 23 O       -4.4320    -3.5740     0.6420 O.co2 1 <1>  -0.9000 
 24 O       -6.0400    -2.7830    -0.5600 O.co2 1 <1>  -0.9000 
 25 C        2.0440     4.2990     0.9400 C.ar  1 <1>  -0.1500 
 26 C       -4.6480     5.0650    -1.5370 C.3   1 <1>  -0.2000 
 27 C       -3.8470     6.3160    -1.3520 C.3   1 <1>  -0.2000 
 28 H       -2.7900     0.0230     2.4280 H     1 <1>   0.0800 
 29 H       -3.2520     1.5180     1.6410 H     1 <1>   0.0800 
 30 H       -2.8390    -1.3240    -1.2340 H     1 <1>   0.0800 
 31 H       -2.4420    -2.0880     0.3020 H     1 <1>   0.0800 
 32 H       -3.5190     2.5930    -0.6100 H     1 <1>   0.1500 
 33 H        0.9940     1.1630     0.2950 H     1 <1>   0.1500 
 34 H       -4.9090     0.6890    -0.8050 H     1 <1>   0.1000 
 35 H       -6.3230    -0.1470    -0.1040 H     1 <1>   0.1000 
 36 H        0.8140     6.0360     0.8600 H     1 <1>   0.1500 
 37 H        3.0130     2.3910     0.9370 H     1 <1>   0.1500 
 38 H       -4.2800     5.4160     0.6200 H     1 <1>   0.1000 
 39 H        2.9410     4.8250     1.2210 H     1 <1>   0.1500 
 40 H       -4.3450     4.3750    -2.3050 H     1 <1>   0.1000 
 41 H       -5.7160     5.1010    -1.4120 H     1 <1>   0.1000 
 42 H       -4.3510     7.2320    -1.0990 H     1 <1>   0.1000 
 43 H       -2.9750     6.4790    -1.9620 H     1 <1>   0.1000 
@<TRIPOS>BOND
  1   1   2  2   
  2   2   3  am  
  3   2   4  1   
  4   3   5  1   
  5   3   6  1   
  6   4   7  ar  
  7   4   8  ar  
  8   5   9  1   
  9   5  28  1   
 10   5  29  1   
 11   6  10  1   
 12   6  30  1   
 13   6  31  1   
 14   7  11  ar  
 15   7  12  ar  
 16   8  13  ar  
 17   8  32  1   
 18   9  10  1   
 19   9  14  1   
 20   9  15  1   
 21  10  15  1   
 22  10  16  1   
 23  11  17  ar  
 24  11  18  ar  
 25  12  19  ar  
 26  12  33  1   
 27  13  17  ar  
 28  13  20  1   
 29  14  21  ar  
 30  14  22  ar  
 31  15  34  1   
 32  15  35  1   
 33  16  23  ar  
 34  16  24  ar  
 35  18  25  ar  
 36  18  36  1   
 37  19  25  ar  
 38  19  37  1   
 39  20  26  1   
 40  20  27  1   
 41  20  38  1   
 42  25  39  1   
 43  26  27  1   
 44  26  40  1   
 45  26  41  1   
 46  27  42  1   
 47  27  43  1   
@<TRIPOS>SUBSTRUCTURE
  1 ****   4 GROUP 4 **** **** 0

# MOE 2024.06 (io_trps.svl 2023.06)
