@<TRIPOS>MOLECULE
NONAME
54 56 1 0 0 
SMALL
USER_CHARGES


@<TRIPOS>ATOM
  1 O        2.9760     2.3790     1.7530 O.co2 1 <1>  -0.9000 
  2 C        2.3590     1.3480     1.4470 C.2   1 <1>   0.9060 
  3 O        2.1610     0.4550     2.2690 O.co2 1 <1>  -0.9000 
  4 C        2.1040     1.0310    -0.0340 C.3   1 <1>  -0.1060 
  5 C        3.1060    -0.1060    -0.3300 C.3   1 <1>   0.2000 
  6 C        2.4430     2.2400    -0.9670 C.3   1 <1>  -0.1600 
  7 C        0.6340     0.5740    -0.2260 C.3   1 <1>  -0.0160 
  8 O        3.0460    -0.4600    -1.6810 O.3   1 <1>  -0.6800 
  9 C        4.5530     0.3540    -0.0040 C.3   1 <1>   0.3430 
 10 C        3.9410     2.3900    -1.2890 C.3   1 <1>   0.3430 
 11 C       -0.3730     1.7120    -0.0960 C.ar  1 <1>  -0.1440 
 12 N        4.7570     1.8400    -0.1740 N.4   1 <1>  -0.9590 
 13 C       -0.9650     2.2640    -1.2230 C.ar  1 <1>  -0.1500 
 14 C       -0.7110     2.2060     1.1550 C.ar  1 <1>  -0.1500 
 15 C        6.1800     2.2340    -0.1390 C.3   1 <1>   0.3430 
 16 C       -1.8770     3.2980    -1.1020 C.ar  1 <1>  -0.1500 
 17 C       -1.6210     3.2410     1.2780 C.ar  1 <1>  -0.1500 
 18 C        6.3150     3.7400     0.0760 C.3   1 <1>  -0.1600 
 19 C       -2.2050     3.7890     0.1500 C.ar  1 <1>  -0.1500 
 20 C        7.7780     4.1180     0.3000 C.3   1 <1>   0.1200 
 21 O        7.8520     5.5200     0.3680 O.3   1 <1>  -0.3630 
 22 C        9.0360     6.1570     0.5560 C.ar  1 <1>   0.0820 
 23 C        8.9980     7.5420     0.6010 C.ar  1 <1>  -0.1500 
 24 C       10.2560     5.5010     0.7020 C.ar  1 <1>  -0.1500 
 25 C       10.1600     8.2700     0.7870 C.ar  1 <1>  -0.1500 
 26 C       11.4170     6.2320     0.8880 C.ar  1 <1>  -0.1500 
 27 C       11.3700     7.6150     0.9310 C.ar  1 <1>  -0.1500 
 28 H        2.8750    -0.9850     0.2480 H     1 <1>   0.0800 
 29 H        2.0840     3.1500    -0.5170 H     1 <1>   0.0800 
 30 H        1.9260     2.1360    -1.9030 H     1 <1>   0.0800 
 31 H        0.5120     0.1260    -1.1950 H     1 <1>   0.0800 
 32 H        0.3920    -0.1840     0.5010 H     1 <1>   0.0800 
 33 H        2.1730    -0.8550    -1.8790 H     1 <1>   0.4000 
 34 H        5.2360    -0.1980    -0.6260 H     1 <1>   0.0800 
 35 H        4.7530     0.1050     1.0250 H     1 <1>   0.0800 
 36 H        4.1630     3.4310    -1.4490 H     1 <1>   0.0800 
 37 H        4.1670     1.8450    -2.1910 H     1 <1>   0.0800 
 38 H        4.2910     2.2500     0.6820 H     1 <1>   0.4500 
 39 H       -0.7210     1.8910    -2.2010 H     1 <1>   0.1500 
 40 H       -0.2630     1.7870     2.0420 H     1 <1>   0.1500 
 41 H        6.6620     1.7240     0.6790 H     1 <1>   0.0800 
 42 H        6.6640     1.9440    -1.0570 H     1 <1>   0.0800 
 43 H       -2.3320     3.7210    -1.9800 H     1 <1>   0.1500 
 44 H       -1.8680     3.6180     2.2550 H     1 <1>   0.1500 
 45 H        5.7450     4.0330     0.9410 H     1 <1>   0.0800 
 46 H        5.9560     4.2690    -0.7880 H     1 <1>   0.0800 
 47 H       -2.9110     4.5940     0.2470 H     1 <1>   0.1500 
 48 H        8.3930     3.7920    -0.5210 H     1 <1>   0.0800 
 49 H        8.1440     3.7140     1.2300 H     1 <1>   0.0800 
 50 H        8.0550     8.0450     0.4890 H     1 <1>   0.1500 
 51 H       10.3260     4.4310     0.6750 H     1 <1>   0.1500 
 52 H       10.1220     9.3450     0.8200 H     1 <1>   0.1500 
 53 H       12.3600     5.7250     1.0010 H     1 <1>   0.1500 
 54 H       12.2740     8.1810     1.0750 H     1 <1>   0.1500 
@<TRIPOS>BOND
  1   1   2  ar  
  2   2   3  ar  
  3   2   4  1   
  4   4   5  1   
  5   4   6  1   
  6   4   7  1   
  7   5   8  1   
  8   5   9  1   
  9   5  28  1   
 10   6  10  1   
 11   6  29  1   
 12   6  30  1   
 13   7  11  1   
 14   7  31  1   
 15   7  32  1   
 16   8  33  1   
 17   9  12  1   
 18   9  34  1   
 19   9  35  1   
 20  10  12  1   
 21  10  36  1   
 22  10  37  1   
 23  11  13  ar  
 24  11  14  ar  
 25  12  15  1   
 26  12  38  1   
 27  13  16  ar  
 28  13  39  1   
 29  14  17  ar  
 30  14  40  1   
 31  15  18  1   
 32  15  41  1   
 33  15  42  1   
 34  16  19  ar  
 35  16  43  1   
 36  17  19  ar  
 37  17  44  1   
 38  18  20  1   
 39  18  45  1   
 40  18  46  1   
 41  19  47  1   
 42  20  21  1   
 43  20  48  1   
 44  20  49  1   
 45  21  22  1   
 46  22  23  ar  
 47  22  24  ar  
 48  23  25  ar  
 49  23  50  1   
 50  24  26  ar  
 51  24  51  1   
 52  25  27  ar  
 53  25  52  1   
 54  26  27  ar  
 55  26  53  1   
 56  27  54  1   
@<TRIPOS>SUBSTRUCTURE
  1 ****  12 GROUP 4 **** **** 0

# MOE 2024.06 (io_trps.svl 2023.06)
