@<TRIPOS>MOLECULE
NONAME
51 54 1 0 0 
SMALL
USER_CHARGES


@<TRIPOS>ATOM
  1 CL       2.6710    -0.9730    -0.5650 Cl    1 <1>  -0.1770 
  2 C        1.6760    -2.3980    -0.4070 C.ar  1 <1>   0.1770 
  3 C        0.4330    -2.3000     0.1730 C.ar  1 <1>  -0.1500 
  4 C        2.1620    -3.6100    -0.8720 C.ar  1 <1>  -0.1500 
  5 C       -0.3730    -3.4360     0.3050 C.ar  1 <1>   0.0860 
  6 C        1.3810    -4.7400    -0.7510 C.ar  1 <1>  -0.1500 
  7 C       -1.6800    -3.4000     0.9060 C.2   1 <1>   0.4690 
  8 C        0.1150    -4.6680    -0.1680 C.ar  1 <1>   0.1000 
  9 O       -2.1740    -2.3650     1.3260 O.2   1 <1>  -0.5700 
 10 C       -2.4130    -4.6100     0.9950 C.2   1 <1>  -0.1360 
 11 N       -0.6680    -5.8150    -0.0460 N.pl3 1 <1>  -0.6000 
 12 C       -1.9270    -5.7860     0.5260 C.2   1 <1>  -0.0380 
 13 C       -2.7390    -7.0750     0.6010 C.3   1 <1>   0.4810 
 14 N       -2.9840    -7.5360    -0.7990 N.4   1 <1>  -0.9590 
 15 C       -4.3960    -7.4500    -1.2800 C.3   1 <1>   0.4230 
 16 C       -2.4240    -8.9040    -1.0290 C.3   1 <1>   0.2630 
 17 C       -5.3910    -8.2890    -0.4810 C.3   1 <1>  -0.1600 
 18 C       -4.9770    -6.0410    -1.2380 C.3   1 <1>  -0.1600 
 19 C       -6.7610    -7.7090    -0.8610 C.3   1 <1>  -0.0800 
 20 C       -6.4940    -6.2570    -1.3270 C.3   1 <1>  -0.0800 
 21 C       -7.8190    -7.8560     0.2520 C.3   1 <1>   0.1400 
 22 C       -7.3110    -5.2000    -0.5610 C.3   1 <1>  -0.0990 
 23 N       -8.9600    -6.9490    -0.0130 N.am  1 <1>  -0.6600 
 24 C       -8.7480    -5.6550    -0.4040 C.2   1 <1>   0.5690 
 25 C      -10.3240    -7.4990     0.2160 C.3   1 <1>   0.0600 
 26 O       -9.6380    -4.8700    -0.6240 O.2   1 <1>  -0.5700 
 27 H        0.0790    -1.3480     0.5270 H     1 <1>   0.1500 
 28 H        3.1400    -3.6490    -1.3190 H     1 <1>   0.1500 
 29 H        1.7560    -5.6810    -1.1100 H     1 <1>   0.1500 
 30 H       -3.3790    -4.5200     1.4590 H     1 <1>   0.1500 
 31 H       -0.2030    -6.6960    -0.2990 H     1 <1>   0.4000 
 32 H       -3.6700    -6.8900     1.1100 H     1 <1>   0.0800 
 33 H       -2.1870    -7.8160     1.1560 H     1 <1>   0.0800 
 34 H       -2.4480    -6.8650    -1.3730 H     1 <1>   0.4500 
 35 H       -4.4380    -7.7820    -2.3060 H     1 <1>   0.0800 
 36 H       -2.9490    -9.6300    -0.4290 H     1 <1>   0.0800 
 37 H       -1.3790    -8.9330    -0.7700 H     1 <1>   0.0800 
 38 H       -2.5260    -9.1790    -2.0670 H     1 <1>   0.0800 
 39 H       -5.3360    -9.3320    -0.7400 H     1 <1>   0.0800 
 40 H       -5.2350    -8.1700     0.5750 H     1 <1>   0.0800 
 41 H       -4.7500    -5.5530    -0.3100 H     1 <1>   0.0800 
 42 H       -4.6250    -5.4380    -2.0560 H     1 <1>   0.0800 
 43 H       -7.1290    -8.2550    -1.7150 H     1 <1>   0.0800 
 44 H       -6.7880    -6.1980    -2.3640 H     1 <1>   0.0800 
 45 H       -7.4010    -7.5960     1.2100 H     1 <1>   0.0800 
 46 H       -8.1610    -8.8760     0.2980 H     1 <1>   0.0800 
 47 H       -7.2910    -4.2620    -1.0870 H     1 <1>   0.0800 
 48 H       -6.9140    -5.0410     0.4240 H     1 <1>   0.0800 
 49 H      -10.4970    -8.3320    -0.4420 H     1 <1>   0.0800 
 50 H      -11.0730    -6.7490     0.0220 H     1 <1>   0.0800 
 51 H      -10.4210    -7.8230     1.2370 H     1 <1>   0.0800 
@<TRIPOS>BOND
  1   1   2  1   
  2   2   3  ar  
  3   2   4  ar  
  4   3   5  ar  
  5   3  27  1   
  6   4   6  ar  
  7   4  28  1   
  8   5   7  1   
  9   5   8  ar  
 10   6   8  ar  
 11   6  29  1   
 12   7   9  2   
 13   7  10  1   
 14   8  11  1   
 15  10  12  2   
 16  10  30  1   
 17  11  12  1   
 18  11  31  1   
 19  12  13  1   
 20  13  14  1   
 21  13  32  1   
 22  13  33  1   
 23  14  15  1   
 24  14  16  1   
 25  14  34  1   
 26  15  17  1   
 27  15  18  1   
 28  15  35  1   
 29  16  36  1   
 30  16  37  1   
 31  16  38  1   
 32  17  19  1   
 33  17  39  1   
 34  17  40  1   
 35  18  20  1   
 36  18  41  1   
 37  18  42  1   
 38  19  20  1   
 39  19  21  1   
 40  19  43  1   
 41  20  22  1   
 42  20  44  1   
 43  21  23  1   
 44  21  45  1   
 45  21  46  1   
 46  22  24  1   
 47  22  47  1   
 48  22  48  1   
 49  23  24  am  
 50  23  25  1   
 51  24  26  2   
 52  25  49  1   
 53  25  50  1   
 54  25  51  1   
@<TRIPOS>SUBSTRUCTURE
  1 ****  12 GROUP 4 **** **** 0

# MOE 2024.06 (io_trps.svl 2023.06)
