@<TRIPOS>MOLECULE
NONAME
48 50 1 0 0 
SMALL
USER_CHARGES


@<TRIPOS>ATOM
  1 S        0.2270     0.7650    -2.5580 S.3   1 <1>  -0.0800 
  2 C       -1.2250     0.9240    -1.5970 C.2   1 <1>  -0.1400 
  3 C        0.6550     2.4260    -2.2530 C.2   1 <1>  -0.1100 
  4 C       -1.3440     2.1700    -1.0790 C.2   1 <1>  -0.0540 
  5 C       -2.1090    -0.3060    -1.5130 C.3   1 <1>  -0.0600 
  6 C       -0.2470     3.0410    -1.4530 C.2   1 <1>  -0.0860 
  7 C       -2.4370     2.6300    -0.2480 C.ar  1 <1>   0.0540 
  8 C       -0.1490     4.4180    -1.0200 C.2   1 <1>   0.7160 
  9 C       -3.2200     3.7180    -0.6230 C.ar  1 <1>  -0.1500 
 10 C       -2.7330     1.9980     0.9560 C.ar  1 <1>  -0.1500 
 11 O       -0.1540     5.3030    -1.8580 O.2   1 <1>  -0.5700 
 12 N       -0.0270     4.7600     0.3130 N.am  1 <1>  -0.6600 
 13 C       -4.2570     4.1640     0.1760 C.ar  1 <1>  -0.1500 
 14 C       -3.7690     2.4380     1.7610 C.ar  1 <1>  -0.1500 
 15 C       -0.1870     6.1660     0.7570 C.3   1 <1>   0.1400 
 16 C        0.2410     3.7780     1.4000 C.3   1 <1>   0.0600 
 17 C       -4.5320     3.5240     1.3720 C.ar  1 <1>  -0.1500 
 18 C        1.1700     6.8690     0.7230 C.3   1 <1>  -0.1600 
 19 C        1.0210     8.3770     0.9520 C.3   1 <1>   0.0200 
 20 C        2.3610     9.0810     0.8370 C.2   1 <1>   0.0060 
 21 N        3.0060     9.5220     1.8680 N.2   1 <1>  -0.5650 
 22 N        2.9960     9.3070    -0.3420 N.pl3 1 <1>   0.0480 
 23 C        4.1200    10.0640     1.3440 C.2   1 <1>   0.0770 
 24 C        4.1320     9.9410     0.0000 C.2   1 <1>  -0.3020 
 25 C        2.5860     8.9470    -1.7130 C.3   1 <1>   0.0160 
 26 H        1.5560     2.8000    -2.7050 H     1 <1>   0.1500 
 27 H       -2.3810    -0.6260    -2.5020 H     1 <1>   0.0800 
 28 H       -3.0080    -0.0900    -0.9650 H     1 <1>   0.0800 
 29 H       -1.5820    -1.1030    -1.0210 H     1 <1>   0.0800 
 30 H       -3.0110     4.2170    -1.5540 H     1 <1>   0.1500 
 31 H       -2.1410     1.1540     1.2620 H     1 <1>   0.1500 
 32 H       -4.8490     5.0070    -0.1320 H     1 <1>   0.1500 
 33 H       -3.9830     1.9360     2.6890 H     1 <1>   0.1500 
 34 H       -0.6020     6.1940     1.7500 H     1 <1>   0.0800 
 35 H       -0.8750     6.6680     0.0970 H     1 <1>   0.0800 
 36 H        0.4990     2.8140     0.9960 H     1 <1>   0.0800 
 37 H       -0.6350     3.6740     2.0160 H     1 <1>   0.0800 
 38 H        1.0600     4.1210     2.0070 H     1 <1>   0.0800 
 39 H       -5.3390     3.8690     1.9950 H     1 <1>   0.1500 
 40 H        1.6250     6.7010    -0.2360 H     1 <1>   0.0800 
 41 H        1.8140     6.4600     1.4810 H     1 <1>   0.0800 
 42 H        0.6230     8.5520     1.9370 H     1 <1>   0.0800 
 43 H        0.3350     8.8000     0.2410 H     1 <1>   0.0800 
 44 H        4.8660    10.5200     1.9720 H     1 <1>   0.1500 
 45 H        4.8700    10.2640    -0.7110 H     1 <1>   0.1500 
 46 H        1.5160     8.9990    -1.7990 H     1 <1>   0.0800 
 47 H        2.9150     7.9480    -1.9300 H     1 <1>   0.0800 
 48 H        3.0310     9.6320    -2.4110 H     1 <1>   0.0800 
@<TRIPOS>BOND
  1   1   2  1   
  2   1   3  1   
  3   2   4  2   
  4   2   5  1   
  5   3   6  2   
  6   3  26  1   
  7   4   6  1   
  8   4   7  1   
  9   5  27  1   
 10   5  28  1   
 11   5  29  1   
 12   6   8  1   
 13   7   9  ar  
 14   7  10  ar  
 15   8  11  2   
 16   8  12  am  
 17   9  13  ar  
 18   9  30  1   
 19  10  14  ar  
 20  10  31  1   
 21  12  15  1   
 22  12  16  1   
 23  13  17  ar  
 24  13  32  1   
 25  14  17  ar  
 26  14  33  1   
 27  15  18  1   
 28  15  34  1   
 29  15  35  1   
 30  16  36  1   
 31  16  37  1   
 32  16  38  1   
 33  17  39  1   
 34  18  19  1   
 35  18  40  1   
 36  18  41  1   
 37  19  20  1   
 38  19  42  1   
 39  19  43  1   
 40  20  21  2   
 41  20  22  1   
 42  21  23  1   
 43  22  24  1   
 44  22  25  1   
 45  23  24  2   
 46  23  44  1   
 47  24  45  1   
 48  25  46  1   
 49  25  47  1   
 50  25  48  1   
@<TRIPOS>SUBSTRUCTURE
  1 ****  12 GROUP 4 **** **** 0

# MOE 2024.06 (io_trps.svl 2023.06)
