@<TRIPOS>MOLECULE
NONAME
66 70 1 0 0 
SMALL
USER_CHARGES


@<TRIPOS>ATOM
  1 O       -1.8140     1.0870    -2.3560 O.2   1 <1>  -0.5700 
  2 C       -1.9810     1.0470    -1.1510 C.2   1 <1>   0.7160 
  3 N       -2.4890    -0.1080    -0.5820 N.am  1 <1>  -0.6600 
  4 C       -1.6760     2.1910    -0.3600 C.2   1 <1>  -0.0860 
  5 C       -2.8780    -0.2000     0.8460 C.3   1 <1>   0.1400 
  6 C       -2.9070    -1.2650    -1.4090 C.3   1 <1>   0.1400 
  7 C       -2.5930     3.1630     0.0450 C.2   1 <1>   0.3720 
  8 C       -0.5170     2.5720     0.2350 C.2   1 <1>   0.0870 
  9 C       -4.4070    -0.2660     0.9200 C.3   1 <1>  -0.1600 
 10 C       -4.4360    -1.3050    -1.4040 C.3   1 <1>  -0.1600 
 11 N       -2.0350     4.0240     0.8230 N.2   1 <1>  -0.4100 
 12 N       -3.9460     3.1910    -0.3250 N.pl3 1 <1>  -0.8210 
 13 O       -0.7840     3.6550     0.9200 O.3   1 <1>  -0.0190 
 14 C        0.8040     1.9960     0.2420 C.ar  1 <1>   0.0530 
 15 C       -5.0050    -1.3780     0.0300 C.3   1 <1>   0.5030 
 16 C       -4.1490     3.5630    -1.7580 C.3   1 <1>   0.2090 
 17 C       -4.8110     4.0690     0.5240 C.3   1 <1>   0.2090 
 18 C        1.6290     2.1170     1.3610 C.ar  1 <1>  -0.1500 
 19 C        1.3060     1.2940    -0.8540 C.ar  1 <1>  -0.1500 
 20 N       -6.5050    -1.1870     0.0120 N.4   1 <1>  -0.9590 
 21 C       -4.6750    -2.7750     0.6680 C.3   1 <1>   0.1100 
 22 C       -5.6370     3.4570    -2.1350 C.3   1 <1>   0.1200 
 23 C       -6.2840     3.9590     0.0920 C.3   1 <1>   0.1200 
 24 C        2.8900     1.5520     1.3910 C.ar  1 <1>  -0.1500 
 25 C        2.5660     0.7260    -0.8300 C.ar  1 <1>  -0.1500 
 26 C       -7.2310    -2.4220    -0.4350 C.3   1 <1>   0.3430 
 27 C       -7.0370     0.0440    -0.6530 C.3   1 <1>   0.2630 
 28 N       -5.8150    -3.3250     1.4380 N.3   1 <1>  -0.8100 
 29 O       -6.4450     4.2180    -1.2770 O.3   1 <1>  -0.5600 
 30 C        3.3610     0.8520     0.2950 C.ar  1 <1>  -0.1500 
 31 C       -6.9510    -3.6010     0.5290 C.3   1 <1>   0.1100 
 32 C       -5.4350    -4.5290     2.1910 C.3   1 <1>   0.0300 
 33 H       -2.5270     0.6510     1.4050 H     1 <1>   0.0800 
 34 H       -2.4240    -1.0740     1.2810 H     1 <1>   0.0800 
 35 H       -2.4880    -2.1680    -0.9980 H     1 <1>   0.0800 
 36 H       -2.5450    -1.1690    -2.4190 H     1 <1>   0.0800 
 37 H       -4.7660     0.7000     0.6190 H     1 <1>   0.0800 
 38 H       -4.6960    -0.4210     1.9440 H     1 <1>   0.0800 
 39 H       -4.7610    -2.1510    -1.9830 H     1 <1>   0.0800 
 40 H       -4.7660    -0.4130    -1.9030 H     1 <1>   0.0800 
 41 H       -3.5780     2.9150    -2.3980 H     1 <1>   0.0800 
 42 H       -3.8100     4.5720    -1.9240 H     1 <1>   0.0800 
 43 H       -4.4930     5.0950     0.4360 H     1 <1>   0.0800 
 44 H       -4.7150     3.7800     1.5560 H     1 <1>   0.0800 
 45 H        1.2750     2.6600     2.2200 H     1 <1>   0.1500 
 46 H        0.7100     1.1950    -1.7440 H     1 <1>   0.1500 
 47 H       -6.7170    -1.1580     1.0210 H     1 <1>   0.4500 
 48 H       -3.8200    -2.6960     1.3160 H     1 <1>   0.0800 
 49 H       -4.4090    -3.4770    -0.1040 H     1 <1>   0.0800 
 50 H       -5.9580     2.4340    -2.0910 H     1 <1>   0.0800 
 51 H       -5.7890     3.8240    -3.1350 H     1 <1>   0.0800 
 52 H       -6.8780     4.6760     0.6310 H     1 <1>   0.0800 
 53 H       -6.6600     2.9750     0.3010 H     1 <1>   0.0800 
 54 H        3.5070     1.6560     2.2670 H     1 <1>   0.1500 
 55 H        2.9310     0.1890    -1.6880 H     1 <1>   0.1500 
 56 H       -6.9160    -2.6910    -1.4290 H     1 <1>   0.0800 
 57 H       -8.2930    -2.2420    -0.4640 H     1 <1>   0.0800 
 58 H       -6.8730    -0.0040    -1.7170 H     1 <1>   0.0800 
 59 H       -6.5500     0.9250    -0.2710 H     1 <1>   0.0800 
 60 H       -8.0960     0.1370    -0.4740 H     1 <1>   0.0800 
 61 H        4.3420     0.4100     0.3160 H     1 <1>   0.1500 
 62 H       -6.7580    -4.4870    -0.0520 H     1 <1>   0.0800 
 63 H       -7.8320    -3.7890     1.1190 H     1 <1>   0.0800 
 64 H       -4.6440    -4.2970     2.8840 H     1 <1>   0.0800 
 65 H       -5.0980    -5.3070     1.5250 H     1 <1>   0.0800 
 66 H       -6.2780    -4.8930     2.7540 H     1 <1>   0.0800 
@<TRIPOS>BOND
  1   1   2  2   
  2   2   3  am  
  3   2   4  1   
  4   3   5  1   
  5   3   6  1   
  6   4   7  1   
  7   4   8  2   
  8   5   9  1   
  9   5  33  1   
 10   5  34  1   
 11   6  10  1   
 12   6  35  1   
 13   6  36  1   
 14   7  11  2   
 15   7  12  1   
 16   8  13  1   
 17   8  14  1   
 18   9  15  1   
 19   9  37  1   
 20   9  38  1   
 21  10  15  1   
 22  10  39  1   
 23  10  40  1   
 24  11  13  1   
 25  12  16  1   
 26  12  17  1   
 27  14  18  ar  
 28  14  19  ar  
 29  15  20  1   
 30  15  21  1   
 31  16  22  1   
 32  16  41  1   
 33  16  42  1   
 34  17  23  1   
 35  17  43  1   
 36  17  44  1   
 37  18  24  ar  
 38  18  45  1   
 39  19  25  ar  
 40  19  46  1   
 41  20  26  1   
 42  20  27  1   
 43  20  47  1   
 44  21  28  1   
 45  21  48  1   
 46  21  49  1   
 47  22  29  1   
 48  22  50  1   
 49  22  51  1   
 50  23  29  1   
 51  23  52  1   
 52  23  53  1   
 53  24  30  ar  
 54  24  54  1   
 55  25  30  ar  
 56  25  55  1   
 57  26  31  1   
 58  26  56  1   
 59  26  57  1   
 60  27  58  1   
 61  27  59  1   
 62  27  60  1   
 63  28  31  1   
 64  28  32  1   
 65  30  61  1   
 66  31  62  1   
 67  31  63  1   
 68  32  64  1   
 69  32  65  1   
 70  32  66  1   
@<TRIPOS>SUBSTRUCTURE
  1 ****   3 GROUP 4 **** **** 0

# MOE 2024.06 (io_trps.svl 2023.06)
