@<TRIPOS>MOLECULE
NONAME
53 56 1 0 0 
SMALL
USER_CHARGES


@<TRIPOS>ATOM
  1 S        0.4720    -1.2910     2.7440 S.3   1 <1>  -0.0800 
  2 C        0.5770    -0.5580     1.1660 C.2   1 <1>   0.1980 
  3 C        0.2590    -2.8360     1.9800 C.2   1 <1>  -0.1100 
  4 N        0.4650    -1.3800     0.2020 N.2   1 <1>  -0.5650 
  5 C        0.7950     0.9490     1.0810 C.3   1 <1>   0.5230 
  6 C        0.2780    -2.7050     0.6330 C.2   1 <1>   0.1410 
  7 N        0.7270     1.3870    -0.3550 N.4   1 <1>  -0.9590 
  8 C        0.1260    -3.7870    -0.3380 C.2   1 <1>   0.7160 
  9 C        1.4560     2.6640    -0.6110 C.3   1 <1>   0.2630 
 10 C       -0.6840     1.4320    -0.8510 C.3   1 <1>   0.2630 
 11 O       -0.0920    -3.5620    -1.5140 O.2   1 <1>  -0.5700 
 12 N        0.2080    -5.0900     0.0580 N.am  1 <1>  -0.7300 
 13 C        0.1560    -6.2730    -0.8340 C.3   1 <1>   0.2200 
 14 C       -1.1590    -7.0290    -0.6770 C.3   1 <1>  -0.0800 
 15 C        1.1320    -7.3100    -0.2980 C.3   1 <1>   0.1200 
 16 C       -0.9030    -7.8930     0.5670 C.3   1 <1>   0.1200 
 17 C       -2.4210    -6.1440    -0.5970 C.3   1 <1>  -0.0170 
 18 O        0.4760    -7.8670     0.7990 O.3   1 <1>  -0.5600 
 19 C       -3.7680    -6.8750    -0.5390 C.ar  1 <1>  -0.1440 
 20 C       -4.9500    -6.1410    -0.2640 C.ar  1 <1>   0.0000 
 21 C       -3.9100    -8.2190    -0.7460 C.ar  1 <1>  -0.1500 
 22 C       -6.1720    -6.8530    -0.1870 C.ar  1 <1>   0.3100 
 23 C       -4.9930    -4.7400    -0.0690 C.ar  1 <1>  -0.1500 
 24 C       -5.1690    -8.8230    -0.6570 C.ar  1 <1>   0.1600 
 25 N       -6.2640    -8.1910    -0.3840 N.ar  1 <1>  -0.6200 
 26 C       -7.3540    -6.1520     0.1020 C.ar  1 <1>  -0.1500 
 27 C       -6.1630    -4.0850     0.2070 C.ar  1 <1>  -0.1500 
 28 C       -7.3600    -4.7980     0.2970 C.ar  1 <1>  -0.1500 
 29 H        0.1370    -3.6930     2.6180 H     1 <1>   0.1500 
 30 H        1.7670     1.1720     1.4880 H     1 <1>   0.0800 
 31 H        0.0500     1.4610     1.6660 H     1 <1>   0.0800 
 32 H        1.1820     0.6100    -0.8720 H     1 <1>   0.4500 
 33 H        0.9970     3.4750    -0.0690 H     1 <1>   0.0800 
 34 H        1.4350     2.8980    -1.6640 H     1 <1>   0.0800 
 35 H        2.4850     2.5780    -0.3030 H     1 <1>   0.0800 
 36 H       -1.2500     2.1790    -0.3180 H     1 <1>   0.0800 
 37 H       -1.1580     0.4720    -0.7140 H     1 <1>   0.0800 
 38 H       -0.7020     1.6690    -1.9020 H     1 <1>   0.0800 
 39 H        0.3970    -5.3320     1.0330 H     1 <1>   0.3700 
 40 H        0.3650    -6.0000    -1.8560 H     1 <1>   0.0800 
 41 H       -1.2500    -7.6810    -1.5280 H     1 <1>   0.0800 
 42 H        2.0700    -6.8840     0.0130 H     1 <1>   0.0800 
 43 H        1.3020    -8.0910    -1.0190 H     1 <1>   0.0800 
 44 H       -1.2070    -8.9150     0.4180 H     1 <1>   0.0800 
 45 H       -1.3910    -7.4940     1.4400 H     1 <1>   0.0800 
 46 H       -2.4310    -5.4880    -1.4500 H     1 <1>   0.0800 
 47 H       -2.3450    -5.5320     0.2840 H     1 <1>   0.0800 
 48 H       -3.0860    -8.8630    -0.9820 H     1 <1>   0.1500 
 49 H       -4.0890    -4.1660    -0.1430 H     1 <1>   0.1500 
 50 H       -5.2300    -9.8850    -0.8240 H     1 <1>   0.1500 
 51 H       -8.2630    -6.7220     0.1620 H     1 <1>   0.1500 
 52 H       -6.1780    -3.0190     0.3550 H     1 <1>   0.1500 
 53 H       -8.2740    -4.2740     0.5170 H     1 <1>   0.1500 
@<TRIPOS>BOND
  1   1   2  1   
  2   1   3  1   
  3   2   4  2   
  4   2   5  1   
  5   3   6  2   
  6   3  29  1   
  7   4   6  1   
  8   5   7  1   
  9   5  30  1   
 10   5  31  1   
 11   6   8  1   
 12   7   9  1   
 13   7  10  1   
 14   7  32  1   
 15   8  11  2   
 16   8  12  am  
 17   9  33  1   
 18   9  34  1   
 19   9  35  1   
 20  10  36  1   
 21  10  37  1   
 22  10  38  1   
 23  12  13  1   
 24  12  39  1   
 25  13  14  1   
 26  13  15  1   
 27  13  40  1   
 28  14  16  1   
 29  14  17  1   
 30  14  41  1   
 31  15  18  1   
 32  15  42  1   
 33  15  43  1   
 34  16  18  1   
 35  16  44  1   
 36  16  45  1   
 37  17  19  1   
 38  17  46  1   
 39  17  47  1   
 40  19  20  ar  
 41  19  21  ar  
 42  20  22  ar  
 43  20  23  ar  
 44  21  24  ar  
 45  21  48  1   
 46  22  25  ar  
 47  22  26  ar  
 48  23  27  ar  
 49  23  49  1   
 50  24  25  ar  
 51  24  50  1   
 52  26  28  ar  
 53  26  51  1   
 54  27  28  ar  
 55  27  52  1   
 56  28  53  1   
@<TRIPOS>SUBSTRUCTURE
  1 ****  17 GROUP 4 **** **** 0

# MOE 2024.06 (io_trps.svl 2023.06)
