@<TRIPOS>MOLECULE
NONAME
52 54 1 0 0 
SMALL
USER_CHARGES


@<TRIPOS>ATOM
  1 CL      -0.2090    -2.5330    -1.0850 Cl    1 <1>  -0.1770 
  2 C       -1.8030    -2.7520    -0.4100 C.ar  1 <1>   0.1770 
  3 C       -2.7950    -1.8350    -0.7040 C.ar  1 <1>  -0.1500 
  4 C       -2.0510    -3.8380     0.4070 C.ar  1 <1>  -0.1500 
  5 C       -4.0620    -2.0140    -0.1740 C.ar  1 <1>  -0.1500 
  6 C       -3.3180    -4.0080     0.9360 C.ar  1 <1>  -0.1500 
  7 C       -4.3320    -3.1050     0.6430 C.ar  1 <1>  -0.1430 
  8 C       -5.7350    -3.3190     1.2090 C.3   1 <1>   0.0450 
  9 C       -6.2280    -4.7550     1.0610 C.2   1 <1>   0.5690 
 10 O       -6.4490    -5.3680     2.0780 O.2   1 <1>  -0.5700 
 11 N       -6.3950    -5.3260    -0.1740 N.am  1 <1>  -0.6600 
 12 C       -6.7170    -6.7820    -0.3150 C.3   1 <1>   0.3640 
 13 C       -6.2230    -4.5840    -1.4600 C.3   1 <1>   0.1400 
 14 C       -5.4170    -7.5430    -0.6410 C.ar  1 <1>  -0.1430 
 15 C       -7.8850    -6.9650    -1.3310 C.3   1 <1>   0.2000 
 16 C       -6.6530    -5.3980    -2.6930 C.3   1 <1>   0.1200 
 17 C       -4.3950    -7.5010     0.3010 C.ar  1 <1>  -0.1500 
 18 C       -5.2010    -8.2690    -1.8090 C.ar  1 <1>  -0.1500 
 19 O       -7.8370    -6.1090    -2.4590 O.3   1 <1>  -0.5600 
 20 C       -9.2410    -6.7170    -0.6570 C.3   1 <1>   0.1200 
 21 C       -3.1830    -8.1300     0.0840 C.ar  1 <1>   0.0830 
 22 C       -3.9900    -8.9010    -2.0400 C.ar  1 <1>  -0.1500 
 23 O       -9.5540    -7.7640     0.2050 O.3   1 <1>  -0.6800 
 24 O       -2.2490    -8.0460     1.0620 O.3   1 <1>  -0.3630 
 25 C       -2.9670    -8.8200    -1.1120 C.ar  1 <1>   0.0830 
 26 C       -1.9720    -9.2440     1.7520 C.3   1 <1>   0.0400 
 27 O       -1.7920    -9.4220    -1.4210 O.3   1 <1>  -0.3630 
 28 C       -0.6690    -8.5780    -1.5560 C.3   1 <1>   0.0400 
 29 H       -2.5730    -0.9960    -1.3380 H     1 <1>   0.1500 
 30 H       -1.2670    -4.5410     0.6240 H     1 <1>   0.1500 
 31 H       -4.8330    -1.2990    -0.4020 H     1 <1>   0.1500 
 32 H       -3.5070    -4.8540     1.5770 H     1 <1>   0.1500 
 33 H       -6.4410    -2.6660     0.7330 H     1 <1>   0.0800 
 34 H       -5.7210    -3.0690     2.2540 H     1 <1>   0.0800 
 35 H       -7.0570    -7.1680     0.6310 H     1 <1>   0.0800 
 36 H       -6.8060    -3.6810    -1.4280 H     1 <1>   0.0800 
 37 H       -5.1890    -4.3110    -1.5790 H     1 <1>   0.0800 
 38 H       -7.8910    -7.9730    -1.7010 H     1 <1>   0.0800 
 39 H       -5.8820    -6.0870    -2.9810 H     1 <1>   0.0800 
 40 H       -6.8270    -4.7370    -3.5240 H     1 <1>   0.0800 
 41 H       -4.5360    -6.9770     1.2280 H     1 <1>   0.1500 
 42 H       -5.9590    -8.3530    -2.5660 H     1 <1>   0.1500 
 43 H      -10.0230    -6.6480    -1.3930 H     1 <1>   0.0800 
 44 H       -9.2100    -5.8090    -0.0790 H     1 <1>   0.0800 
 45 H       -3.8280    -9.4540    -2.9480 H     1 <1>   0.1500 
 46 H       -9.8330    -8.5570    -0.2940 H     1 <1>   0.4000 
 47 H       -1.2700    -9.0260     2.5360 H     1 <1>   0.0800 
 48 H       -1.5510    -9.9580     1.0680 H     1 <1>   0.0800 
 49 H       -2.8880    -9.6210     2.1700 H     1 <1>   0.0800 
 50 H        0.1420    -9.1590    -1.9550 H     1 <1>   0.0800 
 51 H       -0.3980    -8.1860    -0.5930 H     1 <1>   0.0800 
 52 H       -0.9150    -7.7760    -2.2300 H     1 <1>   0.0800 
@<TRIPOS>BOND
  1   1   2  1   
  2   2   3  ar  
  3   2   4  ar  
  4   3   5  ar  
  5   3  29  1   
  6   4   6  ar  
  7   4  30  1   
  8   5   7  ar  
  9   5  31  1   
 10   6   7  ar  
 11   6  32  1   
 12   7   8  1   
 13   8   9  1   
 14   8  33  1   
 15   8  34  1   
 16   9  10  2   
 17   9  11  am  
 18  11  12  1   
 19  11  13  1   
 20  12  14  1   
 21  12  15  1   
 22  12  35  1   
 23  13  16  1   
 24  13  36  1   
 25  13  37  1   
 26  14  17  ar  
 27  14  18  ar  
 28  15  19  1   
 29  15  20  1   
 30  15  38  1   
 31  16  19  1   
 32  16  39  1   
 33  16  40  1   
 34  17  21  ar  
 35  17  41  1   
 36  18  22  ar  
 37  18  42  1   
 38  20  23  1   
 39  20  43  1   
 40  20  44  1   
 41  21  24  1   
 42  21  25  ar  
 43  22  25  ar  
 44  22  45  1   
 45  23  46  1   
 46  24  26  1   
 47  25  27  1   
 48  26  47  1   
 49  26  48  1   
 50  26  49  1   
 51  27  28  1   
 52  28  50  1   
 53  28  51  1   
 54  28  52  1   
@<TRIPOS>SUBSTRUCTURE
  1 ****  17 GROUP 4 **** **** 0

# MOE 2024.06 (io_trps.svl 2023.06)
