@<TRIPOS>MOLECULE
NONAME
50 52 1 0 0 
SMALL
USER_CHARGES


@<TRIPOS>ATOM
  1 S       -0.4670     0.0850     1.4170 S.o2  1 <1>   1.4470 
  2 O       -1.0300     1.1730     2.1770 O.2   1 <1>  -0.6500 
  3 O       -0.4820    -1.2460     1.9800 O.2   1 <1>  -0.6500 
  4 N       -1.4120     0.0700     0.0260 N.am  1 <1>  -0.9140 
  5 C        1.1860     0.5270     0.8170 C.ar  1 <1>  -0.0090 
  6 C       -1.5640    -1.1580    -0.7630 C.3   1 <1>   0.2760 
  7 C        2.2950    -0.2530     1.1230 C.ar  1 <1>  -0.1500 
  8 C        1.3780     1.6540     0.0280 C.ar  1 <1>  -0.1500 
  9 C       -2.4320    -2.2300    -0.0950 C.3   1 <1>  -0.0800 
 10 C       -0.2720    -1.8930    -1.1420 C.3   1 <1>   0.1200 
 11 C        3.5590     0.0690     0.6600 C.ar  1 <1>  -0.1430 
 12 C        2.6300     2.0030    -0.4490 C.ar  1 <1>  -0.1430 
 13 C       -1.5270    -3.4660    -0.1250 C.3   1 <1>   0.1200 
 14 C       -3.7450    -2.4520    -0.8690 C.3   1 <1>  -0.0170 
 15 O       -0.6250    -3.2380    -1.1580 O.3   1 <1>  -0.5600 
 16 C        3.7260     1.2120    -0.1160 C.ar  1 <1>   0.0830 
 17 C        4.7350    -0.8350     1.0030 C.3   1 <1>  -0.0970 
 18 C        2.7800     3.2370    -1.3280 C.3   1 <1>  -0.0970 
 19 C       -4.6100    -3.5260    -0.2250 C.ar  1 <1>  -0.1430 
 20 O        4.9560     1.5480    -0.5610 O.3   1 <1>  -0.3620 
 21 C       -4.7790    -4.7690    -0.8010 C.ar  1 <1>  -0.1500 
 22 C       -5.2710    -3.3130     0.9680 C.ar  1 <1>  -0.1500 
 23 C        5.7110     2.3900     0.2790 C.3   1 <1>   0.0400 
 24 C       -5.5780    -5.7120    -0.1750 C.ar  1 <1>   0.1600 
 25 C       -6.0460    -4.3250     1.5110 C.ar  1 <1>   0.1600 
 26 N       -6.2160    -5.5190     0.9680 N.ar  1 <1>  -0.6200 
 27 H       -2.3280     0.3650     0.3580 H     1 <1>   0.4200 
 28 H       -2.0280    -0.8730    -1.6920 H     1 <1>   0.0800 
 29 H        2.1600    -1.1320     1.7310 H     1 <1>   0.1500 
 30 H        0.5250     2.2640    -0.2160 H     1 <1>   0.1500 
 31 H       -2.6650    -1.9900     0.9260 H     1 <1>   0.0800 
 32 H        0.5090    -1.7790    -0.4160 H     1 <1>   0.0800 
 33 H        0.0820    -1.6160    -2.1190 H     1 <1>   0.0800 
 34 H       -2.0540    -4.3850    -0.3120 H     1 <1>   0.0800 
 35 H       -0.9670    -3.5530     0.7910 H     1 <1>   0.0800 
 36 H       -3.5230    -2.7310    -1.8850 H     1 <1>   0.0800 
 37 H       -4.3050    -1.5330    -0.8990 H     1 <1>   0.0800 
 38 H        4.3940    -1.8120     1.2980 H     1 <1>   0.0800 
 39 H        5.3010    -0.4090     1.8110 H     1 <1>   0.0800 
 40 H        5.3770    -0.9490     0.1490 H     1 <1>   0.0800 
 41 H        1.8350     3.5250    -1.7500 H     1 <1>   0.0800 
 42 H        3.4610     3.0370    -2.1360 H     1 <1>   0.0800 
 43 H        3.1620     4.0560    -0.7470 H     1 <1>   0.0800 
 44 H       -4.2990    -5.0160    -1.7300 H     1 <1>   0.1500 
 45 H       -5.1930    -2.3730     1.4810 H     1 <1>   0.1500 
 46 H        6.6560     2.5790    -0.1960 H     1 <1>   0.0800 
 47 H        5.8640     1.8970     1.2220 H     1 <1>   0.0800 
 48 H        5.1780     3.3120     0.4230 H     1 <1>   0.0800 
 49 H       -5.6980    -6.6760    -0.6390 H     1 <1>   0.1500 
 50 H       -6.5540    -4.1410     2.4430 H     1 <1>   0.1500 
@<TRIPOS>BOND
  1   1   2  2   
  2   1   3  2   
  3   1   4  am  
  4   1   5  1   
  5   4   6  1   
  6   4  27  1   
  7   5   7  ar  
  8   5   8  ar  
  9   6   9  1   
 10   6  10  1   
 11   6  28  1   
 12   7  11  ar  
 13   7  29  1   
 14   8  12  ar  
 15   8  30  1   
 16   9  13  1   
 17   9  14  1   
 18   9  31  1   
 19  10  15  1   
 20  10  32  1   
 21  10  33  1   
 22  11  16  ar  
 23  11  17  1   
 24  12  16  ar  
 25  12  18  1   
 26  13  15  1   
 27  13  34  1   
 28  13  35  1   
 29  14  19  1   
 30  14  36  1   
 31  14  37  1   
 32  16  20  1   
 33  17  38  1   
 34  17  39  1   
 35  17  40  1   
 36  18  41  1   
 37  18  42  1   
 38  18  43  1   
 39  19  21  ar  
 40  19  22  ar  
 41  20  23  1   
 42  21  24  ar  
 43  21  44  1   
 44  22  25  ar  
 45  22  45  1   
 46  23  46  1   
 47  23  47  1   
 48  23  48  1   
 49  24  26  ar  
 50  24  49  1   
 51  25  26  ar  
 52  25  50  1   
@<TRIPOS>SUBSTRUCTURE
  1 ****   6 GROUP 4 **** **** 0

# MOE 2024.06 (io_trps.svl 2023.06)
