@<TRIPOS>MOLECULE
NONAME
45 46 1 0 0 
SMALL
USER_CHARGES


@<TRIPOS>ATOM
  1 O       -1.3750    -0.0780    -0.5990 O.2   1 <1>  -0.5700 
  2 C       -2.0620     0.6700     0.0720 C.2   1 <1>   0.5440 
  3 N       -2.9560     0.1240     0.9670 N.am  1 <1>  -0.6600 
  4 C       -1.9310     2.1000    -0.1000 C.ar  1 <1>   0.0860 
  5 C       -3.0690    -1.3580     1.1190 C.3   1 <1>   0.3200 
  6 C       -3.9180     0.9280     1.7810 C.3   1 <1>   0.1400 
  7 C       -0.8200     2.7800     0.3930 C.ar  1 <1>  -0.1500 
  8 C       -2.9170     2.8370    -0.7500 C.ar  1 <1>  -0.1500 
  9 C       -3.9380    -1.9320     0.0150 C.2   1 <1>   0.0070 
 10 C       -5.3230     0.8970     1.1670 C.3   1 <1>   0.1200 
 11 C       -0.6960     4.1600     0.2650 C.ar  1 <1>   0.0830 
 12 C       -2.8220     4.2090    -0.8710 C.ar  1 <1>   0.0830 
 13 N       -5.0830    -2.5150     0.1890 N.2   1 <1>  -0.5650 
 14 N       -3.5580    -1.8610    -1.2780 N.pl3 1 <1>   0.0330 
 15 O       -6.1430     1.7710     1.8680 O.3   1 <1>  -0.6800 
 16 O        0.3860     4.8480     0.7320 O.3   1 <1>  -0.3630 
 17 C       -1.7070     4.8820    -0.3700 C.ar  1 <1>   0.0830 
 18 O       -3.8380     4.8530    -1.4940 O.3   1 <1>  -0.3620 
 19 C       -5.4670    -2.8420    -1.0610 C.2   1 <1>   0.0770 
 20 C       -4.5480    -2.4500    -1.9700 C.2   1 <1>  -0.3020 
 21 C        1.4730     4.1950     1.3490 C.3   1 <1>   0.0400 
 22 O       -1.6010     6.2290    -0.4880 O.3   1 <1>  -0.3630 
 23 C       -4.6760     5.6290    -0.6660 C.3   1 <1>   0.0400 
 24 C       -1.1700     6.6980    -1.7440 C.3   1 <1>   0.0400 
 25 H       -3.4980    -1.6020     2.0740 H     1 <1>   0.0800 
 26 H       -2.0910    -1.8060     1.0720 H     1 <1>   0.0800 
 27 H       -3.5850     1.9500     1.8410 H     1 <1>   0.0800 
 28 H       -3.9530     0.5320     2.7800 H     1 <1>   0.0800 
 29 H       -0.0600     2.1960     0.8760 H     1 <1>   0.1500 
 30 H       -3.7730     2.3370    -1.1640 H     1 <1>   0.1500 
 31 H       -5.7560    -0.0870     1.2150 H     1 <1>   0.0800 
 32 H       -5.2960     1.2270     0.1440 H     1 <1>   0.0800 
 33 H       -2.6900    -1.4140    -1.6090 H     1 <1>   0.2700 
 34 H       -6.4550     1.3610     2.6990 H     1 <1>   0.4000 
 35 H       -6.3990    -3.3510    -1.2430 H     1 <1>   0.1500 
 36 H       -4.5440    -2.5530    -3.0400 H     1 <1>   0.1500 
 37 H        2.2010     4.9400     1.6130 H     1 <1>   0.0800 
 38 H        1.9020     3.4960     0.6530 H     1 <1>   0.0800 
 39 H        1.1240     3.6960     2.2360 H     1 <1>   0.0800 
 40 H       -5.4710     6.0270    -1.2700 H     1 <1>   0.0800 
 41 H       -4.1050     6.4330    -0.2350 H     1 <1>   0.0800 
 42 H       -5.0800     5.0000     0.1080 H     1 <1>   0.0800 
 43 H       -1.1110     7.7700    -1.7000 H     1 <1>   0.0800 
 44 H       -1.8790     6.3960    -2.4940 H     1 <1>   0.0800 
 45 H       -0.2000     6.2820    -1.9520 H     1 <1>   0.0800 
@<TRIPOS>BOND
  1   1   2  2   
  2   2   3  am  
  3   2   4  1   
  4   3   5  1   
  5   3   6  1   
  6   4   7  ar  
  7   4   8  ar  
  8   5   9  1   
  9   5  25  1   
 10   5  26  1   
 11   6  10  1   
 12   6  27  1   
 13   6  28  1   
 14   7  11  ar  
 15   7  29  1   
 16   8  12  ar  
 17   8  30  1   
 18   9  13  2   
 19   9  14  1   
 20  10  15  1   
 21  10  31  1   
 22  10  32  1   
 23  11  16  1   
 24  11  17  ar  
 25  12  17  ar  
 26  12  18  1   
 27  13  19  1   
 28  14  20  1   
 29  14  33  1   
 30  15  34  1   
 31  16  21  1   
 32  17  22  1   
 33  18  23  1   
 34  19  20  2   
 35  19  35  1   
 36  20  36  1   
 37  21  37  1   
 38  21  38  1   
 39  21  39  1   
 40  22  24  1   
 41  23  40  1   
 42  23  41  1   
 43  23  42  1   
 44  24  43  1   
 45  24  44  1   
 46  24  45  1   
@<TRIPOS>SUBSTRUCTURE
  1 ****   4 GROUP 4 **** **** 0

# MOE 2024.06 (io_trps.svl 2023.06)
