@<TRIPOS>MOLECULE
NONAME
45 47 1 0 0 
SMALL
USER_CHARGES


@<TRIPOS>ATOM
  1 S        0.4330    -0.9480     0.9660 S.o2  1 <1>   1.2040 
  2 O       -0.8320    -0.6380     1.6000 O.2   1 <1>  -0.6500 
  3 O        1.3410    -1.9040     1.5650 O.2   1 <1>  -0.6500 
  4 C        1.3300     0.6050     0.7180 C.ar  1 <1>  -0.0090 
  5 C        0.1720    -1.4310    -0.7400 C.3   1 <1>  -0.0550 
  6 C        2.7170     0.6260     0.6190 C.ar  1 <1>  -0.1500 
  7 C        0.6510     1.8110     0.5830 C.ar  1 <1>  -0.1500 
  8 C       -0.3620    -2.8540    -0.8870 C.3   1 <1>   0.1100 
  9 C        3.4030     1.8070     0.3890 C.ar  1 <1>  -0.1500 
 10 C        1.3290     2.9960     0.3530 C.ar  1 <1>  -0.1500 
 11 N       -1.6780    -2.9720    -0.2690 N.3   1 <1>  -0.8100 
 12 C        2.7080     2.9940     0.2540 C.ar  1 <1>  -0.1500 
 13 C       -2.7840    -2.3430    -0.9920 C.3   1 <1>   0.1100 
 14 C       -2.1010    -4.3550    -0.0380 C.3   1 <1>   0.1100 
 15 C       -4.0160    -2.8730    -0.2710 C.3   1 <1>   0.2000 
 16 C       -3.6350    -4.3110     0.0980 C.3   1 <1>  -0.0800 
 17 O       -4.1530    -2.1530     0.9000 O.3   1 <1>  -0.6800 
 18 C       -4.3400    -5.3280    -0.8190 C.3   1 <1>  -0.0160 
 19 C       -3.9960    -6.7650    -0.4600 C.ar  1 <1>   0.1670 
 20 N       -2.9900    -7.3190    -1.1200 N.ar  1 <1>  -0.6200 
 21 C       -4.7340    -7.4320     0.5170 C.ar  1 <1>   0.1600 
 22 C       -2.7760    -8.5680    -0.7410 C.ar  1 <1>   0.1600 
 23 N       -4.5220    -8.6820     0.8960 N.ar  1 <1>  -0.6200 
 24 C       -3.5170    -9.2270     0.2330 C.ar  1 <1>   0.1600 
 25 H       -0.4940    -0.7430    -1.2210 H     1 <1>   0.0800 
 26 H        1.1110    -1.3850    -1.2560 H     1 <1>   0.0800 
 27 H        3.2700    -0.2920     0.7290 H     1 <1>   0.1500 
 28 H       -0.4240     1.8250     0.6650 H     1 <1>   0.1500 
 29 H        0.3190    -3.5300    -0.3960 H     1 <1>   0.0800 
 30 H       -0.4190    -3.1300    -1.9270 H     1 <1>   0.0800 
 31 H        4.4780     1.8010     0.3180 H     1 <1>   0.1500 
 32 H        0.7830     3.9190     0.2540 H     1 <1>   0.1500 
 33 H        3.2380     3.9140     0.0760 H     1 <1>   0.1500 
 34 H       -2.7350    -1.2680    -0.9510 H     1 <1>   0.0800 
 35 H       -2.7900    -2.6730    -2.0170 H     1 <1>   0.0800 
 36 H       -1.8120    -4.9670    -0.8770 H     1 <1>   0.0800 
 37 H       -1.6400    -4.7430     0.8550 H     1 <1>   0.0800 
 38 H       -4.9250    -2.7810    -0.8390 H     1 <1>   0.0800 
 39 H       -3.9120    -4.5210     1.1170 H     1 <1>   0.0800 
 40 H       -3.2480    -2.0460     1.2780 H     1 <1>   0.4000 
 41 H       -4.0710    -5.1460    -1.8450 H     1 <1>   0.0800 
 42 H       -5.4040    -5.1960    -0.7370 H     1 <1>   0.0800 
 43 H       -5.5350    -6.9070     1.0070 H     1 <1>   0.1500 
 44 H       -1.9750    -9.0980    -1.2250 H     1 <1>   0.1500 
 45 H       -3.2660   -10.2450     0.4720 H     1 <1>   0.1500 
@<TRIPOS>BOND
  1   1   2  2   
  2   1   3  2   
  3   1   4  1   
  4   1   5  1   
  5   4   6  ar  
  6   4   7  ar  
  7   5   8  1   
  8   5  25  1   
  9   5  26  1   
 10   6   9  ar  
 11   6  27  1   
 12   7  10  ar  
 13   7  28  1   
 14   8  11  1   
 15   8  29  1   
 16   8  30  1   
 17   9  12  ar  
 18   9  31  1   
 19  10  12  ar  
 20  10  32  1   
 21  11  13  1   
 22  11  14  1   
 23  12  33  1   
 24  13  15  1   
 25  13  34  1   
 26  13  35  1   
 27  14  16  1   
 28  14  36  1   
 29  14  37  1   
 30  15  16  1   
 31  15  17  1   
 32  15  38  1   
 33  16  18  1   
 34  16  39  1   
 35  17  40  1   
 36  18  19  1   
 37  18  41  1   
 38  18  42  1   
 39  19  20  ar  
 40  19  21  ar  
 41  20  22  ar  
 42  21  23  ar  
 43  21  43  1   
 44  22  24  ar  
 45  22  44  1   
 46  23  24  ar  
 47  24  45  1   
@<TRIPOS>SUBSTRUCTURE
  1 ****  11 GROUP 4 **** **** 0

# MOE 2024.06 (io_trps.svl 2023.06)
