@<TRIPOS>MOLECULE
NONAME
48 50 1 0 0 
SMALL
USER_CHARGES


@<TRIPOS>ATOM
  1 O       -0.4480     0.2910    -0.1510 O.2   1 <1>  -0.5700 
  2 C       -1.5320     0.8230    -0.1170 C.2   1 <1>   0.5690 
  3 N       -2.6840     0.0910    -0.1040 N.am  1 <1>  -0.6600 
  4 C       -1.6160     2.3420    -0.0960 C.3   1 <1>  -0.0990 
  5 C       -4.0730     0.6150    -0.1170 C.3   1 <1>   0.1400 
  6 C       -2.6830    -1.3930    -0.0900 C.3   1 <1>   0.1400 
  7 C       -0.2500     3.0210     0.0600 C.3   1 <1>   0.0210 
  8 C       -4.9530    -0.6170    -0.3230 C.3   1 <1>   0.2000 
  9 C       -4.1310    -1.7920     0.1990 C.3   1 <1>  -0.0800 
 10 C       -0.2840     4.5470     0.1250 C.2   1 <1>  -0.1810 
 11 O       -6.1450    -0.5130     0.3740 O.3   1 <1>  -0.6800 
 12 C       -4.5320    -3.1400    -0.4170 C.3   1 <1>   0.0210 
 13 C       -1.2460     5.4910     0.0490 C.2   1 <1>  -0.0400 
 14 C        0.8770     5.3050     0.3020 C.2   1 <1>   0.1080 
 15 C       -3.6090    -4.2470     0.0520 C.2   1 <1>   0.1080 
 16 O       -0.6710     6.6570     0.1750 O.3   1 <1>  -0.0190 
 17 C       -2.7520     5.5030    -0.1380 C.3   1 <1>  -0.0600 
 18 N        0.6130     6.5600     0.3280 N.2   1 <1>  -0.4100 
 19 C        2.2810     4.7550     0.4480 C.3   1 <1>  -0.0590 
 20 N       -3.4490    -4.5450     1.3030 N.2   1 <1>  -0.7070 
 21 C       -2.8330    -5.0450    -0.7830 C.2   1 <1>  -0.1500 
 22 N       -2.5560    -5.5540     1.3010 N.pl3 1 <1>   0.3000 
 23 C       -2.1680    -5.8730     0.0490 C.2   1 <1>  -0.3320 
 24 C       -1.1680    -6.9660    -0.2800 C.3   1 <1>  -0.0600 
 25 H       -2.0630     2.6620    -1.0170 H     1 <1>   0.0800 
 26 H       -2.2410     2.6320     0.7280 H     1 <1>   0.0800 
 27 H       -4.2850     1.0780     0.8310 H     1 <1>   0.0800 
 28 H       -4.2080     1.3170    -0.9200 H     1 <1>   0.0800 
 29 H       -2.3660    -1.7510    -1.0540 H     1 <1>   0.0800 
 30 H       -2.0140    -1.7710     0.6660 H     1 <1>   0.0800 
 31 H        0.3750     2.7310    -0.7670 H     1 <1>   0.0800 
 32 H        0.2120     2.6540     0.9600 H     1 <1>   0.0800 
 33 H       -5.1810    -0.7280    -1.3700 H     1 <1>   0.0800 
 34 H       -4.2290    -1.8540     1.2700 H     1 <1>   0.0800 
 35 H       -5.9910    -0.6480     1.3300 H     1 <1>   0.4000 
 36 H       -4.5010    -3.0810    -1.4900 H     1 <1>   0.0800 
 37 H       -5.5380    -3.3840    -0.1250 H     1 <1>   0.0800 
 38 H       -3.1600     4.5200    -0.2450 H     1 <1>   0.0800 
 39 H       -2.9960     6.0720    -1.0170 H     1 <1>   0.0800 
 40 H       -3.2120     5.9740     0.7120 H     1 <1>   0.0800 
 41 H        2.5420     4.1810    -0.4210 H     1 <1>   0.0800 
 42 H        2.3410     4.1310     1.3200 H     1 <1>   0.0800 
 43 H        2.9820     5.5640     0.5520 H     1 <1>   0.0800 
 44 H       -2.7910    -4.9920    -1.8560 H     1 <1>   0.1500 
 45 H       -2.2330    -5.9990     2.1690 H     1 <1>   0.2700 
 46 H       -1.0240    -7.0280    -1.3440 H     1 <1>   0.0800 
 47 H       -1.5250    -7.9170     0.0730 H     1 <1>   0.0800 
 48 H       -0.2190    -6.7530     0.1810 H     1 <1>   0.0800 
@<TRIPOS>BOND
  1   1   2  2   
  2   2   3  am  
  3   2   4  1   
  4   3   5  1   
  5   3   6  1   
  6   4   7  1   
  7   4  25  1   
  8   4  26  1   
  9   5   8  1   
 10   5  27  1   
 11   5  28  1   
 12   6   9  1   
 13   6  29  1   
 14   6  30  1   
 15   7  10  1   
 16   7  31  1   
 17   7  32  1   
 18   8   9  1   
 19   8  11  1   
 20   8  33  1   
 21   9  12  1   
 22   9  34  1   
 23  10  13  2   
 24  10  14  1   
 25  11  35  1   
 26  12  15  1   
 27  12  36  1   
 28  12  37  1   
 29  13  16  1   
 30  13  17  1   
 31  14  18  2   
 32  14  19  1   
 33  15  20  2   
 34  15  21  1   
 35  16  18  1   
 36  17  38  1   
 37  17  39  1   
 38  17  40  1   
 39  19  41  1   
 40  19  42  1   
 41  19  43  1   
 42  20  22  1   
 43  21  23  2   
 44  21  44  1   
 45  22  23  1   
 46  22  45  1   
 47  23  24  1   
 48  24  46  1   
 49  24  47  1   
 50  24  48  1   
@<TRIPOS>SUBSTRUCTURE
  1 ****   3 GROUP 4 **** **** 0

# MOE 2024.06 (io_trps.svl 2023.06)
