@<TRIPOS>MOLECULE
NONAME
55 57 1 0 0 
SMALL
USER_CHARGES


@<TRIPOS>ATOM
  1 O       -2.0460     0.0850    -1.9260 O.2   1 <1>  -0.5700 
  2 C       -2.0970     0.7700    -0.9260 C.2   1 <1>   0.5440 
  3 N       -2.5220     0.1810     0.2520 N.am  1 <1>  -0.6600 
  4 C       -1.7700     2.1760    -1.0360 C.ar  1 <1>   0.0860 
  5 C       -2.4780    -1.3160     0.3680 C.3   1 <1>   0.3210 
  6 C       -2.8220     0.9350     1.5210 C.3   1 <1>   0.1400 
  7 C       -0.7850     2.8070    -0.2340 C.ar  1 <1>   0.0000 
  8 C       -2.4360     2.9710    -1.9320 C.ar  1 <1>  -0.1500 
  9 C       -3.8010    -1.9790    -0.0200 C.2   1 <1>   0.0460 
 10 C       -4.2950     0.8320     1.9670 C.3   1 <1>   0.3430 
 11 C       -0.6800     4.2160    -0.2890 C.ar  1 <1>   0.3100 
 12 C        0.0980     2.0980     0.6080 C.ar  1 <1>  -0.1500 
 13 C       -2.2350     4.3500    -1.9520 C.ar  1 <1>   0.1660 
 14 N       -4.8600    -1.9950     0.8220 N.2   1 <1>  -0.5650 
 15 C       -4.0920    -2.6480    -1.1610 C.2   1 <1>  -0.3320 
 16 N       -5.2490     0.9550     0.8220 N.4   1 <1>  -0.9590 
 17 N       -1.4290     4.9590    -1.1450 N.ar  1 <1>  -0.6200 
 18 C        0.2420     4.8660     0.5630 C.ar  1 <1>  -0.1430 
 19 C        0.9920     2.7490     1.4110 C.ar  1 <1>  -0.1500 
 20 C       -2.9900     5.2100    -2.9450 C.3   1 <1>  -0.0970 
 21 C       -5.7510    -2.6880     0.1880 C.2   1 <1>   0.0360 
 22 N       -5.3480    -3.1070    -1.0280 N.pl3 1 <1>   0.0330 
 23 C       -3.2610    -2.9200    -2.4060 C.3   1 <1>  -0.0600 
 24 C       -5.2040     2.2760     0.1300 C.3   1 <1>   0.2630 
 25 C       -6.6320     0.6020     1.2480 C.3   1 <1>   0.2630 
 26 C        1.0560     4.1430     1.3960 C.ar  1 <1>  -0.1500 
 27 C        0.3470     6.3880     0.5500 C.3   1 <1>  -0.0970 
 28 H       -2.2310    -1.6000     1.3760 H     1 <1>   0.0800 
 29 H       -1.6980    -1.7000    -0.2640 H     1 <1>   0.0800 
 30 H       -2.5930     1.9770     1.4040 H     1 <1>   0.0800 
 31 H       -2.1910     0.5660     2.3110 H     1 <1>   0.0800 
 32 H       -3.1310     2.5300    -2.6250 H     1 <1>   0.1500 
 33 H       -4.5020     1.5860     2.7070 H     1 <1>   0.0800 
 34 H       -4.4340    -0.1310     2.4330 H     1 <1>   0.0800 
 35 H        0.0760     1.0220     0.6150 H     1 <1>   0.1500 
 36 H       -4.9300     0.2020     0.1720 H     1 <1>   0.4500 
 37 H        1.6610     2.2030     2.0550 H     1 <1>   0.1500 
 38 H       -3.5630     4.6110    -3.6280 H     1 <1>   0.0800 
 39 H       -2.2910     5.8000    -3.5090 H     1 <1>   0.0800 
 40 H       -3.6520     5.8730    -2.4180 H     1 <1>   0.0800 
 41 H       -6.7270    -2.9290     0.5720 H     1 <1>   0.1500 
 42 H       -5.8760    -3.6760    -1.6980 H     1 <1>   0.2700 
 43 H       -2.2660    -2.5260    -2.3010 H     1 <1>   0.0800 
 44 H       -3.7140    -2.4530    -3.2630 H     1 <1>   0.0800 
 45 H       -3.1870    -3.9780    -2.5830 H     1 <1>   0.0800 
 46 H       -5.5410     3.0570     0.7920 H     1 <1>   0.0800 
 47 H       -5.8390     2.2600    -0.7410 H     1 <1>   0.0800 
 48 H       -4.1990     2.5000    -0.1830 H     1 <1>   0.0800 
 49 H       -7.0010     1.3180     1.9630 H     1 <1>   0.0800 
 50 H       -6.6390    -0.3770     1.6990 H     1 <1>   0.0800 
 51 H       -7.2910     0.5890     0.3950 H     1 <1>   0.0800 
 52 H        1.7650     4.6320     2.0430 H     1 <1>   0.1500 
 53 H       -0.6040     6.8240     0.7970 H     1 <1>   0.0800 
 54 H        0.6330     6.7240    -0.4310 H     1 <1>   0.0800 
 55 H        1.0780     6.7370     1.2570 H     1 <1>   0.0800 
@<TRIPOS>BOND
  1   1   2  2   
  2   2   3  am  
  3   2   4  1   
  4   3   5  1   
  5   3   6  1   
  6   4   7  ar  
  7   4   8  ar  
  8   5   9  1   
  9   5  28  1   
 10   5  29  1   
 11   6  10  1   
 12   6  30  1   
 13   6  31  1   
 14   7  11  ar  
 15   7  12  ar  
 16   8  13  ar  
 17   8  32  1   
 18   9  14  1   
 19   9  15  2   
 20  10  16  1   
 21  10  33  1   
 22  10  34  1   
 23  11  17  ar  
 24  11  18  ar  
 25  12  19  ar  
 26  12  35  1   
 27  13  17  ar  
 28  13  20  1   
 29  14  21  2   
 30  15  22  1   
 31  15  23  1   
 32  16  24  1   
 33  16  25  1   
 34  16  36  1   
 35  18  26  ar  
 36  18  27  1   
 37  19  26  ar  
 38  19  37  1   
 39  20  38  1   
 40  20  39  1   
 41  20  40  1   
 42  21  22  1   
 43  21  41  1   
 44  22  42  1   
 45  23  43  1   
 46  23  44  1   
 47  23  45  1   
 48  24  46  1   
 49  24  47  1   
 50  24  48  1   
 51  25  49  1   
 52  25  50  1   
 53  25  51  1   
 54  26  52  1   
 55  27  53  1   
 56  27  54  1   
 57  27  55  1   
@<TRIPOS>SUBSTRUCTURE
  1 ****   2 GROUP 4 **** **** 0

# MOE 2024.06 (io_trps.svl 2023.06)
