@<TRIPOS>MOLECULE
NONAME
46 49 1 0 0 
SMALL
USER_CHARGES


@<TRIPOS>ATOM
  1 O        0.3760     0.0130     0.7740 O.3   1 <1>  -0.5600 
  2 C        0.3130    -1.2990     0.2850 C.3   1 <1>   0.1200 
  3 C        1.3170     0.8010     0.1170 C.3   1 <1>   0.1200 
  4 C        1.6800    -2.0110     0.4040 C.3   1 <1>   0.2850 
  5 C        2.7180     0.1890     0.3000 C.3   1 <1>   0.1900 
  6 N        2.7590    -1.1990    -0.2230 N.3   1 <1>  -0.8100 
  7 C        1.5880    -3.3890    -0.2690 C.3   1 <1>  -0.1950 
  8 C        3.7720     1.0650    -0.4050 C.3   1 <1>   0.3430 
  9 C        4.1040    -1.7920    -0.0600 C.3   1 <1>   0.1100 
 10 C        0.8410    -4.5070     0.3920 C.3   1 <1>  -0.2000 
 11 C        2.3310    -4.5870     0.2420 C.3   1 <1>  -0.2000 
 12 N        5.1610     0.4900    -0.2760 N.4   1 <1>  -0.9590 
 13 C        5.1880    -0.9370    -0.7480 C.3   1 <1>   0.3430 
 14 C        6.1750     1.3280    -0.9720 C.3   1 <1>   0.4860 
 15 C        6.1380     2.7250    -0.3770 C.ar  1 <1>  -0.1440 
 16 C        6.6570     2.9690     0.8860 C.ar  1 <1>  -0.1500 
 17 C        5.5690     3.7710    -1.0870 C.ar  1 <1>  -0.1500 
 18 C        6.5860     4.2370     1.4360 C.ar  1 <1>  -0.1500 
 19 C        5.5010     5.0370    -0.5320 C.ar  1 <1>  -0.1500 
 20 C        6.0010     5.2880     0.7400 C.ar  1 <1>   0.0730 
 21 C        5.9120     6.5980     1.3210 C.1   1 <1>   0.4840 
 22 N        5.8270     7.6350     1.7860 N.1   1 <1>  -0.5570 
 23 H       -0.4280    -1.8270     0.8580 H     1 <1>   0.0800 
 24 H       -0.0070    -1.2680    -0.7420 H     1 <1>   0.0800 
 25 H        1.0490     0.8610    -0.9250 H     1 <1>   0.0800 
 26 H        1.2690     1.7850     0.5490 H     1 <1>   0.0800 
 27 H        1.8910    -2.1460     1.4520 H     1 <1>   0.0800 
 28 H        2.9300     0.1830     1.3560 H     1 <1>   0.0800 
 29 H        1.4530    -3.3020    -1.3340 H     1 <1>   0.1000 
 30 H        3.7430     2.0540     0.0220 H     1 <1>   0.0800 
 31 H        3.5050     1.1430    -1.4450 H     1 <1>   0.0800 
 32 H        4.3330    -1.9090     0.9860 H     1 <1>   0.0800 
 33 H        4.1250    -2.7680    -0.5130 H     1 <1>   0.0800 
 34 H        0.4360    -4.3700     1.3800 H     1 <1>   0.1000 
 35 H        0.2270    -5.1510    -0.2160 H     1 <1>   0.1000 
 36 H        2.7350    -5.2910    -0.4650 H     1 <1>   0.1000 
 37 H        2.9290    -4.5100     1.1340 H     1 <1>   0.1000 
 38 H        5.3920     0.5000     0.7240 H     1 <1>   0.4500 
 39 H        5.0140    -0.9710    -1.8110 H     1 <1>   0.0800 
 40 H        6.1550    -1.3720    -0.5560 H     1 <1>   0.0800 
 41 H        7.1600     0.9080    -0.8430 H     1 <1>   0.0800 
 42 H        5.9590     1.3730    -2.0280 H     1 <1>   0.0800 
 43 H        7.1240     2.1830     1.4570 H     1 <1>   0.1500 
 44 H        5.1720     3.6180    -2.0780 H     1 <1>   0.1500 
 45 H        6.9910     4.4160     2.4200 H     1 <1>   0.1500 
 46 H        5.0550     5.8430    -1.0920 H     1 <1>   0.1500 
@<TRIPOS>BOND
  1   1   2  1   
  2   1   3  1   
  3   2   4  1   
  4   2  23  1   
  5   2  24  1   
  6   3   5  1   
  7   3  25  1   
  8   3  26  1   
  9   4   6  1   
 10   4   7  1   
 11   4  27  1   
 12   5   6  1   
 13   5   8  1   
 14   5  28  1   
 15   6   9  1   
 16   7  10  1   
 17   7  11  1   
 18   7  29  1   
 19   8  12  1   
 20   8  30  1   
 21   8  31  1   
 22   9  13  1   
 23   9  32  1   
 24   9  33  1   
 25  10  11  1   
 26  10  34  1   
 27  10  35  1   
 28  11  36  1   
 29  11  37  1   
 30  12  13  1   
 31  12  14  1   
 32  12  38  1   
 33  13  39  1   
 34  13  40  1   
 35  14  15  1   
 36  14  41  1   
 37  14  42  1   
 38  15  16  ar  
 39  15  17  ar  
 40  16  18  ar  
 41  16  43  1   
 42  17  19  ar  
 43  17  44  1   
 44  18  20  ar  
 45  18  45  1   
 46  19  20  ar  
 47  19  46  1   
 48  20  21  1   
 49  21  22  3   
@<TRIPOS>SUBSTRUCTURE
  1 ****   8 GROUP 4 **** **** 0

# MOE 2024.06 (io_trps.svl 2023.06)
