@<TRIPOS>MOLECULE
NONAME
45 46 1 0 0 
SMALL
USER_CHARGES


@<TRIPOS>ATOM
  1 CL      -2.3030     0.1100    -1.8450 Cl    1 <1>  -0.1770 
  2 C       -2.8430    -1.0270    -0.6240 C.ar  1 <1>   0.1770 
  3 C       -3.3110    -0.6540     0.6430 C.ar  1 <1>   0.0830 
  4 C       -2.7830    -2.3570    -0.9920 C.ar  1 <1>  -0.1500 
  5 O       -3.4330     0.5970     1.1570 O.3   1 <1>  -0.3630 
  6 C       -3.7060    -1.6670     1.5040 C.ar  1 <1>  -0.1500 
  7 C       -3.1770    -3.3820    -0.1310 C.ar  1 <1>   0.0860 
  8 C       -3.0900     1.7840     0.4820 C.3   1 <1>   0.0400 
  9 C       -3.6430    -2.9960     1.1300 C.ar  1 <1>  -0.1500 
 10 C       -3.1030    -4.7730    -0.5470 C.2   1 <1>   0.5440 
 11 O       -2.8690    -5.0670    -1.7030 O.2   1 <1>  -0.5700 
 12 N       -3.3070    -5.7960     0.3340 N.am  1 <1>  -0.7300 
 13 C       -3.1820    -7.2410     0.0230 C.3   1 <1>   0.2200 
 14 C       -4.5520    -7.8710    -0.1780 C.3   1 <1>  -0.0800 
 15 C       -2.7300    -7.9680     1.2810 C.3   1 <1>   0.1200 
 16 C       -5.0140    -8.1380     1.2610 C.3   1 <1>   0.1200 
 17 C       -5.5260    -7.0450    -1.0460 C.3   1 <1>  -0.0550 
 18 O       -3.8760    -8.0540     2.0720 O.3   1 <1>  -0.5600 
 19 S       -7.0720    -7.8770    -1.4160 S.o2  1 <1>   1.3330 
 20 O       -6.7710    -9.2430    -1.7790 O.2   1 <1>  -0.6500 
 21 O       -7.8550    -7.0520    -2.3080 O.2   1 <1>  -0.6500 
 22 N       -7.8790    -7.9010     0.0800 N.am  1 <1>  -0.8490 
 23 C       -8.5840    -6.6500     0.3800 C.3   1 <1>   0.1160 
 24 C       -8.8090    -9.0300     0.1870 C.3   1 <1>   0.1160 
 25 H       -2.4190    -2.6070    -1.9740 H     1 <1>   0.1500 
 26 H       -4.0680    -1.3980     2.4820 H     1 <1>   0.1500 
 27 H       -3.2900     2.6110     1.1390 H     1 <1>   0.0800 
 28 H       -3.6950     1.8720    -0.4030 H     1 <1>   0.0800 
 29 H       -2.0420     1.7600     0.2400 H     1 <1>   0.0800 
 30 H       -3.9660    -3.7390     1.8360 H     1 <1>   0.1500 
 31 H       -3.5140    -5.6130     1.3170 H     1 <1>   0.3700 
 32 H       -2.5170    -7.4010    -0.8100 H     1 <1>   0.0800 
 33 H       -4.4060    -8.8260    -0.6530 H     1 <1>   0.0800 
 34 H       -1.9550    -7.4440     1.8130 H     1 <1>   0.0800 
 35 H       -2.4080    -8.9690     1.0520 H     1 <1>   0.0800 
 36 H       -5.4500    -9.1170     1.3660 H     1 <1>   0.0800 
 37 H       -5.7100    -7.3920     1.6030 H     1 <1>   0.0800 
 38 H       -5.0330    -6.8240    -1.9740 H     1 <1>   0.0800 
 39 H       -5.7350    -6.1080    -0.5700 H     1 <1>   0.0800 
 40 H       -8.9970    -6.6870     1.3740 H     1 <1>   0.0800 
 41 H       -9.3830    -6.4890    -0.3260 H     1 <1>   0.0800 
 42 H       -7.9050    -5.8170     0.3260 H     1 <1>   0.0800 
 43 H       -9.2960    -9.0240     1.1470 H     1 <1>   0.0800 
 44 H       -8.2740    -9.9600     0.0890 H     1 <1>   0.0800 
 45 H       -9.5530    -8.9760    -0.5900 H     1 <1>   0.0800 
@<TRIPOS>BOND
  1   1   2  1   
  2   2   3  ar  
  3   2   4  ar  
  4   3   5  1   
  5   3   6  ar  
  6   4   7  ar  
  7   4  25  1   
  8   5   8  1   
  9   6   9  ar  
 10   6  26  1   
 11   7   9  ar  
 12   7  10  1   
 13   8  27  1   
 14   8  28  1   
 15   8  29  1   
 16   9  30  1   
 17  10  11  2   
 18  10  12  am  
 19  12  13  1   
 20  12  31  1   
 21  13  14  1   
 22  13  15  1   
 23  13  32  1   
 24  14  16  1   
 25  14  17  1   
 26  14  33  1   
 27  15  18  1   
 28  15  34  1   
 29  15  35  1   
 30  16  18  1   
 31  16  36  1   
 32  16  37  1   
 33  17  19  1   
 34  17  38  1   
 35  17  39  1   
 36  19  20  2   
 37  19  21  2   
 38  19  22  am  
 39  22  23  1   
 40  22  24  1   
 41  23  40  1   
 42  23  41  1   
 43  23  42  1   
 44  24  43  1   
 45  24  44  1   
 46  24  45  1   
@<TRIPOS>SUBSTRUCTURE
  1 ****  10 GROUP 4 **** **** 0

# MOE 2024.06 (io_trps.svl 2023.06)
