@<TRIPOS>MOLECULE
NONAME
54 56 1 0 0 
SMALL
USER_CHARGES


@<TRIPOS>ATOM
  1 O       -2.6900     1.6380     2.6700 O.2   1 <1>  -0.5700 
  2 C       -2.6860     1.9510     1.5010 C.2   1 <1>   0.5690 
  3 N       -2.7690     1.0040     0.5160 N.am  1 <1>  -0.6600 
  4 C       -2.6150     3.4280     1.1750 C.3   1 <1>   0.1570 
  5 C       -2.6440     1.2340    -0.9480 C.3   1 <1>   0.1400 
  6 C       -2.9120    -0.4430     0.7880 C.3   1 <1>   0.1400 
  7 N       -1.3780     3.7490     0.4480 N.pl3 1 <1>   0.3140 
  8 C       -2.8890    -0.1300    -1.6040 C.3   1 <1>   0.2000 
  9 C       -2.4880    -1.1290    -0.5130 C.3   1 <1>  -0.0800 
 10 N       -1.4270     4.1890    -0.8240 N.2   1 <1>  -0.7070 
 11 C       -0.1000     3.6680     0.8910 C.2   1 <1>  -0.3320 
 12 O       -4.2500    -0.2930    -1.8870 O.3   1 <1>  -0.5600 
 13 C       -3.0820    -2.5380    -0.6880 C.3   1 <1>   0.0200 
 14 C       -0.1920     4.3780    -1.1610 C.2   1 <1>   0.1080 
 15 C        0.6900     4.0700    -0.1290 C.2   1 <1>  -0.1810 
 16 C        0.2920     3.2000     2.2860 C.3   1 <1>  -0.0600 
 17 C       -4.6760     0.2630    -3.0910 C.3   1 <1>   0.0400 
 18 C       -2.5260    -3.5480     0.3030 C.2   1 <1>  -0.0400 
 19 C        0.1940     4.8850    -2.5320 C.3   1 <1>  -0.0590 
 20 C        2.2060     4.1720    -0.1740 C.3   1 <1>   0.0210 
 21 O       -3.0200    -4.7580     0.3090 O.3   1 <1>  -0.0190 
 22 C       -1.5710    -3.4940     1.2460 C.2   1 <1>  -0.1500 
 23 C        2.8140     2.8500    -0.6440 C.3   1 <1>  -0.2400 
 24 N       -2.4510    -5.5140     1.2030 N.2   1 <1>  -0.4100 
 25 C       -1.5740    -4.7780     1.7840 C.2   1 <1>   0.1080 
 26 C       -0.6720    -5.2520     2.9020 C.3   1 <1>  -0.0590 
 27 H       -2.6370     4.0010     2.0810 H     1 <1>   0.0800 
 28 H       -3.4560     3.7020     0.5690 H     1 <1>   0.0800 
 29 H       -3.3360     1.9820    -1.2900 H     1 <1>   0.0800 
 30 H       -1.6380     1.5510    -1.1630 H     1 <1>   0.0800 
 31 H       -2.3010    -0.7390     1.6230 H     1 <1>   0.0800 
 32 H       -3.9450    -0.6520     1.0070 H     1 <1>   0.0800 
 33 H       -2.3180    -0.2660    -2.5070 H     1 <1>   0.0800 
 34 H       -1.4150    -1.2000    -0.5150 H     1 <1>   0.0800 
 35 H       -2.8730    -2.8910    -1.6820 H     1 <1>   0.0800 
 36 H       -4.1510    -2.5000    -0.5750 H     1 <1>   0.0800 
 37 H        1.3520     3.2860     2.4350 H     1 <1>   0.0800 
 38 H        0.0180     2.1690     2.4230 H     1 <1>   0.0800 
 39 H       -0.2050     3.7930     3.0320 H     1 <1>   0.0800 
 40 H       -5.7310     0.0770    -3.1900 H     1 <1>   0.0800 
 41 H       -4.1500    -0.2060    -3.9050 H     1 <1>   0.0800 
 42 H       -4.4970     1.3240    -3.0860 H     1 <1>   0.0800 
 43 H        0.9670     4.2670    -2.9490 H     1 <1>   0.0800 
 44 H        0.5470     5.8960    -2.4550 H     1 <1>   0.0800 
 45 H       -0.6600     4.8630    -3.1840 H     1 <1>   0.0800 
 46 H        2.4970     4.9670    -0.8370 H     1 <1>   0.0800 
 47 H        2.5790     4.4140     0.8050 H     1 <1>   0.0800 
 48 H       -0.9330    -2.6850     1.5480 H     1 <1>   0.1500 
 49 H        2.4590     2.6070    -1.6290 H     1 <1>   0.0800 
 50 H        2.5350     2.0580     0.0280 H     1 <1>   0.0800 
 51 H        3.8870     2.9230    -0.6690 H     1 <1>   0.0800 
 52 H        0.3550    -5.0730     2.6450 H     1 <1>   0.0800 
 53 H       -0.8130    -6.3050     3.0650 H     1 <1>   0.0800 
 54 H       -0.9100    -4.7250     3.8080 H     1 <1>   0.0800 
@<TRIPOS>BOND
  1   1   2  2   
  2   2   3  am  
  3   2   4  1   
  4   3   5  1   
  5   3   6  1   
  6   4   7  1   
  7   4  27  1   
  8   4  28  1   
  9   5   8  1   
 10   5  29  1   
 11   5  30  1   
 12   6   9  1   
 13   6  31  1   
 14   6  32  1   
 15   7  10  1   
 16   7  11  1   
 17   8   9  1   
 18   8  12  1   
 19   8  33  1   
 20   9  13  1   
 21   9  34  1   
 22  10  14  2   
 23  11  15  2   
 24  11  16  1   
 25  12  17  1   
 26  13  18  1   
 27  13  35  1   
 28  13  36  1   
 29  14  15  1   
 30  14  19  1   
 31  15  20  1   
 32  16  37  1   
 33  16  38  1   
 34  16  39  1   
 35  17  40  1   
 36  17  41  1   
 37  17  42  1   
 38  18  21  1   
 39  18  22  2   
 40  19  43  1   
 41  19  44  1   
 42  19  45  1   
 43  20  23  1   
 44  20  46  1   
 45  20  47  1   
 46  21  24  1   
 47  22  25  1   
 48  22  48  1   
 49  23  49  1   
 50  23  50  1   
 51  23  51  1   
 52  24  25  2   
 53  25  26  1   
 54  26  52  1   
 55  26  53  1   
 56  26  54  1   
@<TRIPOS>SUBSTRUCTURE
  1 ****   3 GROUP 4 **** **** 0

# MOE 2024.06 (io_trps.svl 2023.06)
