@<TRIPOS>MOLECULE
NONAME
44 47 1 0 0 
SMALL
USER_CHARGES


@<TRIPOS>ATOM
  1 F        1.0570    -0.9740     1.2050 F     1 <1>  -0.3400 
  2 C        0.6960    -1.4720     0.0320 C.3   1 <1>   0.7800 
  3 F       -0.0800    -0.5400    -0.5010 F     1 <1>  -0.3400 
  4 C       -0.1240    -2.7220     0.2590 C.2   1 <1>  -0.3320 
  5 N       -1.2130    -2.7120     1.0440 N.pl3 1 <1>   0.3000 
  6 C        0.0100    -3.9840    -0.1970 C.2   1 <1>  -0.1500 
  7 N       -1.7910    -3.9200     1.1100 N.2   1 <1>  -0.7070 
  8 C       -1.0520    -4.7180     0.3530 C.2   1 <1>   0.2030 
  9 C       -1.2360    -6.1480     0.0950 C.2   1 <1>   0.7160 
 10 O       -0.3330    -6.7700    -0.4430 O.2   1 <1>  -0.5700 
 11 N       -2.3840    -6.8570     0.4160 N.am  1 <1>  -0.6600 
 12 C       -2.4050    -8.3540     0.4980 C.3   1 <1>   0.1400 
 13 C       -3.7260    -6.2360     0.6460 C.3   1 <1>   0.1400 
 14 C       -3.5740    -8.9480    -0.3070 C.3   1 <1>   0.3440 
 15 C       -4.8300    -6.9670    -0.1440 C.3   1 <1>   0.2950 
 16 O       -4.7790    -8.3450     0.0840 O.3   1 <1>  -0.5600 
 17 C       -3.6620   -10.4570    -0.0950 C.ar  1 <1>  -0.1440 
 18 C       -6.2260    -6.4870     0.2650 C.3   1 <1>  -0.1950 
 19 C       -2.9730   -11.3080    -0.9480 C.ar  1 <1>  -0.1500 
 20 C       -4.4060   -11.0030     0.9420 C.ar  1 <1>  -0.1500 
 21 C       -7.3990    -6.6460    -0.6490 C.3   1 <1>  -0.2000 
 22 C       -6.8430    -5.2780    -0.3670 C.3   1 <1>  -0.2000 
 23 C       -3.0260   -12.6800    -0.7680 C.ar  1 <1>  -0.1500 
 24 C       -4.4600   -12.3740     1.1250 C.ar  1 <1>  -0.1500 
 25 C       -3.7700   -13.2130     0.2700 C.ar  1 <1>  -0.1500 
 26 H        1.5700    -1.5950    -0.5820 H     1 <1>   0.0800 
 27 H       -1.5750    -1.8900     1.5470 H     1 <1>   0.2700 
 28 H        0.7600    -4.3990    -0.8490 H     1 <1>   0.1500 
 29 H       -1.4830    -8.7730     0.1340 H     1 <1>   0.0800 
 30 H       -2.5090    -8.6470     1.5280 H     1 <1>   0.0800 
 31 H       -3.9530    -6.2650     1.6970 H     1 <1>   0.0800 
 32 H       -3.7300    -5.2090     0.3330 H     1 <1>   0.0800 
 33 H       -3.4280    -8.7480    -1.3550 H     1 <1>   0.0800 
 34 H       -4.6900    -6.7990    -1.1980 H     1 <1>   0.0800 
 35 H       -6.4050    -6.6300     1.3170 H     1 <1>   0.1000 
 36 H       -2.3890   -10.9080    -1.7590 H     1 <1>   0.1500 
 37 H       -4.9500   -10.3570     1.6110 H     1 <1>   0.1500 
 38 H       -7.2400    -7.0890    -1.6180 H     1 <1>   0.1000 
 39 H       -8.3450    -6.9280    -0.2200 H     1 <1>   0.1000 
 40 H       -7.4170    -4.6070     0.2490 H     1 <1>   0.1000 
 41 H       -6.3230    -4.7660    -1.1590 H     1 <1>   0.1000 
 42 H       -2.4890   -13.3320    -1.4340 H     1 <1>   0.1500 
 43 H       -5.0420   -12.7850     1.9310 H     1 <1>   0.1500 
 44 H       -3.8120   -14.2790     0.4110 H     1 <1>   0.1500 
@<TRIPOS>BOND
  1   1   2  1   
  2   2   3  1   
  3   2   4  1   
  4   2  26  1   
  5   4   5  1   
  6   4   6  2   
  7   5   7  1   
  8   5  27  1   
  9   6   8  1   
 10   6  28  1   
 11   7   8  2   
 12   8   9  1   
 13   9  10  2   
 14   9  11  am  
 15  11  12  1   
 16  11  13  1   
 17  12  14  1   
 18  12  29  1   
 19  12  30  1   
 20  13  15  1   
 21  13  31  1   
 22  13  32  1   
 23  14  16  1   
 24  14  17  1   
 25  14  33  1   
 26  15  16  1   
 27  15  18  1   
 28  15  34  1   
 29  17  19  ar  
 30  17  20  ar  
 31  18  21  1   
 32  18  22  1   
 33  18  35  1   
 34  19  23  ar  
 35  19  36  1   
 36  20  24  ar  
 37  20  37  1   
 38  21  22  1   
 39  21  38  1   
 40  21  39  1   
 41  22  40  1   
 42  22  41  1   
 43  23  25  ar  
 44  23  42  1   
 45  24  25  ar  
 46  24  43  1   
 47  25  44  1   
@<TRIPOS>SUBSTRUCTURE
  1 ****  11 GROUP 4 **** **** 0

# MOE 2024.06 (io_trps.svl 2023.06)
