@<TRIPOS>MOLECULE
NONAME
46 48 1 0 0 
SMALL
USER_CHARGES


@<TRIPOS>ATOM
  1 CL       1.0360    -0.3510    -1.4880 Cl    1 <1>  -0.1770 
  2 C        0.5960    -2.0060    -1.1550 C.ar  1 <1>   0.1770 
  3 C        1.4870    -2.8240    -0.4870 C.ar  1 <1>  -0.1500 
  4 C       -0.6380    -2.4740    -1.5650 C.ar  1 <1>  -0.1500 
  5 C        1.1330    -4.1370    -0.2240 C.ar  1 <1>  -0.1500 
  6 C       -0.9860    -3.7880    -1.2990 C.ar  1 <1>  -0.1500 
  7 C       -0.1030    -4.6230    -0.6280 C.ar  1 <1>  -0.1430 
  8 C       -0.4860    -6.0620    -0.3290 C.3   1 <1>  -0.0160 
  9 C       -1.0590    -6.1770     1.0880 C.3   1 <1>  -0.0990 
 10 C       -1.5740    -7.5800     1.3600 C.2   1 <1>   0.5690 
 11 O       -0.7820    -8.3550     1.8390 O.2   1 <1>  -0.5700 
 12 N       -2.8690    -7.9490     1.0710 N.am  1 <1>  -0.6600 
 13 C       -3.8450    -7.0580     0.3700 C.3   1 <1>   0.2200 
 14 C       -3.3430    -9.3080     1.4830 C.3   1 <1>   0.0600 
 15 C       -4.6890    -7.7460    -0.7010 C.3   1 <1>  -0.1600 
 16 C       -4.8660    -6.4520     1.3240 C.3   1 <1>  -0.1600 
 17 C       -5.8730    -6.7930    -0.9110 C.3   1 <1>  -0.0800 
 18 C       -6.0260    -6.0120     0.4200 C.3   1 <1>  -0.0800 
 19 C       -7.1400    -7.5110    -1.4200 C.3   1 <1>   0.1400 
 20 C       -7.4050    -6.1700     1.0900 C.3   1 <1>  -0.0990 
 21 N       -8.3350    -6.6980    -1.1130 N.am  1 <1>  -0.7300 
 22 C       -8.5080    -6.0550     0.0610 C.2   1 <1>   0.5690 
 23 O       -9.5020    -5.4180     0.2910 O.2   1 <1>  -0.5700 
 24 H        2.4410    -2.4370    -0.1790 H     1 <1>   0.1500 
 25 H       -1.3120    -1.8170    -2.0840 H     1 <1>   0.1500 
 26 H        1.8230    -4.7790     0.2970 H     1 <1>   0.1500 
 27 H       -1.9460    -4.1550    -1.6170 H     1 <1>   0.1500 
 28 H       -1.2070    -6.4030    -1.0500 H     1 <1>   0.0800 
 29 H        0.3790    -6.6970    -0.4160 H     1 <1>   0.0800 
 30 H       -1.8350    -5.4540     1.2480 H     1 <1>   0.0800 
 31 H       -0.2810    -5.9610     1.7970 H     1 <1>   0.0800 
 32 H       -3.3280    -6.2510    -0.1180 H     1 <1>   0.0800 
 33 H       -4.3550    -9.2660     1.8410 H     1 <1>   0.0800 
 34 H       -2.7270    -9.7030     2.2730 H     1 <1>   0.0800 
 35 H       -3.2890    -9.9790     0.6440 H     1 <1>   0.0800 
 36 H       -4.1310    -7.8940    -1.6080 H     1 <1>   0.0800 
 37 H       -5.0600    -8.6900    -0.3490 H     1 <1>   0.0800 
 38 H       -5.2020    -7.1970     2.0230 H     1 <1>   0.0800 
 39 H       -4.4520    -5.6200     1.8660 H     1 <1>   0.0800 
 40 H       -5.5870    -6.0790    -1.6660 H     1 <1>   0.0800 
 41 H       -5.8990    -4.9670     0.1900 H     1 <1>   0.0800 
 42 H       -7.2510    -8.4660    -0.9350 H     1 <1>   0.0800 
 43 H       -7.0710    -7.6740    -2.4820 H     1 <1>   0.0800 
 44 H       -7.5390    -5.4180     1.8460 H     1 <1>   0.0800 
 45 H       -7.4930    -7.1350     1.5530 H     1 <1>   0.0800 
 46 H       -9.0970    -6.6540    -1.7930 H     1 <1>   0.3700 
@<TRIPOS>BOND
  1   1   2  1   
  2   2   3  ar  
  3   2   4  ar  
  4   3   5  ar  
  5   3  24  1   
  6   4   6  ar  
  7   4  25  1   
  8   5   7  ar  
  9   5  26  1   
 10   6   7  ar  
 11   6  27  1   
 12   7   8  1   
 13   8   9  1   
 14   8  28  1   
 15   8  29  1   
 16   9  10  1   
 17   9  30  1   
 18   9  31  1   
 19  10  11  2   
 20  10  12  am  
 21  12  13  1   
 22  12  14  1   
 23  13  15  1   
 24  13  16  1   
 25  13  32  1   
 26  14  33  1   
 27  14  34  1   
 28  14  35  1   
 29  15  17  1   
 30  15  36  1   
 31  15  37  1   
 32  16  18  1   
 33  16  38  1   
 34  16  39  1   
 35  17  18  1   
 36  17  19  1   
 37  17  40  1   
 38  18  20  1   
 39  18  41  1   
 40  19  21  1   
 41  19  42  1   
 42  19  43  1   
 43  20  22  1   
 44  20  44  1   
 45  20  45  1   
 46  21  22  am  
 47  21  46  1   
 48  22  23  2   
@<TRIPOS>SUBSTRUCTURE
  1 ****  13 GROUP 4 **** **** 0

# MOE 2024.06 (io_trps.svl 2023.06)
