@<TRIPOS>MOLECULE
NONAME
53 55 1 0 0 
SMALL
USER_CHARGES


@<TRIPOS>ATOM
  1 O       -0.1410    -2.1940     3.5370 O.3   1 <1>  -0.8290 
  2 C        0.7800    -2.0830     2.7180 C.ar  1 <1>   0.4490 
  3 N        1.1680    -3.2020     2.0890 N.ar  1 <1>  -0.6200 
  4 N        1.2530    -0.8440     2.4880 N.ar  1 <1>  -0.6200 
  5 C        2.0460    -3.0650     1.1140 C.ar  1 <1>   0.3960 
  6 C        2.1460    -0.7310     1.5490 C.ar  1 <1>   0.1660 
  7 C        2.4690    -4.2090     0.3050 C.2   1 <1>   0.5440 
  8 C        2.5810    -1.8200     0.8340 C.ar  1 <1>  -0.1500 
  9 C        2.6910     0.6550     1.2470 C.3   1 <1>  -0.0170 
 10 O        3.6640    -4.4020     0.1330 O.2   1 <1>  -0.5700 
 11 N        1.5970    -5.0830    -0.3360 N.am  1 <1>  -0.6600 
 12 C        2.1540     1.2270    -0.0820 C.3   1 <1>  -0.0800 
 13 C        0.3220    -4.7150    -1.0220 C.3   1 <1>   0.2200 
 14 C        1.9940    -6.5040    -0.5190 C.3   1 <1>   0.0600 
 15 C        2.8260     2.5680    -0.3980 C.3   1 <1>  -0.2400 
 16 C        0.6300     1.4090    -0.0430 C.3   1 <1>  -0.2400 
 17 C       -0.8870    -4.5970    -0.0900 C.3   1 <1>  -0.1600 
 18 C        0.3820    -3.4140    -1.8230 C.3   1 <1>  -0.1600 
 19 C       -1.6710    -3.3520    -0.5440 C.3   1 <1>  -0.0800 
 20 C       -1.0790    -2.9610    -1.9080 C.3   1 <1>  -0.0800 
 21 C       -1.5560    -2.1920     0.4550 C.3   1 <1>   0.1400 
 22 C       -1.2290    -1.4660    -2.2820 C.3   1 <1>  -0.0990 
 23 N       -2.2940    -1.0250    -0.0850 N.am  1 <1>  -0.6600 
 24 C       -2.1940    -0.6860    -1.4030 C.2   1 <1>   0.5690 
 25 C       -2.8930    -0.1430     0.9470 C.3   1 <1>   0.0600 
 26 O       -2.8080     0.2300    -1.8990 O.2   1 <1>  -0.5700 
 27 H        3.3180    -1.7200     0.0630 H     1 <1>   0.1500 
 28 H        2.4310     1.3150     2.0560 H     1 <1>   0.0800 
 29 H        3.7630     0.5950     1.2100 H     1 <1>   0.0800 
 30 H        2.3910     0.5350    -0.8730 H     1 <1>   0.0800 
 31 H        0.0900    -5.4910    -1.7320 H     1 <1>   0.0800 
 32 H        1.1740    -7.1480    -0.2550 H     1 <1>   0.0800 
 33 H        2.8310    -6.7420     0.1150 H     1 <1>   0.0800 
 34 H        2.2750    -6.6740    -1.5430 H     1 <1>   0.0800 
 35 H        2.6080     3.2890     0.3710 H     1 <1>   0.0800 
 36 H        2.4680     2.9510    -1.3380 H     1 <1>   0.0800 
 37 H        3.8920     2.4480    -0.4660 H     1 <1>   0.0800 
 38 H        0.3490     2.0860     0.7440 H     1 <1>   0.0800 
 39 H        0.1440     0.4670     0.1430 H     1 <1>   0.0800 
 40 H        0.2660     1.7930    -0.9790 H     1 <1>   0.0800 
 41 H       -1.5020    -5.4700    -0.2070 H     1 <1>   0.0800 
 42 H       -0.6060    -4.5320     0.9440 H     1 <1>   0.0800 
 43 H        0.9510    -2.6730    -1.2970 H     1 <1>   0.0800 
 44 H        0.8090    -3.5720    -2.7970 H     1 <1>   0.0800 
 45 H       -2.7140    -3.5980    -0.6420 H     1 <1>   0.0800 
 46 H       -1.5770    -3.5540    -2.6560 H     1 <1>   0.0800 
 47 H       -0.5290    -1.9100     0.5770 H     1 <1>   0.0800 
 48 H       -1.9450    -2.4780     1.4190 H     1 <1>   0.0800 
 49 H       -1.5540    -1.3850    -3.3030 H     1 <1>   0.0800 
 50 H       -0.2820    -0.9660    -2.2080 H     1 <1>   0.0800 
 51 H       -3.7100    -0.6510     1.4260 H     1 <1>   0.0800 
 52 H       -3.2540     0.7680     0.5020 H     1 <1>   0.0800 
 53 H       -2.1480     0.0990     1.6870 H     1 <1>   0.0800 
@<TRIPOS>BOND
  1   1   2  1   
  2   2   3  ar  
  3   2   4  ar  
  4   3   5  ar  
  5   4   6  ar  
  6   5   7  1   
  7   5   8  ar  
  8   6   8  ar  
  9   6   9  1   
 10   7  10  2   
 11   7  11  am  
 12   8  27  1   
 13   9  12  1   
 14   9  28  1   
 15   9  29  1   
 16  11  13  1   
 17  11  14  1   
 18  12  15  1   
 19  12  16  1   
 20  12  30  1   
 21  13  17  1   
 22  13  18  1   
 23  13  31  1   
 24  14  32  1   
 25  14  33  1   
 26  14  34  1   
 27  15  35  1   
 28  15  36  1   
 29  15  37  1   
 30  16  38  1   
 31  16  39  1   
 32  16  40  1   
 33  17  19  1   
 34  17  41  1   
 35  17  42  1   
 36  18  20  1   
 37  18  43  1   
 38  18  44  1   
 39  19  20  1   
 40  19  21  1   
 41  19  45  1   
 42  20  22  1   
 43  20  46  1   
 44  21  23  1   
 45  21  47  1   
 46  21  48  1   
 47  22  24  1   
 48  22  49  1   
 49  22  50  1   
 50  23  24  am  
 51  23  25  1   
 52  24  26  2   
 53  25  51  1   
 54  25  52  1   
 55  25  53  1   
@<TRIPOS>SUBSTRUCTURE
  1 ****  21 GROUP 4 **** **** 0

# MOE 2024.06 (io_trps.svl 2023.06)
