@<TRIPOS>MOLECULE
NONAME
42 44 1 0 0 
SMALL
USER_CHARGES


@<TRIPOS>ATOM
  1 S        0.4630    -0.2370     1.2700 S.o2  1 <1>   1.4470 
  2 O       -0.1410     0.5280     2.3370 O.2   1 <1>  -0.6500 
  3 O        1.1560    -1.4650     1.5830 O.2   1 <1>  -0.6500 
  4 N        1.6370     0.7540     0.5510 N.am  1 <1>  -0.8490 
  5 C       -0.7730    -0.4940    -0.0570 C.ar  1 <1>  -0.0090 
  6 C        2.3180     1.6190     1.5360 C.3   1 <1>   0.1960 
  7 C        2.5400     0.0140    -0.3420 C.3   1 <1>   0.1960 
  8 C       -1.6550    -1.5870    -0.1040 C.ar  1 <1>  -0.1440 
  9 C       -0.8620     0.4580    -1.0720 C.ar  1 <1>  -0.1500 
 10 C        3.3800     2.5840     0.9570 C.3   1 <1>   0.2200 
 11 C        3.2750     0.8900    -1.3790 C.3   1 <1>  -0.0190 
 12 C       -2.5490    -1.6990    -1.1700 C.ar  1 <1>  -0.1500 
 13 C       -1.6690    -2.6790     0.9860 C.3   1 <1>   1.1640 
 14 C       -1.7540     0.3370    -2.1190 C.ar  1 <1>  -0.1500 
 15 N        2.9230     3.1440    -0.3580 N.am  1 <1>  -0.6600 
 16 C        4.7830     1.9200     0.9110 C.3   1 <1>   0.1200 
 17 C        2.7810     2.3270    -1.4500 C.2   1 <1>   0.5690 
 18 C        4.8050     0.8320    -1.2210 C.3   1 <1>   0.1200 
 19 C       -2.6000    -0.7490    -2.1700 C.ar  1 <1>  -0.1500 
 20 F       -0.6630    -3.5300     0.8510 F     1 <1>  -0.3400 
 21 F       -1.6100    -2.1930     2.2160 F     1 <1>  -0.3400 
 22 F       -2.7710    -3.4200     0.9550 F     1 <1>  -0.3400 
 23 C        2.5340     4.5780    -0.3790 C.3   1 <1>   0.0600 
 24 O        5.3200     1.8150    -0.3750 O.3   1 <1>  -0.5600 
 25 O        2.2680     2.7000    -2.4810 O.2   1 <1>  -0.5700 
 26 H        1.5720     2.2360     2.0100 H     1 <1>   0.0800 
 27 H        2.7560     1.0130     2.3110 H     1 <1>   0.0800 
 28 H        3.2420    -0.5520     0.2480 H     1 <1>   0.0800 
 29 H        1.9560    -0.7020    -0.8960 H     1 <1>   0.0800 
 30 H       -0.2210     1.3250    -1.0600 H     1 <1>   0.1500 
 31 H        3.4610     3.3950     1.6590 H     1 <1>   0.0800 
 32 H        3.0690     0.4420    -2.3340 H     1 <1>   0.0800 
 33 H       -3.2280    -2.5340    -1.2400 H     1 <1>   0.1500 
 34 H       -1.7880     1.0900    -2.8890 H     1 <1>   0.1500 
 35 H        4.7800     0.9440     1.3620 H     1 <1>   0.0800 
 36 H        5.4650     2.5310     1.4750 H     1 <1>   0.0800 
 37 H        5.2600     1.0020    -2.1820 H     1 <1>   0.0800 
 38 H        5.1320    -0.1300    -0.8660 H     1 <1>   0.0800 
 39 H       -3.2970    -0.8520    -2.9840 H     1 <1>   0.1500 
 40 H        3.3680     5.1840    -0.0710 H     1 <1>   0.0800 
 41 H        1.7050     4.7410     0.2860 H     1 <1>   0.0800 
 42 H        2.2440     4.8770    -1.3720 H     1 <1>   0.0800 
@<TRIPOS>BOND
  1   1   2  2   
  2   1   3  2   
  3   1   4  am  
  4   1   5  1   
  5   4   6  1   
  6   4   7  1   
  7   5   8  ar  
  8   5   9  ar  
  9   6  10  1   
 10   6  26  1   
 11   6  27  1   
 12   7  11  1   
 13   7  28  1   
 14   7  29  1   
 15   8  12  ar  
 16   8  13  1   
 17   9  14  ar  
 18   9  30  1   
 19  10  15  1   
 20  10  16  1   
 21  10  31  1   
 22  11  17  1   
 23  11  18  1   
 24  11  32  1   
 25  12  19  ar  
 26  12  33  1   
 27  13  20  1   
 28  13  21  1   
 29  13  22  1   
 30  14  19  ar  
 31  14  34  1   
 32  15  17  am  
 33  15  23  1   
 34  16  24  1   
 35  16  35  1   
 36  16  36  1   
 37  17  25  2   
 38  18  24  1   
 39  18  37  1   
 40  18  38  1   
 41  19  39  1   
 42  23  40  1   
 43  23  41  1   
 44  23  42  1   
@<TRIPOS>SUBSTRUCTURE
  1 ****   4 GROUP 4 **** **** 0

# MOE 2024.06 (io_trps.svl 2023.06)
