@<TRIPOS>MOLECULE
NONAME
47 48 1 0 0 
SMALL
USER_CHARGES


@<TRIPOS>ATOM
  1 O        0.3690    -2.6400    -2.1380 O.3   1 <1>  -0.5600 
  2 C       -0.1350    -3.0040    -0.8830 C.3   1 <1>   0.2000 
  3 C       -0.2360    -1.5190    -2.7060 C.3   1 <1>   0.1200 
  4 C        0.1510    -1.8680     0.1140 C.3   1 <1>  -0.1600 
  5 C        0.5160    -4.3420    -0.4830 C.3   1 <1>   0.2090 
  6 C        0.0350    -0.2910    -1.8290 C.3   1 <1>  -0.1600 
  7 C       -0.4250    -0.5390    -0.3880 C.3   1 <1>  -0.1600 
  8 N       -0.1010    -4.9630     0.7360 N.pl3 1 <1>  -0.8380 
  9 C       -1.4650    -4.9420     0.9440 C.ar  1 <1>   0.4100 
 10 C        0.8030    -5.4080     1.8250 C.3   1 <1>   0.2090 
 11 N       -1.8830    -4.1910     1.9420 N.ar  1 <1>  -0.6200 
 12 C       -2.3660    -5.6550     0.1580 C.ar  1 <1>  -0.1430 
 13 C        1.4390    -4.2100     2.5260 C.3   1 <1>  -0.2400 
 14 C       -3.1840    -4.1340     2.1270 C.ar  1 <1>   0.4770 
 15 C       -3.6960    -5.5110     0.4590 C.ar  1 <1>   0.1600 
 16 C       -1.9520    -6.5870    -0.9770 C.3   1 <1>  -0.0170 
 17 N       -4.1290    -4.7470     1.4410 N.ar  1 <1>  -0.6200 
 18 C       -3.6570    -3.2640     3.2650 C.3   1 <1>  -0.0970 
 19 C       -2.2050    -5.9460    -2.3480 C.3   1 <1>  -0.1600 
 20 C       -1.7600    -6.8670    -3.4880 C.3   1 <1>  -0.2400 
 21 H       -1.1970    -3.1460    -0.9890 H     1 <1>   0.0800 
 22 H       -1.2930    -1.7080    -2.7980 H     1 <1>   0.0800 
 23 H        0.1830    -1.3810    -3.6880 H     1 <1>   0.0800 
 24 H        1.2140    -1.7790     0.2500 H     1 <1>   0.0800 
 25 H       -0.2840    -2.1100     1.0670 H     1 <1>   0.0800 
 26 H        1.5640    -4.1740    -0.3160 H     1 <1>   0.0800 
 27 H        0.4240    -5.0290    -1.3040 H     1 <1>   0.0800 
 28 H       -0.4770     0.5630    -2.2340 H     1 <1>   0.0800 
 29 H        1.0900    -0.0830    -1.8450 H     1 <1>   0.0800 
 30 H       -0.1070     0.2670     0.2500 H     1 <1>   0.0800 
 31 H       -1.5000    -0.5880    -0.3580 H     1 <1>   0.0800 
 32 H        1.5650    -6.0500     1.4170 H     1 <1>   0.0800 
 33 H        0.2340    -5.9770     2.5420 H     1 <1>   0.0800 
 34 H        2.0640    -3.6570     1.8520 H     1 <1>   0.0800 
 35 H        2.0430    -4.5540     3.3450 H     1 <1>   0.0800 
 36 H        0.6720    -3.5660     2.9170 H     1 <1>   0.0800 
 37 H       -4.4370    -6.0380    -0.1160 H     1 <1>   0.1500 
 38 H       -2.5190    -7.4980    -0.9010 H     1 <1>   0.0800 
 39 H       -0.9160    -6.8560    -0.8790 H     1 <1>   0.0800 
 40 H       -2.8790    -2.5890     3.5690 H     1 <1>   0.0800 
 41 H       -3.9280    -3.8870     4.0960 H     1 <1>   0.0800 
 42 H       -4.5130    -2.6940     2.9550 H     1 <1>   0.0800 
 43 H       -1.6690    -5.0160    -2.4190 H     1 <1>   0.0800 
 44 H       -3.2540    -5.7270    -2.4570 H     1 <1>   0.0800 
 45 H       -0.7070    -7.0740    -3.4150 H     1 <1>   0.0800 
 46 H       -1.9490    -6.3960    -4.4360 H     1 <1>   0.0800 
 47 H       -2.3000    -7.7970    -3.4550 H     1 <1>   0.0800 
@<TRIPOS>BOND
  1   1   2  1   
  2   1   3  1   
  3   2   4  1   
  4   2   5  1   
  5   2  21  1   
  6   3   6  1   
  7   3  22  1   
  8   3  23  1   
  9   4   7  1   
 10   4  24  1   
 11   4  25  1   
 12   5   8  1   
 13   5  26  1   
 14   5  27  1   
 15   6   7  1   
 16   6  28  1   
 17   6  29  1   
 18   7  30  1   
 19   7  31  1   
 20   8   9  1   
 21   8  10  1   
 22   9  11  ar  
 23   9  12  ar  
 24  10  13  1   
 25  10  32  1   
 26  10  33  1   
 27  11  14  ar  
 28  12  15  ar  
 29  12  16  1   
 30  13  34  1   
 31  13  35  1   
 32  13  36  1   
 33  14  17  ar  
 34  14  18  1   
 35  15  17  ar  
 36  15  37  1   
 37  16  19  1   
 38  16  38  1   
 39  16  39  1   
 40  18  40  1   
 41  18  41  1   
 42  18  42  1   
 43  19  20  1   
 44  19  43  1   
 45  19  44  1   
 46  20  45  1   
 47  20  46  1   
 48  20  47  1   
@<TRIPOS>SUBSTRUCTURE
  1 ****   9 GROUP 4 **** **** 0

# MOE 2024.06 (io_trps.svl 2023.06)
