@<TRIPOS>MOLECULE
NONAME
51 53 1 0 0 
SMALL
USER_CHARGES


@<TRIPOS>ATOM
  1 S        1.7390     0.9690     1.3130 S.o2  1 <1>   1.3330 
  2 O        1.1490     2.2640     1.5670 O.2   1 <1>  -0.6500 
  3 O        2.5950     0.3710     2.3130 O.2   1 <1>  -0.6500 
  4 N        0.4840    -0.1290     0.9920 N.am  1 <1>  -0.8490 
  5 C        2.5920     1.0530    -0.2630 C.3   1 <1>  -0.0550 
  6 C        0.8970    -1.5320     1.1060 C.3   1 <1>   0.1160 
  7 C       -0.6940     0.1140     1.8310 C.3   1 <1>   0.1160 
  8 C        3.7340     2.0870    -0.2860 C.3   1 <1>  -0.0800 
  9 C        4.2670     2.2990    -1.6930 C.3   1 <1>   0.2200 
 10 C        4.9830     1.5800     0.4340 C.3   1 <1>   0.1200 
 11 N        4.9380     3.6120    -1.7430 N.am  1 <1>  -0.7300 
 12 C        5.3040     1.1830    -1.8170 C.3   1 <1>   0.1200 
 13 O        5.6930     0.8410    -0.5160 O.3   1 <1>  -0.5600 
 14 C        4.4050     4.7590    -2.2320 C.2   1 <1>   0.5690 
 15 O        3.3910     4.7600    -2.8860 O.2   1 <1>  -0.5700 
 16 C        5.0940     6.0790    -1.9150 C.3   1 <1>   0.0820 
 17 C        6.0710     5.9470    -0.7470 C.2   1 <1>  -0.1810 
 18 C        5.6490     5.6150     0.5620 C.ar  1 <1>   0.0000 
 19 C        7.4230     6.0580    -0.7280 C.2   1 <1>  -0.3320 
 20 C        6.7990     5.5110     1.3330 C.ar  1 <1>  -0.1520 
 21 C        4.4020     5.3710     1.1490 C.ar  1 <1>  -0.1500 
 22 N        7.8750     5.8040     0.5380 N.pl3 1 <1>   0.0330 
 23 C        8.3960     6.3850    -1.8480 C.3   1 <1>  -0.0600 
 24 C        6.7310     5.1440     2.6800 C.ar  1 <1>  -0.1500 
 25 C        4.3330     5.0050     2.4720 C.ar  1 <1>  -0.1500 
 26 C        5.4990     4.8900     3.2380 C.ar  1 <1>  -0.1500 
 27 H        2.9770     0.0850    -0.5170 H     1 <1>   0.0800 
 28 H        1.8720     1.3280    -1.0100 H     1 <1>   0.0800 
 29 H        0.0920    -2.1800     0.8020 H     1 <1>   0.0800 
 30 H        1.1680    -1.7640     2.1230 H     1 <1>   0.0800 
 31 H        1.7450    -1.7240     0.4720 H     1 <1>   0.0800 
 32 H       -1.4740    -0.5890     1.5920 H     1 <1>   0.0800 
 33 H       -1.0720     1.1070     1.6560 H     1 <1>   0.0800 
 34 H       -0.4360     0.0200     2.8730 H     1 <1>   0.0800 
 35 H        3.3760     3.0070     0.1400 H     1 <1>   0.0800 
 36 H        3.5080     2.2420    -2.4560 H     1 <1>   0.0800 
 37 H        4.7770     0.9550     1.2850 H     1 <1>   0.0800 
 38 H        5.6060     2.4040     0.7420 H     1 <1>   0.0800 
 39 H        5.7540     3.7060    -1.1260 H     1 <1>   0.3700 
 40 H        6.1680     1.4880    -2.3810 H     1 <1>   0.0800 
 41 H        4.8680     0.3080    -2.2630 H     1 <1>   0.0800 
 42 H        5.6010     6.4140    -2.7970 H     1 <1>   0.0800 
 43 H        4.3450     6.8070    -1.6670 H     1 <1>   0.0800 
 44 H        3.5090     5.4670     0.5560 H     1 <1>   0.1500 
 45 H        8.8510     5.8160     0.8520 H     1 <1>   0.2700 
 46 H        7.8790     6.5440    -2.7760 H     1 <1>   0.0800 
 47 H        9.0910     5.5750    -1.9820 H     1 <1>   0.0800 
 48 H        8.9450     7.2790    -1.6090 H     1 <1>   0.0800 
 49 H        7.6310     5.0620     3.2630 H     1 <1>   0.1500 
 50 H        3.3800     4.8030     2.9310 H     1 <1>   0.1500 
 51 H        5.4180     4.6010     4.2720 H     1 <1>   0.1500 
@<TRIPOS>BOND
  1   1   2  2   
  2   1   3  2   
  3   1   4  am  
  4   1   5  1   
  5   4   6  1   
  6   4   7  1   
  7   5   8  1   
  8   5  27  1   
  9   5  28  1   
 10   6  29  1   
 11   6  30  1   
 12   6  31  1   
 13   7  32  1   
 14   7  33  1   
 15   7  34  1   
 16   8   9  1   
 17   8  10  1   
 18   8  35  1   
 19   9  11  1   
 20   9  12  1   
 21   9  36  1   
 22  10  13  1   
 23  10  37  1   
 24  10  38  1   
 25  11  14  am  
 26  11  39  1   
 27  12  13  1   
 28  12  40  1   
 29  12  41  1   
 30  14  15  2   
 31  14  16  1   
 32  16  17  1   
 33  16  42  1   
 34  16  43  1   
 35  17  18  1   
 36  17  19  2   
 37  18  20  ar  
 38  18  21  ar  
 39  19  22  1   
 40  19  23  1   
 41  20  22  1   
 42  20  24  ar  
 43  21  25  ar  
 44  21  44  1   
 45  22  45  1   
 46  23  46  1   
 47  23  47  1   
 48  23  48  1   
 49  24  26  ar  
 50  24  49  1   
 51  25  26  ar  
 52  25  50  1   
 53  26  51  1   
@<TRIPOS>SUBSTRUCTURE
  1 ****   8 GROUP 4 **** **** 0

# MOE 2024.06 (io_trps.svl 2023.06)
