@<TRIPOS>MOLECULE
NONAME
38 40 1 0 0 
SMALL
USER_CHARGES


@<TRIPOS>ATOM
  1 O        0.2190     0.2580    -0.4580 O.2   1 <1>  -0.5700 
  2 C       -0.0180     1.4680    -0.3700 C.2   1 <1>   0.3890 
  3 C       -1.3310     1.9690    -0.3480 C.3   1 <1>  -0.7150 
  4 C        1.1050     2.3650    -0.2520 C.ar  1 <1>   0.0860 
  5 C       -1.5260     3.2950     0.0850 C.2   1 <1>   0.5350 
  6 C       -2.4080     1.1660    -0.7600 C.2   1 <1>   0.5350 
  7 C        0.8750     3.6950     0.1240 C.ar  1 <1>   0.1170 
  8 C        2.4160     1.9560    -0.5100 C.ar  1 <1>  -0.1500 
  9 O       -2.6510     3.7920     0.2020 O.2   1 <1>  -0.5700 
 10 N       -0.4370     4.0990     0.4130 N.am  1 <1>  -0.4770 
 11 O       -2.3820     0.4720    -1.7720 O.2   1 <1>  -0.5700 
 12 N       -3.5620     1.2160    -0.0430 N.am  1 <1>  -0.7300 
 13 C        1.9610     4.5740     0.1920 C.ar  1 <1>  -0.1500 
 14 C        3.4780     2.8300    -0.4200 C.ar  1 <1>  -0.1500 
 15 C       -0.6880     5.3730     1.1470 C.3   1 <1>   0.0600 
 16 C       -4.8570     0.7800    -0.5760 C.3   1 <1>   0.2200 
 17 C        3.2480     4.1500    -0.0710 C.ar  1 <1>  -0.1500 
 18 C       -5.5200     1.9530    -1.2880 C.3   1 <1>  -0.1600 
 19 C       -5.7980     0.5000     0.5900 C.3   1 <1>  -0.1600 
 20 C       -6.1620     2.8000    -0.1840 C.3   1 <1>  -0.1600 
 21 C       -6.3450     1.8670     1.0200 C.3   1 <1>  -0.1600 
 22 H        2.5840     0.9300    -0.7890 H     1 <1>   0.1500 
 23 H       -3.6020     2.1100     0.4530 H     1 <1>   0.3700 
 24 H        1.8040     5.6030     0.4470 H     1 <1>   0.1500 
 25 H        4.4780     2.4900    -0.6250 H     1 <1>   0.1500 
 26 H       -1.6220     5.3250     1.6790 H     1 <1>   0.0800 
 27 H       -0.7260     6.1850     0.4450 H     1 <1>   0.0800 
 28 H        0.0890     5.5440     1.8680 H     1 <1>   0.0800 
 29 H       -4.7280    -0.0770    -1.2170 H     1 <1>   0.0800 
 30 H        4.0710     4.8390    -0.0090 H     1 <1>   0.1500 
 31 H       -6.2870     1.5700    -1.9360 H     1 <1>   0.0800 
 32 H       -4.8110     2.5100    -1.8770 H     1 <1>   0.0800 
 33 H       -5.2960    -0.0180     1.3880 H     1 <1>   0.0800 
 34 H       -6.6080    -0.1090     0.2330 H     1 <1>   0.0800 
 35 H       -7.0960     3.2210    -0.5110 H     1 <1>   0.0800 
 36 H       -5.4910     3.6010     0.0830 H     1 <1>   0.0800 
 37 H       -5.7670     2.2400     1.8490 H     1 <1>   0.0800 
 38 H       -7.3770     1.7950     1.3150 H     1 <1>   0.0800 
@<TRIPOS>BOND
  1   1   2  2   
  2   2   3  1   
  3   2   4  1   
  4   3   5  1   
  5   3   6  1   
  6   4   7  ar  
  7   4   8  ar  
  8   5   9  2   
  9   5  10  am  
 10   6  11  2   
 11   6  12  am  
 12   7  10  1   
 13   7  13  ar  
 14   8  14  ar  
 15   8  22  1   
 16  10  15  1   
 17  12  16  1   
 18  12  23  1   
 19  13  17  ar  
 20  13  24  1   
 21  14  17  ar  
 22  14  25  1   
 23  15  26  1   
 24  15  27  1   
 25  15  28  1   
 26  16  18  1   
 27  16  19  1   
 28  16  29  1   
 29  17  30  1   
 30  18  20  1   
 31  18  31  1   
 32  18  32  1   
 33  19  21  1   
 34  19  33  1   
 35  19  34  1   
 36  20  21  1   
 37  20  35  1   
 38  20  36  1   
 39  21  37  1   
 40  21  38  1   
@<TRIPOS>SUBSTRUCTURE
  1 ****   3 GROUP 4 **** **** 0

# MOE 2024.06 (io_trps.svl 2023.06)
