@<TRIPOS>MOLECULE
NONAME
50 53 1 0 0 
SMALL
USER_CHARGES


@<TRIPOS>ATOM
  1 O       -0.7430     0.6050     1.4940 O.2   1 <1>  -0.5700 
  2 C       -1.6920     1.1390     0.9440 C.2   1 <1>   0.7150 
  3 N       -2.9340     0.5370     1.0470 N.am  1 <1>  -0.6600 
  4 C       -1.4540     2.3630     0.2160 C.2   1 <1>   0.0550 
  5 C       -4.0520     0.7370     0.0800 C.3   1 <1>   0.1400 
  6 C       -3.2300    -0.4670     2.1080 C.3   1 <1>   0.1400 
  7 O       -2.3930     3.2550    -0.0100 O.3   1 <1>  -0.0190 
  8 C       -0.3250     2.8700    -0.3300 C.2   1 <1>  -0.1500 
  9 C       -4.4080    -0.5980    -0.5780 C.3   1 <1>  -0.1600 
 10 C       -3.5760    -1.8140     1.4680 C.3   1 <1>  -0.1600 
 11 N       -1.9690     4.2890    -0.6720 N.2   1 <1>  -0.4100 
 12 C       -0.7160     4.0830    -0.8760 C.2   1 <1>   0.1080 
 13 C       -4.7300    -1.6930     0.4570 C.3   1 <1>   0.4240 
 14 C        0.1970     5.0460    -1.6110 C.3   1 <1>   0.0210 
 15 O       -5.8090    -1.2150     1.2330 O.3   1 <1>  -0.5600 
 16 C       -5.0620    -3.0630    -0.2040 C.ar  1 <1>  -0.1440 
 17 C        1.0210     5.8850    -0.6300 C.3   1 <1>  -0.2400 
 18 C       -7.0960    -1.4010     0.7430 C.3   1 <1>   0.1200 
 19 C       -4.1260    -3.7690    -0.9720 C.ar  1 <1>   0.0820 
 20 C       -6.3300    -3.6220    -0.0410 C.ar  1 <1>  -0.1440 
 21 C       -7.3930    -2.8920     0.7540 C.3   1 <1>  -0.0170 
 22 O       -2.8920    -3.2320    -1.1640 O.3   1 <1>  -0.3630 
 23 C       -4.4620    -5.0000    -1.5330 C.ar  1 <1>  -0.1500 
 24 C       -6.6510    -4.8470    -0.6000 C.ar  1 <1>  -0.1500 
 25 C       -1.8360    -3.9400    -1.7730 C.3   1 <1>   0.0400 
 26 C       -5.7180    -5.5380    -1.3450 C.ar  1 <1>  -0.1500 
 27 H       -3.7800     1.4320    -0.6930 H     1 <1>   0.0800 
 28 H       -4.9050     1.1330     0.6050 H     1 <1>   0.0800 
 29 H       -4.0610    -0.1180     2.6980 H     1 <1>   0.0800 
 30 H       -2.3880    -0.5880     2.7680 H     1 <1>   0.0800 
 31 H        0.6600     2.4400    -0.3380 H     1 <1>   0.1500 
 32 H       -3.5720    -0.8940    -1.1790 H     1 <1>   0.0800 
 33 H       -5.2370    -0.4700    -1.2460 H     1 <1>   0.0800 
 34 H       -3.8510    -2.5200     2.2290 H     1 <1>   0.0800 
 35 H       -2.6880    -2.1840     0.9970 H     1 <1>   0.0800 
 36 H       -0.4020     5.6960    -2.2250 H     1 <1>   0.0800 
 37 H        0.8530     4.4900    -2.2560 H     1 <1>   0.0800 
 38 H        0.3660     6.4480     0.0120 H     1 <1>   0.0800 
 39 H        1.6520     6.5710    -1.1660 H     1 <1>   0.0800 
 40 H        1.6380     5.2490    -0.0200 H     1 <1>   0.0800 
 41 H       -7.1630    -0.9960    -0.2510 H     1 <1>   0.0800 
 42 H       -7.7750    -0.8740     1.3890 H     1 <1>   0.0800 
 43 H       -8.3640    -3.0610     0.3260 H     1 <1>   0.0800 
 44 H       -7.4000    -3.2500     1.7680 H     1 <1>   0.0800 
 45 H       -3.7620    -5.5570    -2.1230 H     1 <1>   0.1500 
 46 H       -7.6310    -5.2700    -0.4590 H     1 <1>   0.1500 
 47 H       -0.9550    -3.3260    -1.7290 H     1 <1>   0.0800 
 48 H       -2.0920    -4.1370    -2.7990 H     1 <1>   0.0800 
 49 H       -1.6710    -4.8550    -1.2320 H     1 <1>   0.0800 
 50 H       -5.9710    -6.4890    -1.7790 H     1 <1>   0.1500 
@<TRIPOS>BOND
  1   1   2  2   
  2   2   3  am  
  3   2   4  1   
  4   3   5  1   
  5   3   6  1   
  6   4   7  1   
  7   4   8  2   
  8   5   9  1   
  9   5  27  1   
 10   5  28  1   
 11   6  10  1   
 12   6  29  1   
 13   6  30  1   
 14   7  11  1   
 15   8  12  1   
 16   8  31  1   
 17   9  13  1   
 18   9  32  1   
 19   9  33  1   
 20  10  13  1   
 21  10  34  1   
 22  10  35  1   
 23  11  12  2   
 24  12  14  1   
 25  13  15  1   
 26  13  16  1   
 27  14  17  1   
 28  14  36  1   
 29  14  37  1   
 30  15  18  1   
 31  16  19  ar  
 32  16  20  ar  
 33  17  38  1   
 34  17  39  1   
 35  17  40  1   
 36  18  21  1   
 37  18  41  1   
 38  18  42  1   
 39  19  22  1   
 40  19  23  ar  
 41  20  21  1   
 42  20  24  ar  
 43  21  43  1   
 44  21  44  1   
 45  22  25  1   
 46  23  26  ar  
 47  23  45  1   
 48  24  26  ar  
 49  24  46  1   
 50  25  47  1   
 51  25  48  1   
 52  25  49  1   
 53  26  50  1   
@<TRIPOS>SUBSTRUCTURE
  1 ****   9 GROUP 4 **** **** 0

# MOE 2024.06 (io_trps.svl 2023.06)
