@<TRIPOS>MOLECULE
NONAME
58 60 1 0 0 
SMALL
USER_CHARGES


@<TRIPOS>ATOM
  1 O       -0.7670     0.0780     0.0650 O.3   1 <1>  -0.3630 
  2 C       -1.7450    -0.4120     0.8620 C.ar  1 <1>   0.0820 
  3 C       -0.2130     1.3570     0.2870 C.3   1 <1>   0.1200 
  4 C       -2.1760    -1.6980     0.5840 C.ar  1 <1>  -0.1500 
  5 C       -2.3230     0.2920     1.9130 C.ar  1 <1>  -0.1500 
  6 C        0.8740     1.5960    -0.7630 C.3   1 <1>  -0.1600 
  7 C       -3.1840    -2.2870     1.3310 C.ar  1 <1>  -0.1440 
  8 C       -3.3210    -0.2960     2.6700 C.ar  1 <1>  -0.1500 
  9 C        1.4680     3.0150    -0.7000 C.3   1 <1>  -0.0800 
 10 C       -3.7500    -1.5800     2.3830 C.ar  1 <1>  -0.1500 
 11 C       -3.6620    -3.6840     0.9920 C.3   1 <1>   0.4860 
 12 C        2.4510     3.2150    -1.8590 C.3   1 <1>  -0.2400 
 13 C        2.1850     3.2810     0.6300 C.3   1 <1>  -0.2400 
 14 N       -4.2590    -3.6210    -0.3700 N.4   1 <1>  -0.9590 
 15 C       -5.7430    -3.7470    -0.3600 C.3   1 <1>   0.4230 
 16 C       -3.5950    -4.6040    -1.2810 C.3   1 <1>   0.2630 
 17 C       -6.3330    -3.5800    -1.7590 C.3   1 <1>  -0.1600 
 18 C       -6.4120    -2.6380     0.4500 C.3   1 <1>  -0.1600 
 19 C       -7.7780    -3.1190    -1.5360 C.3   1 <1>  -0.0800 
 20 C       -7.8280    -2.5180    -0.1230 C.3   1 <1>  -0.0800 
 21 C       -8.8050    -4.2620    -1.5580 C.3   1 <1>  -0.1600 
 22 C       -8.8820    -3.3220     0.6540 C.3   1 <1>  -0.1600 
 23 C       -9.7630    -3.9310    -0.4250 C.3   1 <1>   0.2000 
 24 O      -10.3710    -5.0750     0.0400 O.3   1 <1>  -0.6800 
 25 H       -0.9980     2.0870     0.1930 H     1 <1>   0.0800 
 26 H        0.2000     1.3760     1.2800 H     1 <1>   0.0800 
 27 H       -1.6970    -2.2180    -0.2270 H     1 <1>   0.1500 
 28 H       -2.0110     1.2910     2.1560 H     1 <1>   0.1500 
 29 H        1.6580     0.8710    -0.6280 H     1 <1>   0.0800 
 30 H        0.4400     1.4460    -1.7360 H     1 <1>   0.0800 
 31 H       -3.7620     0.2510     3.4870 H     1 <1>   0.1500 
 32 H        0.6700     3.7310    -0.8110 H     1 <1>   0.0800 
 33 H       -4.5270    -2.0130     2.9910 H     1 <1>   0.1500 
 34 H       -4.3870    -4.0190     1.7150 H     1 <1>   0.0800 
 35 H       -2.8210    -4.3580     1.0090 H     1 <1>   0.0800 
 36 H        3.2690     2.5200    -1.7870 H     1 <1>   0.0800 
 37 H        2.8490     4.2150    -1.8440 H     1 <1>   0.0800 
 38 H        1.9560     3.0660    -2.8020 H     1 <1>   0.0800 
 39 H        2.9570     2.5510     0.7980 H     1 <1>   0.0800 
 40 H        1.4960     3.2520     1.4540 H     1 <1>   0.0800 
 41 H        2.6380     4.2570     0.6180 H     1 <1>   0.0800 
 42 H       -4.0460    -2.6670    -0.6980 H     1 <1>   0.4500 
 43 H       -6.0430    -4.7040     0.0350 H     1 <1>   0.0800 
 44 H       -3.8100    -5.6130    -0.9660 H     1 <1>   0.0800 
 45 H       -2.5270    -4.4590    -1.2730 H     1 <1>   0.0800 
 46 H       -3.9460    -4.4760    -2.2920 H     1 <1>   0.0800 
 47 H       -5.8110    -2.8000    -2.2860 H     1 <1>   0.0800 
 48 H       -6.2920    -4.4890    -2.3330 H     1 <1>   0.0800 
 49 H       -6.4290    -2.8530     1.5030 H     1 <1>   0.0800 
 50 H       -5.9040    -1.7040     0.2830 H     1 <1>   0.0800 
 51 H       -8.0580    -2.3740    -2.2640 H     1 <1>   0.0800 
 52 H       -8.1330    -1.4840    -0.1720 H     1 <1>   0.0800 
 53 H       -8.3270    -5.2060    -1.3650 H     1 <1>   0.0800 
 54 H       -9.3230    -4.3060    -2.5000 H     1 <1>   0.0800 
 55 H       -9.4570    -2.6890     1.3070 H     1 <1>   0.0800 
 56 H       -8.4180    -4.1040     1.2270 H     1 <1>   0.0800 
 57 H      -10.5230    -3.2360    -0.7470 H     1 <1>   0.0800 
 58 H       -9.7110    -5.7290     0.3310 H     1 <1>   0.4000 
@<TRIPOS>BOND
  1   1   2  1   
  2   1   3  1   
  3   2   4  ar  
  4   2   5  ar  
  5   3   6  1   
  6   3  25  1   
  7   3  26  1   
  8   4   7  ar  
  9   4  27  1   
 10   5   8  ar  
 11   5  28  1   
 12   6   9  1   
 13   6  29  1   
 14   6  30  1   
 15   7  10  ar  
 16   7  11  1   
 17   8  10  ar  
 18   8  31  1   
 19   9  12  1   
 20   9  13  1   
 21   9  32  1   
 22  10  33  1   
 23  11  14  1   
 24  11  34  1   
 25  11  35  1   
 26  12  36  1   
 27  12  37  1   
 28  12  38  1   
 29  13  39  1   
 30  13  40  1   
 31  13  41  1   
 32  14  15  1   
 33  14  16  1   
 34  14  42  1   
 35  15  17  1   
 36  15  18  1   
 37  15  43  1   
 38  16  44  1   
 39  16  45  1   
 40  16  46  1   
 41  17  19  1   
 42  17  47  1   
 43  17  48  1   
 44  18  20  1   
 45  18  49  1   
 46  18  50  1   
 47  19  20  1   
 48  19  21  1   
 49  19  51  1   
 50  20  22  1   
 51  20  52  1   
 52  21  23  1   
 53  21  53  1   
 54  21  54  1   
 55  22  23  1   
 56  22  55  1   
 57  22  56  1   
 58  23  24  1   
 59  23  57  1   
 60  24  58  1   
@<TRIPOS>SUBSTRUCTURE
  1 ****   7 GROUP 4 **** **** 0

# MOE 2024.06 (io_trps.svl 2023.06)
