@<TRIPOS>MOLECULE
NONAME
42 43 1 0 0 
SMALL
USER_CHARGES


@<TRIPOS>ATOM
  1 O       -1.5290    -0.3460     0.0760 O.2   1 <1>  -0.5700 
  2 C       -0.9980    -1.4050     0.3470 C.2   1 <1>   0.5440 
  3 N        0.3670    -1.4490     0.4260 N.am  1 <1>  -0.7300 
  4 C       -1.7980    -2.5830     0.5910 C.ar  1 <1>   0.0860 
  5 C        1.2690    -0.3090     0.1710 C.3   1 <1>   0.1400 
  6 C       -3.1270    -2.4630     0.9950 C.ar  1 <1>   0.1600 
  7 C       -1.3080    -3.8790     0.4400 C.ar  1 <1>  -0.1500 
  8 C        2.5310    -0.8280    -0.5070 C.3   1 <1>  -0.2400 
  9 N       -3.9590    -3.4600     1.2510 N.ar  1 <1>  -0.6200 
 10 C       -2.1560    -4.9270     0.7050 C.ar  1 <1>  -0.1500 
 11 C       -3.4660    -4.6750     1.1040 C.ar  1 <1>   0.4100 
 12 N       -4.3460    -5.6730     1.3640 N.pl3 1 <1>  -0.8690 
 13 C       -4.6750    -6.6700     0.3500 C.3   1 <1>   0.4690 
 14 C       -6.1720    -6.5710     0.1200 C.2   1 <1>  -0.3320 
 15 C       -4.2130    -8.0420     0.8590 C.3   1 <1>  -0.1600 
 16 N       -6.7600    -5.5360    -0.5260 N.pl3 1 <1>   0.3140 
 17 C       -7.1690    -7.4140     0.4780 C.2   1 <1>  -0.1500 
 18 C       -4.3070    -9.1440    -0.2090 C.3   1 <1>  -0.2400 
 19 N       -8.0920    -5.6980    -0.6000 N.2   1 <1>  -0.7070 
 20 C       -6.1390    -4.3250    -1.0860 C.3   1 <1>   0.0160 
 21 C       -8.3300    -6.8200     0.0030 C.2   1 <1>   0.1390 
 22 H        0.8230    -2.2840     0.7960 H     1 <1>   0.3700 
 23 H        1.5140     0.1680     1.1050 H     1 <1>   0.0800 
 24 H        0.7800     0.4130    -0.4630 H     1 <1>   0.0800 
 25 H       -3.5220    -1.4670     1.1130 H     1 <1>   0.1500 
 26 H       -0.2960    -4.0560     0.1210 H     1 <1>   0.1500 
 27 H        3.0420    -1.5280     0.1300 H     1 <1>   0.0800 
 28 H        3.1930    -0.0060    -0.7090 H     1 <1>   0.0800 
 29 H        2.2820    -1.3010    -1.4400 H     1 <1>   0.0800 
 30 H       -1.8240    -5.9430     0.6140 H     1 <1>   0.1500 
 31 H       -5.2100    -5.3160     1.7790 H     1 <1>   0.4000 
 32 H       -4.1530    -6.4450    -0.5660 H     1 <1>   0.0800 
 33 H       -4.7970    -8.3170     1.7190 H     1 <1>   0.0800 
 34 H       -3.1870    -7.9650     1.1720 H     1 <1>   0.0800 
 35 H       -7.1210    -8.3450     1.0110 H     1 <1>   0.1500 
 36 H       -5.3210    -9.2700    -0.5450 H     1 <1>   0.0800 
 37 H       -3.9680   -10.0800     0.2000 H     1 <1>   0.0800 
 38 H       -3.6920    -8.9010    -1.0570 H     1 <1>   0.0800 
 39 H       -5.1300    -4.5280    -1.3830 H     1 <1>   0.0800 
 40 H       -6.1500    -3.5540    -0.3380 H     1 <1>   0.0800 
 41 H       -6.7080    -4.0020    -1.9370 H     1 <1>   0.0800 
 42 H       -9.3180    -7.2330     0.1170 H     1 <1>   0.1500 
@<TRIPOS>BOND
  1   1   2  2   
  2   2   3  am  
  3   2   4  1   
  4   3   5  1   
  5   3  22  1   
  6   4   6  ar  
  7   4   7  ar  
  8   5   8  1   
  9   5  23  1   
 10   5  24  1   
 11   6   9  ar  
 12   6  25  1   
 13   7  10  ar  
 14   7  26  1   
 15   8  27  1   
 16   8  28  1   
 17   8  29  1   
 18   9  11  ar  
 19  10  11  ar  
 20  10  30  1   
 21  11  12  1   
 22  12  13  1   
 23  12  31  1   
 24  13  14  1   
 25  13  15  1   
 26  13  32  1   
 27  14  16  1   
 28  14  17  2   
 29  15  18  1   
 30  15  33  1   
 31  15  34  1   
 32  16  19  1   
 33  16  20  1   
 34  17  21  1   
 35  17  35  1   
 36  18  36  1   
 37  18  37  1   
 38  18  38  1   
 39  19  21  2   
 40  20  39  1   
 41  20  40  1   
 42  20  41  1   
 43  21  42  1   
@<TRIPOS>SUBSTRUCTURE
  1 ****  11 GROUP 4 **** **** 0

# MOE 2024.06 (io_trps.svl 2023.06)
