@<TRIPOS>MOLECULE
NONAME
52 54 1 0 0 
SMALL
USER_CHARGES


@<TRIPOS>ATOM
  1 O       -0.4100     0.0460     0.2470 O.2   1 <1>  -0.5700 
  2 C       -1.4540     0.6560     0.2360 C.2   1 <1>   0.5690 
  3 N       -2.6540     0.0100     0.3230 N.am  1 <1>  -0.6600 
  4 C       -1.4290     2.1740     0.1320 C.3   1 <1>  -0.0990 
  5 C       -3.9940     0.6390     0.3450 C.3   1 <1>   0.1400 
  6 C       -2.7590    -1.4620     0.3700 C.3   1 <1>   0.1400 
  7 C       -0.0540     2.7450    -0.2410 C.3   1 <1>  -0.0160 
  8 C       -4.9570    -0.4830     0.7620 C.3   1 <1>  -0.0800 
  9 C       -4.2560    -1.7770     0.3080 C.3   1 <1>  -0.0800 
 10 C       -0.1200     4.2610    -0.3450 C.ar  1 <1>  -0.1440 
 11 C       -6.4370    -0.3340     0.2880 C.3   1 <1>   0.2800 
 12 C       -4.7130    -2.1830    -1.1020 C.3   1 <1>  -0.1600 
 13 C       -0.4950     4.8660    -1.5330 C.ar  1 <1>  -0.1500 
 14 C        0.1910     5.0530     0.7490 C.ar  1 <1>  -0.1500 
 15 O       -6.4980     0.4220    -0.8670 O.3   1 <1>  -0.6800 
 16 C       -7.0240    -1.7140    -0.0630 C.3   1 <1>  -0.1600 
 17 C       -7.3310     0.3690     1.3340 C.3   1 <1>  -0.1600 
 18 C       -6.2260    -2.4680    -1.1480 C.3   1 <1>  -0.1600 
 19 C       -0.5590     6.2450    -1.6270 C.ar  1 <1>  -0.1500 
 20 C        0.1280     6.4330     0.6540 C.ar  1 <1>  -0.1500 
 21 C       -6.9110     1.7990     1.7150 C.3   1 <1>  -0.2400 
 22 C       -0.2480     7.0370    -0.5340 C.ar  1 <1>  -0.1440 
 23 C       -0.3140     8.5500    -0.6380 C.3   1 <1>  -0.0970 
 24 H       -2.1390     2.4800    -0.6140 H     1 <1>   0.0800 
 25 H       -1.7350     2.5820     1.0760 H     1 <1>   0.0800 
 26 H       -4.0250     1.4600     1.0370 H     1 <1>   0.0800 
 27 H       -4.2060     0.9980    -0.6470 H     1 <1>   0.0800 
 28 H       -2.2160    -1.9050    -0.4480 H     1 <1>   0.0800 
 29 H       -2.3400    -1.8080     1.3000 H     1 <1>   0.0800 
 30 H        0.2680     2.3300    -1.1810 H     1 <1>   0.0800 
 31 H        0.6710     2.4620     0.5030 H     1 <1>   0.0800 
 32 H       -4.9560    -0.5110     1.8370 H     1 <1>   0.0800 
 33 H       -4.4750    -2.5870     0.9830 H     1 <1>   0.0800 
 34 H       -4.4890    -1.3770    -1.7820 H     1 <1>   0.0800 
 35 H       -4.1720    -3.0500    -1.4380 H     1 <1>   0.0800 
 36 H       -0.7390     4.2640    -2.3910 H     1 <1>   0.1500 
 37 H        0.4840     4.5980     1.6790 H     1 <1>   0.1500 
 38 H       -7.4150     0.4320    -1.1960 H     1 <1>   0.4000 
 39 H       -7.0200    -2.3110     0.8320 H     1 <1>   0.0800 
 40 H       -8.0520    -1.6220    -0.3680 H     1 <1>   0.0800 
 41 H       -8.3410     0.3970     0.9650 H     1 <1>   0.0800 
 42 H       -7.3460    -0.2270     2.2300 H     1 <1>   0.0800 
 43 H       -6.3960    -3.5240    -1.0290 H     1 <1>   0.0800 
 44 H       -6.5930    -2.1900    -2.1210 H     1 <1>   0.0800 
 45 H       -0.8500     6.6990    -2.5580 H     1 <1>   0.1500 
 46 H        0.3750     7.0340     1.5110 H     1 <1>   0.1500 
 47 H       -6.8350     2.4220     0.8410 H     1 <1>   0.0800 
 48 H       -5.9660     1.7990     2.2260 H     1 <1>   0.0800 
 49 H       -7.6440     2.2310     2.3740 H     1 <1>   0.0800 
 50 H       -1.0600     8.8460    -1.3530 H     1 <1>   0.0800 
 51 H        0.6400     8.9340    -0.9510 H     1 <1>   0.0800 
 52 H       -0.5670     8.9820     0.3140 H     1 <1>   0.0800 
@<TRIPOS>BOND
  1   1   2  2   
  2   2   3  am  
  3   2   4  1   
  4   3   5  1   
  5   3   6  1   
  6   4   7  1   
  7   4  24  1   
  8   4  25  1   
  9   5   8  1   
 10   5  26  1   
 11   5  27  1   
 12   6   9  1   
 13   6  28  1   
 14   6  29  1   
 15   7  10  1   
 16   7  30  1   
 17   7  31  1   
 18   8   9  1   
 19   8  11  1   
 20   8  32  1   
 21   9  12  1   
 22   9  33  1   
 23  10  13  ar  
 24  10  14  ar  
 25  11  15  1   
 26  11  16  1   
 27  11  17  1   
 28  12  18  1   
 29  12  34  1   
 30  12  35  1   
 31  13  19  ar  
 32  13  36  1   
 33  14  20  ar  
 34  14  37  1   
 35  15  38  1   
 36  16  18  1   
 37  16  39  1   
 38  16  40  1   
 39  17  21  1   
 40  17  41  1   
 41  17  42  1   
 42  18  43  1   
 43  18  44  1   
 44  19  22  ar  
 45  19  45  1   
 46  20  22  ar  
 47  20  46  1   
 48  21  47  1   
 49  21  48  1   
 50  21  49  1   
 51  22  23  1   
 52  23  50  1   
 53  23  51  1   
 54  23  52  1   
@<TRIPOS>SUBSTRUCTURE
  1 ****   5 GROUP 4 **** **** 0

# MOE 2024.06 (io_trps.svl 2023.06)
