@<TRIPOS>MOLECULE
NONAME
46 48 1 0 0 
SMALL
USER_CHARGES


@<TRIPOS>ATOM
  1 F       -3.1920    -0.5570     2.0430 F     1 <1>  -0.1900 
  2 C       -2.7110     0.2800     1.1600 C.ar  1 <1>   0.1900 
  3 C       -2.3860     1.5690     1.5490 C.ar  1 <1>   0.1900 
  4 C       -2.5480    -0.1410    -0.1560 C.ar  1 <1>   0.0860 
  5 F       -2.5550     1.9450     2.7900 F     1 <1>  -0.1900 
  6 C       -1.8850     2.4850     0.6440 C.ar  1 <1>  -0.1500 
  7 C       -2.8780    -1.4850    -0.5680 C.2   1 <1>   0.5440 
  8 C       -2.0390     0.7940    -1.0620 C.ar  1 <1>  -0.1500 
  9 C       -1.7130     2.0860    -0.6730 C.ar  1 <1>  -0.1500 
 10 O       -2.0130    -2.3380    -0.5640 O.2   1 <1>  -0.5700 
 11 N       -4.1490    -1.8470    -0.9680 N.am  1 <1>  -0.6600 
 12 C       -4.4290    -3.2300    -1.4430 C.3   1 <1>   0.1400 
 13 C       -5.3740    -1.0770    -0.6170 C.3   1 <1>   0.1400 
 14 C       -5.1310    -4.0090    -0.3110 C.3   1 <1>   0.4230 
 15 C       -6.1070    -1.8280     0.5040 C.3   1 <1>  -0.1600 
 16 N       -5.2840    -5.4990    -0.5890 N.4   1 <1>  -0.9590 
 17 C       -6.4450    -3.3090     0.1540 C.3   1 <1>   0.0000 
 18 C       -6.3010    -6.1820     0.2760 C.3   1 <1>   0.3430 
 19 C       -5.4990    -5.8720    -2.0260 C.3   1 <1>   0.2630 
 20 C       -6.9750    -4.0160     1.4370 C.3   1 <1>  -0.1600 
 21 C       -7.5120    -3.3660    -0.9770 C.3   1 <1>   0.1200 
 22 C       -6.4590    -5.4580     1.6120 C.3   1 <1>  -0.1600 
 23 O       -8.6180    -2.5870    -0.6800 O.3   1 <1>  -0.6800 
 24 H       -1.6370     3.4820     0.9630 H     1 <1>   0.1500 
 25 H       -1.8930     0.4950    -2.0860 H     1 <1>   0.1500 
 26 H       -1.3210     2.7820    -1.3960 H     1 <1>   0.1500 
 27 H       -5.0410    -3.1720    -2.3240 H     1 <1>   0.0800 
 28 H       -3.5110    -3.7240    -1.7080 H     1 <1>   0.0800 
 29 H       -5.1250    -0.0840    -0.2870 H     1 <1>   0.0800 
 30 H       -6.0060    -0.9830    -1.4850 H     1 <1>   0.0800 
 31 H       -4.4600    -3.9310     0.5290 H     1 <1>   0.0800 
 32 H       -5.4750    -1.7960     1.3750 H     1 <1>   0.0800 
 33 H       -7.0000    -1.2830     0.7580 H     1 <1>   0.0800 
 34 H       -4.3710    -5.8950    -0.3160 H     1 <1>   0.4500 
 35 H       -7.2570    -6.1890    -0.2220 H     1 <1>   0.0800 
 36 H       -6.0080    -7.2060     0.4470 H     1 <1>   0.0800 
 37 H       -6.4190    -5.4480    -2.3930 H     1 <1>   0.0800 
 38 H       -5.5500    -6.9440    -2.1300 H     1 <1>   0.0800 
 39 H       -4.6850    -5.5140    -2.6360 H     1 <1>   0.0800 
 40 H       -6.6900    -3.4670     2.3190 H     1 <1>   0.0800 
 41 H       -8.0510    -4.0300     1.4340 H     1 <1>   0.0800 
 42 H       -7.8620    -4.3690    -1.1390 H     1 <1>   0.0800 
 43 H       -7.1220    -2.9890    -1.9050 H     1 <1>   0.0800 
 44 H       -7.1470    -6.0050     2.2330 H     1 <1>   0.0800 
 45 H       -5.5110    -5.4530     2.1240 H     1 <1>   0.0800 
 46 H       -9.0770    -2.8860     0.1300 H     1 <1>   0.4000 
@<TRIPOS>BOND
  1   1   2  1   
  2   2   3  ar  
  3   2   4  ar  
  4   3   5  1   
  5   3   6  ar  
  6   4   7  1   
  7   4   8  ar  
  8   6   9  ar  
  9   6  24  1   
 10   7  10  2   
 11   7  11  am  
 12   8   9  ar  
 13   8  25  1   
 14   9  26  1   
 15  11  12  1   
 16  11  13  1   
 17  12  14  1   
 18  12  27  1   
 19  12  28  1   
 20  13  15  1   
 21  13  29  1   
 22  13  30  1   
 23  14  16  1   
 24  14  17  1   
 25  14  31  1   
 26  15  17  1   
 27  15  32  1   
 28  15  33  1   
 29  16  18  1   
 30  16  19  1   
 31  16  34  1   
 32  17  20  1   
 33  17  21  1   
 34  18  22  1   
 35  18  35  1   
 36  18  36  1   
 37  19  37  1   
 38  19  38  1   
 39  19  39  1   
 40  20  22  1   
 41  20  40  1   
 42  20  41  1   
 43  21  23  1   
 44  21  42  1   
 45  21  43  1   
 46  22  44  1   
 47  22  45  1   
 48  23  46  1   
@<TRIPOS>SUBSTRUCTURE
  1 ****  11 GROUP 4 **** **** 0

# MOE 2024.06 (io_trps.svl 2023.06)
