@<TRIPOS>MOLECULE
NONAME
47 49 1 0 0 
SMALL
USER_CHARGES


@<TRIPOS>ATOM
  1 O       -0.2330     0.6410    -1.2090 O.2   1 <1>  -0.5700 
  2 C       -0.9040     1.5460    -0.7530 C.2   1 <1>   0.7800 
  3 O       -1.7980     1.3190     0.2140 O.3   1 <1>  -0.4300 
  4 N       -0.7880     2.8330    -1.2040 N.am  1 <1>  -0.6600 
  5 C       -2.0730     0.0940     0.8570 C.3   1 <1>   0.2800 
  6 C        0.2470     3.2300    -2.2100 C.3   1 <1>   0.1400 
  7 C       -1.6050     3.9760    -0.6850 C.3   1 <1>   0.1400 
  8 C       -0.8220    -0.4250     1.5750 C.3   1 <1>  -0.2400 
  9 C       -3.1460     0.4250     1.8950 C.3   1 <1>  -0.2400 
 10 C       -2.6350    -0.9180    -0.1490 C.3   1 <1>  -0.2400 
 11 C        1.1030     4.4040    -1.7030 C.3   1 <1>   0.2090 
 12 C       -0.7150     5.1380    -0.2120 C.3   1 <1>   0.2090 
 13 N        0.2380     5.5500    -1.2880 N.pl3 1 <1>  -0.8220 
 14 C        0.9310     6.7540    -1.0400 C.2   1 <1>  -0.0680 
 15 N        1.8270     6.9910    -0.0170 N.pl3 1 <1>   0.3340 
 16 C        0.8100     7.8850    -1.7920 C.2   1 <1>  -0.1500 
 17 C        2.2600     8.3070    -0.1510 C.2   1 <1>  -0.1970 
 18 C        2.3090     6.1980     1.0170 C.2   1 <1>  -0.1810 
 19 C        1.6390     8.8590    -1.2410 C.2   1 <1>  -0.1500 
 20 C        3.1950     8.8090     0.7940 C.2   1 <1>  -0.1050 
 21 C        3.2060     6.6580     1.9430 C.2   1 <1>  -0.2500 
 22 C        3.6490     8.0160     1.8000 C.2   1 <1>  -0.1500 
 23 C        3.6990     5.8260     3.0310 C.2   1 <1>   1.0500 
 24 O        4.5360     6.2610     3.8420 O.co2 1 <1>  -0.9000 
 25 O        3.2820     4.6610     3.1630 O.co2 1 <1>  -0.9000 
 26 H       -0.2440     3.5250    -3.1190 H     1 <1>   0.0800 
 27 H        0.8930     2.4000    -2.4350 H     1 <1>   0.0800 
 28 H       -2.2300     3.6630     0.1310 H     1 <1>   0.0800 
 29 H       -2.2450     4.3320    -1.4740 H     1 <1>   0.0800 
 30 H       -0.4110     0.3390     2.2100 H     1 <1>   0.0800 
 31 H       -0.0720    -0.7390     0.8720 H     1 <1>   0.0800 
 32 H       -1.0720    -1.2750     2.1820 H     1 <1>   0.0800 
 33 H       -2.7750     1.1530     2.5940 H     1 <1>   0.0800 
 34 H       -3.4220    -0.4590     2.4410 H     1 <1>   0.0800 
 35 H       -4.0240     0.8150     1.4130 H     1 <1>   0.0800 
 36 H       -1.8840    -1.2200    -0.8550 H     1 <1>   0.0800 
 37 H       -3.4680    -0.4940    -0.6800 H     1 <1>   0.0800 
 38 H       -2.9710    -1.8000     0.3650 H     1 <1>   0.0800 
 39 H        1.7670     4.7290    -2.4850 H     1 <1>   0.0800 
 40 H        1.7020     4.0740    -0.8730 H     1 <1>   0.0800 
 41 H       -0.1740     4.8320     0.6650 H     1 <1>   0.0800 
 42 H       -1.3320     5.9790     0.0530 H     1 <1>   0.0800 
 43 H        0.1840     8.0030    -2.6580 H     1 <1>   0.1500 
 44 H        1.9420     5.1910     1.0620 H     1 <1>   0.1500 
 45 H        1.7590     9.8600    -1.6130 H     1 <1>   0.1500 
 46 H        3.5280     9.8250     0.6880 H     1 <1>   0.1500 
 47 H        4.3570     8.3770     2.5280 H     1 <1>   0.1500 
@<TRIPOS>BOND
  1   1   2  2   
  2   2   3  1   
  3   2   4  am  
  4   3   5  1   
  5   4   6  1   
  6   4   7  1   
  7   5   8  1   
  8   5   9  1   
  9   5  10  1   
 10   6  11  1   
 11   6  26  1   
 12   6  27  1   
 13   7  12  1   
 14   7  28  1   
 15   7  29  1   
 16   8  30  1   
 17   8  31  1   
 18   8  32  1   
 19   9  33  1   
 20   9  34  1   
 21   9  35  1   
 22  10  36  1   
 23  10  37  1   
 24  10  38  1   
 25  11  13  1   
 26  11  39  1   
 27  11  40  1   
 28  12  13  1   
 29  12  41  1   
 30  12  42  1   
 31  13  14  1   
 32  14  15  1   
 33  14  16  2   
 34  15  17  1   
 35  15  18  1   
 36  16  19  1   
 37  16  43  1   
 38  17  19  2   
 39  17  20  1   
 40  18  21  2   
 41  18  44  1   
 42  19  45  1   
 43  20  22  2   
 44  20  46  1   
 45  21  22  1   
 46  21  23  1   
 47  22  47  1   
 48  23  24  ar  
 49  23  25  ar  
@<TRIPOS>SUBSTRUCTURE
  1 ****  12 GROUP 4 **** **** 0

# MOE 2024.06 (io_trps.svl 2023.06)
