@<TRIPOS>MOLECULE
NONAME
56 60 1 0 0 
SMALL
USER_CHARGES


@<TRIPOS>ATOM
  1 O        0.2950     0.6920    -0.3410 O.2   1 <1>  -0.5700 
  2 C       -0.4720     1.5670    -0.0140 C.2   1 <1>   0.5690 
  3 N       -1.8320     1.3990    -0.0920 N.am  1 <1>  -0.6600 
  4 C        0.1060     2.8840     0.4850 C.3   1 <1>  -0.0990 
  5 C       -2.8560     2.4260     0.2880 C.3   1 <1>   0.1400 
  6 C       -2.4290     0.1250    -0.5880 C.3   1 <1>   0.1400 
  7 C        1.6410     2.9310     0.5060 C.3   1 <1>  -0.0170 
  8 C       -3.7710     2.7620    -0.9050 C.3   1 <1>   0.1440 
  9 C       -3.3500     0.4060    -1.7820 C.3   1 <1>  -0.1600 
 10 C        2.1100     4.3020     0.9650 C.ar  1 <1>  -0.1440 
 11 C       -4.8020     3.7750    -0.4430 C.ar  1 <1>   0.1660 
 12 C       -4.4140     1.4660    -1.4460 C.3   1 <1>  -0.1600 
 13 C       -3.0130     3.5410    -2.0140 C.3   1 <1>  -0.1600 
 14 C        2.4380     5.2980     0.0680 C.ar  1 <1>  -0.1500 
 15 C        2.2240     4.6230     2.3020 C.ar  1 <1>  -0.1500 
 16 N       -5.8170     3.5200     0.3460 N.ar  1 <1>  -0.6200 
 17 C       -4.5380     5.0170    -0.9320 C.ar  1 <1>  -0.1440 
 18 C       -3.3000     5.0360    -1.7920 C.3   1 <1>  -0.0170 
 19 C        2.8470     6.5350     0.5390 C.ar  1 <1>   0.1600 
 20 C        2.6410     5.8920     2.6680 C.ar  1 <1>   0.1600 
 21 C       -6.6090     4.5610     0.6380 C.ar  1 <1>   0.6200 
 22 C       -5.3910     6.0330    -0.5850 C.ar  1 <1>   0.1600 
 23 N        2.9510     6.8570     1.8180 N.ar  1 <1>  -0.6200 
 24 N       -6.4250     5.8150     0.1950 N.ar  1 <1>  -0.6200 
 25 C       -7.7550     4.3130     1.5030 C.ar  1 <1>   0.0000 
 26 C       -7.7620     3.2670     2.4320 C.ar  1 <1>  -0.1500 
 27 C       -8.9040     5.1080     1.4460 C.ar  1 <1>  -0.1500 
 28 C       -8.8480     3.0280     3.2540 C.ar  1 <1>  -0.1500 
 29 C       -9.9940     4.8760     2.2660 C.ar  1 <1>  -0.1500 
 30 C       -9.9680     3.8330     3.1730 C.ar  1 <1>  -0.1500 
 31 H       -0.2560     3.0570     1.4810 H     1 <1>   0.0800 
 32 H       -0.2500     3.6730    -0.1500 H     1 <1>   0.0800 
 33 H       -2.3990     3.3280     0.6490 H     1 <1>   0.0800 
 34 H       -3.4580     2.0290     1.0880 H     1 <1>   0.0800 
 35 H       -2.9920    -0.3290     0.2100 H     1 <1>   0.0800 
 36 H       -1.6600    -0.5690    -0.8840 H     1 <1>   0.0800 
 37 H        2.0250     2.7250    -0.4780 H     1 <1>   0.0800 
 38 H        2.0200     2.1730     1.1690 H     1 <1>   0.0800 
 39 H       -3.8350    -0.5090    -2.0730 H     1 <1>   0.0800 
 40 H       -2.7490     0.7310    -2.6130 H     1 <1>   0.0800 
 41 H       -5.0120     1.6820    -2.3150 H     1 <1>   0.0800 
 42 H       -5.0750     1.0660    -0.6960 H     1 <1>   0.0800 
 43 H       -3.4110     3.2690    -2.9760 H     1 <1>   0.0800 
 44 H       -1.9580     3.3320    -2.0230 H     1 <1>   0.0800 
 45 H        2.3810     5.1240    -0.9910 H     1 <1>   0.1500 
 46 H        1.9920     3.8990     3.0610 H     1 <1>   0.1500 
 47 H       -3.4680     5.5490    -2.7220 H     1 <1>   0.0800 
 48 H       -2.4920     5.5040    -1.2550 H     1 <1>   0.0800 
 49 H        3.1020     7.3000    -0.1750 H     1 <1>   0.1500 
 50 H        2.7240     6.1250     3.7160 H     1 <1>   0.1500 
 51 H       -5.2250     7.0330    -0.9460 H     1 <1>   0.1500 
 52 H       -6.9000     2.6280     2.5110 H     1 <1>   0.1500 
 53 H       -8.9440     5.9240     0.7460 H     1 <1>   0.1500 
 54 H       -8.8210     2.2140     3.9580 H     1 <1>   0.1500 
 55 H      -10.8620     5.5070     2.1970 H     1 <1>   0.1500 
 56 H      -10.8150     3.6500     3.8120 H     1 <1>   0.1500 
@<TRIPOS>BOND
  1   1   2  2   
  2   2   3  am  
  3   2   4  1   
  4   3   5  1   
  5   3   6  1   
  6   4   7  1   
  7   4  31  1   
  8   4  32  1   
  9   5   8  1   
 10   5  33  1   
 11   5  34  1   
 12   6   9  1   
 13   6  35  1   
 14   6  36  1   
 15   7  10  1   
 16   7  37  1   
 17   7  38  1   
 18   8  11  1   
 19   8  12  1   
 20   8  13  1   
 21   9  12  1   
 22   9  39  1   
 23   9  40  1   
 24  10  14  ar  
 25  10  15  ar  
 26  11  16  ar  
 27  11  17  ar  
 28  12  41  1   
 29  12  42  1   
 30  13  18  1   
 31  13  43  1   
 32  13  44  1   
 33  14  19  ar  
 34  14  45  1   
 35  15  20  ar  
 36  15  46  1   
 37  16  21  ar  
 38  17  18  1   
 39  17  22  ar  
 40  18  47  1   
 41  18  48  1   
 42  19  23  ar  
 43  19  49  1   
 44  20  23  ar  
 45  20  50  1   
 46  21  24  ar  
 47  21  25  1   
 48  22  24  ar  
 49  22  51  1   
 50  25  26  ar  
 51  25  27  ar  
 52  26  28  ar  
 53  26  52  1   
 54  27  29  ar  
 55  27  53  1   
 56  28  30  ar  
 57  28  54  1   
 58  29  30  ar  
 59  29  55  1   
 60  30  56  1   
@<TRIPOS>SUBSTRUCTURE
  1 ****   5 GROUP 4 **** **** 0

# MOE 2024.06 (io_trps.svl 2023.06)
