@<TRIPOS>MOLECULE
NONAME
67 70 1 0 0 
SMALL
USER_CHARGES


@<TRIPOS>ATOM
  1 O       -0.5500    -1.0380     0.2580 O.2   1 <1>  -0.5700 
  2 C        0.0860    -1.9930    -0.1250 C.2   1 <1>   0.5690 
  3 N        1.3250    -1.8340    -0.7000 N.am  1 <1>  -0.6600 
  4 C       -0.5850    -3.3360     0.0750 C.3   1 <1>  -0.0990 
  5 C        2.1690    -2.9260    -1.3010 C.3   1 <1>   0.1400 
  6 C        1.8140    -0.4550    -0.9900 C.3   1 <1>   0.1400 
  7 C       -0.1530    -4.4320    -0.8900 C.3   1 <1>   0.1200 
  8 C        2.2560    -4.2770    -0.5280 C.3   1 <1>   0.2800 
  9 C        2.4050     0.1840     0.2710 C.3   1 <1>  -0.1600 
 10 O        1.0500    -4.9930    -0.4690 O.3   1 <1>  -0.5600 
 11 C        2.7030    -4.0720     0.9320 C.3   1 <1>  -0.1600 
 12 C        3.2410    -5.2220    -1.2610 C.3   1 <1>  -0.1600 
 13 C        2.9780     1.5760    -0.0290 C.3   1 <1>  -0.1600 
 14 C        4.1240    -3.5010     1.0340 C.3   1 <1>   0.1400 
 15 C        4.5970    -5.3710    -0.5650 C.3   1 <1>   0.1400 
 16 C        3.5010     2.2600     1.2400 C.3   1 <1>  -0.0170 
 17 N        5.0200    -4.0490    -0.0280 N.am  1 <1>  -0.6600 
 18 C        4.0920     3.6220     0.9090 C.ar  1 <1>  -0.1430 
 19 C        6.1100    -3.3950    -0.5550 C.2   1 <1>   0.5690 
 20 C        5.4650     3.8150     0.8770 C.ar  1 <1>  -0.1500 
 21 C        3.2520     4.6910     0.6340 C.ar  1 <1>  -0.1500 
 22 O        6.6970    -3.8360    -1.5160 O.2   1 <1>  -0.5700 
 23 C        6.6040    -2.0680     0.0360 C.3   1 <1>  -0.0190 
 24 C        5.9910     5.0570     0.5700 C.ar  1 <1>  -0.1500 
 25 C        3.7770     5.9340     0.3270 C.ar  1 <1>  -0.1500 
 26 C        6.0910    -0.8730    -0.7830 C.3   1 <1>  -0.1600 
 27 C        8.1390    -1.9800     0.1190 C.3   1 <1>  -0.1600 
 28 C        5.1480     6.1190     0.2940 C.ar  1 <1>  -0.1500 
 29 C        6.6340     0.4410    -0.2150 C.3   1 <1>   0.1200 
 30 C        8.5730    -0.6020     0.6320 C.3   1 <1>   0.1200 
 31 O        8.0260     0.3940    -0.1770 O.3   1 <1>  -0.5600 
 32 H       -1.6390    -3.1810    -0.0630 H     1 <1>   0.0800 
 33 H       -0.4430    -3.6610     1.0880 H     1 <1>   0.0800 
 34 H        3.1740    -2.5540    -1.3870 H     1 <1>   0.0800 
 35 H        1.8350    -3.1100    -2.3060 H     1 <1>   0.0800 
 36 H        0.9900     0.1460    -1.3400 H     1 <1>   0.0800 
 37 H        2.5520    -0.4790    -1.7740 H     1 <1>   0.0800 
 38 H       -0.0720    -4.0840    -1.9050 H     1 <1>   0.0800 
 39 H       -0.8810    -5.2240    -0.8680 H     1 <1>   0.0800 
 40 H        3.1780    -0.4430     0.6700 H     1 <1>   0.0800 
 41 H        1.6270     0.2760     1.0100 H     1 <1>   0.0800 
 42 H        2.6760    -5.0190     1.4420 H     1 <1>   0.0800 
 43 H        2.0280    -3.4140     1.4470 H     1 <1>   0.0800 
 44 H        3.4200    -4.8710    -2.2610 H     1 <1>   0.0800 
 45 H        2.8160    -6.2070    -1.3490 H     1 <1>   0.0800 
 46 H        2.2080     2.1910    -0.4640 H     1 <1>   0.0800 
 47 H        3.7780     1.4970    -0.7450 H     1 <1>   0.0800 
 48 H        4.5370    -3.7250     2.0030 H     1 <1>   0.0800 
 49 H        4.0670    -2.4340     0.9310 H     1 <1>   0.0800 
 50 H        5.3240    -5.7650    -1.2560 H     1 <1>   0.0800 
 51 H        4.5170    -6.0670     0.2530 H     1 <1>   0.0800 
 52 H        4.2460     1.6440     1.7100 H     1 <1>   0.0800 
 53 H        2.6950     2.3880     1.9420 H     1 <1>   0.0800 
 54 H        6.1370     3.0040     1.0930 H     1 <1>   0.1500 
 55 H        2.1850     4.5590     0.6580 H     1 <1>   0.1500 
 56 H        6.2410    -1.9750     1.0410 H     1 <1>   0.0800 
 57 H        7.0580     5.1990     0.5460 H     1 <1>   0.1500 
 58 H        3.1180     6.7570     0.1140 H     1 <1>   0.1500 
 59 H        5.0180    -0.8550    -0.7790 H     1 <1>   0.0800 
 60 H        6.4130    -0.9680    -1.8060 H     1 <1>   0.0800 
 61 H        8.5740    -2.1360    -0.8540 H     1 <1>   0.0800 
 62 H        8.5160    -2.7460     0.7720 H     1 <1>   0.0800 
 63 H        5.5570     7.0850     0.0550 H     1 <1>   0.1500 
 64 H        6.2710     0.6140     0.7840 H     1 <1>   0.0800 
 65 H        6.3510     1.2700    -0.8410 H     1 <1>   0.0800 
 66 H        9.6440    -0.5050     0.5900 H     1 <1>   0.0800 
 67 H        8.2460    -0.4390     1.6450 H     1 <1>   0.0800 
@<TRIPOS>BOND
  1   1   2  2   
  2   2   3  am  
  3   2   4  1   
  4   3   5  1   
  5   3   6  1   
  6   4   7  1   
  7   4  32  1   
  8   4  33  1   
  9   5   8  1   
 10   5  34  1   
 11   5  35  1   
 12   6   9  1   
 13   6  36  1   
 14   6  37  1   
 15   7  10  1   
 16   7  38  1   
 17   7  39  1   
 18   8  10  1   
 19   8  11  1   
 20   8  12  1   
 21   9  13  1   
 22   9  40  1   
 23   9  41  1   
 24  11  14  1   
 25  11  42  1   
 26  11  43  1   
 27  12  15  1   
 28  12  44  1   
 29  12  45  1   
 30  13  16  1   
 31  13  46  1   
 32  13  47  1   
 33  14  17  1   
 34  14  48  1   
 35  14  49  1   
 36  15  17  1   
 37  15  50  1   
 38  15  51  1   
 39  16  18  1   
 40  16  52  1   
 41  16  53  1   
 42  17  19  am  
 43  18  20  ar  
 44  18  21  ar  
 45  19  22  2   
 46  19  23  1   
 47  20  24  ar  
 48  20  54  1   
 49  21  25  ar  
 50  21  55  1   
 51  23  26  1   
 52  23  27  1   
 53  23  56  1   
 54  24  28  ar  
 55  24  57  1   
 56  25  28  ar  
 57  25  58  1   
 58  26  29  1   
 59  26  59  1   
 60  26  60  1   
 61  27  30  1   
 62  27  61  1   
 63  27  62  1   
 64  28  63  1   
 65  29  31  1   
 66  29  64  1   
 67  29  65  1   
 68  30  31  1   
 69  30  66  1   
 70  30  67  1   
@<TRIPOS>SUBSTRUCTURE
  1 ****   9 GROUP 4 **** **** 0

# MOE 2024.06 (io_trps.svl 2023.06)
