@<TRIPOS>MOLECULE
NONAME
24 25 1 0 0 
SMALL
USER_CHARGES


@<TRIPOS>ATOM
  1 C        0.1170     0.0640     0.3220 C.1   1 <1>  -0.2000 
  2 C        0.1830    -1.0120     0.8250 C.1   1 <1>  -0.1770 
  3 C        0.0310     1.4190    -0.3090 C.3   1 <1>   0.2640 
  4 C        1.3130     2.2410    -0.1090 C.ar  1 <1>  -0.1440 
  5 C       -1.2210     2.1320     0.2250 C.3   1 <1>  -0.1600 
  6 C        1.2700     3.5940     0.2230 C.ar  1 <1>  -0.1430 
  7 C        2.5500     1.6350    -0.2950 C.ar  1 <1>  -0.1500 
  8 C       -1.2370     3.6060    -0.1880 C.3   1 <1>  -0.1600 
  9 C        2.4500     4.3050     0.3750 C.ar  1 <1>  -0.1500 
 10 C       -0.0450     4.3340     0.4390 C.3   1 <1>  -0.0170 
 11 C        3.7240     2.3500    -0.1430 C.ar  1 <1>  -0.1500 
 12 C        3.6740     3.6890     0.1940 C.ar  1 <1>  -0.1500 
 13 H        0.2470    -1.9830     1.2840 H     1 <1>   0.1770 
 14 H       -0.0910     1.2800    -1.3680 H     1 <1>   0.0800 
 15 H       -1.2350     2.0690     1.3000 H     1 <1>   0.0800 
 16 H       -2.0990     1.6360    -0.1480 H     1 <1>   0.0800 
 17 H        2.6090     0.5940    -0.5610 H     1 <1>   0.1500 
 18 H       -2.1530     4.0700     0.1350 H     1 <1>   0.0800 
 19 H       -1.1810     3.6830    -1.2610 H     1 <1>   0.0800 
 20 H        2.4220     5.3480     0.6380 H     1 <1>   0.1500 
 21 H        0.0210     5.3240     0.0230 H     1 <1>   0.0800 
 22 H       -0.2060     4.4310     1.4990 H     1 <1>   0.0800 
 23 H        4.6730     1.8640    -0.2860 H     1 <1>   0.1500 
 24 H        4.5850     4.2490     0.3150 H     1 <1>   0.1500 
@<TRIPOS>BOND
  1   1   2  3   
  2   1   3  1   
  3   2  13  1   
  4   3   4  1   
  5   3   5  1   
  6   3  14  1   
  7   4   6  ar  
  8   4   7  ar  
  9   5   8  1   
 10   5  15  1   
 11   5  16  1   
 12   6   9  ar  
 13   6  10  1   
 14   7  11  ar  
 15   7  17  1   
 16   8  10  1   
 17   8  18  1   
 18   8  19  1   
 19   9  12  ar  
 20   9  20  1   
 21  10  21  1   
 22  10  22  1   
 23  11  12  ar  
 24  11  23  1   
 25  12  24  1   
@<TRIPOS>SUBSTRUCTURE
  1 ****   4 GROUP 4 **** **** 0

# MOE 2024.06 (io_trps.svl 2023.06)
