@<TRIPOS>MOLECULE
NONAME
38 39 1 0 0 
SMALL
USER_CHARGES


@<TRIPOS>ATOM
  1 O        4.4770     2.5530    -0.8820 O.2   1 <1>  -0.5700 
  2 C        3.8950     1.5370    -0.5860 C.2   1 <1>   0.5690 
  3 N        3.1320     1.3650     0.5160 N.am  1 <1>  -0.6600 
  4 C        3.9430     0.2820    -1.4100 C.3   1 <1>  -0.0990 
  5 C        2.5600     0.0110     0.6070 C.3   1 <1>   0.1400 
  6 C        2.7750     2.4090     1.5070 C.3   1 <1>   0.1400 
  7 C        3.2700    -0.7690    -0.5090 C.3   1 <1>  -0.1600 
  8 C        3.9900     2.7680     2.3710 C.3   1 <1>  -0.0990 
  9 C        4.3720     4.2220     2.2090 C.2   1 <1>   0.5690 
 10 O        4.2210     4.9530     3.1550 O.2   1 <1>  -0.5700 
 11 N        4.8530     4.6290     1.0000 N.am  1 <1>  -0.4940 
 12 C        5.3460     5.8780     0.6090 C.2   1 <1>   0.2040 
 13 O        5.5900     6.8400     1.4690 O.3   1 <1>  -0.0190 
 14 C        5.6760     6.3340    -0.6150 C.2   1 <1>  -0.1810 
 15 N        6.0710     7.9080     0.8820 N.2   1 <1>  -0.4100 
 16 C        6.1330     7.6270    -0.3690 C.2   1 <1>   0.1080 
 17 C        5.5810     5.6250    -1.9550 C.3   1 <1>   0.0210 
 18 C        6.6390     8.5980    -1.4140 C.3   1 <1>  -0.0590 
 19 C        6.8760     4.8680    -2.2560 C.3   1 <1>  -0.2400 
 20 H        4.9590     0.0190    -1.6430 H     1 <1>   0.0800 
 21 H        3.3840     0.4360    -2.3140 H     1 <1>   0.0800 
 22 H        1.4980     0.0560     0.4290 H     1 <1>   0.0800 
 23 H        2.7540    -0.4220     1.5730 H     1 <1>   0.0800 
 24 H        1.9780     2.0510     2.1360 H     1 <1>   0.0800 
 25 H        2.4130     3.2790     0.9840 H     1 <1>   0.0800 
 26 H        4.0200    -1.4030    -0.0680 H     1 <1>   0.0800 
 27 H        2.5790    -1.3850    -1.0570 H     1 <1>   0.0800 
 28 H        4.8380     2.1540     2.1300 H     1 <1>   0.0800 
 29 H        3.7440     2.5990     3.4030 H     1 <1>   0.0800 
 30 H        4.8340     3.9190     0.2540 H     1 <1>   0.3700 
 31 H        5.3850     6.3410    -2.7340 H     1 <1>   0.0800 
 32 H        4.7580     4.9330    -1.9370 H     1 <1>   0.0800 
 33 H        7.4350     8.1480    -1.9770 H     1 <1>   0.0800 
 34 H        7.0100     9.4880    -0.9380 H     1 <1>   0.0800 
 35 H        5.8390     8.8680    -2.0770 H     1 <1>   0.0800 
 36 H        7.7100     5.5460    -2.2820 H     1 <1>   0.0800 
 37 H        6.8010     4.3700    -3.2050 H     1 <1>   0.0800 
 38 H        7.0540     4.1300    -1.4940 H     1 <1>   0.0800 
@<TRIPOS>BOND
  1   1   2  2   
  2   2   3  am  
  3   2   4  1   
  4   3   5  1   
  5   3   6  1   
  6   4   7  1   
  7   4  20  1   
  8   4  21  1   
  9   5   7  1   
 10   5  22  1   
 11   5  23  1   
 12   6   8  1   
 13   6  24  1   
 14   6  25  1   
 15   7  26  1   
 16   7  27  1   
 17   8   9  1   
 18   8  28  1   
 19   8  29  1   
 20   9  10  2   
 21   9  11  am  
 22  11  12  1   
 23  11  30  1   
 24  12  13  1   
 25  12  14  2   
 26  13  15  1   
 27  14  16  1   
 28  14  17  1   
 29  15  16  2   
 30  16  18  1   
 31  17  19  1   
 32  17  31  1   
 33  17  32  1   
 34  18  33  1   
 35  18  34  1   
 36  18  35  1   
 37  19  36  1   
 38  19  37  1   
 39  19  38  1   
@<TRIPOS>SUBSTRUCTURE
  1 ****  11 GROUP 4 **** **** 0

# MOE 2024.06 (io_trps.svl 2023.06)
