@<TRIPOS>MOLECULE
NONAME
64 68 1 0 0 
SMALL
USER_CHARGES


@<TRIPOS>ATOM
  1 O       -1.2800    -0.2030     1.2020 O.2   1 <1>  -0.5700 
  2 C       -1.1440     0.9890     1.0060 C.2   1 <1>   0.5440 
  3 N       -0.0490     1.7020     1.3970 N.am  1 <1>  -0.6600 
  4 C       -2.0720     1.8610     0.3480 C.ar  1 <1>   0.0860 
  5 C       -0.1870     3.1320     1.0190 C.3   1 <1>   0.2840 
  6 C        1.1370     1.1690     2.1100 C.3   1 <1>   0.1400 
  7 C       -1.5450     3.1400     0.3340 C.ar  1 <1>  -0.1440 
  8 C       -3.3140     1.6220    -0.2270 C.ar  1 <1>  -0.1500 
  9 C        2.3970     1.2090     1.2270 C.3   1 <1>  -0.0800 
 10 C       -2.2300     4.1930    -0.2430 C.ar  1 <1>  -0.1500 
 11 C       -4.0090     2.6710    -0.8080 C.ar  1 <1>  -0.1500 
 12 C        2.2230     0.3750    -0.0590 C.3   1 <1>  -0.1600 
 13 C        3.6130     0.7090     2.0270 C.3   1 <1>  -0.1600 
 14 C       -3.4700     3.9500    -0.8150 C.ar  1 <1>  -0.1500 
 15 C        3.4970     0.3870    -0.9150 C.3   1 <1>  -0.1600 
 16 C        4.8900     0.7350     1.1750 C.3   1 <1>  -0.1600 
 17 C        4.7200    -0.0960    -0.1120 C.3   1 <1>  -0.0190 
 18 C        6.0010    -0.1970    -0.9530 C.2   1 <1>   0.5690 
 19 O        6.5030    -1.2840    -1.0880 O.2   1 <1>  -0.5700 
 20 N        6.6020     0.8650    -1.5570 N.am  1 <1>  -0.5470 
 21 C        6.3420     2.2360    -1.5060 C.ar  1 <1>   0.1170 
 22 C        6.9330     3.0330    -0.5100 C.ar  1 <1>   0.0000 
 23 C        5.5330     2.8490    -2.4410 C.ar  1 <1>  -0.1500 
 24 C        6.6780     4.4000    -0.4610 C.ar  1 <1>  -0.1520 
 25 C        7.8080     2.7530     0.5620 C.2   1 <1>  -0.1500 
 26 C        5.2800     4.2230    -2.3920 C.ar  1 <1>  -0.1500 
 27 N        7.3680     4.9340     0.6030 N.pl3 1 <1>   0.0480 
 28 C        5.8430     5.0020    -1.4080 C.ar  1 <1>  -0.1500 
 29 C        8.0500     3.9160     1.2100 C.2   1 <1>  -0.3020 
 30 C        7.4360     6.3590     0.9720 C.3   1 <1>   0.0960 
 31 C        8.4330     7.0740     0.0660 C.3   1 <1>   0.1200 
 32 O        8.4400     8.4210     0.4110 O.3   1 <1>  -0.5600 
 33 C        9.3170     9.1920    -0.3450 C.3   1 <1>   0.0400 
 34 H        0.5940     3.4220     0.3370 H     1 <1>   0.0800 
 35 H       -0.1850     3.7560     1.8950 H     1 <1>   0.0800 
 36 H        0.9410     0.1520     2.4070 H     1 <1>   0.0800 
 37 H        1.2950     1.7490     3.0030 H     1 <1>   0.0800 
 38 H       -3.7170     0.6240    -0.2120 H     1 <1>   0.1500 
 39 H        2.5860     2.2320     0.9520 H     1 <1>   0.0800 
 40 H       -1.8140     5.1850    -0.2500 H     1 <1>   0.1500 
 41 H       -4.9720     2.4920    -1.2550 H     1 <1>   0.1500 
 42 H        1.4090     0.7650    -0.6440 H     1 <1>   0.0800 
 43 H        1.9750    -0.6400     0.2030 H     1 <1>   0.0800 
 44 H        3.4330    -0.2970     2.3660 H     1 <1>   0.0800 
 45 H        3.7580     1.3290     2.8940 H     1 <1>   0.0800 
 46 H       -4.0180     4.7580    -1.2690 H     1 <1>   0.1500 
 47 H        3.6610     1.3880    -1.2640 H     1 <1>   0.0800 
 48 H        3.3580    -0.2470    -1.7730 H     1 <1>   0.0800 
 49 H        5.7140     0.3470     1.7480 H     1 <1>   0.0800 
 50 H        5.1090     1.7560     0.9270 H     1 <1>   0.0800 
 51 H        4.5000    -1.1020     0.2010 H     1 <1>   0.0800 
 52 H        7.4580     0.5960    -2.0420 H     1 <1>   0.3700 
 53 H        5.0860     2.2610    -3.2220 H     1 <1>   0.1500 
 54 H        8.1890     1.7720     0.7850 H     1 <1>   0.1500 
 55 H        4.6390     4.6660    -3.1340 H     1 <1>   0.1500 
 56 H        5.6510     6.0600    -1.3640 H     1 <1>   0.1500 
 57 H        8.6740     4.0820     2.0720 H     1 <1>   0.1500 
 58 H        7.7500     6.4410     1.9970 H     1 <1>   0.0800 
 59 H        6.4600     6.7930     0.8630 H     1 <1>   0.0800 
 60 H        8.1370     6.9850    -0.9660 H     1 <1>   0.0800 
 61 H        9.4230     6.6740     0.2070 H     1 <1>   0.0800 
 62 H        9.2470    10.2100    -0.0040 H     1 <1>   0.0800 
 63 H        9.0350     9.1380    -1.3830 H     1 <1>   0.0800 
 64 H       10.3210     8.8310    -0.2050 H     1 <1>   0.0800 
@<TRIPOS>BOND
  1   1   2  2   
  2   2   3  am  
  3   2   4  1   
  4   3   5  1   
  5   3   6  1   
  6   4   7  ar  
  7   4   8  ar  
  8   5   7  1   
  9   5  34  1   
 10   5  35  1   
 11   6   9  1   
 12   6  36  1   
 13   6  37  1   
 14   7  10  ar  
 15   8  11  ar  
 16   8  38  1   
 17   9  12  1   
 18   9  13  1   
 19   9  39  1   
 20  10  14  ar  
 21  10  40  1   
 22  11  14  ar  
 23  11  41  1   
 24  12  15  1   
 25  12  42  1   
 26  12  43  1   
 27  13  16  1   
 28  13  44  1   
 29  13  45  1   
 30  14  46  1   
 31  15  17  1   
 32  15  47  1   
 33  15  48  1   
 34  16  17  1   
 35  16  49  1   
 36  16  50  1   
 37  17  18  1   
 38  17  51  1   
 39  18  19  2   
 40  18  20  am  
 41  20  21  1   
 42  20  52  1   
 43  21  22  ar  
 44  21  23  ar  
 45  22  24  ar  
 46  22  25  1   
 47  23  26  ar  
 48  23  53  1   
 49  24  27  1   
 50  24  28  ar  
 51  25  29  2   
 52  25  54  1   
 53  26  28  ar  
 54  26  55  1   
 55  27  29  1   
 56  27  30  1   
 57  28  56  1   
 58  29  57  1   
 59  30  31  1   
 60  30  58  1   
 61  30  59  1   
 62  31  32  1   
 63  31  60  1   
 64  31  61  1   
 65  32  33  1   
 66  33  62  1   
 67  33  63  1   
 68  33  64  1   
@<TRIPOS>SUBSTRUCTURE
  1 ****   9 GROUP 4 **** **** 0

# MOE 2024.06 (io_trps.svl 2023.06)
