@<TRIPOS>MOLECULE
NONAME
50 53 1 0 0 
SMALL
USER_CHARGES


@<TRIPOS>ATOM
  1 O       -0.1050    -2.0390    -1.9540 O.2   1 <1>  -0.5700 
  2 C        0.0810    -2.3430    -0.7910 C.2   1 <1>   0.5440 
  3 N       -0.9210    -2.5410     0.1250 N.am  1 <1>  -0.6600 
  4 C        1.3630    -2.5520    -0.1840 C.ar  1 <1>   0.0860 
  5 C       -2.3890    -2.2540    -0.0410 C.3   1 <1>   0.3000 
  6 C       -0.3120    -2.9100     1.4390 C.3   1 <1>   0.2840 
  7 C        1.1760    -2.8800     1.1430 C.ar  1 <1>  -0.1440 
  8 C        2.6520    -2.4730    -0.6960 C.ar  1 <1>  -0.1500 
  9 C       -2.5550    -0.7250    -0.0460 C.3   1 <1>  -0.1600 
 10 C       -3.1990    -2.8030     1.1590 C.3   1 <1>  -0.1600 
 11 C       -2.9220    -2.8490    -1.3710 C.3   1 <1>  -0.0990 
 12 C        2.2460    -3.1230     1.9840 C.ar  1 <1>  -0.1500 
 13 C        3.7330    -2.7160     0.1350 C.ar  1 <1>  -0.1500 
 14 C       -4.0270    -0.3030     0.0410 C.3   1 <1>   0.1200 
 15 C       -4.6390    -2.2780     1.1740 C.3   1 <1>   0.1200 
 16 C       -2.5990    -4.3130    -1.5470 C.2   1 <1>   0.5690 
 17 C        3.5310    -3.0380     1.4710 C.ar  1 <1>  -0.1500 
 18 O       -4.6110    -0.8840     1.1660 O.3   1 <1>  -0.5600 
 19 O       -3.3410    -5.1470    -1.0830 O.2   1 <1>  -0.5700 
 20 N       -1.4790    -4.6430    -2.2240 N.am  1 <1>  -0.7300 
 21 C       -0.8840    -5.9950    -2.2320 C.3   1 <1>   0.2840 
 22 C        0.0700    -6.1450    -1.0540 C.ar  1 <1>   0.1670 
 23 N        1.3490    -5.8670    -1.2730 N.ar  1 <1>  -0.6200 
 24 C       -0.4360    -6.5470     0.1730 C.ar  1 <1>  -0.1500 
 25 C        2.1490    -5.9930    -0.2270 C.ar  1 <1>   0.1600 
 26 C        0.4120    -6.6820     1.2520 C.ar  1 <1>  -0.1500 
 27 C        1.7410    -6.3930     1.0340 C.ar  1 <1>  -0.1500 
 28 H       -0.6250    -3.8970     1.7350 H     1 <1>   0.0800 
 29 H       -0.5580    -2.1830     2.1930 H     1 <1>   0.0800 
 30 H        2.7900    -2.2260    -1.7340 H     1 <1>   0.1500 
 31 H       -2.1200    -0.3100    -0.9380 H     1 <1>   0.0800 
 32 H       -2.0390    -0.3020     0.7970 H     1 <1>   0.0800 
 33 H       -2.7700    -2.4840     2.0890 H     1 <1>   0.0800 
 34 H       -3.2130    -3.8770     1.1510 H     1 <1>   0.0800 
 35 H       -2.5290    -2.3050    -2.2070 H     1 <1>   0.0800 
 36 H       -3.9860    -2.7470    -1.4370 H     1 <1>   0.0800 
 37 H        2.0870    -3.3740     3.0180 H     1 <1>   0.1500 
 38 H        4.7340    -2.6540    -0.2570 H     1 <1>   0.1500 
 39 H       -4.5840    -0.6010    -0.8300 H     1 <1>   0.0800 
 40 H       -4.1020     0.7650     0.1510 H     1 <1>   0.0800 
 41 H       -5.1380    -2.5870     2.0760 H     1 <1>   0.0800 
 42 H       -5.2140    -2.6230     0.3320 H     1 <1>   0.0800 
 43 H        4.3780    -3.2220     2.1100 H     1 <1>   0.1500 
 44 H       -0.8100    -3.8840    -2.4210 H     1 <1>   0.3700 
 45 H       -0.3500    -6.1460    -3.1530 H     1 <1>   0.0800 
 46 H       -1.6630    -6.7340    -2.1660 H     1 <1>   0.0800 
 47 H       -1.4880    -6.7460     0.2790 H     1 <1>   0.1500 
 48 H        3.1890    -5.7610    -0.3820 H     1 <1>   0.1500 
 49 H        0.0510    -6.9970     2.2160 H     1 <1>   0.1500 
 50 H        2.4590    -6.4730     1.8290 H     1 <1>   0.1500 
@<TRIPOS>BOND
  1   1   2  2   
  2   2   3  am  
  3   2   4  1   
  4   3   5  1   
  5   3   6  1   
  6   4   7  ar  
  7   4   8  ar  
  8   5   9  1   
  9   5  10  1   
 10   5  11  1   
 11   6   7  1   
 12   6  28  1   
 13   6  29  1   
 14   7  12  ar  
 15   8  13  ar  
 16   8  30  1   
 17   9  14  1   
 18   9  31  1   
 19   9  32  1   
 20  10  15  1   
 21  10  33  1   
 22  10  34  1   
 23  11  16  1   
 24  11  35  1   
 25  11  36  1   
 26  12  17  ar  
 27  12  37  1   
 28  13  17  ar  
 29  13  38  1   
 30  14  18  1   
 31  14  39  1   
 32  14  40  1   
 33  15  18  1   
 34  15  41  1   
 35  15  42  1   
 36  16  19  2   
 37  16  20  am  
 38  17  43  1   
 39  20  21  1   
 40  20  44  1   
 41  21  22  1   
 42  21  45  1   
 43  21  46  1   
 44  22  23  ar  
 45  22  24  ar  
 46  23  25  ar  
 47  24  26  ar  
 48  24  47  1   
 49  25  27  ar  
 50  25  48  1   
 51  26  27  ar  
 52  26  49  1   
 53  27  50  1   
@<TRIPOS>SUBSTRUCTURE
  1 ****   3 GROUP 4 **** **** 0

# MOE 2024.06 (io_trps.svl 2023.06)
