@<TRIPOS>MOLECULE
NONAME
49 52 1 0 0 
SMALL
USER_CHARGES


@<TRIPOS>ATOM
  1 S        0.8950     2.3710    -2.6880 S.3   1 <1>  -0.0800 
  2 C       -0.1160     3.2120    -1.5080 C.2   1 <1>   0.0410 
  3 C       -0.4860     1.9760    -3.6950 C.2   1 <1>  -0.1100 
  4 C        0.4960     3.8150    -0.3530 C.2   1 <1>   0.2880 
  5 C       -1.4060     3.1570    -1.9230 C.2   1 <1>  -0.1500 
  6 C       -1.6160     2.4610    -3.1510 C.2   1 <1>  -0.1500 
  7 N       -0.1440     4.5850     0.4920 N.2   1 <1>  -0.7070 
  8 C        1.8410     3.7100     0.0190 C.2   1 <1>  -0.1500 
  9 N        0.7420     4.9240     1.4370 N.pl3 1 <1>   0.3000 
 10 C        1.9700     4.4560     1.1360 C.2   1 <1>  -0.3320 
 11 C        3.2030     4.7980     1.9370 C.3   1 <1>   0.3890 
 12 N        3.4300     6.2780     1.9060 N.pl3 1 <1>  -0.8380 
 13 C        3.3900     7.0970     0.8080 C.ar  1 <1>   0.7710 
 14 C        4.0090     6.7800     3.2020 C.3   1 <1>   0.1290 
 15 N        3.9680     8.2880     0.8810 N.ar  1 <1>  -0.6200 
 16 N        2.7680     6.7000    -0.3200 N.ar  1 <1>  -0.1790 
 17 C        3.9520     9.0790    -0.1770 C.ar  1 <1>   0.4100 
 18 C        2.6930     7.4840    -1.4190 C.ar  1 <1>   0.2110 
 19 N        4.5900    10.2750    -0.0830 N.pl3 1 <1>  -0.8380 
 20 C        3.2910     8.6960    -1.3600 C.ar  1 <1>  -0.1500 
 21 C        5.2340    10.9900    -1.2350 C.3   1 <1>   0.2090 
 22 C        4.7990    10.9780     1.2210 C.3   1 <1>   0.2090 
 23 C        4.6800    12.4200    -1.3530 C.3   1 <1>   0.2000 
 24 C        4.2370    12.4030     1.1300 C.3   1 <1>  -0.1600 
 25 O        5.3550    13.1010    -2.3500 O.3   1 <1>  -0.6800 
 26 C        4.8390    13.1980    -0.0420 C.3   1 <1>  -0.1600 
 27 H       -0.3040     1.4150    -4.5960 H     1 <1>   0.1500 
 28 H       -2.2290     3.5930    -1.3840 H     1 <1>   0.1500 
 29 H       -2.6040     2.3570    -3.5680 H     1 <1>   0.1500 
 30 H        2.5870     3.1430    -0.5150 H     1 <1>   0.1500 
 31 H        0.4840     5.4970     2.2550 H     1 <1>   0.2700 
 32 H        4.0660     4.2950     1.5330 H     1 <1>   0.0800 
 33 H        3.0670     4.4570     2.9510 H     1 <1>   0.0800 
 34 H        3.5190     6.3180     4.0420 H     1 <1>   0.0800 
 35 H        3.8830     7.8450     3.3020 H     1 <1>   0.0800 
 36 H        5.0610     6.5550     3.2440 H     1 <1>   0.0800 
 37 H        2.2980     5.7950    -0.2630 H     1 <1>   0.4570 
 38 H        2.1620     7.1270    -2.2870 H     1 <1>   0.1500 
 39 H        3.2530     9.3740    -2.1900 H     1 <1>   0.1500 
 40 H        5.0800    10.4650    -2.1590 H     1 <1>   0.0800 
 41 H        6.2940    11.0360    -1.0530 H     1 <1>   0.0800 
 42 H        5.8520    11.0080     1.4420 H     1 <1>   0.0800 
 43 H        4.3040    10.4580     2.0230 H     1 <1>   0.0800 
 44 H        3.6430    12.3740    -1.6390 H     1 <1>   0.0800 
 45 H        4.4360    12.9200     2.0530 H     1 <1>   0.0800 
 46 H        3.1680    12.3430     1.0160 H     1 <1>   0.0800 
 47 H        6.2430    13.3670    -2.0420 H     1 <1>   0.4000 
 48 H        4.3400    14.1480    -0.1250 H     1 <1>   0.0800 
 49 H        5.8820    13.3680     0.1570 H     1 <1>   0.0800 
@<TRIPOS>BOND
  1   1   2  1   
  2   1   3  1   
  3   2   4  1   
  4   2   5  2   
  5   3   6  2   
  6   3  27  1   
  7   4   7  2   
  8   4   8  1   
  9   5   6  1   
 10   5  28  1   
 11   6  29  1   
 12   7   9  1   
 13   8  10  2   
 14   8  30  1   
 15   9  10  1   
 16   9  31  1   
 17  10  11  1   
 18  11  12  1   
 19  11  32  1   
 20  11  33  1   
 21  12  13  1   
 22  12  14  1   
 23  13  15  ar  
 24  13  16  ar  
 25  14  34  1   
 26  14  35  1   
 27  14  36  1   
 28  15  17  ar  
 29  16  18  ar  
 30  16  37  1   
 31  17  19  1   
 32  17  20  ar  
 33  18  20  ar  
 34  18  38  1   
 35  19  21  1   
 36  19  22  1   
 37  20  39  1   
 38  21  23  1   
 39  21  40  1   
 40  21  41  1   
 41  22  24  1   
 42  22  42  1   
 43  22  43  1   
 44  23  25  1   
 45  23  26  1   
 46  23  44  1   
 47  24  26  1   
 48  24  45  1   
 49  24  46  1   
 50  25  47  1   
 51  26  48  1   
 52  26  49  1   
@<TRIPOS>SUBSTRUCTURE
  1 ****  16 GROUP 4 **** **** 0

# MOE 2024.06 (io_trps.svl 2023.06)
