@<TRIPOS>MOLECULE
NONAME
51 52 1 0 0 
SMALL
USER_CHARGES


@<TRIPOS>ATOM
  1 S       -0.1410    -0.3720    -1.9700 S.o2  1 <1>   1.4470 
  2 O        0.3710    -1.6820    -2.3080 O.2   1 <1>  -0.6500 
  3 O       -0.8000     0.3940    -3.0020 O.2   1 <1>  -0.6500 
  4 N       -1.3170    -0.6690    -0.8180 N.am  1 <1>  -0.9140 
  5 C        1.1150     0.6080    -1.0800 C.ar  1 <1>  -0.0090 
  6 C       -0.8510    -1.4650     0.2900 C.3   1 <1>   0.3770 
  7 C        0.9120     1.9200    -0.6390 C.ar  1 <1>  -0.1440 
  8 C        2.3370     0.0050    -0.8070 C.ar  1 <1>  -0.1500 
  9 C       -2.0320    -2.2820     0.7600 C.2   1 <1>  -0.1810 
 10 C        1.9280     2.5840     0.0460 C.ar  1 <1>  -0.1430 
 11 C       -0.4230     2.6140    -0.9280 C.3   1 <1>  -0.0970 
 12 C        3.3610     0.6390    -0.1190 C.ar  1 <1>  -0.1430 
 13 C       -2.4710    -3.4850     0.3270 C.2   1 <1>  -0.3320 
 14 C       -2.9230    -1.9170     1.7610 C.2   1 <1>   0.1390 
 15 C        3.1280     1.9410     0.2990 C.ar  1 <1>  -0.1500 
 16 C        1.7840     4.0210     0.5360 C.3   1 <1>  -0.0970 
 17 C        4.6860    -0.1130     0.1380 C.3   1 <1>   0.1440 
 18 N       -3.5640    -3.7850     1.0660 N.pl3 1 <1>   0.3140 
 19 C       -1.9060    -4.3790    -0.7690 C.3   1 <1>  -0.0600 
 20 N       -3.8400    -2.8140     1.9510 N.2   1 <1>  -0.7070 
 21 C        5.7150     0.7210     0.9220 C.3   1 <1>  -0.2400 
 22 C        4.4070    -1.3850     0.9530 C.3   1 <1>  -0.2400 
 23 C        5.3270    -0.4960    -1.2040 C.3   1 <1>  -0.2400 
 24 C       -4.4020    -4.9870     0.9740 C.3   1 <1>   0.0160 
 25 H       -1.9920    -1.2590    -1.3000 H     1 <1>   0.4200 
 26 H       -0.4860    -0.8260     1.0770 H     1 <1>   0.0800 
 27 H       -0.0620    -2.1400     0.0030 H     1 <1>   0.0800 
 28 H        2.4920    -1.0020    -1.1510 H     1 <1>   0.1500 
 29 H       -1.2490     1.9820    -0.6610 H     1 <1>   0.0800 
 30 H       -0.4920     2.8440    -1.9770 H     1 <1>   0.0800 
 31 H       -0.5500     3.5280    -0.3820 H     1 <1>   0.0800 
 32 H       -2.8720    -0.9980     2.3200 H     1 <1>   0.1500 
 33 H        3.8860     2.4820     0.8320 H     1 <1>   0.1500 
 34 H        1.5250     4.6670    -0.2830 H     1 <1>   0.0800 
 35 H        2.7010     4.3840     0.9630 H     1 <1>   0.0800 
 36 H        1.0190     4.0770     1.2900 H     1 <1>   0.0800 
 37 H       -1.0520    -3.9210    -1.2350 H     1 <1>   0.0800 
 38 H       -2.6500    -4.5520    -1.5260 H     1 <1>   0.0800 
 39 H       -1.6010    -5.3240    -0.3560 H     1 <1>   0.0800 
 40 H        5.3230     0.9980     1.8840 H     1 <1>   0.0800 
 41 H        5.9720     1.6120     0.3770 H     1 <1>   0.0800 
 42 H        6.6170     0.1570     1.0800 H     1 <1>   0.0800 
 43 H        3.9230    -1.1300     1.8790 H     1 <1>   0.0800 
 44 H        5.3240    -1.9000     1.1770 H     1 <1>   0.0800 
 45 H        3.7710    -2.0620     0.4130 H     1 <1>   0.0800 
 46 H        5.4940     0.3860    -1.7960 H     1 <1>   0.0800 
 47 H        4.6950    -1.1610    -1.7630 H     1 <1>   0.0800 
 48 H        6.2710    -0.9870    -1.0480 H     1 <1>   0.0800 
 49 H       -4.8320    -5.0420    -0.0070 H     1 <1>   0.0800 
 50 H       -5.1840    -4.9270     1.7080 H     1 <1>   0.0800 
 51 H       -3.7970    -5.8530     1.1630 H     1 <1>   0.0800 
@<TRIPOS>BOND
  1   1   2  2   
  2   1   3  2   
  3   1   4  am  
  4   1   5  1   
  5   4   6  1   
  6   4  25  1   
  7   5   7  ar  
  8   5   8  ar  
  9   6   9  1   
 10   6  26  1   
 11   6  27  1   
 12   7  10  ar  
 13   7  11  1   
 14   8  12  ar  
 15   8  28  1   
 16   9  13  2   
 17   9  14  1   
 18  10  15  ar  
 19  10  16  1   
 20  11  29  1   
 21  11  30  1   
 22  11  31  1   
 23  12  15  ar  
 24  12  17  1   
 25  13  18  1   
 26  13  19  1   
 27  14  20  2   
 28  14  32  1   
 29  15  33  1   
 30  16  34  1   
 31  16  35  1   
 32  16  36  1   
 33  17  21  1   
 34  17  22  1   
 35  17  23  1   
 36  18  20  1   
 37  18  24  1   
 38  19  37  1   
 39  19  38  1   
 40  19  39  1   
 41  21  40  1   
 42  21  41  1   
 43  21  42  1   
 44  22  43  1   
 45  22  44  1   
 46  22  45  1   
 47  23  46  1   
 48  23  47  1   
 49  23  48  1   
 50  24  49  1   
 51  24  50  1   
 52  24  51  1   
@<TRIPOS>SUBSTRUCTURE
  1 ****   6 GROUP 4 **** **** 0

# MOE 2024.06 (io_trps.svl 2023.06)
