@<TRIPOS>MOLECULE
NONAME
52 54 1 0 0 
SMALL
USER_CHARGES


@<TRIPOS>ATOM
  1 O       -0.4600     1.0310    -1.3840 O.2   1 <1>  -0.5700 
  2 C       -0.5630     2.2250    -1.2260 C.2   1 <1>   0.5690 
  3 N       -1.2580     2.7960    -0.1860 N.am  1 <1>  -0.6600 
  4 C        0.1220     3.1270    -2.2510 C.3   1 <1>   0.1810 
  5 C       -1.3220     4.2910    -0.0430 C.3   1 <1>   0.3640 
  6 C       -1.8500     2.0340     0.9510 C.3   1 <1>   0.2200 
  7 O        0.5140     4.3530    -1.6940 O.3   1 <1>  -0.5600 
  8 C       -2.7800     4.7530    -0.0020 C.ar  1 <1>  -0.1440 
  9 C       -0.5610     5.0840    -1.1350 C.3   1 <1>   0.2610 
 10 C       -0.7480     1.3400     1.7490 C.3   1 <1>  -0.2400 
 11 C       -2.9170     1.0490     0.4700 C.3   1 <1>  -0.2400 
 12 C       -3.1940     5.6530     0.9700 C.ar  1 <1>  -0.1500 
 13 C       -3.7040     4.2920    -0.9310 C.ar  1 <1>  -0.1500 
 14 C       -0.1030     6.4320    -0.5560 C.2   1 <1>   0.5690 
 15 C       -4.5090     6.0820     1.0160 C.ar  1 <1>  -0.1500 
 16 C       -5.0190     4.7190    -0.8850 C.ar  1 <1>  -0.1500 
 17 O       -0.7450     7.4060    -0.8780 O.2   1 <1>  -0.5700 
 18 N        0.9640     6.5530     0.3110 N.am  1 <1>  -0.6600 
 19 C       -5.4230     5.6140     0.0890 C.ar  1 <1>  -0.1500 
 20 C        1.3960     7.8980     0.7900 C.3   1 <1>   0.2840 
 21 C        1.9080     5.4460     0.6520 C.3   1 <1>   0.0600 
 22 C        2.6950     8.3020     0.1150 C.ar  1 <1>  -0.1440 
 23 C        2.7230     8.5150    -1.2560 C.ar  1 <1>   0.1600 
 24 C        3.8600     8.4670     0.8380 C.ar  1 <1>  -0.1500 
 25 N        3.7960     8.8720    -1.9460 N.ar  1 <1>  -0.6200 
 26 C        4.9860     8.8380     0.1340 C.ar  1 <1>  -0.1500 
 27 C        4.9010     9.0240    -1.2350 C.ar  1 <1>   0.1600 
 28 H       -0.5400     3.3150    -3.0760 H     1 <1>   0.0800 
 29 H        1.0060     2.6380    -2.6190 H     1 <1>   0.0800 
 30 H       -0.8740     4.5320     0.9050 H     1 <1>   0.0800 
 31 H       -2.3400     2.7280     1.6150 H     1 <1>   0.0800 
 32 H       -1.2390     5.3000    -1.9420 H     1 <1>   0.0800 
 33 H       -0.2710     0.5770     1.1600 H     1 <1>   0.0800 
 34 H       -1.1700     0.8730     2.6210 H     1 <1>   0.0800 
 35 H       -0.0120     2.0540     2.0680 H     1 <1>   0.0800 
 36 H       -2.4860     0.2640    -0.1230 H     1 <1>   0.0800 
 37 H       -3.6640     1.5610    -0.1060 H     1 <1>   0.0800 
 38 H       -3.3990     0.5980     1.3180 H     1 <1>   0.0800 
 39 H       -2.4960     6.0350     1.6960 H     1 <1>   0.1500 
 40 H       -3.4060     3.5930    -1.6920 H     1 <1>   0.1500 
 41 H       -4.8220     6.7810     1.7710 H     1 <1>   0.1500 
 42 H       -5.7290     4.3550    -1.6080 H     1 <1>   0.1500 
 43 H       -6.4450     5.9480     0.1240 H     1 <1>   0.1500 
 44 H        0.6450     8.6410     0.5820 H     1 <1>   0.0800 
 45 H        1.5270     7.8650     1.8570 H     1 <1>   0.0800 
 46 H        2.3380     5.6110     1.6250 H     1 <1>   0.0800 
 47 H        2.7000     5.4150    -0.0780 H     1 <1>   0.0800 
 48 H        1.4090     4.4940     0.6610 H     1 <1>   0.0800 
 49 H        1.8110     8.3820    -1.8150 H     1 <1>   0.1500 
 50 H        3.8970     8.3160     1.9030 H     1 <1>   0.1500 
 51 H        5.9250     8.9830     0.6380 H     1 <1>   0.1500 
 52 H        5.7870     9.3150    -1.7730 H     1 <1>   0.1500 
@<TRIPOS>BOND
  1   1   2  2   
  2   2   3  am  
  3   2   4  1   
  4   3   5  1   
  5   3   6  1   
  6   4   7  1   
  7   4  28  1   
  8   4  29  1   
  9   5   8  1   
 10   5   9  1   
 11   5  30  1   
 12   6  10  1   
 13   6  11  1   
 14   6  31  1   
 15   7   9  1   
 16   8  12  ar  
 17   8  13  ar  
 18   9  14  1   
 19   9  32  1   
 20  10  33  1   
 21  10  34  1   
 22  10  35  1   
 23  11  36  1   
 24  11  37  1   
 25  11  38  1   
 26  12  15  ar  
 27  12  39  1   
 28  13  16  ar  
 29  13  40  1   
 30  14  17  2   
 31  14  18  am  
 32  15  19  ar  
 33  15  41  1   
 34  16  19  ar  
 35  16  42  1   
 36  18  20  1   
 37  18  21  1   
 38  19  43  1   
 39  20  22  1   
 40  20  44  1   
 41  20  45  1   
 42  21  46  1   
 43  21  47  1   
 44  21  48  1   
 45  22  23  ar  
 46  22  24  ar  
 47  23  25  ar  
 48  23  49  1   
 49  24  26  ar  
 50  24  50  1   
 51  25  27  ar  
 52  26  27  ar  
 53  26  51  1   
 54  27  52  1   
@<TRIPOS>SUBSTRUCTURE
  1 ****   9 GROUP 4 **** **** 0

# MOE 2024.06 (io_trps.svl 2023.06)
