@<TRIPOS>MOLECULE
NONAME
42 45 1 0 0 
SMALL
USER_CHARGES


@<TRIPOS>ATOM
  1 O        0.0920    -0.0860    -0.2600 O.2   1 <1>  -0.5700 
  2 C        1.1540    -0.6420    -0.0560 C.2   1 <1>   0.5440 
  3 N        2.3180     0.0900     0.0330 N.am  1 <1>  -0.4940 
  4 C        1.2090    -2.0850     0.0670 C.ar  1 <1>   0.0860 
  5 C        2.5120     1.4960     0.0220 C.2   1 <1>  -0.0880 
  6 C        0.3440    -2.9010    -0.6620 C.ar  1 <1>  -0.1500 
  7 C        2.1200    -2.7260     0.9080 C.ar  1 <1>  -0.1500 
  8 N        3.7240     2.1200     0.0350 N.pl3 1 <1>   0.3140 
  9 C        1.5830     2.4800    -0.0050 C.2   1 <1>  -0.1500 
 10 C        0.3950    -4.2790    -0.5730 C.ar  1 <1>  -0.1500 
 11 C        2.1720    -4.1040     0.9960 C.ar  1 <1>  -0.1500 
 12 N        3.5810     3.4700     0.0140 N.2   1 <1>  -0.7070 
 13 C        5.0530     1.4390     0.0500 C.3   1 <1>   0.1760 
 14 C        2.3000     3.6670    -0.0090 C.2   1 <1>   0.1390 
 15 C        1.3130    -4.9190     0.2610 C.ar  1 <1>   0.0530 
 16 C        6.2260     2.3060     0.5120 C.3   1 <1>  -0.1600 
 17 C        5.4800     0.9640    -1.3400 C.3   1 <1>  -0.1600 
 18 C        1.3870    -6.3570     0.3760 C.2   1 <1>   0.1340 
 19 C        7.4620     1.5770    -0.0150 C.3   1 <1>  -0.1600 
 20 C        7.0080     0.8420    -1.2830 C.3   1 <1>  -0.1600 
 21 N        2.4280    -7.0410     0.7600 N.2   1 <1>  -0.3380 
 22 N        0.3760    -7.1950     0.1100 N.pl3 1 <1>   0.0330 
 23 N        2.1010    -8.3310     0.7420 N.2   1 <1>  -0.3380 
 24 C        0.8760    -8.4000     0.3530 C.2   1 <1>   0.0360 
 25 H        3.1620    -0.4780     0.0630 H     1 <1>   0.3700 
 26 H       -0.3770    -2.4330    -1.3130 H     1 <1>   0.1500 
 27 H        2.7930    -2.1440     1.5120 H     1 <1>   0.1500 
 28 H        0.5120     2.3880    -0.0220 H     1 <1>   0.1500 
 29 H       -0.2860    -4.8590    -1.1690 H     1 <1>   0.1500 
 30 H        2.8890    -4.5690     1.6530 H     1 <1>   0.1500 
 31 H        4.9880     0.5910     0.7070 H     1 <1>   0.0800 
 32 H        1.8520     4.6460    -0.0300 H     1 <1>   0.1500 
 33 H        6.2470     2.4200     1.5810 H     1 <1>   0.0800 
 34 H        6.1750     3.2770     0.0480 H     1 <1>   0.0800 
 35 H        5.2170     1.7160    -2.0660 H     1 <1>   0.0800 
 36 H        5.0160     0.0320    -1.6070 H     1 <1>   0.0800 
 37 H        7.7970     0.8610     0.7150 H     1 <1>   0.0800 
 38 H        8.2640     2.2660    -0.2200 H     1 <1>   0.0800 
 39 H        7.4480     1.2880    -2.1600 H     1 <1>   0.0800 
 40 H        7.3070    -0.1920    -1.2360 H     1 <1>   0.0800 
 41 H       -0.5660    -6.9500    -0.1940 H     1 <1>   0.2700 
 42 H        0.3190    -9.3130     0.2390 H     1 <1>   0.1500 
@<TRIPOS>BOND
  1   1   2  2   
  2   2   3  am  
  3   2   4  1   
  4   3   5  1   
  5   3  25  1   
  6   4   6  ar  
  7   4   7  ar  
  8   5   8  1   
  9   5   9  2   
 10   6  10  ar  
 11   6  26  1   
 12   7  11  ar  
 13   7  27  1   
 14   8  12  1   
 15   8  13  1   
 16   9  14  1   
 17   9  28  1   
 18  10  15  ar  
 19  10  29  1   
 20  11  15  ar  
 21  11  30  1   
 22  12  14  2   
 23  13  16  1   
 24  13  17  1   
 25  13  31  1   
 26  14  32  1   
 27  15  18  1   
 28  16  19  1   
 29  16  33  1   
 30  16  34  1   
 31  17  20  1   
 32  17  35  1   
 33  17  36  1   
 34  18  21  2   
 35  18  22  1   
 36  19  20  1   
 37  19  37  1   
 38  19  38  1   
 39  20  39  1   
 40  20  40  1   
 41  21  23  1   
 42  22  24  1   
 43  22  41  1   
 44  23  24  2   
 45  24  42  1   
@<TRIPOS>SUBSTRUCTURE
  1 ****   4 GROUP 4 **** **** 0

# MOE 2024.06 (io_trps.svl 2023.06)
