@<TRIPOS>MOLECULE
NONAME
43 46 1 0 0 
SMALL
USER_CHARGES


@<TRIPOS>ATOM
  1 F       -2.6000     2.9360    -0.6130 F     1 <1>  -0.1900 
  2 C       -3.2850     2.0950     0.1140 C.ar  1 <1>   0.1900 
  3 C       -3.3670     2.2850     1.4820 C.ar  1 <1>   0.1600 
  4 C       -3.9140     1.0380    -0.5000 C.ar  1 <1>  -0.1500 
  5 N       -4.0410     1.4770     2.2910 N.ar  1 <1>  -0.6200 
  6 C       -4.6350     0.1830     0.3220 C.ar  1 <1>   0.0860 
  7 C       -4.6420     0.4550     1.6920 C.ar  1 <1>   0.1600 
  8 C       -5.3510    -0.9530    -0.2120 C.2   1 <1>   0.5440 
  9 O       -4.7540    -1.7420    -0.9180 O.2   1 <1>  -0.5700 
 10 N       -6.6910    -1.1550     0.0420 N.am  1 <1>  -0.6600 
 11 C       -7.6350    -0.0760     0.4760 C.3   1 <1>   0.1400 
 12 C       -7.3830    -2.4170    -0.3440 C.3   1 <1>   0.1400 
 13 C       -8.6060     0.2790    -0.6670 C.3   1 <1>   0.1430 
 14 C       -8.3650    -2.1400    -1.4890 C.3   1 <1>  -0.1600 
 15 C       -9.6170     1.3120    -0.2050 C.ar  1 <1>   0.1670 
 16 C       -9.3380    -0.9920    -1.1550 C.3   1 <1>  -0.1600 
 17 C       -7.8920     1.0180    -1.8320 C.3   1 <1>  -0.1600 
 18 N      -10.3080     1.2540     0.9130 N.ar  1 <1>  -0.6200 
 19 C       -9.7360     2.3350    -1.0970 C.ar  1 <1>  -0.1430 
 20 C       -8.8320     2.1480    -2.2880 C.3   1 <1>  -0.0170 
 21 C      -11.1320     2.2760     1.0990 C.ar  1 <1>   0.4770 
 22 C      -10.6210     3.3420    -0.8020 C.ar  1 <1>   0.1600 
 23 N      -11.3310     3.3210     0.3070 N.ar  1 <1>  -0.6200 
 24 C      -11.9490     2.2550     2.3680 C.3   1 <1>  -0.0970 
 25 H       -2.8600     3.1270     1.9210 H     1 <1>   0.1500 
 26 H       -3.8490     0.8770    -1.5620 H     1 <1>   0.1500 
 27 H       -5.1870    -0.2230     2.3290 H     1 <1>   0.1500 
 28 H       -7.1110     0.8110     0.7820 H     1 <1>   0.0800 
 29 H       -8.1990    -0.4290     1.3230 H     1 <1>   0.0800 
 30 H       -7.9170    -2.7980     0.5100 H     1 <1>   0.0800 
 31 H       -6.6700    -3.1650    -0.6480 H     1 <1>   0.0800 
 32 H       -8.9250    -3.0350    -1.6940 H     1 <1>   0.0800 
 33 H       -7.7990    -1.9080    -2.3740 H     1 <1>   0.0800 
 34 H       -9.9430    -0.7620    -2.0140 H     1 <1>   0.0800 
 35 H      -10.0010    -1.3240    -0.3740 H     1 <1>   0.0800 
 36 H       -7.6340     0.3660    -2.6460 H     1 <1>   0.0800 
 37 H       -6.9860     1.4680    -1.4670 H     1 <1>   0.0800 
 38 H       -9.4140     1.8380    -3.1390 H     1 <1>   0.0800 
 39 H       -8.2870     3.0460    -2.5230 H     1 <1>   0.0800 
 40 H      -10.7500     4.1710    -1.4760 H     1 <1>   0.1500 
 41 H      -11.7330     1.3730     2.9440 H     1 <1>   0.0800 
 42 H      -12.9940     2.2640     2.1200 H     1 <1>   0.0800 
 43 H      -11.7190     3.1230     2.9550 H     1 <1>   0.0800 
@<TRIPOS>BOND
  1   1   2  1   
  2   2   3  ar  
  3   2   4  ar  
  4   3   5  ar  
  5   3  25  1   
  6   4   6  ar  
  7   4  26  1   
  8   5   7  ar  
  9   6   7  ar  
 10   6   8  1   
 11   7  27  1   
 12   8   9  2   
 13   8  10  am  
 14  10  11  1   
 15  10  12  1   
 16  11  13  1   
 17  11  28  1   
 18  11  29  1   
 19  12  14  1   
 20  12  30  1   
 21  12  31  1   
 22  13  15  1   
 23  13  16  1   
 24  13  17  1   
 25  14  16  1   
 26  14  32  1   
 27  14  33  1   
 28  15  18  ar  
 29  15  19  ar  
 30  16  34  1   
 31  16  35  1   
 32  17  20  1   
 33  17  36  1   
 34  17  37  1   
 35  18  21  ar  
 36  19  20  1   
 37  19  22  ar  
 38  20  38  1   
 39  20  39  1   
 40  21  23  ar  
 41  21  24  1   
 42  22  23  ar  
 43  22  40  1   
 44  24  41  1   
 45  24  42  1   
 46  24  43  1   
@<TRIPOS>SUBSTRUCTURE
  1 ****  11 GROUP 4 **** **** 0

# MOE 2024.06 (io_trps.svl 2023.06)
