@<TRIPOS>MOLECULE
NONAME
51 54 1 0 0 
SMALL
USER_CHARGES


@<TRIPOS>ATOM
  1 O       -2.0620     2.1190    -0.1510 O.2   1 <1>  -0.5700 
  2 C       -1.3300     3.0270     0.1490 C.2   1 <1>   0.5690 
  3 N       -1.6450     4.2990    -0.1790 N.am  1 <1>  -0.7300 
  4 C       -0.0110     2.7410     0.8770 C.3   1 <1>   0.1810 
  5 C       -0.8230     5.4680     0.2190 C.3   1 <1>   0.3640 
  6 O        0.5500     3.8840     1.4910 O.3   1 <1>  -0.5600 
  7 C       -0.7040     6.4290    -0.9550 C.ar  1 <1>  -0.1440 
  8 C        0.5940     5.0400     0.6710 C.3   1 <1>   0.2610 
  9 C       -0.4620     5.9680    -2.2430 C.ar  1 <1>   0.1600 
 10 C       -0.7890     7.7920    -0.7470 C.ar  1 <1>  -0.1500 
 11 C        1.3030     6.2080     1.3850 C.2   1 <1>   0.5690 
 12 N       -0.2740     6.7360    -3.3030 N.ar  1 <1>  -0.6200 
 13 C       -0.6000     8.6070    -1.8410 C.ar  1 <1>  -0.1500 
 14 O        0.6520     6.8610     2.1730 O.2   1 <1>  -0.5700 
 15 N        2.6200     6.5280     1.1270 N.am  1 <1>  -0.6600 
 16 C       -0.3400     8.0390    -3.0750 C.ar  1 <1>   0.1600 
 17 C        3.2820     7.6800     1.8220 C.3   1 <1>   0.1400 
 18 C        3.4840     5.8060     0.1550 C.3   1 <1>   0.1400 
 19 C        3.8760     8.7470     0.8780 C.3   1 <1>   0.1400 
 20 C        3.2980     6.3850    -1.2540 C.3   1 <1>  -0.1600 
 21 N        3.2850     8.7660    -0.4970 N.am  1 <1>  -0.6600 
 22 C        3.8890     7.7850    -1.4440 C.3   1 <1>   0.1400 
 23 C        2.4430     9.7680    -0.9400 C.2   1 <1>   0.7160 
 24 O        2.3180     9.9560    -2.1370 O.2   1 <1>  -0.5700 
 25 C        1.7220    10.6340    -0.0370 C.2   1 <1>  -0.0860 
 26 C        1.5360    11.9760    -0.1500 C.2   1 <1>  -0.0100 
 27 C        1.0220    10.2940     1.1410 C.2   1 <1>  -0.1500 
 28 O        0.8240    12.4510     0.8430 O.3   1 <1>  -0.2800 
 29 C        0.5070    11.4420     1.6260 C.2   1 <1>  -0.0100 
 30 H       -2.5490     4.4820    -0.6190 H     1 <1>   0.3700 
 31 H        0.7040     2.3470     0.1790 H     1 <1>   0.0800 
 32 H       -0.1820     2.0100     1.6460 H     1 <1>   0.0800 
 33 H       -1.3240     5.9610     1.0350 H     1 <1>   0.0800 
 34 H        1.1470     4.7770    -0.2080 H     1 <1>   0.0800 
 35 H       -0.4100     4.9060    -2.4170 H     1 <1>   0.1500 
 36 H       -0.9780     8.2110     0.2270 H     1 <1>   0.1500 
 37 H       -0.6410     9.6770    -1.7430 H     1 <1>   0.1500 
 38 H       -0.1750     8.6920    -3.9160 H     1 <1>   0.1500 
 39 H        2.5860     8.1650     2.4810 H     1 <1>   0.0800 
 40 H        4.0670     7.2990     2.4510 H     1 <1>   0.0800 
 41 H        4.5160     5.8890     0.4530 H     1 <1>   0.0800 
 42 H        3.2390     4.7580     0.1600 H     1 <1>   0.0800 
 43 H        4.9340     8.5730     0.7940 H     1 <1>   0.0800 
 44 H        3.7700     9.7140     1.3390 H     1 <1>   0.0800 
 45 H        3.7850     5.7290    -1.9530 H     1 <1>   0.0800 
 46 H        2.2570     6.4090    -1.5190 H     1 <1>   0.0800 
 47 H        3.7190     8.0910    -2.4620 H     1 <1>   0.0800 
 48 H        4.9550     7.7560    -1.2970 H     1 <1>   0.0800 
 49 H        1.8850    12.6470    -0.9160 H     1 <1>   0.1500 
 50 H        0.9250     9.3030     1.5410 H     1 <1>   0.1500 
 51 H       -0.0920    11.6300     2.5000 H     1 <1>   0.1500 
@<TRIPOS>BOND
  1   1   2  2   
  2   2   3  am  
  3   2   4  1   
  4   3   5  1   
  5   3  30  1   
  6   4   6  1   
  7   4  31  1   
  8   4  32  1   
  9   5   7  1   
 10   5   8  1   
 11   5  33  1   
 12   6   8  1   
 13   7   9  ar  
 14   7  10  ar  
 15   8  11  1   
 16   8  34  1   
 17   9  12  ar  
 18   9  35  1   
 19  10  13  ar  
 20  10  36  1   
 21  11  14  2   
 22  11  15  am  
 23  12  16  ar  
 24  13  16  ar  
 25  13  37  1   
 26  15  17  1   
 27  15  18  1   
 28  16  38  1   
 29  17  19  1   
 30  17  39  1   
 31  17  40  1   
 32  18  20  1   
 33  18  41  1   
 34  18  42  1   
 35  19  21  1   
 36  19  43  1   
 37  19  44  1   
 38  20  22  1   
 39  20  45  1   
 40  20  46  1   
 41  21  22  1   
 42  21  23  am  
 43  22  47  1   
 44  22  48  1   
 45  23  24  2   
 46  23  25  1   
 47  25  26  2   
 48  25  27  1   
 49  26  28  1   
 50  26  49  1   
 51  27  29  2   
 52  27  50  1   
 53  28  29  1   
 54  29  51  1   
@<TRIPOS>SUBSTRUCTURE
  1 ****  11 GROUP 4 **** **** 0

# MOE 2024.06 (io_trps.svl 2023.06)
