@<TRIPOS>MOLECULE
NONAME
51 53 1 0 0 
SMALL
USER_CHARGES


@<TRIPOS>ATOM
  1 O        1.0530     3.6160    -1.5280 O.2   1 <1>  -0.5700 
  2 C        0.0430     4.2580    -1.3550 C.2   1 <1>   0.5690 
  3 N       -0.7620     4.1030    -0.2630 N.am  1 <1>  -0.6600 
  4 C       -0.3630     5.2960    -2.4050 C.3   1 <1>   0.1810 
  5 C       -1.9170     5.0460    -0.1170 C.3   1 <1>   0.3640 
  6 C       -0.4120     3.1850     0.8500 C.3   1 <1>   0.2200 
  7 O       -0.8350     6.5110    -1.8560 O.3   1 <1>  -0.5600 
  8 C       -3.1820     4.5450    -0.8310 C.ar  1 <1>  -0.1440 
  9 C       -1.5110     6.4660    -0.5940 C.3   1 <1>   0.2610 
 10 C       -1.6170     2.3360     1.2580 C.3   1 <1>  -0.2400 
 11 C        0.1390     3.9860     2.0300 C.3   1 <1>  -0.2400 
 12 C       -4.3830     5.1900    -0.5610 C.ar  1 <1>  -0.1500 
 13 C       -3.1920     3.4750    -1.7220 C.ar  1 <1>  -0.1500 
 14 C       -0.6630     7.1090     0.5050 C.2   1 <1>   0.5690 
 15 C       -5.5580     4.7920    -1.1740 C.ar  1 <1>  -0.1500 
 16 C       -4.3660     3.0760    -2.3360 C.ar  1 <1>  -0.1500 
 17 O       -1.1720     7.3310     1.5790 O.2   1 <1>  -0.5700 
 18 N        0.6410     7.3990     0.2650 N.am  1 <1>  -0.7300 
 19 C       -5.5510     3.7350    -2.0650 C.ar  1 <1>  -0.1500 
 20 C        1.6270     7.8370     1.2670 C.3   1 <1>   0.2350 
 21 C        3.0560     7.4100     0.8660 C.3   1 <1>  -0.1900 
 22 C        3.3110     6.1340     0.1190 C.3   1 <1>  -0.2000 
 23 C        3.4920     7.4650    -0.5680 C.3   1 <1>  -0.2000 
 24 C        4.0730     7.8330     1.9320 C.3   1 <1>   0.2150 
 25 O        3.8250     7.1010     3.0750 O.3   1 <1>  -0.6800 
 26 H       -1.1430     4.8900    -3.0210 H     1 <1>   0.0800 
 27 H        0.4810     5.5260    -3.0300 H     1 <1>   0.0800 
 28 H       -2.1720     5.1180     0.9260 H     1 <1>   0.0800 
 29 H        0.3620     2.5130     0.5140 H     1 <1>   0.0800 
 30 H       -2.3930     7.0690    -0.6980 H     1 <1>   0.0800 
 31 H       -2.4050     2.9380     1.6710 H     1 <1>   0.0800 
 32 H       -1.3170     1.6220     2.0040 H     1 <1>   0.0800 
 33 H       -1.9890     1.7940     0.4080 H     1 <1>   0.0800 
 34 H       -0.6100     4.6240     2.4610 H     1 <1>   0.0800 
 35 H        0.9730     4.5850     1.7090 H     1 <1>   0.0800 
 36 H        0.4850     3.3130     2.7930 H     1 <1>   0.0800 
 37 H       -4.4170     6.0120     0.1340 H     1 <1>   0.1500 
 38 H       -2.2930     2.9310    -1.9480 H     1 <1>   0.1500 
 39 H       -6.4800     5.3040    -0.9570 H     1 <1>   0.1500 
 40 H       -4.3580     2.2480    -3.0240 H     1 <1>   0.1500 
 41 H        1.0150     7.2120    -0.6680 H     1 <1>   0.3700 
 42 H       -6.4640     3.4240    -2.5430 H     1 <1>   0.1500 
 43 H        1.5790     8.9090     1.3570 H     1 <1>   0.0800 
 44 H        1.3690     7.4110     2.2230 H     1 <1>   0.0800 
 45 H        4.1920     5.5560     0.3390 H     1 <1>   0.1000 
 46 H        2.4870     5.5080    -0.1750 H     1 <1>   0.1000 
 47 H        2.7940     7.7430    -1.3390 H     1 <1>   0.1000 
 48 H        4.4930     7.7810    -0.8040 H     1 <1>   0.1000 
 49 H        3.9840     8.8790     2.1720 H     1 <1>   0.0800 
 50 H        5.0810     7.6250     1.6160 H     1 <1>   0.0800 
 51 H        3.7780     6.1530     2.8440 H     1 <1>   0.4000 
@<TRIPOS>BOND
  1   1   2  2   
  2   2   3  am  
  3   2   4  1   
  4   3   5  1   
  5   3   6  1   
  6   4   7  1   
  7   4  26  1   
  8   4  27  1   
  9   5   8  1   
 10   5   9  1   
 11   5  28  1   
 12   6  10  1   
 13   6  11  1   
 14   6  29  1   
 15   7   9  1   
 16   8  12  ar  
 17   8  13  ar  
 18   9  14  1   
 19   9  30  1   
 20  10  31  1   
 21  10  32  1   
 22  10  33  1   
 23  11  34  1   
 24  11  35  1   
 25  11  36  1   
 26  12  15  ar  
 27  12  37  1   
 28  13  16  ar  
 29  13  38  1   
 30  14  17  2   
 31  14  18  am  
 32  15  19  ar  
 33  15  39  1   
 34  16  19  ar  
 35  16  40  1   
 36  18  20  1   
 37  18  41  1   
 38  19  42  1   
 39  20  21  1   
 40  20  43  1   
 41  20  44  1   
 42  21  22  1   
 43  21  23  1   
 44  21  24  1   
 45  22  23  1   
 46  22  45  1   
 47  22  46  1   
 48  23  47  1   
 49  23  48  1   
 50  24  25  1   
 51  24  49  1   
 52  24  50  1   
 53  25  51  1   
@<TRIPOS>SUBSTRUCTURE
  1 ****   3 GROUP 4 **** **** 0

# MOE 2024.06 (io_trps.svl 2023.06)
