@<TRIPOS>MOLECULE
NONAME
52 55 1 0 0 
SMALL
USER_CHARGES


@<TRIPOS>ATOM
  1 O       -0.2640    -0.0180    -2.2840 O.2   1 <1>  -0.5700 
  2 C       -1.0320     0.7700    -1.7840 C.2   1 <1>   0.5690 
  3 N       -2.1540     0.3490    -1.1200 N.am  1 <1>  -0.6600 
  4 C       -0.7250     2.2560    -1.9150 C.3   1 <1>   0.0820 
  5 C       -3.1700     1.2120    -0.4600 C.3   1 <1>   0.1400 
  6 C       -2.4210    -1.0820    -0.8370 C.3   1 <1>   0.1400 
  7 C       -0.3150     2.8990    -0.5950 C.2   1 <1>  -0.1810 
  8 C       -4.1840     0.2360     0.1380 C.3   1 <1>   0.2000 
  9 C       -3.4220    -1.0730     0.3190 C.3   1 <1>  -0.0800 
 10 C       -0.2400     4.2900    -0.3310 C.ar  1 <1>   0.0000 
 11 C        0.0400     2.2760     0.5460 C.2   1 <1>  -0.0100 
 12 O       -4.6680     0.6850     1.3550 O.3   1 <1>  -0.6800 
 13 C       -4.3310    -2.3110     0.3560 C.3   1 <1>   0.0210 
 14 C       -0.4480     5.4850    -1.0350 C.ar  1 <1>  -0.1430 
 15 C        0.1520     4.3610     0.9980 C.ar  1 <1>   0.1400 
 16 O        0.3160     3.1420     1.5100 O.3   1 <1>  -0.2800 
 17 C       -3.5110    -3.5850     0.4080 C.2   1 <1>   0.1080 
 18 C       -0.2660     6.6870    -0.3740 C.ar  1 <1>  -0.1500 
 19 C       -0.8600     5.4840    -2.4970 C.3   1 <1>  -0.0970 
 20 C        0.3360     5.5660     1.6600 C.ar  1 <1>  -0.1500 
 21 N       -2.6410    -3.8240     1.3390 N.2   1 <1>  -0.7070 
 22 C       -3.5830    -4.6180    -0.5210 C.2   1 <1>  -0.1500 
 23 C        0.1220     6.7390     0.9670 C.ar  1 <1>  -0.1430 
 24 N       -2.1280    -5.0290     1.0250 N.pl3 1 <1>   0.3000 
 25 C       -2.6820    -5.5290    -0.0990 C.2   1 <1>  -0.3320 
 26 C        0.3070     8.0870     1.6390 C.3   1 <1>  -0.0970 
 27 C       -2.3100    -6.8680    -0.7090 C.3   1 <1>  -0.0600 
 28 H        0.0690     2.3840    -2.6270 H     1 <1>   0.0800 
 29 H       -1.5990     2.7410    -2.3010 H     1 <1>   0.0800 
 30 H       -2.7020     1.7930     0.3150 H     1 <1>   0.0800 
 31 H       -3.6420     1.8580    -1.1780 H     1 <1>   0.0800 
 32 H       -2.8440    -1.5400    -1.7140 H     1 <1>   0.0800 
 33 H       -1.5160    -1.6010    -0.5670 H     1 <1>   0.0800 
 34 H       -5.0150     0.1180    -0.5360 H     1 <1>   0.0800 
 35 H       -2.8480    -1.0330     1.2290 H     1 <1>   0.0800 
 36 H        0.1230     1.2260     0.7710 H     1 <1>   0.1500 
 37 H       -3.9530     0.6930     2.0220 H     1 <1>   0.4000 
 38 H       -4.9660    -2.3310    -0.5110 H     1 <1>   0.0800 
 39 H       -4.9580    -2.2680     1.2290 H     1 <1>   0.0800 
 40 H       -0.4240     7.6140    -0.8960 H     1 <1>   0.1500 
 41 H       -0.8500     6.4810    -2.8990 H     1 <1>   0.0800 
 42 H       -1.8550     5.0900    -2.5990 H     1 <1>   0.0800 
 43 H       -0.1770     4.8860    -3.0730 H     1 <1>   0.0800 
 44 H        0.6380     5.5550     2.6910 H     1 <1>   0.1500 
 45 H       -4.2260    -4.6550    -1.3820 H     1 <1>   0.1500 
 46 H       -1.4030    -5.4790     1.5960 H     1 <1>   0.2700 
 47 H        1.0620     8.6530     1.1230 H     1 <1>   0.0800 
 48 H        0.6090     7.9680     2.6640 H     1 <1>   0.0800 
 49 H       -0.6170     8.6370     1.6160 H     1 <1>   0.0800 
 50 H       -2.8900    -7.0420    -1.5990 H     1 <1>   0.0800 
 51 H       -2.5070    -7.6620    -0.0120 H     1 <1>   0.0800 
 52 H       -1.2680    -6.8800    -0.9730 H     1 <1>   0.0800 
@<TRIPOS>BOND
  1   1   2  2   
  2   2   3  am  
  3   2   4  1   
  4   3   5  1   
  5   3   6  1   
  6   4   7  1   
  7   4  28  1   
  8   4  29  1   
  9   5   8  1   
 10   5  30  1   
 11   5  31  1   
 12   6   9  1   
 13   6  32  1   
 14   6  33  1   
 15   7  10  1   
 16   7  11  2   
 17   8   9  1   
 18   8  12  1   
 19   8  34  1   
 20   9  13  1   
 21   9  35  1   
 22  10  14  ar  
 23  10  15  ar  
 24  11  16  1   
 25  11  36  1   
 26  12  37  1   
 27  13  17  1   
 28  13  38  1   
 29  13  39  1   
 30  14  18  ar  
 31  14  19  1   
 32  15  16  1   
 33  15  20  ar  
 34  17  21  2   
 35  17  22  1   
 36  18  23  ar  
 37  18  40  1   
 38  19  41  1   
 39  19  42  1   
 40  19  43  1   
 41  20  23  ar  
 42  20  44  1   
 43  21  24  1   
 44  22  25  2   
 45  22  45  1   
 46  23  26  1   
 47  24  25  1   
 48  24  46  1   
 49  25  27  1   
 50  26  47  1   
 51  26  48  1   
 52  26  49  1   
 53  27  50  1   
 54  27  51  1   
 55  27  52  1   
@<TRIPOS>SUBSTRUCTURE
  1 ****   3 GROUP 4 **** **** 0

# MOE 2024.06 (io_trps.svl 2023.06)
