@<TRIPOS>MOLECULE
NONAME
48 50 1 0 0 
SMALL
USER_CHARGES


@<TRIPOS>ATOM
  1 O        0.4100    -0.3890     0.7560 O.2   1 <1>  -0.5700 
  2 C       -0.3880     0.4780     0.4860 C.2   1 <1>   0.5690 
  3 N       -1.7050     0.1770     0.2560 N.am  1 <1>  -0.6600 
  4 C        0.1000     1.9240     0.4530 C.3   1 <1>   0.1810 
  5 C       -2.7890     1.1420    -0.0630 C.3   1 <1>   0.1400 
  6 C       -2.2260    -1.2110     0.2160 C.3   1 <1>   0.1400 
  7 O       -0.1970     2.5460    -0.7900 O.3   1 <1>  -0.3620 
  8 C       -4.0720     0.3640     0.2180 C.3   1 <1>   0.2000 
  9 C       -3.7050    -1.0730    -0.1660 C.3   1 <1>  -0.0800 
 10 C       -0.3810     3.8930    -0.8790 C.ar  1 <1>   0.0830 
 11 O       -4.3220     0.4320     1.5810 O.3   1 <1>  -0.6800 
 12 C       -4.6050    -2.1710     0.4280 C.3   1 <1>   0.0210 
 13 C        0.2430     4.8580    -0.0700 C.ar  1 <1>   0.0830 
 14 C       -1.2640     4.2970    -1.8670 C.ar  1 <1>  -0.1500 
 15 C       -4.1420    -3.5450    -0.0150 C.2   1 <1>   0.1080 
 16 O        1.1520     4.4700     0.8730 O.3   1 <1>  -0.3630 
 17 C       -0.0710     6.2020    -0.2610 C.ar  1 <1>  -0.1500 
 18 C       -1.5600     5.6350    -2.0520 C.ar  1 <1>  -0.1500 
 19 N       -4.1240    -3.9150    -1.2590 N.2   1 <1>  -0.7070 
 20 C       -3.6790    -4.5420     0.8360 C.2   1 <1>  -0.1500 
 21 C        2.0190     5.3940     1.4950 C.3   1 <1>   0.0400 
 22 C       -0.9660     6.5860    -1.2440 C.ar  1 <1>  -0.1500 
 23 N       -3.6450    -5.1720    -1.2320 N.pl3 1 <1>   0.3000 
 24 C       -3.3670    -5.5750     0.0250 C.2   1 <1>  -0.3320 
 25 C       -2.8100    -6.9410     0.3800 C.3   1 <1>  -0.0600 
 26 H        1.1650     1.9500     0.5910 H     1 <1>   0.0800 
 27 H       -0.3820     2.4720     1.2400 H     1 <1>   0.0800 
 28 H       -2.7260     2.0390     0.5280 H     1 <1>   0.0800 
 29 H       -2.7330     1.3940    -1.1080 H     1 <1>   0.0800 
 30 H       -1.6890    -1.8010    -0.5080 H     1 <1>   0.0800 
 31 H       -2.1140    -1.6580     1.1890 H     1 <1>   0.0800 
 32 H       -4.9290     0.7460    -0.3110 H     1 <1>   0.0800 
 33 H       -3.7600    -1.1470    -1.2380 H     1 <1>   0.0800 
 34 H       -3.4940     0.2150     2.0550 H     1 <1>   0.4000 
 35 H       -5.6170    -2.0260     0.0950 H     1 <1>   0.0800 
 36 H       -4.5990    -2.1290     1.5020 H     1 <1>   0.0800 
 37 H       -1.7200     3.5540    -2.4960 H     1 <1>   0.1500 
 38 H        0.3700     6.9700     0.3440 H     1 <1>   0.1500 
 39 H       -2.2500     5.9340    -2.8220 H     1 <1>   0.1500 
 40 H       -3.5970    -4.4760     1.9060 H     1 <1>   0.1500 
 41 H        2.7200     4.8420     2.0940 H     1 <1>   0.0800 
 42 H        1.4420     6.0500     2.1220 H     1 <1>   0.0800 
 43 H        2.5450     5.9460     0.7350 H     1 <1>   0.0800 
 44 H       -1.1990     7.6280    -1.3830 H     1 <1>   0.1500 
 45 H       -3.5200    -5.7270    -2.0880 H     1 <1>   0.2700 
 46 H       -2.6740    -7.0200     1.4440 H     1 <1>   0.0800 
 47 H       -1.8580    -7.0910    -0.0980 H     1 <1>   0.0800 
 48 H       -3.4890    -7.7130     0.0640 H     1 <1>   0.0800 
@<TRIPOS>BOND
  1   1   2  2   
  2   2   3  am  
  3   2   4  1   
  4   3   5  1   
  5   3   6  1   
  6   4   7  1   
  7   4  26  1   
  8   4  27  1   
  9   5   8  1   
 10   5  28  1   
 11   5  29  1   
 12   6   9  1   
 13   6  30  1   
 14   6  31  1   
 15   7  10  1   
 16   8   9  1   
 17   8  11  1   
 18   8  32  1   
 19   9  12  1   
 20   9  33  1   
 21  10  13  ar  
 22  10  14  ar  
 23  11  34  1   
 24  12  15  1   
 25  12  35  1   
 26  12  36  1   
 27  13  16  1   
 28  13  17  ar  
 29  14  18  ar  
 30  14  37  1   
 31  15  19  2   
 32  15  20  1   
 33  16  21  1   
 34  17  22  ar  
 35  17  38  1   
 36  18  22  ar  
 37  18  39  1   
 38  19  23  1   
 39  20  24  2   
 40  20  40  1   
 41  21  41  1   
 42  21  42  1   
 43  21  43  1   
 44  22  44  1   
 45  23  24  1   
 46  23  45  1   
 47  24  25  1   
 48  25  46  1   
 49  25  47  1   
 50  25  48  1   
@<TRIPOS>SUBSTRUCTURE
  1 ****   3 GROUP 4 **** **** 0

# MOE 2024.06 (io_trps.svl 2023.06)
