@<TRIPOS>MOLECULE
NONAME
47 48 1 0 0 
SMALL
USER_CHARGES


@<TRIPOS>ATOM
  1 O       -0.3570    -1.1890     1.9050 O.co2 1 <1>  -0.9000 
  2 C       -0.0740    -2.3850     2.0730 C.2   1 <1>   1.0330 
  3 O       -0.9150    -3.1080     2.6450 O.co2 1 <1>  -0.9000 
  4 C        1.1690    -2.9330     1.6130 C.2   1 <1>  -0.2330 
  5 C        1.6720    -4.1720     2.0100 C.2   1 <1>   0.3720 
  6 C        2.1230    -2.4740     0.7550 C.2   1 <1>   0.0870 
  7 N        2.8030    -4.4300     1.4560 N.2   1 <1>  -0.4100 
  8 N        1.0240    -5.0300     2.8850 N.pl3 1 <1>  -0.8520 
  9 O        3.0610    -3.3930     0.7070 O.3   1 <1>  -0.0190 
 10 C        2.2790    -1.2900    -0.0580 C.ar  1 <1>   0.0530 
 11 C        0.6720    -6.3410     2.3380 C.3   1 <1>   0.2890 
 12 C        1.1950    -0.6320    -0.6370 C.ar  1 <1>  -0.1500 
 13 C        3.5490    -0.7700    -0.3160 C.ar  1 <1>  -0.1500 
 14 C       -0.6980    -6.2170     1.6560 C.3   1 <1>  -0.1600 
 15 C        0.6710    -7.3250     3.5040 C.3   1 <1>  -0.2400 
 16 C        1.3650     0.4880    -1.4320 C.ar  1 <1>  -0.1500 
 17 C        3.7290     0.3470    -1.1110 C.ar  1 <1>  -0.1500 
 18 C       -1.1670    -7.5060     0.9610 C.3   1 <1>  -0.1600 
 19 C        2.6350     0.9800    -1.6730 C.ar  1 <1>  -0.1500 
 20 C       -2.4790    -7.2550     0.1930 C.3   1 <1>  -0.1600 
 21 C       -3.1100    -8.4950    -0.4680 C.3   1 <1>   0.2800 
 22 O       -3.3510    -9.4300     0.5040 O.3   1 <1>  -0.6800 
 23 C       -4.4620    -8.1500    -1.0870 C.3   1 <1>  -0.2400 
 24 C       -2.1980    -9.1560    -1.5000 C.3   1 <1>  -0.2400 
 25 H        0.1380    -4.5430     3.1390 H     1 <1>   0.4000 
 26 H        1.4130    -6.6450     1.6160 H     1 <1>   0.0800 
 27 H        0.2010    -1.0010    -0.4570 H     1 <1>   0.1500 
 28 H        4.4050    -1.2530     0.1190 H     1 <1>   0.1500 
 29 H       -0.6330    -5.4360     0.9180 H     1 <1>   0.0800 
 30 H       -1.4290    -5.9130     2.3850 H     1 <1>   0.0800 
 31 H       -0.0920    -7.0610     4.2130 H     1 <1>   0.0800 
 32 H        1.6290    -7.3020     3.9910 H     1 <1>   0.0800 
 33 H        0.4950    -8.3240     3.1540 H     1 <1>   0.0800 
 34 H        0.5040     0.9740    -1.8550 H     1 <1>   0.1500 
 35 H        4.7200     0.7250    -1.2920 H     1 <1>   0.1500 
 36 H       -1.3220    -8.2770     1.6950 H     1 <1>   0.0800 
 37 H       -0.4020    -7.8350     0.2800 H     1 <1>   0.0800 
 38 H        2.7680     1.8510    -2.2900 H     1 <1>   0.1500 
 39 H       -2.2880    -6.5240    -0.5740 H     1 <1>   0.0800 
 40 H       -3.1970    -6.8160     0.8640 H     1 <1>   0.0800 
 41 H       -3.8440    -9.0080     1.2310 H     1 <1>   0.4000 
 42 H       -5.1200    -7.7180    -0.3540 H     1 <1>   0.0800 
 43 H       -4.9220    -9.0310    -1.4990 H     1 <1>   0.0800 
 44 H       -4.3290    -7.4370    -1.8810 H     1 <1>   0.0800 
 45 H       -1.2970    -9.5160    -1.0380 H     1 <1>   0.0800 
 46 H       -1.9340    -8.4500    -2.2650 H     1 <1>   0.0800 
 47 H       -2.7010    -9.9870    -1.9620 H     1 <1>   0.0800 
@<TRIPOS>BOND
  1   1   2  ar  
  2   2   3  ar  
  3   2   4  1   
  4   4   5  1   
  5   4   6  2   
  6   5   7  2   
  7   5   8  1   
  8   6   9  1   
  9   6  10  1   
 10   7   9  1   
 11   8  11  1   
 12   8  25  1   
 13  10  12  ar  
 14  10  13  ar  
 15  11  14  1   
 16  11  15  1   
 17  11  26  1   
 18  12  16  ar  
 19  12  27  1   
 20  13  17  ar  
 21  13  28  1   
 22  14  18  1   
 23  14  29  1   
 24  14  30  1   
 25  15  31  1   
 26  15  32  1   
 27  15  33  1   
 28  16  19  ar  
 29  16  34  1   
 30  17  19  ar  
 31  17  35  1   
 32  18  20  1   
 33  18  36  1   
 34  18  37  1   
 35  19  38  1   
 36  20  21  1   
 37  20  39  1   
 38  20  40  1   
 39  21  22  1   
 40  21  23  1   
 41  21  24  1   
 42  22  41  1   
 43  23  42  1   
 44  23  43  1   
 45  23  44  1   
 46  24  45  1   
 47  24  46  1   
 48  24  47  1   
@<TRIPOS>SUBSTRUCTURE
  1 ****   4 GROUP 4 **** **** 0

# MOE 2024.06 (io_trps.svl 2023.06)
