@<TRIPOS>MOLECULE
NONAME
40 41 1 0 0 
SMALL
USER_CHARGES


@<TRIPOS>ATOM
  1 S       -0.1350     0.2720    -0.8370 S.o2  1 <1>   1.3330 
  2 O        0.3210     1.1630    -1.8810 O.2   1 <1>  -0.6500 
  3 O       -0.8780    -0.9180    -1.1850 O.2   1 <1>  -0.6500 
  4 N        1.2200    -0.2270     0.0600 N.am  1 <1>  -0.8490 
  5 C       -1.0850     1.2130     0.3660 C.3   1 <1>  -0.0550 
  6 C        2.4270    -0.3540    -0.7650 C.3   1 <1>   0.1160 
  7 C        1.0020    -1.4660     0.8140 C.3   1 <1>   0.1160 
  8 C       -0.6200     2.6560     0.6690 C.3   1 <1>  -0.0800 
  9 C       -0.9370     3.6570    -0.4450 C.3   1 <1>   0.2000 
 10 C        0.8690     2.8600     0.9510 C.3   1 <1>   0.1400 
 11 O       -2.2360     4.1170    -0.2860 O.3   1 <1>  -0.6800 
 12 C        0.0770     4.7950    -0.2900 C.3   1 <1>   0.1400 
 13 N        1.1080     4.2910     0.6570 N.am  1 <1>  -0.6600 
 14 C        2.3340     4.8750     0.8740 C.2   1 <1>   0.5440 
 15 O        3.2240     4.2080     1.3620 O.2   1 <1>  -0.5700 
 16 C        2.5890     6.2550     0.5280 C.ar  1 <1>   0.0860 
 17 C        1.7420     7.2720     0.9750 C.ar  1 <1>   0.1600 
 18 C        3.6790     6.6230    -0.2490 C.ar  1 <1>  -0.1500 
 19 N        1.8580     8.5660     0.7030 N.ar  1 <1>  -0.6200 
 20 C        3.8130     7.9620    -0.5260 C.ar  1 <1>   0.1900 
 21 C        2.9030     8.8900    -0.0490 C.ar  1 <1>   0.1600 
 22 F        4.8180     8.3640    -1.2570 F     1 <1>  -0.1900 
 23 H       -2.1000     1.2700     0.0210 H     1 <1>   0.0800 
 24 H       -1.1030     0.6630     1.2860 H     1 <1>   0.0800 
 25 H        3.2640    -0.6570    -0.1590 H     1 <1>   0.0800 
 26 H        2.6670     0.5940    -1.2170 H     1 <1>   0.0800 
 27 H        2.2710    -1.0810    -1.5460 H     1 <1>   0.0800 
 28 H        1.8540    -1.6740     1.4390 H     1 <1>   0.0800 
 29 H        0.8490    -2.2950     0.1420 H     1 <1>   0.0800 
 30 H        0.1340    -1.3710     1.4450 H     1 <1>   0.0800 
 31 H       -1.1320     2.9770     1.5600 H     1 <1>   0.0800 
 32 H       -0.8540     3.2270    -1.4270 H     1 <1>   0.0800 
 33 H        1.4920     2.2830     0.2920 H     1 <1>   0.0800 
 34 H        1.1230     2.6290     1.9720 H     1 <1>   0.0800 
 35 H       -2.3450     4.5450     0.5850 H     1 <1>   0.4000 
 36 H       -0.3940     5.6760     0.1100 H     1 <1>   0.0800 
 37 H        0.5290     5.0190    -1.2410 H     1 <1>   0.0800 
 38 H        0.9130     6.9880     1.6020 H     1 <1>   0.1500 
 39 H        4.3830     5.8940    -0.6110 H     1 <1>   0.1500 
 40 H        3.0440     9.9290    -0.2940 H     1 <1>   0.1500 
@<TRIPOS>BOND
  1   1   2  2   
  2   1   3  2   
  3   1   4  am  
  4   1   5  1   
  5   4   6  1   
  6   4   7  1   
  7   5   8  1   
  8   5  23  1   
  9   5  24  1   
 10   6  25  1   
 11   6  26  1   
 12   6  27  1   
 13   7  28  1   
 14   7  29  1   
 15   7  30  1   
 16   8   9  1   
 17   8  10  1   
 18   8  31  1   
 19   9  11  1   
 20   9  12  1   
 21   9  32  1   
 22  10  13  1   
 23  10  33  1   
 24  10  34  1   
 25  11  35  1   
 26  12  13  1   
 27  12  36  1   
 28  12  37  1   
 29  13  14  am  
 30  14  15  2   
 31  14  16  1   
 32  16  17  ar  
 33  16  18  ar  
 34  17  19  ar  
 35  17  38  1   
 36  18  20  ar  
 37  18  39  1   
 38  19  21  ar  
 39  20  21  ar  
 40  20  22  1   
 41  21  40  1   
@<TRIPOS>SUBSTRUCTURE
  1 ****  13 GROUP 4 **** **** 0

# MOE 2024.06 (io_trps.svl 2023.06)
