@<TRIPOS>MOLECULE
NONAME
49 50 1 0 0 
SMALL
USER_CHARGES


@<TRIPOS>ATOM
  1 O       -0.7080    -0.1180    -1.5440 O.2   1 <1>  -0.5700 
  2 C       -1.1390    -1.1510    -1.0720 C.2   1 <1>   0.7800 
  3 O       -0.3300    -1.9980    -0.4290 O.3   1 <1>  -0.4300 
  4 N       -2.4610    -1.5040    -1.1730 N.am  1 <1>  -0.6600 
  5 C        1.0520    -1.8480    -0.1860 C.3   1 <1>   0.2800 
  6 C       -3.0130    -2.7720    -0.6340 C.3   1 <1>   0.1400 
  7 C       -3.4590    -0.6150    -1.8170 C.3   1 <1>   0.1400 
  8 C        1.3070    -0.6120     0.6840 C.3   1 <1>  -0.2400 
  9 C        1.4560    -3.1020     0.5910 C.3   1 <1>  -0.2400 
 10 C        1.8240    -1.8050    -1.5100 C.3   1 <1>  -0.2400 
 11 C       -4.1190    -2.4600     0.3770 C.3   1 <1>  -0.1600 
 12 C       -4.5970    -0.3130    -0.8350 C.3   1 <1>  -0.1600 
 13 C       -5.2470    -1.5770    -0.2140 C.3   1 <1>   0.0000 
 14 C       -6.3110    -1.1420     0.8260 C.3   1 <1>   0.2000 
 15 C       -6.0850    -2.3360    -1.2580 C.3   1 <1>  -0.1600 
 16 O       -6.5230    -2.1570     1.7540 O.3   1 <1>  -0.6800 
 17 C       -7.6270    -0.9400     0.0520 C.3   1 <1>  -0.0190 
 18 C       -7.4200    -1.5900    -1.3310 C.3   1 <1>  -0.1600 
 19 C       -8.0290     0.5250    -0.0530 C.2   1 <1>   0.6590 
 20 O       -7.2400     1.4300     0.0360 O.2   1 <1>  -0.5700 
 21 O       -9.3200     0.7440    -0.2740 O.3   1 <1>  -0.4300 
 22 C       -9.8410     2.0500    -0.4010 C.3   1 <1>   0.0400 
 23 H       -2.2470    -3.3550    -0.1530 H     1 <1>   0.0800 
 24 H       -3.4080    -3.3550    -1.4480 H     1 <1>   0.0800 
 25 H       -3.8390    -1.0960    -2.7000 H     1 <1>   0.0800 
 26 H       -3.0000     0.3110    -2.1220 H     1 <1>   0.0800 
 27 H        0.6950    -0.6430     1.5670 H     1 <1>   0.0800 
 28 H        1.1000     0.2920     0.1430 H     1 <1>   0.0800 
 29 H        2.3390    -0.5810     0.9840 H     1 <1>   0.0800 
 30 H        0.9050    -3.1630     1.5120 H     1 <1>   0.0800 
 31 H        2.5050    -3.0760     0.8250 H     1 <1>   0.0800 
 32 H        1.2600    -3.9820     0.0060 H     1 <1>   0.0800 
 33 H        1.6170    -0.9000    -2.0500 H     1 <1>   0.0800 
 34 H        1.5630    -2.6490    -2.1220 H     1 <1>   0.0800 
 35 H        2.8810    -1.8340    -1.3190 H     1 <1>   0.0800 
 36 H       -3.6760    -1.9540     1.2180 H     1 <1>   0.0800 
 37 H       -4.5150    -3.3910     0.7390 H     1 <1>   0.0800 
 38 H       -5.3280     0.2850    -1.3460 H     1 <1>   0.0800 
 39 H       -4.1920     0.2990    -0.0480 H     1 <1>   0.0800 
 40 H       -6.0090    -0.2670     1.3780 H     1 <1>   0.0800 
 41 H       -6.2690    -3.3390    -0.9140 H     1 <1>   0.0800 
 42 H       -5.6120    -2.3950    -2.2220 H     1 <1>   0.0800 
 43 H       -6.6870    -2.9970     1.2880 H     1 <1>   0.4000 
 44 H       -8.4260    -1.4430     0.5670 H     1 <1>   0.0800 
 45 H       -8.2290    -2.2550    -1.5790 H     1 <1>   0.0800 
 46 H       -7.3600    -0.8290    -2.0910 H     1 <1>   0.0800 
 47 H      -10.9010     1.9810    -0.5680 H     1 <1>   0.0800 
 48 H       -9.3650     2.5350    -1.2360 H     1 <1>   0.0800 
 49 H       -9.6430     2.5940     0.5060 H     1 <1>   0.0800 
@<TRIPOS>BOND
  1   1   2  2   
  2   2   3  1   
  3   2   4  am  
  4   3   5  1   
  5   4   6  1   
  6   4   7  1   
  7   5   8  1   
  8   5   9  1   
  9   5  10  1   
 10   6  11  1   
 11   6  23  1   
 12   6  24  1   
 13   7  12  1   
 14   7  25  1   
 15   7  26  1   
 16   8  27  1   
 17   8  28  1   
 18   8  29  1   
 19   9  30  1   
 20   9  31  1   
 21   9  32  1   
 22  10  33  1   
 23  10  34  1   
 24  10  35  1   
 25  11  13  1   
 26  11  36  1   
 27  11  37  1   
 28  12  13  1   
 29  12  38  1   
 30  12  39  1   
 31  13  14  1   
 32  13  15  1   
 33  14  16  1   
 34  14  17  1   
 35  14  40  1   
 36  15  18  1   
 37  15  41  1   
 38  15  42  1   
 39  16  43  1   
 40  17  18  1   
 41  17  19  1   
 42  17  44  1   
 43  18  45  1   
 44  18  46  1   
 45  19  20  2   
 46  19  21  1   
 47  21  22  1   
 48  22  47  1   
 49  22  48  1   
 50  22  49  1   
@<TRIPOS>SUBSTRUCTURE
  1 ****  12 GROUP 4 **** **** 0

# MOE 2024.06 (io_trps.svl 2023.06)
