@<TRIPOS>MOLECULE
NONAME
49 52 1 0 0 
SMALL
USER_CHARGES


@<TRIPOS>ATOM
  1 CL      -0.3890     0.3520    -1.1890 Cl    1 <1>  -0.1230 
  2 C       -1.9870     0.5220    -0.4770 C.2   1 <1>   0.1230 
  3 C       -2.9180    -0.5020    -0.2820 C.2   1 <1>   0.2030 
  4 C       -2.5390     1.6680    -0.0390 C.2   1 <1>  -0.3320 
  5 N       -4.0160     0.0170     0.2560 N.2   1 <1>  -0.7070 
  6 C       -2.6760    -1.9000    -0.6130 C.2   1 <1>   0.7160 
  7 N       -3.7690     1.3280     0.4040 N.pl3 1 <1>   0.3140 
  8 C       -1.9590     3.0740    -0.0180 C.3   1 <1>  -0.0600 
  9 O       -1.5880    -2.4010    -0.3760 O.2   1 <1>  -0.5700 
 10 N       -3.6450    -2.7140    -1.1770 N.am  1 <1>  -0.6600 
 11 C       -4.7700     2.2290     0.9930 C.3   1 <1>   0.0160 
 12 C       -4.9760    -2.2280    -1.6470 C.3   1 <1>   0.1400 
 13 C       -3.6080    -4.2000    -1.0350 C.3   1 <1>   0.1400 
 14 C       -6.0740    -2.7030    -0.6790 C.3   1 <1>   0.1900 
 15 C       -4.7550    -4.6770    -0.1240 C.3   1 <1>   0.1100 
 16 N       -6.0740    -4.1870    -0.5930 N.3   1 <1>  -0.8100 
 17 C       -7.4530    -2.1820    -1.1280 C.3   1 <1>   0.1200 
 18 C       -7.1770    -4.6340     0.2900 C.3   1 <1>   0.3330 
 19 O       -8.4570    -2.6340    -0.2640 O.3   1 <1>  -0.5600 
 20 C       -7.2850    -6.1580     0.3100 C.ar  1 <1>  -0.1430 
 21 C       -8.5220    -4.0330    -0.1720 C.3   1 <1>   0.1200 
 22 C       -7.4010    -6.8330     1.5170 C.ar  1 <1>  -0.1500 
 23 C       -7.2760    -6.8880    -0.8710 C.ar  1 <1>  -0.1500 
 24 C       -7.5060    -8.2130     1.5430 C.ar  1 <1>  -0.1500 
 25 C       -7.3820    -8.2680    -0.8470 C.ar  1 <1>  -0.1500 
 26 C       -7.4970    -8.9310     0.3610 C.ar  1 <1>  -0.1500 
 27 H       -0.9640     3.0750    -0.4270 H     1 <1>   0.0800 
 28 H       -1.9100     3.4430     0.9910 H     1 <1>   0.0800 
 29 H       -2.5680     3.7380    -0.6060 H     1 <1>   0.0800 
 30 H       -4.3590     2.6820     1.8760 H     1 <1>   0.0800 
 31 H       -5.6450     1.6630     1.2550 H     1 <1>   0.0800 
 32 H       -5.0300     2.9850     0.2770 H     1 <1>   0.0800 
 33 H       -4.9900    -1.1570    -1.7290 H     1 <1>   0.0800 
 34 H       -5.1710    -2.6310    -2.6250 H     1 <1>   0.0800 
 35 H       -3.7140    -4.6520    -2.0060 H     1 <1>   0.0800 
 36 H       -2.6690    -4.5220    -0.6210 H     1 <1>   0.0800 
 37 H       -5.8640    -2.2810     0.2900 H     1 <1>   0.0800 
 38 H       -4.5700    -4.3310     0.8790 H     1 <1>   0.0800 
 39 H       -4.7500    -5.7530    -0.1100 H     1 <1>   0.0800 
 40 H       -7.6800    -2.5190    -2.1240 H     1 <1>   0.0800 
 41 H       -7.4680    -1.1070    -1.1090 H     1 <1>   0.0800 
 42 H       -6.9860    -4.2840     1.2900 H     1 <1>   0.0800 
 43 H       -9.2950    -4.2810     0.5320 H     1 <1>   0.0800 
 44 H       -8.7940    -4.4270    -1.1350 H     1 <1>   0.0800 
 45 H       -7.4100    -6.2870     2.4450 H     1 <1>   0.1500 
 46 H       -7.1800    -6.3760    -1.8130 H     1 <1>   0.1500 
 47 H       -7.5960    -8.7280     2.4840 H     1 <1>   0.1500 
 48 H       -7.3730    -8.8240    -1.7690 H     1 <1>   0.1500 
 49 H       -7.5800   -10.0040     0.3810 H     1 <1>   0.1500 
@<TRIPOS>BOND
  1   1   2  1   
  2   2   3  1   
  3   2   4  2   
  4   3   5  2   
  5   3   6  1   
  6   4   7  1   
  7   4   8  1   
  8   5   7  1   
  9   6   9  2   
 10   6  10  am  
 11   7  11  1   
 12   8  27  1   
 13   8  28  1   
 14   8  29  1   
 15  10  12  1   
 16  10  13  1   
 17  11  30  1   
 18  11  31  1   
 19  11  32  1   
 20  12  14  1   
 21  12  33  1   
 22  12  34  1   
 23  13  15  1   
 24  13  35  1   
 25  13  36  1   
 26  14  16  1   
 27  14  17  1   
 28  14  37  1   
 29  15  16  1   
 30  15  38  1   
 31  15  39  1   
 32  16  18  1   
 33  17  19  1   
 34  17  40  1   
 35  17  41  1   
 36  18  20  1   
 37  18  21  1   
 38  18  42  1   
 39  19  21  1   
 40  20  22  ar  
 41  20  23  ar  
 42  21  43  1   
 43  21  44  1   
 44  22  24  ar  
 45  22  45  1   
 46  23  25  ar  
 47  23  46  1   
 48  24  26  ar  
 49  24  47  1   
 50  25  26  ar  
 51  25  48  1   
 52  26  49  1   
@<TRIPOS>SUBSTRUCTURE
  1 ****  14 GROUP 4 **** **** 0

# MOE 2024.06 (io_trps.svl 2023.06)
