@<TRIPOS>MOLECULE
NONAME
64 67 1 0 0 
SMALL
USER_CHARGES


@<TRIPOS>ATOM
  1 O        1.7440    -1.6340     1.7910 O.2   1 <1>  -0.5700 
  2 C        1.5630    -1.5870     0.6000 C.2   1 <1>   0.5690 
  3 N        1.5230    -0.4230    -0.0930 N.am  1 <1>  -0.7300 
  4 C        1.3530    -2.8820    -0.1510 C.3   1 <1>  -0.0990 
  5 C        1.7050     0.9190     0.4870 C.3   1 <1>   0.2200 
  6 C       -0.0850    -3.3900     0.0240 C.3   1 <1>  -0.0990 
  7 C        0.3760     1.6690     0.3440 C.3   1 <1>  -0.1600 
  8 C        2.9000     1.5780    -0.2170 C.3   1 <1>  -0.1600 
  9 C       -0.3080    -4.6690    -0.7500 C.2   1 <1>   0.5690 
 10 C        0.3990     3.1320     0.8200 C.3   1 <1>  -0.1600 
 11 C        3.3880     2.8370     0.5150 C.3   1 <1>  -0.1600 
 12 O       -0.5780    -4.6030    -1.9220 O.2   1 <1>  -0.5700 
 13 N       -0.2010    -5.8530    -0.1030 N.am  1 <1>  -0.7300 
 14 C        1.1650     4.0500    -0.1440 C.3   1 <1>  -0.1600 
 15 C        2.6770     4.1380     0.1120 C.3   1 <1>  -0.1600 
 16 C       -0.3580    -7.1850    -0.7350 C.3   1 <1>   0.2200 
 17 C       -1.7140    -7.8020    -0.4100 C.3   1 <1>  -0.0800 
 18 C        0.5680    -8.1690    -0.0350 C.3   1 <1>   0.1200 
 19 C       -1.4780    -8.4100     0.9790 C.3   1 <1>   0.1200 
 20 C       -2.9130    -6.8340    -0.4940 C.3   1 <1>  -0.0170 
 21 O       -0.0930    -8.5150     1.1450 O.3   1 <1>  -0.5600 
 22 C       -4.3050    -7.4410    -0.2840 C.ar  1 <1>  -0.1440 
 23 C       -5.4280    -6.5850    -0.1590 C.ar  1 <1>   0.0000 
 24 C       -4.5430    -8.7860    -0.2140 C.ar  1 <1>  -0.1500 
 25 C       -6.6960    -7.1770     0.0630 C.ar  1 <1>   0.3100 
 26 C       -5.3680    -5.1730    -0.2500 C.ar  1 <1>  -0.1500 
 27 C       -5.8400    -9.2680    -0.0010 C.ar  1 <1>   0.1600 
 28 N       -6.8840    -8.5170     0.1410 N.ar  1 <1>  -0.6200 
 29 C       -7.8200    -6.3480     0.2080 C.ar  1 <1>  -0.1500 
 30 C       -6.4840    -4.3940    -0.1080 C.ar  1 <1>  -0.1500 
 31 C       -7.7270    -4.9860     0.1270 C.ar  1 <1>  -0.1500 
 32 H        1.3550    -0.4360    -1.0980 H     1 <1>   0.3700 
 33 H        1.5650    -2.7350    -1.1950 H     1 <1>   0.0800 
 34 H        2.0450    -3.6120     0.2290 H     1 <1>   0.0800 
 35 H        1.9340     0.8180     1.5360 H     1 <1>   0.0800 
 36 H       -0.7760    -2.6490    -0.3360 H     1 <1>   0.0800 
 37 H       -0.2880    -3.5560     1.0660 H     1 <1>   0.0800 
 38 H        0.0520     1.6390    -0.6810 H     1 <1>   0.0800 
 39 H       -0.3560     1.1430     0.9330 H     1 <1>   0.0800 
 40 H        3.7110     0.8700    -0.2090 H     1 <1>   0.0800 
 41 H        2.6650     1.8040    -1.2420 H     1 <1>   0.0800 
 42 H       -0.6210     3.4740     0.8600 H     1 <1>   0.0800 
 43 H        0.7980     3.2050     1.8170 H     1 <1>   0.0800 
 44 H        3.2920     2.6920     1.5780 H     1 <1>   0.0800 
 45 H        4.4390     2.9640     0.3170 H     1 <1>   0.0800 
 46 H        0.0050    -5.8900     0.8990 H     1 <1>   0.3700 
 47 H        0.9910     3.7310    -1.1570 H     1 <1>   0.0800 
 48 H        0.7620     5.0450    -0.0620 H     1 <1>   0.0800 
 49 H        2.8540     4.8630     0.8880 H     1 <1>   0.0800 
 50 H        3.1400     4.5220    -0.7820 H     1 <1>   0.0800 
 51 H       -0.1700    -7.1270    -1.7940 H     1 <1>   0.0800 
 52 H       -1.8700    -8.6050    -1.1090 H     1 <1>   0.0800 
 53 H        1.5310    -7.7490     0.1950 H     1 <1>   0.0800 
 54 H        0.6880    -9.0640    -0.6200 H     1 <1>   0.0800 
 55 H       -1.9120    -9.3890     1.0750 H     1 <1>   0.0800 
 56 H       -1.8520    -7.7690     1.7590 H     1 <1>   0.0800 
 57 H       -2.8970    -6.3570    -1.4590 H     1 <1>   0.0800 
 58 H       -2.7750    -6.0680     0.2480 H     1 <1>   0.0800 
 59 H       -3.7700    -9.5210    -0.3170 H     1 <1>   0.1500 
 60 H       -4.4270    -4.6930    -0.4390 H     1 <1>   0.1500 
 61 H       -5.9770   -10.3350     0.0500 H     1 <1>   0.1500 
 62 H       -8.7660    -6.8270     0.3830 H     1 <1>   0.1500 
 63 H       -6.4200    -3.3210    -0.1770 H     1 <1>   0.1500 
 64 H       -8.5980    -4.3630     0.2390 H     1 <1>   0.1500 
@<TRIPOS>BOND
  1   1   2  2   
  2   2   3  am  
  3   2   4  1   
  4   3   5  1   
  5   3  32  1   
  6   4   6  1   
  7   4  33  1   
  8   4  34  1   
  9   5   7  1   
 10   5   8  1   
 11   5  35  1   
 12   6   9  1   
 13   6  36  1   
 14   6  37  1   
 15   7  10  1   
 16   7  38  1   
 17   7  39  1   
 18   8  11  1   
 19   8  40  1   
 20   8  41  1   
 21   9  12  2   
 22   9  13  am  
 23  10  14  1   
 24  10  42  1   
 25  10  43  1   
 26  11  15  1   
 27  11  44  1   
 28  11  45  1   
 29  13  16  1   
 30  13  46  1   
 31  14  15  1   
 32  14  47  1   
 33  14  48  1   
 34  15  49  1   
 35  15  50  1   
 36  16  17  1   
 37  16  18  1   
 38  16  51  1   
 39  17  19  1   
 40  17  20  1   
 41  17  52  1   
 42  18  21  1   
 43  18  53  1   
 44  18  54  1   
 45  19  21  1   
 46  19  55  1   
 47  19  56  1   
 48  20  22  1   
 49  20  57  1   
 50  20  58  1   
 51  22  23  ar  
 52  22  24  ar  
 53  23  25  ar  
 54  23  26  ar  
 55  24  27  ar  
 56  24  59  1   
 57  25  28  ar  
 58  25  29  ar  
 59  26  30  ar  
 60  26  60  1   
 61  27  28  ar  
 62  27  61  1   
 63  29  31  ar  
 64  29  62  1   
 65  30  31  ar  
 66  30  63  1   
 67  31  64  1   
@<TRIPOS>SUBSTRUCTURE
  1 ****   6 GROUP 4 **** **** 0

# MOE 2024.06 (io_trps.svl 2023.06)
