@<TRIPOS>MOLECULE
NONAME
45 48 1 0 0 
SMALL
USER_CHARGES


@<TRIPOS>ATOM
  1 O       -1.7720    -0.3630    -2.5100 O.2   1 <1>  -0.5700 
  2 C       -2.0110     0.1760    -1.4570 C.2   1 <1>   0.5770 
  3 N       -2.2370    -0.5540    -0.3340 N.am  1 <1>  -0.7300 
  4 C       -2.0850     1.6980    -1.4050 C.3   1 <1>   0.0530 
  5 C       -2.2100    -2.0320    -0.2560 C.3   1 <1>   0.2200 
  6 C       -1.3830     2.3810    -0.1990 C.3   1 <1>   0.0000 
  7 C       -3.4190     2.2750    -0.8600 C.3   1 <1>   0.0000 
  8 C       -3.6200    -2.5990    -0.1630 C.3   1 <1>  -0.0800 
  9 C       -1.6590    -2.4390     1.1040 C.3   1 <1>   0.1200 
 10 C       -2.5690     3.3810    -0.1800 C.3   1 <1>   0.0000 
 11 C       -3.9420    -2.4690     1.3310 C.3   1 <1>   0.1200 
 12 C       -4.6580    -1.9800    -1.1220 C.3   1 <1>  -0.0170 
 13 O       -2.7240    -2.2710     1.9900 O.3   1 <1>  -0.5600 
 14 C       -6.0070    -2.6830    -1.0000 C.ar  1 <1>  -0.1440 
 15 C       -7.0750    -2.2040    -0.2010 C.ar  1 <1>   0.0000 
 16 C       -6.2090    -3.8440    -1.6880 C.ar  1 <1>  -0.1500 
 17 C       -8.2600    -2.9800    -0.1570 C.ar  1 <1>   0.3100 
 18 C       -7.0490    -1.0060     0.5540 C.ar  1 <1>  -0.1500 
 19 C       -7.4260    -4.5270    -1.5830 C.ar  1 <1>   0.1600 
 20 N       -8.4190    -4.1350    -0.8520 N.ar  1 <1>  -0.6200 
 21 C       -9.3330    -2.5460     0.6380 C.ar  1 <1>  -0.1500 
 22 C       -8.1130    -0.6100     1.3170 C.ar  1 <1>  -0.1500 
 23 C       -9.2700    -1.3890     1.3640 C.ar  1 <1>  -0.1500 
 24 H       -2.4470    -0.0960     0.5560 H     1 <1>   0.3700 
 25 H       -1.8070     2.1630    -2.3370 H     1 <1>   0.0000 
 26 H       -1.6440    -2.4490    -1.0710 H     1 <1>   0.0800 
 27 H       -1.3490     1.7750     0.6910 H     1 <1>   0.0000 
 28 H       -0.4400     2.8340    -0.4450 H     1 <1>   0.0000 
 29 H       -4.0790     2.6430    -1.6250 H     1 <1>   0.0000 
 30 H       -3.9080     1.6370    -0.1430 H     1 <1>   0.0000 
 31 H       -3.5600    -3.6510    -0.3800 H     1 <1>   0.0800 
 32 H       -0.8250    -1.8350     1.4150 H     1 <1>   0.0800 
 33 H       -1.3840    -3.4790     1.1100 H     1 <1>   0.0800 
 34 H       -2.4060     4.2310    -0.8200 H     1 <1>   0.0000 
 35 H       -2.9040     3.6410     0.8080 H     1 <1>   0.0000 
 36 H       -4.4130    -3.3570     1.7180 H     1 <1>   0.0800 
 37 H       -4.5580    -1.6130     1.5370 H     1 <1>   0.0800 
 38 H       -4.2960    -2.0950    -2.1290 H     1 <1>   0.0800 
 39 H       -4.7600    -0.9250    -0.9610 H     1 <1>   0.0800 
 40 H       -5.4470    -4.2620    -2.3200 H     1 <1>   0.1500 
 41 H       -6.1770    -0.3820     0.5330 H     1 <1>   0.1500 
 42 H       -7.5400    -5.4390    -2.1450 H     1 <1>   0.1500 
 43 H      -10.2140    -3.1610     0.6550 H     1 <1>   0.1500 
 44 H       -8.0750     0.3030     1.8880 H     1 <1>   0.1500 
 45 H      -10.1010    -1.0690     1.9690 H     1 <1>   0.1500 
@<TRIPOS>BOND
  1   1   2  2   
  2   2   3  am  
  3   2   4  1   
  4   3   5  1   
  5   3  24  1   
  6   4   6  1   
  7   4   7  1   
  8   4  25  1   
  9   5   8  1   
 10   5   9  1   
 11   5  26  1   
 12   6  10  1   
 13   6  27  1   
 14   6  28  1   
 15   7  10  1   
 16   7  29  1   
 17   7  30  1   
 18   8  11  1   
 19   8  12  1   
 20   8  31  1   
 21   9  13  1   
 22   9  32  1   
 23   9  33  1   
 24  10  34  1   
 25  10  35  1   
 26  11  13  1   
 27  11  36  1   
 28  11  37  1   
 29  12  14  1   
 30  12  38  1   
 31  12  39  1   
 32  14  15  ar  
 33  14  16  ar  
 34  15  17  ar  
 35  15  18  ar  
 36  16  19  ar  
 37  16  40  1   
 38  17  20  ar  
 39  17  21  ar  
 40  18  22  ar  
 41  18  41  1   
 42  19  20  ar  
 43  19  42  1   
 44  21  23  ar  
 45  21  43  1   
 46  22  23  ar  
 47  22  44  1   
 48  23  45  1   
@<TRIPOS>SUBSTRUCTURE
  1 ****  12 GROUP 4 **** **** 0

# MOE 2024.06 (io_trps.svl 2023.06)
