@<TRIPOS>MOLECULE
NONAME
44 46 1 0 0 
SMALL
USER_CHARGES


@<TRIPOS>ATOM
  1 CL      -0.2490    -0.1880    -0.7390 Cl    1 <1>  -0.1400 
  2 C       -0.6900    -1.8350    -0.3560 C.2   1 <1>   0.1400 
  3 C       -1.4650    -2.5620    -1.1970 C.2   1 <1>  -0.1810 
  4 C       -0.2070    -2.3790     0.8630 C.2   1 <1>  -0.1500 
  5 N       -1.7890    -3.8680    -0.8510 N.pl3 1 <1>   0.3340 
  6 C       -0.5320    -3.6600     1.1930 C.2   1 <1>  -0.1050 
  7 C       -2.5010    -4.8500    -1.4050 C.2   1 <1>  -0.0150 
  8 C       -1.3430    -4.4400     0.3240 C.2   1 <1>   0.1410 
  9 F       -3.0960    -4.6800    -2.5590 F     1 <1>  -0.1370 
 10 C       -2.4930    -5.9620    -0.6180 C.2   1 <1>   0.1410 
 11 N       -1.7460    -5.6810     0.4890 N.2   1 <1>  -0.5650 
 12 C       -3.1380    -7.2420    -0.8530 C.2   1 <1>   0.7160 
 13 O       -3.8340    -7.4540    -1.8300 O.2   1 <1>  -0.5700 
 14 N       -2.9850    -8.2500     0.0540 N.am  1 <1>  -0.7300 
 15 C       -3.5500    -9.6130    -0.0620 C.3   1 <1>   0.2200 
 16 C       -4.9790    -9.6230     0.4880 C.3   1 <1>  -0.0800 
 17 C       -2.8140   -10.5810     0.8620 C.3   1 <1>   0.1200 
 18 C       -4.8960   -10.5390     1.7160 C.3   1 <1>   0.1200 
 19 C       -6.0480    -9.9750    -0.5730 C.3   1 <1>  -0.0550 
 20 O       -3.5470   -10.5840     2.0440 O.3   1 <1>  -0.5600 
 21 S       -6.0570   -11.6500    -1.2350 S.o2  1 <1>   1.3330 
 22 O       -6.8920   -11.6870    -2.4130 O.2   1 <1>  -0.6500 
 23 O       -4.6960   -12.1340    -1.3130 O.2   1 <1>  -0.6500 
 24 N       -6.8630   -12.5490    -0.0380 N.am  1 <1>  -0.8490 
 25 C       -6.4390   -13.9530    -0.0180 C.3   1 <1>   0.1160 
 26 C       -8.3260   -12.4770    -0.1390 C.3   1 <1>   0.1160 
 27 H       -1.8500    -2.1900    -2.1290 H     1 <1>   0.1500 
 28 H        0.4040    -1.7570     1.4940 H     1 <1>   0.1500 
 29 H       -0.1950    -4.1240     2.1040 H     1 <1>   0.1500 
 30 H       -2.4960    -8.0280     0.9250 H     1 <1>   0.3700 
 31 H       -3.4850    -9.9420    -1.0860 H     1 <1>   0.0800 
 32 H       -5.2190    -8.6400     0.8540 H     1 <1>   0.0800 
 33 H       -1.8000   -10.2850     1.0620 H     1 <1>   0.0800 
 34 H       -2.8340   -11.5790     0.4580 H     1 <1>   0.0800 
 35 H       -5.2020   -11.5480     1.5110 H     1 <1>   0.0800 
 36 H       -5.4480   -10.1550     2.5550 H     1 <1>   0.0800 
 37 H       -5.9080    -9.2970    -1.3940 H     1 <1>   0.0800 
 38 H       -7.0160    -9.7630    -0.1650 H     1 <1>   0.0800 
 39 H       -6.9620   -14.4910     0.7540 H     1 <1>   0.0800 
 40 H       -5.3830   -14.0170     0.1850 H     1 <1>   0.0800 
 41 H       -6.6370   -14.4170    -0.9700 H     1 <1>   0.0800 
 42 H       -8.7790   -12.9820     0.6970 H     1 <1>   0.0800 
 43 H       -8.6640   -12.9390    -1.0520 H     1 <1>   0.0800 
 44 H       -8.6500   -11.4510    -0.1320 H     1 <1>   0.0800 
@<TRIPOS>BOND
  1   1   2  1   
  2   2   3  2   
  3   2   4  1   
  4   3   5  1   
  5   3  27  1   
  6   4   6  2   
  7   4  28  1   
  8   5   7  1   
  9   5   8  1   
 10   6   8  1   
 11   6  29  1   
 12   7   9  1   
 13   7  10  2   
 14   8  11  2   
 15  10  11  1   
 16  10  12  1   
 17  12  13  2   
 18  12  14  am  
 19  14  15  1   
 20  14  30  1   
 21  15  16  1   
 22  15  17  1   
 23  15  31  1   
 24  16  18  1   
 25  16  19  1   
 26  16  32  1   
 27  17  20  1   
 28  17  33  1   
 29  17  34  1   
 30  18  20  1   
 31  18  35  1   
 32  18  36  1   
 33  19  21  1   
 34  19  37  1   
 35  19  38  1   
 36  21  22  2   
 37  21  23  2   
 38  21  24  am  
 39  24  25  1   
 40  24  26  1   
 41  25  39  1   
 42  25  40  1   
 43  25  41  1   
 44  26  42  1   
 45  26  43  1   
 46  26  44  1   
@<TRIPOS>SUBSTRUCTURE
  1 ****  12 GROUP 4 **** **** 0

# MOE 2024.06 (io_trps.svl 2023.06)
