@<TRIPOS>MOLECULE
NONAME
46 48 1 0 0 
SMALL
USER_CHARGES


@<TRIPOS>ATOM
  1 F        4.9330     2.1330    -2.1800 F     1 <1>  -0.1900 
  2 C        5.0990     0.9930    -1.5680 C.ar  1 <1>   0.1900 
  3 C        4.8660     0.9240    -0.2080 C.ar  1 <1>  -0.1500 
  4 C        5.5060    -0.1060    -2.3000 C.ar  1 <1>  -0.1500 
  5 C        5.0580    -0.2860     0.4350 C.ar  1 <1>  -0.1500 
  6 C        5.6900    -1.3090    -1.6420 C.ar  1 <1>  -0.1500 
  7 C        5.4760    -1.4170    -0.2670 C.ar  1 <1>   0.0000 
  8 C        5.6970    -2.6690     0.4180 C.ar  1 <1>   0.0000 
  9 C        6.7650    -2.8590     1.3150 C.ar  1 <1>   0.0860 
 10 C        4.8070    -3.7150     0.1890 C.ar  1 <1>  -0.1500 
 11 C        7.7560    -1.8350     1.5890 C.2   1 <1>   0.5440 
 12 C        6.8710    -4.0920     1.9610 C.ar  1 <1>  -0.1500 
 13 C        4.9410    -4.9290     0.8320 C.ar  1 <1>  -0.1500 
 14 O        8.1410    -1.6380     2.7260 O.2   1 <1>  -0.5700 
 15 N        8.2920    -1.0870     0.5780 N.am  1 <1>  -0.7300 
 16 C        5.9770    -5.1180     1.7260 C.ar  1 <1>  -0.1500 
 17 C        9.1850     0.0780     0.7360 C.3   1 <1>   0.1400 
 18 C        8.5220     1.2830     0.0720 C.3   1 <1>  -0.1600 
 19 C        9.3930     2.5430     0.1820 C.3   1 <1>  -0.1600 
 20 C        8.7620     3.7450    -0.5430 C.3   1 <1>  -0.0800 
 21 C        9.6270     5.0090    -0.4610 C.3   1 <1>   0.1200 
 22 C        7.4310     4.1860     0.0540 C.3   1 <1>  -0.1600 
 23 O        8.8290     6.0080     0.0910 O.3   1 <1>  -0.5600 
 24 C        7.4880     5.6970    -0.0710 C.3   1 <1>   0.1200 
 25 H        4.5450     1.7970     0.3310 H     1 <1>   0.1500 
 26 H        5.6720    -0.0150    -3.3590 H     1 <1>   0.1500 
 27 H        4.8880    -0.3590     1.4960 H     1 <1>   0.1500 
 28 H        6.0030    -2.1780    -2.1960 H     1 <1>   0.1500 
 29 H        3.9920    -3.5700    -0.4990 H     1 <1>   0.1500 
 30 H        7.6760    -4.2400     2.6610 H     1 <1>   0.1500 
 31 H        4.2410    -5.7250     0.6420 H     1 <1>   0.1500 
 32 H        7.9020    -1.2060    -0.3580 H     1 <1>   0.3700 
 33 H        6.0860    -6.0590     2.2380 H     1 <1>   0.1500 
 34 H       10.1320    -0.1360     0.2700 H     1 <1>   0.0800 
 35 H        9.3560     0.2770     1.7820 H     1 <1>   0.0800 
 36 H        7.5780     1.4590     0.5570 H     1 <1>   0.0800 
 37 H        8.3420     1.0640    -0.9660 H     1 <1>   0.0800 
 38 H       10.3580     2.3430    -0.2520 H     1 <1>   0.0800 
 39 H        9.5440     2.7870     1.2210 H     1 <1>   0.0800 
 40 H        8.6270     3.5030    -1.5830 H     1 <1>   0.0800 
 41 H        9.9410     5.3300    -1.4390 H     1 <1>   0.0800 
 42 H       10.4860     4.8800     0.1740 H     1 <1>   0.0800 
 43 H        7.3690     3.9310     1.0970 H     1 <1>   0.0800 
 44 H        6.5860     3.7720    -0.4660 H     1 <1>   0.0800 
 45 H        6.9120     6.2010     0.6840 H     1 <1>   0.0800 
 46 H        7.1870     6.0210    -1.0530 H     1 <1>   0.0800 
@<TRIPOS>BOND
  1   1   2  1   
  2   2   3  ar  
  3   2   4  ar  
  4   3   5  ar  
  5   3  25  1   
  6   4   6  ar  
  7   4  26  1   
  8   5   7  ar  
  9   5  27  1   
 10   6   7  ar  
 11   6  28  1   
 12   7   8  1   
 13   8   9  ar  
 14   8  10  ar  
 15   9  11  1   
 16   9  12  ar  
 17  10  13  ar  
 18  10  29  1   
 19  11  14  2   
 20  11  15  am  
 21  12  16  ar  
 22  12  30  1   
 23  13  16  ar  
 24  13  31  1   
 25  15  17  1   
 26  15  32  1   
 27  16  33  1   
 28  17  18  1   
 29  17  34  1   
 30  17  35  1   
 31  18  19  1   
 32  18  36  1   
 33  18  37  1   
 34  19  20  1   
 35  19  38  1   
 36  19  39  1   
 37  20  21  1   
 38  20  22  1   
 39  20  40  1   
 40  21  23  1   
 41  21  41  1   
 42  21  42  1   
 43  22  24  1   
 44  22  43  1   
 45  22  44  1   
 46  23  24  1   
 47  24  45  1   
 48  24  46  1   
@<TRIPOS>SUBSTRUCTURE
  1 ****  15 GROUP 4 **** **** 0

# MOE 2024.06 (io_trps.svl 2023.06)
