@<TRIPOS>MOLECULE
NONAME
47 49 1 0 0 
SMALL
USER_CHARGES


@<TRIPOS>ATOM
  1 O       -1.4800     0.1790     1.4580 O.2   1 <1>  -0.5700 
  2 C       -1.6710     0.7000     0.3720 C.2   1 <1>   0.7160 
  3 N       -2.0960    -0.0810    -0.6860 N.am  1 <1>  -0.6600 
  4 C       -1.4590     2.1040     0.2240 C.2   1 <1>  -0.0860 
  5 C       -2.3120    -1.5440    -0.5450 C.3   1 <1>   0.1400 
  6 C       -2.4760     0.5100    -2.0010 C.3   1 <1>   0.0600 
  7 C       -2.4590     3.0760     0.1040 C.2   1 <1>   0.3720 
  8 C       -0.3050     2.8110     0.1050 C.2   1 <1>   0.0870 
  9 C       -3.7900    -1.8220    -0.2880 C.3   1 <1>  -0.2400 
 10 N       -1.9410     4.2400    -0.0900 N.2   1 <1>  -0.4100 
 11 N       -3.8410     2.8310     0.1520 N.pl3 1 <1>  -0.8210 
 12 O       -0.6470     4.0610    -0.0790 O.3   1 <1>  -0.0190 
 13 C        1.0850     2.4330     0.1150 C.ar  1 <1>   0.0530 
 14 C       -4.3400     2.0270     1.3010 C.3   1 <1>   0.2090 
 15 C       -4.7580     3.9790    -0.0690 C.3   1 <1>   0.2090 
 16 C        1.5680     1.3990     0.9180 C.ar  1 <1>  -0.1500 
 17 C        2.0080     3.0990    -0.6920 C.ar  1 <1>  -0.1500 
 18 C       -5.5760     2.7520     1.8180 C.3   1 <1>  -0.1600 
 19 C       -6.0460     3.5970     0.6420 C.3   1 <1>  -0.1600 
 20 C        2.9020     1.0350     0.9090 C.ar  1 <1>  -0.1500 
 21 C        3.3430     2.7430    -0.7060 C.ar  1 <1>  -0.1500 
 22 C        3.8040     1.7080     0.0900 C.ar  1 <1>   0.0830 
 23 O        5.1240     1.4170     0.0180 O.3   1 <1>  -0.3630 
 24 C        5.6950     0.3860     0.7920 C.3   1 <1>   0.0400 
 25 H       -1.7240    -1.9270     0.2720 H     1 <1>   0.0800 
 26 H       -1.9890    -2.0440    -1.4430 H     1 <1>   0.0800 
 27 H       -1.8320     1.3370    -2.2450 H     1 <1>   0.0800 
 28 H       -3.4920     0.8640    -1.9550 H     1 <1>   0.0800 
 29 H       -2.3930    -0.2260    -2.7810 H     1 <1>   0.0800 
 30 H       -4.0980    -1.3470     0.6260 H     1 <1>   0.0800 
 31 H       -3.9460    -2.8810    -0.1890 H     1 <1>   0.0800 
 32 H       -4.3930    -1.4620    -1.1020 H     1 <1>   0.0800 
 33 H       -3.5960     1.9370     2.0760 H     1 <1>   0.0800 
 34 H       -4.6040     1.0450     0.9470 H     1 <1>   0.0800 
 35 H       -4.9160     4.1420    -1.1220 H     1 <1>   0.0800 
 36 H       -4.3500     4.8720     0.3760 H     1 <1>   0.0800 
 37 H        0.8940     0.8730     1.5690 H     1 <1>   0.1500 
 38 H        1.6720     3.9060    -1.3190 H     1 <1>   0.1500 
 39 H       -5.2870     3.3910     2.6350 H     1 <1>   0.0800 
 40 H       -6.3290     2.0650     2.1590 H     1 <1>   0.0800 
 41 H       -6.6490     3.0020    -0.0220 H     1 <1>   0.0800 
 42 H       -6.6050     4.4620     0.9510 H     1 <1>   0.0800 
 43 H        3.2210     0.2320     1.5450 H     1 <1>   0.1500 
 44 H        4.0410     3.2660    -1.3360 H     1 <1>   0.1500 
 45 H        6.7450     0.3420     0.5670 H     1 <1>   0.0800 
 46 H        5.2260    -0.5470     0.5310 H     1 <1>   0.0800 
 47 H        5.5530     0.6120     1.8340 H     1 <1>   0.0800 
@<TRIPOS>BOND
  1   1   2  2   
  2   2   3  am  
  3   2   4  1   
  4   3   5  1   
  5   3   6  1   
  6   4   7  1   
  7   4   8  2   
  8   5   9  1   
  9   5  25  1   
 10   5  26  1   
 11   6  27  1   
 12   6  28  1   
 13   6  29  1   
 14   7  10  2   
 15   7  11  1   
 16   8  12  1   
 17   8  13  1   
 18   9  30  1   
 19   9  31  1   
 20   9  32  1   
 21  10  12  1   
 22  11  14  1   
 23  11  15  1   
 24  13  16  ar  
 25  13  17  ar  
 26  14  18  1   
 27  14  33  1   
 28  14  34  1   
 29  15  19  1   
 30  15  35  1   
 31  15  36  1   
 32  16  20  ar  
 33  16  37  1   
 34  17  21  ar  
 35  17  38  1   
 36  18  19  1   
 37  18  39  1   
 38  18  40  1   
 39  19  41  1   
 40  19  42  1   
 41  20  22  ar  
 42  20  43  1   
 43  21  22  ar  
 44  21  44  1   
 45  22  23  1   
 46  23  24  1   
 47  24  45  1   
 48  24  46  1   
 49  24  47  1   
@<TRIPOS>SUBSTRUCTURE
  1 ****   4 GROUP 4 **** **** 0

# MOE 2024.06 (io_trps.svl 2023.06)
