@<TRIPOS>MOLECULE
NONAME
36 38 1 0 0 
SMALL
USER_CHARGES


@<TRIPOS>ATOM
  1 O       -0.1440    -0.6230     1.3390 O.2   1 <1>  -0.5700 
  2 C       -0.2330    -1.8280     1.1330 C.2   1 <1>   0.7670 
  3 N        0.8890    -2.5980     1.3060 N.2   1 <1>  -0.6610 
  4 C       -1.4490    -2.4020     0.7320 C.2   1 <1>  -0.1360 
  5 C        0.7720    -3.8520     1.0860 C.2   1 <1>   0.4400 
  6 C       -1.5330    -3.7430     0.5090 C.2   1 <1>   0.2000 
  7 N       -0.3910    -4.4510     0.6940 N.pl3 1 <1>  -0.5500 
  8 N       -2.6540    -4.4290     0.1140 N.pl3 1 <1>  -0.8380 
  9 C       -3.9660    -3.7740    -0.1470 C.3   1 <1>   0.2090 
 10 C       -2.7730    -5.9010    -0.0560 C.3   1 <1>   0.2090 
 11 C       -4.9120    -4.9070    -0.5550 C.3   1 <1>   0.2000 
 12 C       -4.2740    -6.1870    -0.0210 C.3   1 <1>  -0.0800 
 13 O       -6.1790    -4.7470    -0.0120 O.3   1 <1>  -0.6800 
 14 C       -4.6820    -7.4410    -0.8110 C.3   1 <1>  -0.0170 
 15 C       -3.8970    -8.6580    -0.3480 C.ar  1 <1>  -0.1430 
 16 C       -4.1490    -9.2670     0.8650 C.ar  1 <1>  -0.1500 
 17 C       -2.8890    -9.2140    -1.1110 C.ar  1 <1>  -0.1500 
 18 C       -3.3960   -10.3640     1.2500 C.ar  1 <1>   0.1600 
 19 C       -2.1960   -10.3140    -0.6330 C.ar  1 <1>   0.1600 
 20 N       -2.4210   -10.8970     0.5320 N.ar  1 <1>  -0.6200 
 21 H       -2.2830    -1.7440     0.6150 H     1 <1>   0.1500 
 22 H        1.6270    -4.4950     1.2080 H     1 <1>   0.0600 
 23 H       -0.4150    -5.4530     0.5290 H     1 <1>   0.4000 
 24 H       -4.3090    -3.2930     0.7530 H     1 <1>   0.0800 
 25 H       -3.8720    -3.0550    -0.9410 H     1 <1>   0.0800 
 26 H       -2.3550    -6.1770    -1.0090 H     1 <1>   0.0800 
 27 H       -2.2660    -6.4310     0.7330 H     1 <1>   0.0800 
 28 H       -5.0040    -4.9300    -1.6270 H     1 <1>   0.0800 
 29 H       -4.5410    -6.3150     1.0130 H     1 <1>   0.0800 
 30 H       -6.1340    -4.7350     0.9640 H     1 <1>   0.4000 
 31 H       -4.5140    -7.2820    -1.8620 H     1 <1>   0.0800 
 32 H       -5.7350    -7.6210    -0.6770 H     1 <1>   0.0800 
 33 H       -4.9250    -8.9020     1.5130 H     1 <1>   0.1500 
 34 H       -2.6360    -8.8080    -2.0730 H     1 <1>   0.1500 
 35 H       -3.6070   -10.8270     2.1990 H     1 <1>   0.1500 
 36 H       -1.4140   -10.7360    -1.2410 H     1 <1>   0.1500 
@<TRIPOS>BOND
  1   1   2  2   
  2   2   3  1   
  3   2   4  1   
  4   3   5  2   
  5   4   6  2   
  6   4  21  1   
  7   5   7  1   
  8   5  22  1   
  9   6   7  1   
 10   6   8  1   
 11   7  23  1   
 12   8   9  1   
 13   8  10  1   
 14   9  11  1   
 15   9  24  1   
 16   9  25  1   
 17  10  12  1   
 18  10  26  1   
 19  10  27  1   
 20  11  12  1   
 21  11  13  1   
 22  11  28  1   
 23  12  14  1   
 24  12  29  1   
 25  13  30  1   
 26  14  15  1   
 27  14  31  1   
 28  14  32  1   
 29  15  16  ar  
 30  15  17  ar  
 31  16  18  ar  
 32  16  33  1   
 33  17  19  ar  
 34  17  34  1   
 35  18  20  ar  
 36  18  35  1   
 37  19  20  ar  
 38  19  36  1   
@<TRIPOS>SUBSTRUCTURE
  1 ****  10 GROUP 4 **** **** 0

# MOE 2024.06 (io_trps.svl 2023.06)
