@<TRIPOS>MOLECULE
NONAME
53 55 1 0 0 
SMALL
USER_CHARGES


@<TRIPOS>ATOM
  1 O        0.6270     1.6070    -1.9480 O.2   1 <1>  -0.5700 
  2 C        1.6070     1.0750    -1.4770 C.2   1 <1>   0.7150 
  3 N        1.6450    -0.2750    -1.6170 N.am  1 <1>  -0.7300 
  4 C        2.6110     1.8750    -0.8380 C.2   1 <1>  -0.2370 
  5 C        2.4290    -1.3600    -0.9670 C.3   1 <1>   0.1400 
  6 N        3.8580     1.4880    -0.4820 N.pl3 1 <1>   0.3140 
  7 C        2.5360     3.1830    -0.4840 C.2   1 <1>  -0.1500 
  8 C        3.5530    -0.8990    -0.0270 C.3   1 <1>   0.2000 
  9 N        4.5600     2.4790     0.0770 N.2   1 <1>  -0.7070 
 10 C        4.4640     0.1600    -0.6430 C.3   1 <1>   0.0960 
 11 C        3.7580     3.5310     0.0850 C.2   1 <1>   0.2030 
 12 O        4.3230    -2.0090     0.2970 O.3   1 <1>  -0.6800 
 13 C        4.0650     4.8750     0.5700 C.2   1 <1>   0.7160 
 14 O        3.4310     5.8280     0.1380 O.2   1 <1>  -0.5700 
 15 N        5.0720     5.1670     1.4840 N.am  1 <1>  -0.6600 
 16 C        5.4590     6.5760     1.7870 C.3   1 <1>   0.1400 
 17 C        5.7400     4.1120     2.3060 C.3   1 <1>   0.0600 
 18 C        6.0250     7.2670     0.5290 C.3   1 <1>   0.3430 
 19 N        5.5130     8.6640     0.3300 N.4   1 <1>  -0.9590 
 20 C        4.0580     8.6570    -0.0240 C.3   1 <1>   0.3430 
 21 C        6.3090     9.3570    -0.7230 C.3   1 <1>   0.3430 
 22 C        3.5440    10.0920    -0.1400 C.3   1 <1>  -0.1600 
 23 C        5.8490    10.8100    -0.8480 C.3   1 <1>  -0.1600 
 24 C        4.3500    10.9010    -1.1660 C.3   1 <1>  -0.0800 
 25 C        3.8890    12.3610    -1.1880 C.3   1 <1>  -0.2400 
 26 H        0.8330    -0.6100    -2.1430 H     1 <1>   0.3700 
 27 H        2.8560    -1.9640    -1.7490 H     1 <1>   0.0800 
 28 H        1.7500    -1.9760    -0.4030 H     1 <1>   0.0800 
 29 H        1.6970     3.8450    -0.6180 H     1 <1>   0.1500 
 30 H        3.1370    -0.5360     0.8990 H     1 <1>   0.0800 
 31 H        5.4100     0.1680    -0.1320 H     1 <1>   0.0800 
 32 H        4.6230    -0.0230    -1.6890 H     1 <1>   0.0800 
 33 H        4.7840    -2.3750    -0.4830 H     1 <1>   0.4000 
 34 H        6.2040     6.5950     2.5630 H     1 <1>   0.0800 
 35 H        4.5870     7.0920     2.1500 H     1 <1>   0.0800 
 36 H        5.0620     3.2970     2.4910 H     1 <1>   0.0800 
 37 H        6.0500     4.5060     3.2580 H     1 <1>   0.0800 
 38 H        6.6000     3.7310     1.7810 H     1 <1>   0.0800 
 39 H        5.7630     6.6760    -0.3340 H     1 <1>   0.0800 
 40 H        7.0990     7.2810     0.6050 H     1 <1>   0.0800 
 41 H        5.6180     9.1970     1.2010 H     1 <1>   0.4500 
 42 H        3.4900     8.1370     0.7310 H     1 <1>   0.0800 
 43 H        3.9100     8.1400    -0.9590 H     1 <1>   0.0800 
 44 H        6.1750     8.8560    -1.6690 H     1 <1>   0.0800 
 45 H        7.3570     9.3330    -0.4720 H     1 <1>   0.0800 
 46 H        3.5870    10.5640     0.8260 H     1 <1>   0.0800 
 47 H        2.5110    10.0640    -0.4390 H     1 <1>   0.0800 
 48 H        6.4100    11.2840    -1.6350 H     1 <1>   0.0800 
 49 H        6.0710    11.3330     0.0660 H     1 <1>   0.0800 
 50 H        4.1800    10.4790    -2.1450 H     1 <1>   0.0800 
 51 H        4.0370    12.8290    -0.2300 H     1 <1>   0.0800 
 52 H        2.8430    12.4200    -1.4370 H     1 <1>   0.0800 
 53 H        4.4380    12.9180    -1.9280 H     1 <1>   0.0800 
@<TRIPOS>BOND
  1   1   2  2   
  2   2   3  am  
  3   2   4  1   
  4   3   5  1   
  5   3  26  1   
  6   4   6  1   
  7   4   7  2   
  8   5   8  1   
  9   5  27  1   
 10   5  28  1   
 11   6   9  1   
 12   6  10  1   
 13   7  11  1   
 14   7  29  1   
 15   8  10  1   
 16   8  12  1   
 17   8  30  1   
 18   9  11  2   
 19  10  31  1   
 20  10  32  1   
 21  11  13  1   
 22  12  33  1   
 23  13  14  2   
 24  13  15  am  
 25  15  16  1   
 26  15  17  1   
 27  16  18  1   
 28  16  34  1   
 29  16  35  1   
 30  17  36  1   
 31  17  37  1   
 32  17  38  1   
 33  18  19  1   
 34  18  39  1   
 35  18  40  1   
 36  19  20  1   
 37  19  21  1   
 38  19  41  1   
 39  20  22  1   
 40  20  42  1   
 41  20  43  1   
 42  21  23  1   
 43  21  44  1   
 44  21  45  1   
 45  22  24  1   
 46  22  46  1   
 47  22  47  1   
 48  23  24  1   
 49  23  48  1   
 50  23  49  1   
 51  24  25  1   
 52  24  50  1   
 53  25  51  1   
 54  25  52  1   
 55  25  53  1   
@<TRIPOS>SUBSTRUCTURE
  1 ****  13 GROUP 4 **** **** 0

# MOE 2024.06 (io_trps.svl 2023.06)
