@<TRIPOS>MOLECULE
NONAME
46 47 1 0 0 
SMALL
USER_CHARGES


@<TRIPOS>ATOM
  1 S       -0.1990     0.1130     0.0360 S.o2  1 <1>   1.3330 
  2 O       -0.0550    -0.6000     1.2850 O.2   1 <1>  -0.6500 
  3 O       -0.9520     1.3460     0.0010 O.2   1 <1>  -0.6500 
  4 N       -0.8710    -0.9570    -1.0980 N.am  1 <1>  -0.8490 
  5 C        1.4210     0.4470    -0.6580 C.3   1 <1>  -0.0550 
  6 C       -0.5020    -2.3580    -0.8670 C.3   1 <1>   0.1160 
  7 C       -2.3290    -0.8330    -1.1850 C.3   1 <1>   0.1160 
  8 C        2.2320     1.4880     0.1400 C.3   1 <1>  -0.0800 
  9 C        3.4950     1.8860    -0.6060 C.3   1 <1>   0.2200 
 10 C        2.7850     0.9100     1.4530 C.3   1 <1>   0.1200 
 11 N        3.9040     3.2400    -0.1760 N.am  1 <1>  -0.7300 
 12 C        4.4980     0.8670    -0.0830 C.3   1 <1>   0.1200 
 13 O        4.1440     0.6510     1.2480 O.3   1 <1>  -0.5600 
 14 C        3.9820     4.3210    -0.9870 C.2   1 <1>   0.5690 
 15 O        3.7150     4.2600    -2.1610 O.2   1 <1>  -0.5700 
 16 C        4.4330     5.6390    -0.4020 C.3   1 <1>  -0.0990 
 17 C        5.8960     5.9260    -0.7600 C.3   1 <1>  -0.0170 
 18 C        6.3490     7.2340    -0.1320 C.ar  1 <1>  -0.1440 
 19 C        6.1280     8.4430    -0.7780 C.ar  1 <1>   0.1600 
 20 C        6.9840     7.2440     1.0940 C.ar  1 <1>  -0.1500 
 21 N        6.4780     9.6300    -0.3100 N.ar  1 <1>  -0.6200 
 22 C        7.3580     8.4720     1.5960 C.ar  1 <1>  -0.1500 
 23 C        7.0850     9.6160     0.8660 C.ar  1 <1>   0.1600 
 24 H        1.9760    -0.4680    -0.7280 H     1 <1>   0.0800 
 25 H        1.2790     0.8200    -1.6540 H     1 <1>   0.0800 
 26 H       -0.8760    -2.9750    -1.6660 H     1 <1>   0.0800 
 27 H       -0.9130    -2.7070     0.0670 H     1 <1>   0.0800 
 28 H        0.5690    -2.4600    -0.8320 H     1 <1>   0.0800 
 29 H       -2.7190    -1.5130    -1.9220 H     1 <1>   0.0800 
 30 H       -2.5970     0.1690    -1.4790 H     1 <1>   0.0800 
 31 H       -2.7810    -1.0450    -0.2300 H     1 <1>   0.0800 
 32 H        1.6060     2.3450     0.3240 H     1 <1>   0.0800 
 33 H        3.3930     1.8450    -1.6780 H     1 <1>   0.0800 
 34 H        2.3070    -0.0060     1.7520 H     1 <1>   0.0800 
 35 H        2.7070     1.6270     2.2520 H     1 <1>   0.0800 
 36 H        4.1690     3.3020     0.8100 H     1 <1>   0.3700 
 37 H        5.5140     1.2170    -0.1370 H     1 <1>   0.0800 
 38 H        4.4040    -0.0680    -0.6060 H     1 <1>   0.0800 
 39 H        3.8050     6.4180    -0.7940 H     1 <1>   0.0800 
 40 H        4.3140     5.6230     0.6650 H     1 <1>   0.0800 
 41 H        6.0000     5.9810    -1.8310 H     1 <1>   0.0800 
 42 H        6.5200     5.1210    -0.4140 H     1 <1>   0.0800 
 43 H        5.6320     8.4340    -1.7340 H     1 <1>   0.1500 
 44 H        7.1820     6.3370     1.6380 H     1 <1>   0.1500 
 45 H        7.8570     8.5450     2.5450 H     1 <1>   0.1500 
 46 H        7.3820    10.5680     1.2690 H     1 <1>   0.1500 
@<TRIPOS>BOND
  1   1   2  2   
  2   1   3  2   
  3   1   4  am  
  4   1   5  1   
  5   4   6  1   
  6   4   7  1   
  7   5   8  1   
  8   5  24  1   
  9   5  25  1   
 10   6  26  1   
 11   6  27  1   
 12   6  28  1   
 13   7  29  1   
 14   7  30  1   
 15   7  31  1   
 16   8   9  1   
 17   8  10  1   
 18   8  32  1   
 19   9  11  1   
 20   9  12  1   
 21   9  33  1   
 22  10  13  1   
 23  10  34  1   
 24  10  35  1   
 25  11  14  am  
 26  11  36  1   
 27  12  13  1   
 28  12  37  1   
 29  12  38  1   
 30  14  15  2   
 31  14  16  1   
 32  16  17  1   
 33  16  39  1   
 34  16  40  1   
 35  17  18  1   
 36  17  41  1   
 37  17  42  1   
 38  18  19  ar  
 39  18  20  ar  
 40  19  21  ar  
 41  19  43  1   
 42  20  22  ar  
 43  20  44  1   
 44  21  23  ar  
 45  22  23  ar  
 46  22  45  1   
 47  23  46  1   
@<TRIPOS>SUBSTRUCTURE
  1 ****  11 GROUP 4 **** **** 0

# MOE 2024.06 (io_trps.svl 2023.06)
