@<TRIPOS>MOLECULE
NONAME
46 47 1 0 0 
SMALL
USER_CHARGES


@<TRIPOS>ATOM
  1 S        0.6010     0.6200    -1.6880 S.o2  1 <1>   1.3330 
  2 O        0.8400    -0.7380    -2.1240 O.2   1 <1>  -0.6500 
  3 O       -0.1700     1.5140    -2.5220 O.2   1 <1>  -0.6500 
  4 N       -0.1780     0.5510    -0.1790 N.am  1 <1>  -0.8490 
  5 C        2.1860     1.3720    -1.3130 C.3   1 <1>  -0.0550 
  6 C       -0.7980     1.8220     0.2130 C.3   1 <1>   0.1160 
  7 C       -1.1750    -0.5220    -0.1230 C.3   1 <1>   0.1160 
  8 C        3.1450     0.4640    -0.5120 C.3   1 <1>  -0.0800 
  9 C        4.5370     1.0370    -0.2980 C.3   1 <1>   0.2200 
 10 C        2.6970     0.1310     0.9170 C.3   1 <1>   0.1200 
 11 N        4.4620     2.4640     0.0930 N.am  1 <1>  -0.7300 
 12 C        4.9880     0.2230     0.9060 C.3   1 <1>   0.1200 
 13 O        3.8520     0.1050     1.7070 O.3   1 <1>  -0.5600 
 14 C        4.6760     3.5270    -0.7360 C.2   1 <1>   0.5440 
 15 O        4.9270     3.2960    -1.9020 O.2   1 <1>  -0.5700 
 16 C        4.5860     4.8900    -0.2400 C.ar  1 <1>   0.0860 
 17 C        5.2370     5.9360    -0.8930 C.ar  1 <1>  -0.1500 
 18 C        3.8450     5.2120     0.8980 C.ar  1 <1>  -0.1500 
 19 C        5.1710     7.2430    -0.4380 C.ar  1 <1>   0.0820 
 20 C        3.7730     6.5130     1.3580 C.ar  1 <1>   0.0820 
 21 O        5.8500     8.1720    -1.1550 O.3   1 <1>  -0.3630 
 22 C        4.4310     7.5370     0.7020 C.ar  1 <1>  -0.1500 
 23 O        3.0480     6.7680     2.4570 O.3   1 <1>  -0.5330 
 24 C        5.8380     9.5360    -0.7980 C.3   1 <1>   0.0400 
 25 H        2.6670     1.6220    -2.2390 H     1 <1>   0.0800 
 26 H        2.0230     2.2900    -0.7850 H     1 <1>   0.0800 
 27 H       -1.1970     1.7460     1.2100 H     1 <1>   0.0800 
 28 H       -1.5960     2.0780    -0.4650 H     1 <1>   0.0800 
 29 H       -0.0680     2.6130     0.2000 H     1 <1>   0.0800 
 30 H       -1.6420    -0.5480     0.8470 H     1 <1>   0.0800 
 31 H       -0.7030    -1.4750    -0.2930 H     1 <1>   0.0800 
 32 H       -1.9300    -0.3710    -0.8770 H     1 <1>   0.0800 
 33 H        3.2510    -0.4670    -1.0430 H     1 <1>   0.0800 
 34 H        5.1830     0.9050    -1.1510 H     1 <1>   0.0800 
 35 H        2.2100    -0.8280     0.9710 H     1 <1>   0.0800 
 36 H        2.0490     0.8910     1.3190 H     1 <1>   0.0800 
 37 H        4.2830     2.6090     1.0890 H     1 <1>   0.3700 
 38 H        5.7790     0.6970     1.4600 H     1 <1>   0.0800 
 39 H        5.2880    -0.7670     0.6090 H     1 <1>   0.0800 
 40 H        5.8110     5.7270    -1.7780 H     1 <1>   0.1500 
 41 H        3.3090     4.4520     1.4350 H     1 <1>   0.1500 
 42 H        4.3620     8.5380     1.0790 H     1 <1>   0.1500 
 43 H        3.0520     7.7060     2.7180 H     1 <1>   0.4500 
 44 H        6.4360    10.0720    -1.5140 H     1 <1>   0.0800 
 45 H        6.2610     9.6450     0.1840 H     1 <1>   0.0800 
 46 H        4.8250     9.8960    -0.8270 H     1 <1>   0.0800 
@<TRIPOS>BOND
  1   1   2  2   
  2   1   3  2   
  3   1   4  am  
  4   1   5  1   
  5   4   6  1   
  6   4   7  1   
  7   5   8  1   
  8   5  25  1   
  9   5  26  1   
 10   6  27  1   
 11   6  28  1   
 12   6  29  1   
 13   7  30  1   
 14   7  31  1   
 15   7  32  1   
 16   8   9  1   
 17   8  10  1   
 18   8  33  1   
 19   9  11  1   
 20   9  12  1   
 21   9  34  1   
 22  10  13  1   
 23  10  35  1   
 24  10  36  1   
 25  11  14  am  
 26  11  37  1   
 27  12  13  1   
 28  12  38  1   
 29  12  39  1   
 30  14  15  2   
 31  14  16  1   
 32  16  17  ar  
 33  16  18  ar  
 34  17  19  ar  
 35  17  40  1   
 36  18  20  ar  
 37  18  41  1   
 38  19  21  1   
 39  19  22  ar  
 40  20  22  ar  
 41  20  23  1   
 42  21  24  1   
 43  22  42  1   
 44  23  43  1   
 45  24  44  1   
 46  24  45  1   
 47  24  46  1   
@<TRIPOS>SUBSTRUCTURE
  1 ****  11 GROUP 4 **** **** 0

# MOE 2024.06 (io_trps.svl 2023.06)
