@<TRIPOS>MOLECULE
NONAME
55 57 1 0 0 
SMALL
USER_CHARGES


@<TRIPOS>ATOM
  1 O       -0.6720    -0.0880    -1.0540 O.2   1 <1>  -0.5700 
  2 C       -1.6430     0.4110    -0.5160 C.2   1 <1>   0.5440 
  3 N       -1.5430     1.7020    -0.0400 N.am  1 <1>  -0.6600 
  4 C       -2.8570    -0.3620    -0.4120 C.ar  1 <1>   0.0860 
  5 C       -2.7030     2.6060     0.2240 C.3   1 <1>   0.1400 
  6 C       -0.2290     2.4050     0.0480 C.3   1 <1>   0.1400 
  7 C       -3.3850    -0.9970    -1.5330 C.ar  1 <1>   0.1600 
  8 C       -3.5480    -0.5250     0.7850 C.ar  1 <1>  -0.1500 
  9 C       -2.4780     3.4080     1.5160 C.3   1 <1>   0.1200 
 10 C       -0.1410     3.2290     1.3440 C.3   1 <1>   0.1200 
 11 N       -4.4940    -1.7150    -1.5700 N.ar  1 <1>  -0.6200 
 12 C       -4.7010    -1.2720     0.7670 C.ar  1 <1>  -0.1500 
 13 O       -1.2490     4.0770     1.4740 O.3   1 <1>  -0.5600 
 14 C       -5.1460    -1.8450    -0.4200 C.ar  1 <1>   0.4100 
 15 N       -6.2970    -2.5790    -0.4240 N.pl3 1 <1>  -0.8690 
 16 C       -6.6290    -3.5080    -1.5190 C.3   1 <1>   0.3530 
 17 C       -7.9310    -4.2190    -1.1820 C.ar  1 <1>  -0.1430 
 18 C       -7.9920    -5.1480    -0.1480 C.ar  1 <1>   0.0830 
 19 C       -9.0730    -3.9430    -1.9200 C.ar  1 <1>  -0.1500 
 20 O       -6.8520    -5.3730     0.5600 O.3   1 <1>  -0.3620 
 21 C       -9.1970    -5.7970     0.1530 C.ar  1 <1>   0.0830 
 22 C      -10.2620    -4.5880    -1.6370 C.ar  1 <1>  -0.1500 
 23 C       -6.3560    -6.6910     0.6180 C.3   1 <1>   0.1200 
 24 O       -9.2320    -6.6800     1.1930 O.3   1 <1>  -0.3630 
 25 C      -10.3270    -5.5110    -0.6090 C.ar  1 <1>  -0.1500 
 26 C       -4.8410    -6.6170     0.8100 C.3   1 <1>  -0.1600 
 27 C      -10.4480    -7.1930     1.6890 C.3   1 <1>   0.0400 
 28 C       -4.2160    -8.0150     0.8730 C.3   1 <1>  -0.2400 
 29 H       -3.6210     2.0520     0.2980 H     1 <1>   0.0800 
 30 H       -2.8020     3.2940    -0.5980 H     1 <1>   0.0800 
 31 H       -0.1190     3.0590    -0.7990 H     1 <1>   0.0800 
 32 H        0.5790     1.6950     0.0270 H     1 <1>   0.0800 
 33 H       -2.8420    -0.8960    -2.4580 H     1 <1>   0.1500 
 34 H       -3.1800    -0.0780     1.6920 H     1 <1>   0.1500 
 35 H       -2.4870     2.7590     2.3740 H     1 <1>   0.0800 
 36 H       -3.2490     4.1490     1.6330 H     1 <1>   0.0800 
 37 H        0.7420     3.8420     1.3340 H     1 <1>   0.0800 
 38 H       -0.1010     2.5800     2.2010 H     1 <1>   0.0800 
 39 H       -5.2740    -1.4250     1.6620 H     1 <1>   0.1500 
 40 H       -6.5940    -2.9820     0.4690 H     1 <1>   0.4000 
 41 H       -5.8360    -4.2270    -1.6310 H     1 <1>   0.0800 
 42 H       -6.7210    -2.9570    -2.4390 H     1 <1>   0.0800 
 43 H       -9.0390    -3.2210    -2.7180 H     1 <1>   0.1500 
 44 H      -11.1410    -4.3680    -2.2180 H     1 <1>   0.1500 
 45 H       -6.6020    -7.1950    -0.3010 H     1 <1>   0.0800 
 46 H       -6.8220    -7.1930     1.4470 H     1 <1>   0.0800 
 47 H      -11.2660    -5.9920    -0.4190 H     1 <1>   0.1500 
 48 H       -4.6270    -6.0900     1.7240 H     1 <1>   0.0800 
 49 H       -4.4070    -6.0710    -0.0100 H     1 <1>   0.0800 
 50 H      -10.2300    -7.7860     2.5590 H     1 <1>   0.0800 
 51 H      -10.9030    -7.8080     0.9330 H     1 <1>   0.0800 
 52 H      -11.0890    -6.3720     1.9590 H     1 <1>   0.0800 
 53 H       -4.6260    -8.5730     1.6980 H     1 <1>   0.0800 
 54 H       -3.1520    -7.9360     1.0090 H     1 <1>   0.0800 
 55 H       -4.4060    -8.5540    -0.0390 H     1 <1>   0.0800 
@<TRIPOS>BOND
  1   1   2  2   
  2   2   3  am  
  3   2   4  1   
  4   3   5  1   
  5   3   6  1   
  6   4   7  ar  
  7   4   8  ar  
  8   5   9  1   
  9   5  29  1   
 10   5  30  1   
 11   6  10  1   
 12   6  31  1   
 13   6  32  1   
 14   7  11  ar  
 15   7  33  1   
 16   8  12  ar  
 17   8  34  1   
 18   9  13  1   
 19   9  35  1   
 20   9  36  1   
 21  10  13  1   
 22  10  37  1   
 23  10  38  1   
 24  11  14  ar  
 25  12  14  ar  
 26  12  39  1   
 27  14  15  1   
 28  15  16  1   
 29  15  40  1   
 30  16  17  1   
 31  16  41  1   
 32  16  42  1   
 33  17  18  ar  
 34  17  19  ar  
 35  18  20  1   
 36  18  21  ar  
 37  19  22  ar  
 38  19  43  1   
 39  20  23  1   
 40  21  24  1   
 41  21  25  ar  
 42  22  25  ar  
 43  22  44  1   
 44  23  26  1   
 45  23  45  1   
 46  23  46  1   
 47  24  27  1   
 48  25  47  1   
 49  26  28  1   
 50  26  48  1   
 51  26  49  1   
 52  27  50  1   
 53  27  51  1   
 54  27  52  1   
 55  28  53  1   
 56  28  54  1   
 57  28  55  1   
@<TRIPOS>SUBSTRUCTURE
  1 ****  14 GROUP 4 **** **** 0

# MOE 2024.06 (io_trps.svl 2023.06)
