@<TRIPOS>MOLECULE
NONAME
45 46 1 0 0 
SMALL
USER_CHARGES


@<TRIPOS>ATOM
  1 O       -0.3400     0.3980    -0.3680 O.2   1 <1>  -0.5700 
  2 C        0.6900    -0.2290    -0.4180 C.2   1 <1>   0.5690 
  3 N        1.8810     0.3270    -0.0730 N.am  1 <1>  -0.7300 
  4 C        0.6150    -1.7040    -0.8560 C.3   1 <1>   0.4040 
  5 C        2.0560     1.7370     0.3140 C.3   1 <1>   0.2780 
  6 N       -0.1360    -2.6070     0.1020 N.4   1 <1>  -0.9590 
  7 C        3.3930     2.1740    -0.2380 C.2   1 <1>  -0.2880 
  8 C       -0.1650    -4.0390    -0.3120 C.3   1 <1>   0.3430 
  9 C       -1.5520    -2.2000     0.2770 C.3   1 <1>   0.3430 
 10 C        4.4690     2.4830     0.4930 C.2   1 <1>  -0.3000 
 11 C       -1.4990    -4.6260     0.1920 C.3   1 <1>   0.0000 
 12 C       -2.2020    -3.4350     0.8680 C.3   1 <1>  -0.1600 
 13 C       -1.2380    -5.7300     1.2430 C.3   1 <1>  -0.1600 
 14 C       -2.3150    -5.0980    -1.0380 C.3   1 <1>  -0.1600 
 15 C       -0.8790    -7.1110     0.6690 C.3   1 <1>  -0.1600 
 16 C       -3.4620    -6.0740    -0.7300 C.3   1 <1>  -0.1600 
 17 C       -2.1240    -7.9760     0.4210 C.3   1 <1>  -0.1600 
 18 C       -3.0010    -7.5400    -0.7610 C.3   1 <1>  -0.1600 
 19 H        2.7710    -0.1730    -0.1200 H     1 <1>   0.3700 
 20 H        1.6190    -2.0690    -0.9790 H     1 <1>   0.0800 
 21 H        0.1340    -1.7320    -1.8180 H     1 <1>   0.0800 
 22 H        2.0480     1.8190     1.3880 H     1 <1>   0.0800 
 23 H        1.2640     2.3480    -0.0870 H     1 <1>   0.0800 
 24 H        0.2990    -2.5470     1.0320 H     1 <1>   0.4500 
 25 H        3.3960     2.2180    -1.3150 H     1 <1>   0.1500 
 26 H        0.6730    -4.5760     0.1020 H     1 <1>   0.0800 
 27 H       -0.1260    -4.1130    -1.3870 H     1 <1>   0.0800 
 28 H       -1.9940    -1.9760    -0.6810 H     1 <1>   0.0800 
 29 H       -1.6480    -1.3400     0.9220 H     1 <1>   0.0800 
 30 H        5.4100     2.7960     0.0720 H     1 <1>   0.1500 
 31 H        4.5070     2.4550     1.5690 H     1 <1>   0.1500 
 32 H       -3.2660    -3.4300     0.7080 H     1 <1>   0.0800 
 33 H       -2.0280    -3.4290     1.9300 H     1 <1>   0.0800 
 34 H       -2.1060    -5.8410     1.8730 H     1 <1>   0.0800 
 35 H       -0.4400    -5.4140     1.8920 H     1 <1>   0.0800 
 36 H       -1.6620    -5.5690    -1.7530 H     1 <1>   0.0800 
 37 H       -2.7300    -4.2390    -1.5370 H     1 <1>   0.0800 
 38 H       -0.2760    -7.6260     1.3990 H     1 <1>   0.0800 
 39 H       -0.2900    -7.0290    -0.2280 H     1 <1>   0.0800 
 40 H       -4.2100    -5.9590    -1.4960 H     1 <1>   0.0800 
 41 H       -3.9350    -5.8440     0.2090 H     1 <1>   0.0800 
 42 H       -2.7260    -8.0030     1.3140 H     1 <1>   0.0800 
 43 H       -1.8030    -8.9870     0.2370 H     1 <1>   0.0800 
 44 H       -2.4770    -7.7340    -1.6810 H     1 <1>   0.0800 
 45 H       -3.8770    -8.1680    -0.7680 H     1 <1>   0.0800 
@<TRIPOS>BOND
  1   1   2  2   
  2   2   3  am  
  3   2   4  1   
  4   3   5  1   
  5   3  19  1   
  6   4   6  1   
  7   4  20  1   
  8   4  21  1   
  9   5   7  1   
 10   5  22  1   
 11   5  23  1   
 12   6   8  1   
 13   6   9  1   
 14   6  24  1   
 15   7  10  2   
 16   7  25  1   
 17   8  11  1   
 18   8  26  1   
 19   8  27  1   
 20   9  12  1   
 21   9  28  1   
 22   9  29  1   
 23  10  30  1   
 24  10  31  1   
 25  11  12  1   
 26  11  13  1   
 27  11  14  1   
 28  12  32  1   
 29  12  33  1   
 30  13  15  1   
 31  13  34  1   
 32  13  35  1   
 33  14  16  1   
 34  14  36  1   
 35  14  37  1   
 36  15  17  1   
 37  15  38  1   
 38  15  39  1   
 39  16  18  1   
 40  16  40  1   
 41  16  41  1   
 42  17  18  1   
 43  17  42  1   
 44  17  43  1   
 45  18  44  1   
 46  18  45  1   
@<TRIPOS>SUBSTRUCTURE
  1 ****   6 GROUP 4 **** **** 0

# MOE 2024.06 (io_trps.svl 2023.06)
