@<TRIPOS>MOLECULE
NONAME
40 41 1 0 0 
SMALL
USER_CHARGES


@<TRIPOS>ATOM
  1 S       -0.1440    -0.1200    -1.2030 S.o2  1 <1>   1.3330 
  2 O        0.6550    -0.0830    -2.4070 O.2   1 <1>  -0.6500 
  3 O       -1.1360    -1.1570    -1.0340 O.2   1 <1>  -0.6500 
  4 N        0.9120    -0.2070     0.1250 N.am  1 <1>  -0.8490 
  5 C       -0.9320     1.4820    -1.0190 C.3   1 <1>  -0.0550 
  6 C        0.2550    -0.6230     1.3690 C.3   1 <1>   0.1160 
  7 C        2.0700    -1.0660    -0.1380 C.3   1 <1>   0.1160 
  8 C        0.0180     2.6860    -1.2030 C.3   1 <1>  -0.0800 
  9 C       -0.6930     4.0410    -1.2460 C.3   1 <1>   0.2000 
 10 C        1.0690     2.8480    -0.0970 C.3   1 <1>   0.1400 
 11 O       -1.6330     4.0910    -0.2270 O.3   1 <1>  -0.6800 
 12 C        0.4150     5.0410    -0.9220 C.3   1 <1>   0.1400 
 13 N        1.3100     4.3080     0.0080 N.am  1 <1>  -0.6600 
 14 C        2.1990     4.8590     0.9120 C.2   1 <1>   0.7160 
 15 O        2.6670     4.1080     1.7510 O.2   1 <1>  -0.5700 
 16 C        2.5940     6.2700     0.9300 C.2   1 <1>   0.1410 
 17 N        2.2960     7.1660    -0.1170 N.2   1 <1>  -0.5650 
 18 C        3.2900     6.8380     1.9410 C.2   1 <1>  -0.1100 
 19 C        2.7420     8.3350     0.1000 C.2   1 <1>   0.1980 
 20 S        3.5890     8.5130     1.6150 S.3   1 <1>  -0.0800 
 21 C        2.6280     9.5590    -0.7780 C.3   1 <1>  -0.0600 
 22 H       -1.7080     1.5570    -1.7560 H     1 <1>   0.0800 
 23 H       -1.4050     1.5360    -0.0580 H     1 <1>   0.0800 
 24 H        0.9490    -0.5660     2.1900 H     1 <1>   0.0800 
 25 H       -0.1060    -1.6350     1.2840 H     1 <1>   0.0800 
 26 H       -0.5790     0.0230     1.5840 H     1 <1>   0.0800 
 27 H        2.7260    -1.0800     0.7150 H     1 <1>   0.0800 
 28 H        2.6250    -0.6890    -0.9810 H     1 <1>   0.0800 
 29 H        1.7480    -2.0710    -0.3580 H     1 <1>   0.0800 
 30 H        0.5450     2.5670    -2.1340 H     1 <1>   0.0800 
 31 H       -1.1860     4.2400    -2.1820 H     1 <1>   0.0800 
 32 H        1.9820     2.3290    -0.3410 H     1 <1>   0.0800 
 33 H        0.6990     2.4850     0.8470 H     1 <1>   0.0800 
 34 H       -1.1610     4.1530     0.6290 H     1 <1>   0.4000 
 35 H        0.0180     5.9400    -0.4810 H     1 <1>   0.0800 
 36 H        0.9650     5.2890    -1.8140 H     1 <1>   0.0800 
 37 H        3.6650     6.4220     2.8590 H     1 <1>   0.1500 
 38 H        2.0900     9.3150    -1.6750 H     1 <1>   0.0800 
 39 H        3.6090     9.9100    -1.0420 H     1 <1>   0.0800 
 40 H        2.1020    10.3360    -0.2540 H     1 <1>   0.0800 
@<TRIPOS>BOND
  1   1   2  2   
  2   1   3  2   
  3   1   4  am  
  4   1   5  1   
  5   4   6  1   
  6   4   7  1   
  7   5   8  1   
  8   5  22  1   
  9   5  23  1   
 10   6  24  1   
 11   6  25  1   
 12   6  26  1   
 13   7  27  1   
 14   7  28  1   
 15   7  29  1   
 16   8   9  1   
 17   8  10  1   
 18   8  30  1   
 19   9  11  1   
 20   9  12  1   
 21   9  31  1   
 22  10  13  1   
 23  10  32  1   
 24  10  33  1   
 25  11  34  1   
 26  12  13  1   
 27  12  35  1   
 28  12  36  1   
 29  13  14  am  
 30  14  15  2   
 31  14  16  1   
 32  16  17  1   
 33  16  18  2   
 34  17  19  2   
 35  18  20  1   
 36  18  37  1   
 37  19  20  1   
 38  19  21  1   
 39  21  38  1   
 40  21  39  1   
 41  21  40  1   
@<TRIPOS>SUBSTRUCTURE
  1 ****  13 GROUP 4 **** **** 0

# MOE 2024.06 (io_trps.svl 2023.06)
