@<TRIPOS>MOLECULE
NONAME
41 44 1 0 0 
SMALL
USER_CHARGES


@<TRIPOS>ATOM
  1 F       -1.0980    -1.7320    -2.9470 F     1 <1>  -0.1900 
  2 C       -0.4340    -2.0200    -1.8510 C.ar  1 <1>   0.1900 
  3 C       -1.0910    -2.5850    -0.7420 C.ar  1 <1>   0.4100 
  4 C        0.9130    -1.7540    -1.8390 C.ar  1 <1>  -0.1500 
  5 N       -0.4270    -2.8930     0.3730 N.ar  1 <1>  -0.6200 
  6 N       -2.4600    -2.8490    -0.7290 N.pl3 1 <1>  -0.8380 
  7 C        1.5810    -2.0790    -0.6750 C.ar  1 <1>  -0.1500 
  8 C        0.8730    -2.6370     0.3780 C.ar  1 <1>   0.1600 
  9 C       -3.4460    -1.7550    -1.0020 C.3   1 <1>   0.2090 
 10 C       -3.0080    -4.0270    -0.0020 C.3   1 <1>   0.2090 
 11 C       -4.1560    -1.2890     0.2860 C.3   1 <1>   0.1430 
 12 C       -3.7060    -3.5830     1.2890 C.3   1 <1>  -0.1600 
 13 C       -5.2010    -0.2550    -0.0940 C.ar  1 <1>   0.1670 
 14 C       -4.7670    -2.5000     1.0220 C.3   1 <1>  -0.1600 
 15 C       -3.2050    -0.4730     1.2040 C.3   1 <1>  -0.1600 
 16 N       -6.3450    -0.5080    -0.6920 N.ar  1 <1>  -0.6200 
 17 C       -4.8090     1.0050     0.2480 C.ar  1 <1>  -0.1430 
 18 C       -3.4510     1.0140     0.9020 C.3   1 <1>  -0.0170 
 19 C       -7.0900     0.5630    -0.9260 C.ar  1 <1>   0.4770 
 20 C       -5.6600     2.0420    -0.0420 C.ar  1 <1>   0.1600 
 21 N       -6.8170     1.8290    -0.6350 N.ar  1 <1>  -0.6200 
 22 C       -8.4150     0.3120    -1.6040 C.3   1 <1>  -0.0970 
 23 H        1.4090    -1.3230    -2.6900 H     1 <1>   0.1500 
 24 H        2.6380    -1.9050    -0.5850 H     1 <1>   0.1500 
 25 H        1.4070    -2.8880     1.2780 H     1 <1>   0.1500 
 26 H       -4.1810    -2.1230    -1.6980 H     1 <1>   0.0800 
 27 H       -2.9550    -0.9150    -1.4600 H     1 <1>   0.0800 
 28 H       -2.2180    -4.7220     0.2280 H     1 <1>   0.0800 
 29 H       -3.7130    -4.5290    -0.6420 H     1 <1>   0.0800 
 30 H       -2.9590    -3.2130     1.9700 H     1 <1>   0.0800 
 31 H       -4.1690    -4.4370     1.7490 H     1 <1>   0.0800 
 32 H       -5.5460    -2.9220     0.4110 H     1 <1>   0.0800 
 33 H       -5.2170    -2.1840     1.9460 H     1 <1>   0.0800 
 34 H       -2.1720    -0.7400     1.0700 H     1 <1>   0.0800 
 35 H       -3.4620    -0.6510     2.2330 H     1 <1>   0.0800 
 36 H       -2.7170     1.3870     0.2090 H     1 <1>   0.0800 
 37 H       -3.4430     1.6070     1.8010 H     1 <1>   0.0800 
 38 H       -5.3940     3.0540     0.2100 H     1 <1>   0.1500 
 39 H       -8.3510    -0.5600    -2.2270 H     1 <1>   0.0800 
 40 H       -8.6840     1.1560    -2.2110 H     1 <1>   0.0800 
 41 H       -9.1700     0.1580    -0.8570 H     1 <1>   0.0800 
@<TRIPOS>BOND
  1   1   2  1   
  2   2   3  ar  
  3   2   4  ar  
  4   3   5  ar  
  5   3   6  1   
  6   4   7  ar  
  7   4  23  1   
  8   5   8  ar  
  9   6   9  1   
 10   6  10  1   
 11   7   8  ar  
 12   7  24  1   
 13   8  25  1   
 14   9  11  1   
 15   9  26  1   
 16   9  27  1   
 17  10  12  1   
 18  10  28  1   
 19  10  29  1   
 20  11  13  1   
 21  11  14  1   
 22  11  15  1   
 23  12  14  1   
 24  12  30  1   
 25  12  31  1   
 26  13  16  ar  
 27  13  17  ar  
 28  14  32  1   
 29  14  33  1   
 30  15  18  1   
 31  15  34  1   
 32  15  35  1   
 33  16  19  ar  
 34  17  18  1   
 35  17  20  ar  
 36  18  36  1   
 37  18  37  1   
 38  19  21  ar  
 39  19  22  1   
 40  20  21  ar  
 41  20  38  1   
 42  22  39  1   
 43  22  40  1   
 44  22  41  1   
@<TRIPOS>SUBSTRUCTURE
  1 ****   9 GROUP 4 **** **** 0

# MOE 2024.06 (io_trps.svl 2023.06)
