@<TRIPOS>MOLECULE
NONAME
45 47 1 0 0 
SMALL
USER_CHARGES


@<TRIPOS>ATOM
  1 O       -0.8030     0.0500    -1.9660 O.2   1 <1>  -0.5700 
  2 C       -1.6250     0.8480    -1.5160 C.2   1 <1>   0.5440 
  3 N       -2.8650     0.8700    -2.1650 N.am  1 <1>  -0.6600 
  4 C       -1.3110     1.6860    -0.3760 C.ar  1 <1>   0.3960 
  5 C       -4.0090     1.6600    -1.6050 C.3   1 <1>   0.1400 
  6 C       -3.3290    -0.3770    -2.8250 C.3   1 <1>   0.1400 
  7 N       -0.4420     2.7080    -0.5400 N.ar  1 <1>  -0.6200 
  8 C       -1.9530     1.4460     0.8820 C.ar  1 <1>  -0.1710 
  9 C       -5.0170     0.7740    -0.8230 C.3   1 <1>   0.4230 
 10 C       -3.9170    -1.3290    -1.7640 C.3   1 <1>   0.3430 
 11 C       -0.1780     3.4500     0.5080 C.ar  1 <1>   0.1600 
 12 O       -2.7970     0.5370     1.0830 O.3   1 <1>  -0.8290 
 13 C       -1.6380     2.2690     1.9650 C.ar  1 <1>  -0.1500 
 14 N       -4.4990    -0.6130    -0.5720 N.4   1 <1>  -0.9590 
 15 C       -6.4020     0.6930    -1.4990 C.3   1 <1>   0.1200 
 16 C       -0.7420     3.2760     1.7700 C.ar  1 <1>  -0.1500 
 17 C       -5.4600    -1.3540     0.2780 C.3   1 <1>   0.4230 
 18 O       -7.2920    -0.0830    -0.7360 O.3   1 <1>  -0.5600 
 19 C       -6.8500    -1.3780    -0.4060 C.3   1 <1>   0.1200 
 20 C       -4.9160    -2.7520     0.6140 C.3   1 <1>  -0.1600 
 21 C       -5.7230    -3.4480     1.7220 C.3   1 <1>  -0.1600 
 22 C       -5.0970    -4.7970     2.0850 C.3   1 <1>  -0.2400 
 23 H       -3.6460     2.4250    -0.9430 H     1 <1>   0.0800 
 24 H       -4.5080     2.1680    -2.4100 H     1 <1>   0.0800 
 25 H       -4.0800    -0.1330    -3.5550 H     1 <1>   0.0800 
 26 H       -2.5220    -0.8620    -3.3470 H     1 <1>   0.0800 
 27 H       -5.1600     1.2530     0.1320 H     1 <1>   0.0800 
 28 H       -3.1250    -1.9740    -1.4200 H     1 <1>   0.0800 
 29 H       -4.6660    -1.9460    -2.2290 H     1 <1>   0.0800 
 30 H        0.5260     4.2530     0.3780 H     1 <1>   0.1500 
 31 H       -2.1090     2.0780     2.9120 H     1 <1>   0.1500 
 32 H       -3.6760    -0.3810     0.0520 H     1 <1>   0.4500 
 33 H       -6.3270     0.2620    -2.4820 H     1 <1>   0.0800 
 34 H       -6.8270     1.6770    -1.5870 H     1 <1>   0.0800 
 35 H       -0.4640     3.9320     2.5720 H     1 <1>   0.1500 
 36 H       -5.5610    -0.8150     1.2070 H     1 <1>   0.0800 
 37 H       -7.5820    -1.8010     0.2590 H     1 <1>   0.0800 
 38 H       -6.8240    -1.9680    -1.3040 H     1 <1>   0.0800 
 39 H       -4.9180    -3.3750    -0.2610 H     1 <1>   0.0800 
 40 H       -3.9010    -2.6420     0.9580 H     1 <1>   0.0800 
 41 H       -5.7410    -2.8250     2.6020 H     1 <1>   0.0800 
 42 H       -6.7390    -3.6120     1.4070 H     1 <1>   0.0800 
 43 H       -4.0880    -4.6640     2.4350 H     1 <1>   0.0800 
 44 H       -5.0840    -5.4530     1.2320 H     1 <1>   0.0800 
 45 H       -5.6670    -5.2690     2.8670 H     1 <1>   0.0800 
@<TRIPOS>BOND
  1   1   2  2   
  2   2   3  am  
  3   2   4  1   
  4   3   5  1   
  5   3   6  1   
  6   4   7  ar  
  7   4   8  ar  
  8   5   9  1   
  9   5  23  1   
 10   5  24  1   
 11   6  10  1   
 12   6  25  1   
 13   6  26  1   
 14   7  11  ar  
 15   8  12  1   
 16   8  13  ar  
 17   9  14  1   
 18   9  15  1   
 19   9  27  1   
 20  10  14  1   
 21  10  28  1   
 22  10  29  1   
 23  11  16  ar  
 24  11  30  1   
 25  13  16  ar  
 26  13  31  1   
 27  14  17  1   
 28  14  32  1   
 29  15  18  1   
 30  15  33  1   
 31  15  34  1   
 32  16  35  1   
 33  17  19  1   
 34  17  20  1   
 35  17  36  1   
 36  18  19  1   
 37  19  37  1   
 38  19  38  1   
 39  20  21  1   
 40  20  39  1   
 41  20  40  1   
 42  21  22  1   
 43  21  41  1   
 44  21  42  1   
 45  22  43  1   
 46  22  44  1   
 47  22  45  1   
@<TRIPOS>SUBSTRUCTURE
  1 ****  14 GROUP 4 **** **** 0

# MOE 2024.06 (io_trps.svl 2023.06)
