@<TRIPOS>MOLECULE
NONAME
33 35 1 0 0 
SMALL
USER_CHARGES


@<TRIPOS>ATOM
  1 O        0.3830     0.4480    -0.4960 O.3   1 <1>  -0.6800 
  2 C        0.3990     1.7890    -0.1300 C.3   1 <1>   0.2000 
  3 C       -1.0450     2.3350    -0.1220 C.3   1 <1>  -0.0800 
  4 C        1.3000     2.5530    -1.1130 C.3   1 <1>   0.2090 
  5 C       -1.0320     3.8680     0.0870 C.3   1 <1>  -0.1600 
  6 C       -1.8890     1.6190     0.9470 C.3   1 <1>   0.1200 
  7 N        1.2350     4.0240    -0.8520 N.pl3 1 <1>  -0.8380 
  8 C       -0.1330     4.5890    -0.9240 C.3   1 <1>   0.2090 
  9 O       -3.1840     2.1070     0.9410 O.3   1 <1>  -0.6800 
 10 C        2.1980     4.6380    -0.0810 C.ar  1 <1>   0.4100 
 11 N        2.7370     3.9590     0.9040 N.ar  1 <1>  -0.6200 
 12 C        2.5870     5.9620    -0.3240 C.ar  1 <1>   0.0000 
 13 C        3.6490     4.6040     1.6490 C.ar  1 <1>   0.4700 
 14 C        3.5180     6.5050     0.5120 C.ar  1 <1>   0.1050 
 15 C        2.3060     6.9880    -1.2400 C.2   1 <1>   0.1390 
 16 N        4.0760     5.8370     1.5290 N.ar  1 <1>  -0.5670 
 17 N        3.7250     7.7750     0.0860 N.pl3 1 <1>   0.3000 
 18 N        2.9680     8.0740    -1.0030 N.2   1 <1>  -0.7070 
 19 H       -0.0540    -0.0910     0.1900 H     1 <1>   0.4000 
 20 H        0.8340     1.8590     0.8520 H     1 <1>   0.0800 
 21 H       -1.4750     2.1310    -1.0880 H     1 <1>   0.0800 
 22 H        0.9760     2.3640    -2.1210 H     1 <1>   0.0800 
 23 H        2.3150     2.2080    -1.0110 H     1 <1>   0.0800 
 24 H       -0.6810     4.0990     1.0780 H     1 <1>   0.0800 
 25 H       -2.0260     4.2630    -0.0150 H     1 <1>   0.0800 
 26 H       -1.4770     1.7700     1.9310 H     1 <1>   0.0800 
 27 H       -1.9460     0.5640     0.7450 H     1 <1>   0.0800 
 28 H       -0.1150     5.6420    -0.7000 H     1 <1>   0.0800 
 29 H       -0.5170     4.4610    -1.9220 H     1 <1>   0.0800 
 30 H       -3.1960     3.0520     1.1870 H     1 <1>   0.4000 
 31 H        4.0760     4.0230     2.4500 H     1 <1>   0.1500 
 32 H        1.6110     6.8710    -2.0550 H     1 <1>   0.1500 
 33 H        4.3790     8.4320     0.5220 H     1 <1>   0.2700 
@<TRIPOS>BOND
  1   1   2  1   
  2   1  19  1   
  3   2   3  1   
  4   2   4  1   
  5   2  20  1   
  6   3   5  1   
  7   3   6  1   
  8   3  21  1   
  9   4   7  1   
 10   4  22  1   
 11   4  23  1   
 12   5   8  1   
 13   5  24  1   
 14   5  25  1   
 15   6   9  1   
 16   6  26  1   
 17   6  27  1   
 18   7   8  1   
 19   7  10  1   
 20   8  28  1   
 21   8  29  1   
 22   9  30  1   
 23  10  11  ar  
 24  10  12  ar  
 25  11  13  ar  
 26  12  14  ar  
 27  12  15  1   
 28  13  16  ar  
 29  13  31  1   
 30  14  16  ar  
 31  14  17  1   
 32  15  18  2   
 33  15  32  1   
 34  17  18  1   
 35  17  33  1   
@<TRIPOS>SUBSTRUCTURE
  1 ****   7 GROUP 4 **** **** 0

# MOE 2024.06 (io_trps.svl 2023.06)
