@<TRIPOS>MOLECULE
NONAME
48 49 1 0 0 
SMALL
USER_CHARGES


@<TRIPOS>ATOM
  1 O       -0.6050     0.2770    -1.4930 O.2   1 <1>  -0.5700 
  2 C       -1.5910     0.8300    -1.0340 C.2   1 <1>   0.5440 
  3 N       -2.7640     0.0980    -0.9640 N.am  1 <1>  -0.6600 
  4 C       -1.4860     2.2280    -0.6060 C.ar  1 <1>   0.3960 
  5 C       -4.1060     0.6610    -0.6390 C.3   1 <1>   0.1400 
  6 C       -2.7740    -1.3950    -0.9800 C.3   1 <1>   0.1400 
  7 N       -2.0010     2.6140     0.5770 N.ar  1 <1>  -0.6200 
  8 C       -0.8360     3.1310    -1.4520 C.ar  1 <1>  -0.1500 
  9 C       -4.6190     0.0470     0.6800 C.3   1 <1>   0.2000 
 10 C       -3.3970    -1.9440     0.3230 C.3   1 <1>   0.2000 
 11 C       -1.8590     3.8850     0.8750 C.ar  1 <1>   0.3920 
 12 C       -0.7060     4.4620    -1.1150 C.ar  1 <1>  -0.1500 
 13 O       -4.6450    -1.3500     0.5600 O.3   1 <1>  -0.5600 
 14 C       -6.0280     0.5240     1.1010 C.3   1 <1>  -0.0800 
 15 C       -3.6300    -3.4600     0.2890 C.3   1 <1>  -0.1600 
 16 O       -2.3710     4.2210     2.0430 O.3   1 <1>  -0.5330 
 17 C       -1.2410     4.8440     0.0930 C.ar  1 <1>  -0.1500 
 18 C       -7.1230     0.1990     0.0710 C.3   1 <1>  -0.2400 
 19 C       -6.0490     2.0280     1.4210 C.3   1 <1>  -0.2400 
 20 C       -2.3260    -4.2690     0.1890 C.3   1 <1>  -0.1600 
 21 C       -2.6070    -5.7740     0.2560 C.3   1 <1>  -0.1600 
 22 C       -1.3100    -6.5810     0.1540 C.3   1 <1>  -0.2400 
 23 H       -4.0670     1.7300    -0.5630 H     1 <1>   0.0800 
 24 H       -4.7850     0.4160    -1.4350 H     1 <1>   0.0800 
 25 H       -3.3450    -1.7370    -1.8250 H     1 <1>   0.0800 
 26 H       -1.7730    -1.7740    -1.0840 H     1 <1>   0.0800 
 27 H       -0.4300     2.7710    -2.3810 H     1 <1>   0.1500 
 28 H       -3.9280     0.2940     1.4680 H     1 <1>   0.0800 
 29 H       -2.7560    -1.7040     1.1540 H     1 <1>   0.0800 
 30 H       -0.2080     5.1650    -1.7620 H     1 <1>   0.1500 
 31 H       -6.2670     0.0020     2.0120 H     1 <1>   0.0800 
 32 H       -4.1420    -3.7390     1.1940 H     1 <1>   0.0800 
 33 H       -4.2680    -3.7000    -0.5440 H     1 <1>   0.0800 
 34 H       -2.7130     3.4190     2.4720 H     1 <1>   0.4500 
 35 H       -1.1850     5.8590     0.4380 H     1 <1>   0.1500 
 36 H       -6.9800     0.7500    -0.8400 H     1 <1>   0.0800 
 37 H       -8.0910     0.4490     0.4700 H     1 <1>   0.0800 
 38 H       -7.1180    -0.8520    -0.1570 H     1 <1>   0.0800 
 39 H       -5.8820     2.6170     0.5380 H     1 <1>   0.0800 
 40 H       -5.2910     2.2670     2.1450 H     1 <1>   0.0800 
 41 H       -7.0050     2.3020     1.8330 H     1 <1>   0.0800 
 42 H       -1.8260    -4.0480    -0.7390 H     1 <1>   0.0800 
 43 H       -1.6710    -3.9920     0.9970 H     1 <1>   0.0800 
 44 H       -3.0980    -6.0100     1.1850 H     1 <1>   0.0800 
 45 H       -3.2640    -6.0560    -0.5490 H     1 <1>   0.0800 
 46 H       -0.6460    -6.3300     0.9620 H     1 <1>   0.0800 
 47 H       -0.8130    -6.3800    -0.7790 H     1 <1>   0.0800 
 48 H       -1.5270    -7.6340     0.2040 H     1 <1>   0.0800 
@<TRIPOS>BOND
  1   1   2  2   
  2   2   3  am  
  3   2   4  1   
  4   3   5  1   
  5   3   6  1   
  6   4   7  ar  
  7   4   8  ar  
  8   5   9  1   
  9   5  23  1   
 10   5  24  1   
 11   6  10  1   
 12   6  25  1   
 13   6  26  1   
 14   7  11  ar  
 15   8  12  ar  
 16   8  27  1   
 17   9  13  1   
 18   9  14  1   
 19   9  28  1   
 20  10  13  1   
 21  10  15  1   
 22  10  29  1   
 23  11  16  1   
 24  11  17  ar  
 25  12  17  ar  
 26  12  30  1   
 27  14  18  1   
 28  14  19  1   
 29  14  31  1   
 30  15  20  1   
 31  15  32  1   
 32  15  33  1   
 33  16  34  1   
 34  17  35  1   
 35  18  36  1   
 36  18  37  1   
 37  18  38  1   
 38  19  39  1   
 39  19  40  1   
 40  19  41  1   
 41  20  21  1   
 42  20  42  1   
 43  20  43  1   
 44  21  22  1   
 45  21  44  1   
 46  21  45  1   
 47  22  46  1   
 48  22  47  1   
 49  22  48  1   
@<TRIPOS>SUBSTRUCTURE
  1 ****   3 GROUP 4 **** **** 0

# MOE 2024.06 (io_trps.svl 2023.06)
