@<TRIPOS>MOLECULE
NONAME
58 61 1 0 0 
SMALL
USER_CHARGES


@<TRIPOS>ATOM
  1 O       -1.4660     0.4550     1.7590 O.2   1 <1>  -0.5700 
  2 C       -2.3220     1.3180     1.6610 C.2   1 <1>   0.5440 
  3 N       -3.6240     0.9110     1.4780 N.am  1 <1>  -0.6600 
  4 C       -1.9530     2.7220     1.7090 C.ar  1 <1>   0.0860 
  5 C       -4.0120    -0.5030     1.7480 C.3   1 <1>   0.1400 
  6 C       -4.5340     1.5890     0.5110 C.3   1 <1>   0.1400 
  7 C       -0.7730     3.1730     1.1250 C.ar  1 <1>  -0.1500 
  8 C       -2.7590     3.6670     2.3450 C.ar  1 <1>  -0.1500 
  9 C       -3.9130    -1.2990     0.4260 C.3   1 <1>   0.4230 
 10 C       -4.5120     0.8070    -0.8120 C.3   1 <1>  -0.1600 
 11 C       -0.3890     4.5090     1.1490 C.ar  1 <1>   0.0000 
 12 C       -2.4010     5.0020     2.3840 C.ar  1 <1>  -0.1500 
 13 N       -4.1510    -2.7750     0.5680 N.4   1 <1>  -0.9590 
 14 C       -4.8780    -0.6940    -0.6190 C.3   1 <1>  -0.1060 
 15 C        0.8440     4.9390     0.5290 C.ar  1 <1>   0.0000 
 16 C       -1.2250     5.4180     1.7890 C.ar  1 <1>  -0.1500 
 17 C       -3.9230    -3.4980    -0.7080 C.3   1 <1>   0.3430 
 18 C       -3.4570    -3.4160     1.7150 C.3   1 <1>   0.2630 
 19 C       -6.3210    -0.8410    -0.0980 C.2   1 <1>   0.9060 
 20 C       -4.7040    -1.4270    -1.9710 C.3   1 <1>  -0.1600 
 21 C        0.8560     5.9580    -0.4210 C.ar  1 <1>  -0.1500 
 22 C        2.0590     4.3460     0.8620 C.ar  1 <1>  -0.1500 
 23 C       -4.8370    -2.9490    -1.8070 C.3   1 <1>  -0.1600 
 24 O       -6.6090    -1.8260     0.6020 O.co2 1 <1>  -0.9000 
 25 O       -7.1550     0.0220    -0.3680 O.co2 1 <1>  -0.9000 
 26 C        2.0320     6.3730    -1.0180 C.ar  1 <1>  -0.1500 
 27 C        3.2390     4.7540     0.2690 C.ar  1 <1>  -0.1500 
 28 C        3.2380     5.7690    -0.6740 C.ar  1 <1>   0.0830 
 29 O        4.4350     6.1110    -1.2080 O.3   1 <1>  -0.3630 
 30 C        4.5450     7.1310    -2.1750 C.3   1 <1>   0.0400 
 31 H       -3.3460    -0.9100     2.4870 H     1 <1>   0.0800 
 32 H       -5.0130    -0.5290     2.1440 H     1 <1>   0.0800 
 33 H       -5.5340     1.6150     0.9130 H     1 <1>   0.0800 
 34 H       -4.2220     2.6030     0.3320 H     1 <1>   0.0800 
 35 H       -0.1350     2.4580     0.6360 H     1 <1>   0.1500 
 36 H       -3.6720     3.3470     2.8160 H     1 <1>   0.1500 
 37 H       -2.9070    -1.1630     0.0670 H     1 <1>   0.0800 
 38 H       -5.2120     1.2640    -1.4910 H     1 <1>   0.0800 
 39 H       -3.5340     0.9020    -1.2490 H     1 <1>   0.0800 
 40 H       -3.0360     5.7160     2.8790 H     1 <1>   0.1500 
 41 H       -5.1950    -2.7890     0.7330 H     1 <1>   0.4500 
 42 H       -0.9440     6.4560     1.8260 H     1 <1>   0.1500 
 43 H       -2.8940    -3.3840    -1.0070 H     1 <1>   0.0800 
 44 H       -4.1270    -4.5480    -0.5740 H     1 <1>   0.0800 
 45 H       -2.3900    -3.2940     1.6210 H     1 <1>   0.0800 
 46 H       -3.6890    -4.4680     1.7480 H     1 <1>   0.0800 
 47 H       -3.7800    -2.9700     2.6410 H     1 <1>   0.0800 
 48 H       -5.4500    -1.0750    -2.6650 H     1 <1>   0.0800 
 49 H       -3.7360    -1.2030    -2.3850 H     1 <1>   0.0800 
 50 H       -0.0720     6.4270    -0.6960 H     1 <1>   0.1500 
 51 H        2.0770     3.5590     1.5950 H     1 <1>   0.1500 
 52 H       -4.5980    -3.4300    -2.7380 H     1 <1>   0.0800 
 53 H       -5.8570    -3.2020    -1.5720 H     1 <1>   0.0800 
 54 H        1.9930     7.1610    -1.7440 H     1 <1>   0.1500 
 55 H        4.1700     4.2880     0.5340 H     1 <1>   0.1500 
 56 H        5.5810     7.2230    -2.4470 H     1 <1>   0.0800 
 57 H        4.1960     8.0550    -1.7490 H     1 <1>   0.0800 
 58 H        3.9630     6.8590    -3.0370 H     1 <1>   0.0800 
@<TRIPOS>BOND
  1   1   2  2   
  2   2   3  am  
  3   2   4  1   
  4   3   5  1   
  5   3   6  1   
  6   4   7  ar  
  7   4   8  ar  
  8   5   9  1   
  9   5  31  1   
 10   5  32  1   
 11   6  10  1   
 12   6  33  1   
 13   6  34  1   
 14   7  11  ar  
 15   7  35  1   
 16   8  12  ar  
 17   8  36  1   
 18   9  13  1   
 19   9  14  1   
 20   9  37  1   
 21  10  14  1   
 22  10  38  1   
 23  10  39  1   
 24  11  15  1   
 25  11  16  ar  
 26  12  16  ar  
 27  12  40  1   
 28  13  17  1   
 29  13  18  1   
 30  13  41  1   
 31  14  19  1   
 32  14  20  1   
 33  15  21  ar  
 34  15  22  ar  
 35  16  42  1   
 36  17  23  1   
 37  17  43  1   
 38  17  44  1   
 39  18  45  1   
 40  18  46  1   
 41  18  47  1   
 42  19  24  ar  
 43  19  25  ar  
 44  20  23  1   
 45  20  48  1   
 46  20  49  1   
 47  21  26  ar  
 48  21  50  1   
 49  22  27  ar  
 50  22  51  1   
 51  23  52  1   
 52  23  53  1   
 53  26  28  ar  
 54  26  54  1   
 55  27  28  ar  
 56  27  55  1   
 57  28  29  1   
 58  29  30  1   
 59  30  56  1   
 60  30  57  1   
 61  30  58  1   
@<TRIPOS>SUBSTRUCTURE
  1 ****   2 GROUP 4 **** **** 0

# MOE 2024.06 (io_trps.svl 2023.06)
