@<TRIPOS>MOLECULE
NONAME
45 47 1 0 0 
SMALL
USER_CHARGES


@<TRIPOS>ATOM
  1 O       -0.6730     0.1450    -0.3810 O.2   1 <1>  -0.5700 
  2 C       -1.5740     0.7990     0.1080 C.2   1 <1>   0.5440 
  3 N       -2.7120     0.1460     0.5280 N.am  1 <1>  -0.6600 
  4 C       -1.4370     2.2390     0.2110 C.ar  1 <1>   0.0860 
  5 C       -2.7470    -1.3420     0.6960 C.3   1 <1>   0.1400 
  6 C       -4.0790     0.7380     0.4130 C.3   1 <1>   0.1400 
  7 C       -0.8480     2.9970    -0.7900 C.ar  1 <1>  -0.1500 
  8 C       -1.8720     2.9650     1.3120 C.ar  1 <1>  -0.1500 
  9 C       -3.6430    -1.9960    -0.3700 C.3   1 <1>   0.3440 
 10 C       -4.9110    -0.0210    -0.6470 C.3   1 <1>   0.2000 
 11 C       -0.7490     4.3690    -0.6630 C.ar  1 <1>   0.1600 
 12 C       -1.7270     4.3380     1.3450 C.ar  1 <1>   0.1600 
 13 O       -4.9130    -1.3930    -0.3640 O.3   1 <1>  -0.5600 
 14 C       -3.7840    -3.4930    -0.1070 C.ar  1 <1>  -0.1440 
 15 C       -6.3810     0.4470    -0.7560 C.3   1 <1>  -0.0800 
 16 N       -1.1830     5.0580     0.3790 N.ar  1 <1>  -0.6200 
 17 C       -2.8800    -4.3750    -0.6820 C.ar  1 <1>  -0.1500 
 18 C       -4.7890    -3.9960     0.7080 C.ar  1 <1>  -0.1500 
 19 C       -6.4860     1.9110    -1.2130 C.3   1 <1>  -0.2400 
 20 C       -7.1890     0.2510     0.5380 C.3   1 <1>  -0.2400 
 21 C       -2.9780    -5.7360    -0.4470 C.ar  1 <1>  -0.1500 
 22 C       -4.8890    -5.3560     0.9440 C.ar  1 <1>  -0.1500 
 23 C       -3.9830    -6.2270     0.3670 C.ar  1 <1>  -0.1500 
 24 H       -1.7560    -1.7560     0.6280 H     1 <1>   0.0800 
 25 H       -3.1320    -1.5800     1.6710 H     1 <1>   0.0800 
 26 H       -4.5660     0.6780     1.3690 H     1 <1>   0.0800 
 27 H       -4.0160     1.7730     0.1320 H     1 <1>   0.0800 
 28 H       -0.4660     2.5070    -1.6680 H     1 <1>   0.1500 
 29 H       -2.3210     2.4530     2.1430 H     1 <1>   0.1500 
 30 H       -3.2100    -1.8460    -1.3440 H     1 <1>   0.0800 
 31 H       -4.4460     0.1090    -1.6100 H     1 <1>   0.0800 
 32 H       -0.2880     4.9310    -1.4580 H     1 <1>   0.1500 
 33 H       -2.0760     4.8770     2.2110 H     1 <1>   0.1500 
 34 H       -6.8380    -0.1580    -1.5220 H     1 <1>   0.0800 
 35 H       -2.0920    -4.0070    -1.3170 H     1 <1>   0.1500 
 36 H       -5.5010    -3.3270     1.1590 H     1 <1>   0.1500 
 37 H       -6.1130     2.5830    -0.4610 H     1 <1>   0.0800 
 38 H       -7.5140     2.1610    -1.4060 H     1 <1>   0.0800 
 39 H       -5.9290     2.0610    -2.1210 H     1 <1>   0.0800 
 40 H       -6.8280     0.8840     1.3280 H     1 <1>   0.0800 
 41 H       -7.1290    -0.7740     0.8630 H     1 <1>   0.0800 
 42 H       -8.2250     0.4830     0.3650 H     1 <1>   0.0800 
 43 H       -2.2730    -6.4120    -0.8980 H     1 <1>   0.1500 
 44 H       -5.6730    -5.7350     1.5760 H     1 <1>   0.1500 
 45 H       -4.0600    -7.2850     0.5500 H     1 <1>   0.1500 
@<TRIPOS>BOND
  1   1   2  2   
  2   2   3  am  
  3   2   4  1   
  4   3   5  1   
  5   3   6  1   
  6   4   7  ar  
  7   4   8  ar  
  8   5   9  1   
  9   5  24  1   
 10   5  25  1   
 11   6  10  1   
 12   6  26  1   
 13   6  27  1   
 14   7  11  ar  
 15   7  28  1   
 16   8  12  ar  
 17   8  29  1   
 18   9  13  1   
 19   9  14  1   
 20   9  30  1   
 21  10  13  1   
 22  10  15  1   
 23  10  31  1   
 24  11  16  ar  
 25  11  32  1   
 26  12  16  ar  
 27  12  33  1   
 28  14  17  ar  
 29  14  18  ar  
 30  15  19  1   
 31  15  20  1   
 32  15  34  1   
 33  17  21  ar  
 34  17  35  1   
 35  18  22  ar  
 36  18  36  1   
 37  19  37  1   
 38  19  38  1   
 39  19  39  1   
 40  20  40  1   
 41  20  41  1   
 42  20  42  1   
 43  21  23  ar  
 44  21  43  1   
 45  22  23  ar  
 46  22  44  1   
 47  23  45  1   
@<TRIPOS>SUBSTRUCTURE
  1 ****   3 GROUP 4 **** **** 0

# MOE 2024.06 (io_trps.svl 2023.06)
