@<TRIPOS>MOLECULE
NONAME
50 52 1 0 0 
SMALL
USER_CHARGES


@<TRIPOS>ATOM
  1 O       -0.6070    -1.2490    -0.2210 O.2   1 <1>  -0.5700 
  2 C       -1.0500    -2.3750    -0.3430 C.2   1 <1>   0.5440 
  3 N       -0.3570    -3.2630    -1.1200 N.am  1 <1>  -0.7300 
  4 C       -2.2880    -2.7530     0.3020 C.ar  1 <1>   0.0860 
  5 C        0.9240    -2.9830    -1.7980 C.3   1 <1>   0.1400 
  6 C       -3.1720    -1.7820     0.7690 C.ar  1 <1>   0.1600 
  7 C       -2.6740    -4.0780     0.4920 C.ar  1 <1>  -0.1500 
  8 C        1.7850    -4.2390    -1.7490 C.3   1 <1>  -0.2400 
  9 N       -4.3340    -2.0000     1.3590 N.ar  1 <1>  -0.6200 
 10 C       -3.8770    -4.3230     1.1060 C.ar  1 <1>  -0.1500 
 11 C       -4.6840    -3.2690     1.5360 C.ar  1 <1>   0.4100 
 12 N       -5.8960    -3.4970     2.1560 N.pl3 1 <1>  -0.8380 
 13 C       -6.0980    -4.6240     3.1240 C.3   1 <1>   0.2090 
 14 C       -7.0940    -2.7130     1.7600 C.3   1 <1>   0.2090 
 15 C       -7.3190    -5.5090     2.8070 C.3   1 <1>   0.1400 
 16 C       -7.7230    -3.3270     0.5030 C.3   1 <1>  -0.1600 
 17 N       -7.5330    -5.6830     1.3380 N.am  1 <1>  -0.6600 
 18 C       -8.4360    -4.6690     0.7280 C.3   1 <1>   0.1400 
 19 C       -6.7580    -6.5710     0.6350 C.2   1 <1>   0.5770 
 20 O       -5.9770    -7.3000     1.2070 O.2   1 <1>  -0.5700 
 21 C       -6.8490    -6.6430    -0.8900 C.3   1 <1>   0.0530 
 22 C       -8.0370    -7.4880    -1.4210 C.3   1 <1>   0.0000 
 23 C       -5.9160    -7.6590    -1.6100 C.3   1 <1>   0.0000 
 24 C       -7.1000    -7.9380    -2.5710 C.3   1 <1>   0.0000 
 25 H       -0.7700    -4.1710    -1.3310 H     1 <1>   0.3700 
 26 H        1.4310    -2.1690    -1.3040 H     1 <1>   0.0800 
 27 H        0.7330    -2.6980    -2.8180 H     1 <1>   0.0800 
 28 H       -2.8900    -0.7500     0.6380 H     1 <1>   0.1500 
 29 H       -2.0510    -4.8940     0.1740 H     1 <1>   0.1500 
 30 H        1.9730    -4.5200    -0.7280 H     1 <1>   0.0800 
 31 H        2.7290    -4.0450    -2.2260 H     1 <1>   0.0800 
 32 H        1.3020    -5.0490    -2.2650 H     1 <1>   0.0800 
 33 H       -4.2080    -5.3330     1.2510 H     1 <1>   0.1500 
 34 H       -6.2130    -4.2130     4.1120 H     1 <1>   0.0800 
 35 H       -5.2240    -5.2480     3.1510 H     1 <1>   0.0800 
 36 H       -6.8050    -1.6970     1.5500 H     1 <1>   0.0800 
 37 H       -7.8030    -2.6860     2.5690 H     1 <1>   0.0800 
 38 H       -8.1950    -5.0720     3.2500 H     1 <1>   0.0800 
 39 H       -7.1800    -6.4720     3.2670 H     1 <1>   0.0800 
 40 H       -6.9660    -3.4360    -0.2520 H     1 <1>   0.0800 
 41 H       -8.4470    -2.6310     0.1230 H     1 <1>   0.0800 
 42 H       -8.8170    -5.0300    -0.2110 H     1 <1>   0.0800 
 43 H       -9.2840    -4.5210     1.3740 H     1 <1>   0.0800 
 44 H       -6.8000    -5.6760    -1.3620 H     1 <1>   0.0000 
 45 H       -8.8790    -6.9050    -1.7500 H     1 <1>   0.0000 
 46 H       -8.3050    -8.2990    -0.7640 H     1 <1>   0.0000 
 47 H       -5.6660    -8.5250    -1.0220 H     1 <1>   0.0000 
 48 H       -5.0670    -7.2060    -2.0900 H     1 <1>   0.0000 
 49 H       -7.1210    -7.2660    -3.4120 H     1 <1>   0.0000 
 50 H       -7.2080    -8.9730    -2.8420 H     1 <1>   0.0000 
@<TRIPOS>BOND
  1   1   2  2   
  2   2   3  am  
  3   2   4  1   
  4   3   5  1   
  5   3  25  1   
  6   4   6  ar  
  7   4   7  ar  
  8   5   8  1   
  9   5  26  1   
 10   5  27  1   
 11   6   9  ar  
 12   6  28  1   
 13   7  10  ar  
 14   7  29  1   
 15   8  30  1   
 16   8  31  1   
 17   8  32  1   
 18   9  11  ar  
 19  10  11  ar  
 20  10  33  1   
 21  11  12  1   
 22  12  13  1   
 23  12  14  1   
 24  13  15  1   
 25  13  34  1   
 26  13  35  1   
 27  14  16  1   
 28  14  36  1   
 29  14  37  1   
 30  15  17  1   
 31  15  38  1   
 32  15  39  1   
 33  16  18  1   
 34  16  40  1   
 35  16  41  1   
 36  17  18  1   
 37  17  19  am  
 38  18  42  1   
 39  18  43  1   
 40  19  20  2   
 41  19  21  1   
 42  21  22  1   
 43  21  23  1   
 44  21  44  1   
 45  22  24  1   
 46  22  45  1   
 47  22  46  1   
 48  23  24  1   
 49  23  47  1   
 50  23  48  1   
 51  24  49  1   
 52  24  50  1   
@<TRIPOS>SUBSTRUCTURE
  1 ****  10 GROUP 4 **** **** 0

# MOE 2024.06 (io_trps.svl 2023.06)
