@<TRIPOS>MOLECULE
NONAME
41 42 1 0 0 
SMALL
USER_CHARGES


@<TRIPOS>ATOM
  1 O        0.7510     0.9210    -2.7900 O.2   1 <1>  -0.5700 
  2 C        1.2800     0.0080    -2.2010 C.2   1 <1>   0.5690 
  3 N        2.5620     0.0640    -1.7720 N.am  1 <1>  -0.7300 
  4 C        0.4780    -1.2560    -1.8700 C.3   1 <1>   0.1710 
  5 C        3.3610     1.2870    -1.6210 C.3   1 <1>   0.2840 
  6 N        0.9650    -1.9860    -0.6570 N.3   1 <1>  -0.8100 
  7 C        3.6530     1.4520    -0.1360 C.ar  1 <1>  -0.1430 
  8 C        0.3480    -3.3220    -0.5610 C.3   1 <1>   0.1100 
  9 C        0.7260    -1.2010     0.5700 C.3   1 <1>   0.1100 
 10 C        2.8270     2.1930     0.7070 C.ar  1 <1>  -0.1430 
 11 C        4.7720     0.8210     0.3880 C.ar  1 <1>  -0.1500 
 12 C        0.9540    -4.1160     0.6060 C.3   1 <1>   0.1200 
 13 C        1.3600    -1.9100     1.7710 C.3   1 <1>  -0.1600 
 14 C        3.1390     2.2890     2.0550 C.ar  1 <1>  -0.1500 
 15 C        1.5840     2.9050     0.1900 C.3   1 <1>  -0.0970 
 16 C        5.0760     0.9210     1.7330 C.ar  1 <1>  -0.1500 
 17 C        0.3000    -5.4530     0.6970 C.1   1 <1>   0.3570 
 18 C        0.8160    -3.3380     1.9280 C.3   1 <1>  -0.1600 
 19 C        4.2570     1.6570     2.5680 C.ar  1 <1>  -0.1500 
 20 N       -0.2100    -6.4670     0.7570 N.1   1 <1>  -0.5570 
 21 H        2.8420    -0.7070    -1.1570 H     1 <1>   0.3700 
 22 H        0.5460    -1.9030    -2.7260 H     1 <1>   0.0800 
 23 H       -0.5540    -0.9830    -1.7420 H     1 <1>   0.0800 
 24 H        2.8300     2.1350    -2.0160 H     1 <1>   0.0800 
 25 H        4.2790     1.1820    -2.1730 H     1 <1>   0.0800 
 26 H        0.5190    -3.8620    -1.4770 H     1 <1>   0.0800 
 27 H       -0.7160    -3.2210    -0.4210 H     1 <1>   0.0800 
 28 H       -0.3330    -1.0810     0.7310 H     1 <1>   0.0800 
 29 H        1.1640    -0.2220     0.4810 H     1 <1>   0.0800 
 30 H        5.4160     0.2430    -0.2530 H     1 <1>   0.1500 
 31 H        1.9970    -4.2750     0.3970 H     1 <1>   0.0800 
 32 H        1.1580    -1.3430     2.6630 H     1 <1>   0.0800 
 33 H        2.4270    -1.9310     1.6340 H     1 <1>   0.0800 
 34 H        2.5130     2.8600     2.7170 H     1 <1>   0.1500 
 35 H        0.9350     2.2090    -0.3100 H     1 <1>   0.0800 
 36 H        1.8630     3.6780    -0.5020 H     1 <1>   0.0800 
 37 H        1.0330     3.3560     0.9950 H     1 <1>   0.0800 
 38 H        5.9470     0.4300     2.1290 H     1 <1>   0.1500 
 39 H        1.3500    -3.8470     2.7120 H     1 <1>   0.0800 
 40 H       -0.2220    -3.2880     2.2080 H     1 <1>   0.0800 
 41 H        4.4900     1.7400     3.6150 H     1 <1>   0.1500 
@<TRIPOS>BOND
  1   1   2  2   
  2   2   3  am  
  3   2   4  1   
  4   3   5  1   
  5   3  21  1   
  6   4   6  1   
  7   4  22  1   
  8   4  23  1   
  9   5   7  1   
 10   5  24  1   
 11   5  25  1   
 12   6   8  1   
 13   6   9  1   
 14   7  10  ar  
 15   7  11  ar  
 16   8  12  1   
 17   8  26  1   
 18   8  27  1   
 19   9  13  1   
 20   9  28  1   
 21   9  29  1   
 22  10  14  ar  
 23  10  15  1   
 24  11  16  ar  
 25  11  30  1   
 26  12  17  1   
 27  12  18  1   
 28  12  31  1   
 29  13  18  1   
 30  13  32  1   
 31  13  33  1   
 32  14  19  ar  
 33  14  34  1   
 34  15  35  1   
 35  15  36  1   
 36  15  37  1   
 37  16  19  ar  
 38  16  38  1   
 39  17  20  3   
 40  18  39  1   
 41  18  40  1   
 42  19  41  1   
@<TRIPOS>SUBSTRUCTURE
  1 ****   9 GROUP 4 **** **** 0

# MOE 2024.06 (io_trps.svl 2023.06)
