@<TRIPOS>MOLECULE
NONAME
46 48 1 0 0 
SMALL
USER_CHARGES


@<TRIPOS>ATOM
  1 CL      -1.2490    -0.9260    -2.0660 Cl    1 <1>  -0.1770 
  2 C       -1.1620    -1.9160    -0.6260 C.ar  1 <1>   0.1770 
  3 C       -2.0980    -2.9150    -0.3840 C.ar  1 <1>  -0.1440 
  4 C       -0.1290    -1.6630     0.2580 C.ar  1 <1>  -0.1500 
  5 C       -1.9680    -3.6670     0.7760 C.ar  1 <1>  -0.1500 
  6 C       -3.2510    -3.2200    -1.3440 C.3   1 <1>   0.0450 
  7 C       -0.0160    -2.4180     1.4120 C.ar  1 <1>  -0.1500 
  8 C       -0.9370    -3.4200     1.6680 C.ar  1 <1>  -0.1500 
  9 C       -4.6010    -3.3170    -0.6440 C.2   1 <1>   0.5690 
 10 O       -5.0920    -4.4200    -0.5610 O.2   1 <1>  -0.5700 
 11 N       -5.2330    -2.2040    -0.1430 N.am  1 <1>  -0.6600 
 12 C       -6.5750    -2.3000     0.5120 C.3   1 <1>   0.1400 
 13 C       -4.7080    -0.8120    -0.1930 C.3   1 <1>   0.1400 
 14 C       -7.6190    -1.4420    -0.2460 C.3   1 <1>   0.0000 
 15 C       -5.6940     0.0810    -0.9550 C.3   1 <1>  -0.1600 
 16 C       -8.9970    -1.5070     0.4350 C.3   1 <1>   0.2000 
 17 C       -7.1080     0.0120    -0.3540 C.3   1 <1>  -0.1600 
 18 C       -7.9240    -2.0610    -1.6210 C.3   1 <1>  -0.1600 
 19 O       -8.8850    -1.4640     1.8270 O.3   1 <1>  -0.5600 
 20 C       -9.6320    -2.8200    -0.0350 C.3   1 <1>  -0.1600 
 21 C       -8.9330    -3.1820    -1.3530 C.3   1 <1>  -0.1600 
 22 C      -10.0750    -1.2150     2.5060 C.3   1 <1>   0.0400 
 23 H        0.5790    -0.8830     0.0420 H     1 <1>   0.1500 
 24 H       -2.6740    -4.4520     0.9940 H     1 <1>   0.1500 
 25 H       -3.0500    -4.1610    -1.8210 H     1 <1>   0.0800 
 26 H       -3.3350    -2.4890    -2.1230 H     1 <1>   0.0800 
 27 H        0.7850    -2.2300     2.1060 H     1 <1>   0.1500 
 28 H       -0.8530    -4.0110     2.5640 H     1 <1>   0.1500 
 29 H       -6.9020    -3.3240     0.5610 H     1 <1>   0.0800 
 30 H       -6.4810    -1.9470     1.5240 H     1 <1>   0.0800 
 31 H       -4.5950    -0.4500     0.8150 H     1 <1>   0.0800 
 32 H       -3.7470    -0.7680    -0.6680 H     1 <1>   0.0800 
 33 H       -5.3420     1.0970    -0.9270 H     1 <1>   0.0800 
 34 H       -5.7160    -0.2260    -1.9860 H     1 <1>   0.0800 
 35 H       -9.5930    -0.6730     0.1040 H     1 <1>   0.0800 
 36 H       -7.7830     0.6010    -0.9500 H     1 <1>   0.0800 
 37 H       -7.0860     0.4410     0.6330 H     1 <1>   0.0800 
 38 H       -8.3860    -1.3240    -2.2560 H     1 <1>   0.0800 
 39 H       -7.0450    -2.4340    -2.1170 H     1 <1>   0.0800 
 40 H       -9.4570    -3.5990     0.6880 H     1 <1>   0.0800 
 41 H      -10.6890    -2.6960    -0.1840 H     1 <1>   0.0800 
 42 H       -8.4100    -4.1170    -1.2380 H     1 <1>   0.0800 
 43 H       -9.6340    -3.2740    -2.1640 H     1 <1>   0.0800 
 44 H       -9.8570    -1.1840     3.5590 H     1 <1>   0.0800 
 45 H      -10.7760    -2.0060     2.3050 H     1 <1>   0.0800 
 46 H      -10.4720    -0.2660     2.1910 H     1 <1>   0.0800 
@<TRIPOS>BOND
  1   1   2  1   
  2   2   3  ar  
  3   2   4  ar  
  4   3   5  ar  
  5   3   6  1   
  6   4   7  ar  
  7   4  23  1   
  8   5   8  ar  
  9   5  24  1   
 10   6   9  1   
 11   6  25  1   
 12   6  26  1   
 13   7   8  ar  
 14   7  27  1   
 15   8  28  1   
 16   9  10  2   
 17   9  11  am  
 18  11  12  1   
 19  11  13  1   
 20  12  14  1   
 21  12  29  1   
 22  12  30  1   
 23  13  15  1   
 24  13  31  1   
 25  13  32  1   
 26  14  16  1   
 27  14  17  1   
 28  14  18  1   
 29  15  17  1   
 30  15  33  1   
 31  15  34  1   
 32  16  19  1   
 33  16  20  1   
 34  16  35  1   
 35  17  36  1   
 36  17  37  1   
 37  18  21  1   
 38  18  38  1   
 39  18  39  1   
 40  19  22  1   
 41  20  21  1   
 42  20  40  1   
 43  20  41  1   
 44  21  42  1   
 45  21  43  1   
 46  22  44  1   
 47  22  45  1   
 48  22  46  1   
@<TRIPOS>SUBSTRUCTURE
  1 ****  11 GROUP 4 **** **** 0

# MOE 2024.06 (io_trps.svl 2023.06)
