@<TRIPOS>MOLECULE
NONAME
55 58 1 0 0 
SMALL
USER_CHARGES


@<TRIPOS>ATOM
  1 O       -2.0330     0.3190    -3.4840 O.2   1 <1>  -0.5700 
  2 C       -1.2610     0.6340    -2.6100 C.2   1 <1>   0.5690 
  3 N       -1.0040    -0.1690    -1.5480 N.am  1 <1>  -0.7300 
  4 C       -0.5880     1.9960    -2.6410 C.3   1 <1>   0.0820 
  5 C       -1.8900    -1.2380    -1.0540 C.3   1 <1>   0.2200 
  6 C       -0.3340     2.4820    -1.2130 C.2   1 <1>  -0.1810 
  7 C       -2.7600    -0.6510     0.0460 C.3   1 <1>  -0.0800 
  8 C       -1.0690    -2.2710    -0.2870 C.3   1 <1>   0.1200 
  9 C       -1.3410     2.9160    -0.3040 C.ar  1 <1>   0.0000 
 10 C        0.8540     2.4780    -0.5580 C.2   1 <1>  -0.3320 
 11 C       -1.8320    -0.7320     1.2580 C.3   1 <1>   0.1200 
 12 C       -4.0610    -1.4470     0.2500 C.3   1 <1>  -0.0160 
 13 O       -0.9730    -1.8140     1.0330 O.3   1 <1>  -0.5600 
 14 C       -2.7310     3.1500    -0.3610 C.ar  1 <1>  -0.1440 
 15 C       -0.6830     3.1140     0.9100 C.ar  1 <1>  -0.1520 
 16 N        0.6510     2.8770     0.7290 N.pl3 1 <1>   0.0330 
 17 C        2.2480     2.0880    -1.0240 C.3   1 <1>  -0.0600 
 18 C       -4.9120    -0.8320     1.3510 C.ar  1 <1>  -0.1440 
 19 C       -3.3950     3.5140     0.7900 C.ar  1 <1>  -0.1500 
 20 C       -3.5240     3.0260    -1.6520 C.3   1 <1>  -0.0970 
 21 C       -1.3620     3.4790     2.0770 C.ar  1 <1>  -0.1440 
 22 C       -5.5040     0.4060     1.2050 C.ar  1 <1>  -0.1500 
 23 C       -5.1310    -1.4720     2.5540 C.ar  1 <1>  -0.1500 
 24 C       -2.7200     3.6700     2.0030 C.ar  1 <1>  -0.1500 
 25 C       -0.6110     3.6530     3.3850 C.3   1 <1>  -0.0970 
 26 C       -6.2620     0.9310     2.2390 C.ar  1 <1>   0.1600 
 27 C       -5.9070    -0.8600     3.5240 C.ar  1 <1>   0.1600 
 28 N       -6.4790     0.3270     3.3960 N.ar  1 <1>  -0.6200 
 29 H       -0.4070     0.2350    -0.8170 H     1 <1>   0.3700 
 30 H        0.3310     1.9040    -3.1830 H     1 <1>   0.0800 
 31 H       -1.2020     2.6960    -3.1710 H     1 <1>   0.0800 
 32 H       -2.4490    -1.6680    -1.8690 H     1 <1>   0.0800 
 33 H       -3.0150     0.3720    -0.1630 H     1 <1>   0.0800 
 34 H       -0.0830    -2.3980    -0.6970 H     1 <1>   0.0800 
 35 H       -1.5790    -3.2170    -0.2640 H     1 <1>   0.0800 
 36 H       -2.3540    -0.8810     2.1870 H     1 <1>   0.0800 
 37 H       -1.2280     0.1570     1.3290 H     1 <1>   0.0800 
 38 H       -3.8360    -2.4710     0.4930 H     1 <1>   0.0800 
 39 H       -4.6280    -1.4440    -0.6650 H     1 <1>   0.0800 
 40 H        1.3620     2.9660     1.4610 H     1 <1>   0.2700 
 41 H        2.2440     1.7610    -2.0470 H     1 <1>   0.0800 
 42 H        2.6280     1.2860    -0.4170 H     1 <1>   0.0800 
 43 H        2.9110     2.9310    -0.9420 H     1 <1>   0.0800 
 44 H       -4.4550     3.6930     0.7780 H     1 <1>   0.1500 
 45 H       -4.5470     3.3220    -1.5040 H     1 <1>   0.0800 
 46 H       -3.5230     2.0110    -2.0010 H     1 <1>   0.0800 
 47 H       -3.1040     3.6660    -2.4050 H     1 <1>   0.0800 
 48 H       -5.3800     0.9700     0.2980 H     1 <1>   0.1500 
 49 H       -4.7030    -2.4380     2.7490 H     1 <1>   0.1500 
 50 H       -3.2850     3.9480     2.8750 H     1 <1>   0.1500 
 51 H       -1.2850     3.9230     4.1780 H     1 <1>   0.0800 
 52 H        0.1250     4.4300     3.2840 H     1 <1>   0.0800 
 53 H       -0.1220     2.7330     3.6520 H     1 <1>   0.0800 
 54 H       -6.7130     1.8990     2.1060 H     1 <1>   0.1500 
 55 H       -6.0660    -1.3750     4.4560 H     1 <1>   0.1500 
@<TRIPOS>BOND
  1   1   2  2   
  2   2   3  am  
  3   2   4  1   
  4   3   5  1   
  5   3  29  1   
  6   4   6  1   
  7   4  30  1   
  8   4  31  1   
  9   5   7  1   
 10   5   8  1   
 11   5  32  1   
 12   6   9  1   
 13   6  10  2   
 14   7  11  1   
 15   7  12  1   
 16   7  33  1   
 17   8  13  1   
 18   8  34  1   
 19   8  35  1   
 20   9  14  ar  
 21   9  15  ar  
 22  10  16  1   
 23  10  17  1   
 24  11  13  1   
 25  11  36  1   
 26  11  37  1   
 27  12  18  1   
 28  12  38  1   
 29  12  39  1   
 30  14  19  ar  
 31  14  20  1   
 32  15  16  1   
 33  15  21  ar  
 34  16  40  1   
 35  17  41  1   
 36  17  42  1   
 37  17  43  1   
 38  18  22  ar  
 39  18  23  ar  
 40  19  24  ar  
 41  19  44  1   
 42  20  45  1   
 43  20  46  1   
 44  20  47  1   
 45  21  24  ar  
 46  21  25  1   
 47  22  26  ar  
 48  22  48  1   
 49  23  27  ar  
 50  23  49  1   
 51  24  50  1   
 52  25  51  1   
 53  25  52  1   
 54  25  53  1   
 55  26  28  ar  
 56  26  54  1   
 57  27  28  ar  
 58  27  55  1   
@<TRIPOS>SUBSTRUCTURE
  1 ****   7 GROUP 4 **** **** 0

# MOE 2024.06 (io_trps.svl 2023.06)
