@<TRIPOS>MOLECULE
NONAME
47 49 1 0 0 
SMALL
USER_CHARGES


@<TRIPOS>ATOM
  1 S        0.9740    -0.3490     1.1010 S.o2  1 <1>   1.4470 
  2 O        0.1680     0.2540     2.1350 O.2   1 <1>  -0.6500 
  3 O        2.3030    -0.8140     1.4290 O.2   1 <1>  -0.6500 
  4 N        1.1910     0.8890    -0.0040 N.am  1 <1>  -0.9140 
  5 C        0.0620    -1.6190     0.1610 C.ar  1 <1>  -0.0090 
  6 C        2.2050     1.8510     0.4490 C.3   1 <1>   0.2570 
  7 C       -1.2930    -1.5020    -0.1850 C.ar  1 <1>  -0.1430 
  8 C        0.7510    -2.7600    -0.2540 C.ar  1 <1>  -0.1500 
  9 C        1.9790     3.2570    -0.1170 C.2   1 <1>   0.5690 
 10 C       -1.9190    -2.5040    -0.9140 C.ar  1 <1>  -0.1500 
 11 C       -2.1320    -0.2940     0.2170 C.3   1 <1>  -0.0960 
 12 C        0.1350    -3.7630    -0.9820 C.ar  1 <1>  -0.1500 
 13 O        0.8400     3.6510    -0.2400 O.2   1 <1>  -0.5700 
 14 N        3.0460     4.0350    -0.4510 N.am  1 <1>  -0.5100 
 15 C       -1.1970    -3.6140    -1.2990 C.ar  1 <1>   0.1900 
 16 C        4.4300     4.0780     0.1180 C.3   1 <1>   0.2250 
 17 C        3.0790     5.5130    -0.6840 C.3   1 <1>   0.2250 
 18 F       -1.7920    -4.5510    -1.9850 F     1 <1>  -0.1900 
 19 C        4.1930     5.5850     0.3810 C.3   1 <1>   0.0850 
 20 N        5.3110     6.4580    -0.0290 N.pl3 1 <1>   0.4850 
 21 N        6.5540     5.9870    -0.2570 N.2   1 <1>  -0.7070 
 22 C        5.2700     7.8060    -0.1800 C.2   1 <1>  -0.3320 
 23 C        7.2620     7.0280    -0.5570 C.2   1 <1>   0.1080 
 24 C        6.5150     8.1980    -0.5260 C.2   1 <1>  -0.1500 
 25 C        4.0420     8.6810     0.0190 C.3   1 <1>  -0.0600 
 26 C        8.7330     6.9390    -0.8930 C.3   1 <1>  -0.0590 
 27 H        0.3150     1.4160     0.0220 H     1 <1>   0.4200 
 28 H        3.1800     1.4930     0.1650 H     1 <1>   0.0800 
 29 H        2.1790     1.9370     1.5220 H     1 <1>   0.0800 
 30 H        1.7940    -2.8680    -0.0050 H     1 <1>   0.1500 
 31 H       -2.9560    -2.4380    -1.1880 H     1 <1>   0.1500 
 32 H       -1.6740     0.6180    -0.1180 H     1 <1>   0.0800 
 33 H       -2.2470    -0.2590     1.2860 H     1 <1>   0.0800 
 34 H       -3.1150    -0.3440    -0.2170 H     1 <1>   0.0800 
 35 H        0.6730    -4.6390    -1.2970 H     1 <1>   0.1500 
 36 H        5.1520     3.8440    -0.6440 H     1 <1>   0.0000 
 37 H        4.5140     3.4880     1.0130 H     1 <1>   0.0000 
 38 H        2.1630     5.9910    -0.3900 H     1 <1>   0.0000 
 39 H        3.4040     5.7360    -1.6850 H     1 <1>   0.0000 
 40 H        3.8340     5.8030     1.3710 H     1 <1>   0.0000 
 41 H        6.8800     9.1880    -0.7330 H     1 <1>   0.1500 
 42 H        3.6350     8.5370     1.0050 H     1 <1>   0.0800 
 43 H        3.2880     8.4440    -0.7110 H     1 <1>   0.0800 
 44 H        4.3060     9.7180    -0.0920 H     1 <1>   0.0800 
 45 H        8.8670     6.3010    -1.7460 H     1 <1>   0.0800 
 46 H        9.2670     6.5240    -0.0590 H     1 <1>   0.0800 
 47 H        9.1280     7.9130    -1.1150 H     1 <1>   0.0800 
@<TRIPOS>BOND
  1   1   2  2   
  2   1   3  2   
  3   1   4  am  
  4   1   5  1   
  5   4   6  1   
  6   4  27  1   
  7   5   7  ar  
  8   5   8  ar  
  9   6   9  1   
 10   6  28  1   
 11   6  29  1   
 12   7  10  ar  
 13   7  11  1   
 14   8  12  ar  
 15   8  30  1   
 16   9  13  2   
 17   9  14  am  
 18  10  15  ar  
 19  10  31  1   
 20  11  32  1   
 21  11  33  1   
 22  11  34  1   
 23  12  15  ar  
 24  12  35  1   
 25  14  16  1   
 26  14  17  1   
 27  15  18  1   
 28  16  19  1   
 29  16  36  1   
 30  16  37  1   
 31  17  19  1   
 32  17  38  1   
 33  17  39  1   
 34  19  20  1   
 35  19  40  1   
 36  20  21  1   
 37  20  22  1   
 38  21  23  2   
 39  22  24  2   
 40  22  25  1   
 41  23  24  1   
 42  23  26  1   
 43  24  41  1   
 44  25  42  1   
 45  25  43  1   
 46  25  44  1   
 47  26  45  1   
 48  26  46  1   
 49  26  47  1   
@<TRIPOS>SUBSTRUCTURE
  1 ****   6 GROUP 4 **** **** 0

# MOE 2024.06 (io_trps.svl 2023.06)
