@<TRIPOS>MOLECULE
NONAME
41 43 1 0 0 
SMALL
USER_CHARGES


@<TRIPOS>ATOM
  1 O       -1.2820     0.8380    -0.8940 O.2   1 <1>  -0.5700 
  2 C       -0.7960     1.8120    -0.3790 C.2   1 <1>   0.5690 
  3 N       -1.5180     2.9470    -0.2370 N.am  1 <1>  -0.7300 
  4 C        0.6680     1.7810     0.0890 C.3   1 <1>   0.1810 
  5 C       -0.9980     4.1390     0.4660 C.3   1 <1>   0.3640 
  6 O        1.0330     2.8680     0.9200 O.3   1 <1>  -0.5600 
  7 C       -1.4970     5.4130    -0.2120 C.ar  1 <1>  -0.1440 
  8 C        0.5440     4.1250     0.4860 C.3   1 <1>   0.2610 
  9 C       -1.3980     5.5870    -1.5860 C.ar  1 <1>  -0.1500 
 10 C       -2.0250     6.4370     0.5610 C.ar  1 <1>  -0.1500 
 11 C        1.0500     5.2960     1.3400 C.2   1 <1>   0.5690 
 12 C       -1.8130     6.7690    -2.1730 C.ar  1 <1>  -0.1500 
 13 C       -2.4450     7.6170    -0.0260 C.ar  1 <1>  -0.1500 
 14 O        0.4970     5.5300     2.3930 O.2   1 <1>  -0.5700 
 15 N        2.0420     6.1180     0.8670 N.am  1 <1>  -0.6600 
 16 C       -2.3360     7.7850    -1.3940 C.ar  1 <1>  -0.1500 
 17 C        2.1780     7.5030     1.3810 C.3   1 <1>   0.3200 
 18 C        3.0110     5.7410    -0.2020 C.3   1 <1>   0.0600 
 19 C        1.8820     8.4640     0.2480 C.2   1 <1>  -0.3320 
 20 N        0.7210     8.4680    -0.4430 N.pl3 1 <1>   0.3000 
 21 C        2.6520     9.4410    -0.2790 C.2   1 <1>  -0.1500 
 22 N        0.7230     9.4170    -1.4020 N.2   1 <1>  -0.7070 
 23 C        1.8800     9.9940    -1.2940 C.2   1 <1>   0.1390 
 24 H       -2.4980     2.9560    -0.5240 H     1 <1>   0.3700 
 25 H        1.3120     1.7870    -0.7710 H     1 <1>   0.0800 
 26 H        0.8430     0.8760     0.6420 H     1 <1>   0.0800 
 27 H       -1.3600     4.1120     1.4810 H     1 <1>   0.0800 
 28 H        0.8850     4.2690    -0.5210 H     1 <1>   0.0800 
 29 H       -0.9980     4.8050    -2.2100 H     1 <1>   0.1500 
 30 H       -2.1080     6.3250     1.6310 H     1 <1>   0.1500 
 31 H       -1.7280     6.9040    -3.2390 H     1 <1>   0.1500 
 32 H       -2.8550     8.4080     0.5800 H     1 <1>   0.1500 
 33 H       -2.6510     8.7070    -1.8530 H     1 <1>   0.1500 
 34 H        1.4950     7.6850     2.1940 H     1 <1>   0.0800 
 35 H        3.1790     7.6520     1.7480 H     1 <1>   0.0800 
 36 H        3.9810     6.1500     0.0230 H     1 <1>   0.0800 
 37 H        2.6810     6.1320    -1.1500 H     1 <1>   0.0800 
 38 H        3.1060     4.6710    -0.2690 H     1 <1>   0.0800 
 39 H       -0.0830     7.8370    -0.2980 H     1 <1>   0.2700 
 40 H        3.6440     9.7520    -0.0030 H     1 <1>   0.1500 
 41 H        2.1950    10.8080    -1.9260 H     1 <1>   0.1500 
@<TRIPOS>BOND
  1   1   2  2   
  2   2   3  am  
  3   2   4  1   
  4   3   5  1   
  5   3  24  1   
  6   4   6  1   
  7   4  25  1   
  8   4  26  1   
  9   5   7  1   
 10   5   8  1   
 11   5  27  1   
 12   6   8  1   
 13   7   9  ar  
 14   7  10  ar  
 15   8  11  1   
 16   8  28  1   
 17   9  12  ar  
 18   9  29  1   
 19  10  13  ar  
 20  10  30  1   
 21  11  14  2   
 22  11  15  am  
 23  12  16  ar  
 24  12  31  1   
 25  13  16  ar  
 26  13  32  1   
 27  15  17  1   
 28  15  18  1   
 29  16  33  1   
 30  17  19  1   
 31  17  34  1   
 32  17  35  1   
 33  18  36  1   
 34  18  37  1   
 35  18  38  1   
 36  19  20  1   
 37  19  21  2   
 38  20  22  1   
 39  20  39  1   
 40  21  23  1   
 41  21  40  1   
 42  22  23  2   
 43  23  41  1   
@<TRIPOS>SUBSTRUCTURE
  1 ****   7 GROUP 4 **** **** 0

# MOE 2024.06 (io_trps.svl 2023.06)
