@<TRIPOS>MOLECULE
NONAME
44 47 1 0 0 
SMALL
USER_CHARGES


@<TRIPOS>ATOM
  1 S       -0.3220     0.4970    -1.7820 S.3   1 <1>  -0.0800 
  2 C       -0.2170     1.8400    -0.6640 C.2   1 <1>  -0.1400 
  3 C        1.3410     0.7620    -2.2860 C.2   1 <1>  -0.1100 
  4 C        0.9930     2.4140    -0.6830 C.2   1 <1>  -0.1810 
  5 C       -1.3720     2.2720     0.1970 C.3   1 <1>   0.0200 
  6 C        1.8890     1.7990    -1.6210 C.2   1 <1>  -0.1500 
  7 C        1.3170     3.6000     0.2290 C.3   1 <1>   0.4610 
  8 C       -1.0680     3.6990     0.6830 C.3   1 <1>   0.1200 
  9 O        0.2580     3.8080     1.1470 O.3   1 <1>  -0.5600 
 10 C        1.5310     4.8830    -0.5870 C.3   1 <1>  -0.1600 
 11 C        2.5580     3.2980     1.0760 C.3   1 <1>  -0.1600 
 12 C        1.9260     6.0630     0.3040 C.3   1 <1>   0.1400 
 13 C        2.9450     4.4890     1.9540 C.3   1 <1>   0.1400 
 14 N        3.1290     5.6930     1.0970 N.am  1 <1>  -0.6600 
 15 C        4.3660     6.2830     0.9260 C.2   1 <1>   0.7160 
 16 O        5.3620     5.6580     1.2400 O.2   1 <1>  -0.5700 
 17 C        4.5000     7.6130     0.3760 C.2   1 <1>  -0.0860 
 18 C        5.3800     8.0890    -0.5480 C.2   1 <1>  -0.0400 
 19 C        3.7180     8.7390     0.7130 C.2   1 <1>  -0.1500 
 20 O        5.1760     9.3610    -0.7850 O.3   1 <1>  -0.2800 
 21 C        6.4980     7.3930    -1.2970 C.3   1 <1>  -0.0600 
 22 C        4.1790     9.7640    -0.0290 C.2   1 <1>  -0.0400 
 23 C        3.7500    11.2120    -0.1070 C.3   1 <1>  -0.0600 
 24 H        1.7380     0.1040    -3.0380 H     1 <1>   0.1500 
 25 H       -1.4760     1.6060     1.0340 H     1 <1>   0.0800 
 26 H       -2.2860     2.2670    -0.3690 H     1 <1>   0.0800 
 27 H        2.8940     2.1570    -1.7530 H     1 <1>   0.1500 
 28 H       -1.7230     3.9620     1.4950 H     1 <1>   0.0800 
 29 H       -1.2100     4.4040    -0.1160 H     1 <1>   0.0800 
 30 H        0.6460     5.1190    -1.1450 H     1 <1>   0.0800 
 31 H        2.3180     4.7180    -1.3000 H     1 <1>   0.0800 
 32 H        3.3900     3.0630     0.4390 H     1 <1>   0.0800 
 33 H        2.3650     2.4370     1.6900 H     1 <1>   0.0800 
 34 H        1.1200     6.3050     0.9760 H     1 <1>   0.0800 
 35 H        2.1190     6.9200    -0.3170 H     1 <1>   0.0800 
 36 H        3.8480     4.2640     2.4970 H     1 <1>   0.0800 
 37 H        2.1670     4.6840     2.6720 H     1 <1>   0.0800 
 38 H        2.9220     8.7370     1.4350 H     1 <1>   0.1500 
 39 H        6.5490     6.3550    -1.0270 H     1 <1>   0.0800 
 40 H        7.4360     7.8600    -1.0560 H     1 <1>   0.0800 
 41 H        6.3300     7.4730    -2.3550 H     1 <1>   0.0800 
 42 H        2.9340    11.3960     0.5660 H     1 <1>   0.0800 
 43 H        3.4400    11.4440    -1.1100 H     1 <1>   0.0800 
 44 H        4.5750    11.8470     0.1580 H     1 <1>   0.0800 
@<TRIPOS>BOND
  1   1   2  1   
  2   1   3  1   
  3   2   4  2   
  4   2   5  1   
  5   3   6  2   
  6   3  24  1   
  7   4   6  1   
  8   4   7  1   
  9   5   8  1   
 10   5  25  1   
 11   5  26  1   
 12   6  27  1   
 13   7   9  1   
 14   7  10  1   
 15   7  11  1   
 16   8   9  1   
 17   8  28  1   
 18   8  29  1   
 19  10  12  1   
 20  10  30  1   
 21  10  31  1   
 22  11  13  1   
 23  11  32  1   
 24  11  33  1   
 25  12  14  1   
 26  12  34  1   
 27  12  35  1   
 28  13  14  1   
 29  13  36  1   
 30  13  37  1   
 31  14  15  am  
 32  15  16  2   
 33  15  17  1   
 34  17  18  2   
 35  17  19  1   
 36  18  20  1   
 37  18  21  1   
 38  19  22  2   
 39  19  38  1   
 40  20  22  1   
 41  21  39  1   
 42  21  40  1   
 43  21  41  1   
 44  22  23  1   
 45  23  42  1   
 46  23  43  1   
 47  23  44  1   
@<TRIPOS>SUBSTRUCTURE
  1 ****  12 GROUP 4 **** **** 0

# MOE 2024.06 (io_trps.svl 2023.06)
