@<TRIPOS>MOLECULE
NONAME
44 46 1 0 0 
SMALL
USER_CHARGES


@<TRIPOS>ATOM
  1 O       -0.0980    -0.2050     1.0880 O.2   1 <1>  -0.5700 
  2 C        0.7580    -0.5970     0.3140 C.2   1 <1>   0.7160 
  3 N        1.6870     0.2670    -0.1990 N.am  1 <1>  -0.4930 
  4 C        0.8140    -1.9920    -0.0680 C.2   1 <1>   0.1410 
  5 C        1.9270     1.6370     0.0730 C.2   1 <1>   0.0630 
  6 N        1.7500    -2.4880    -0.9060 N.2   1 <1>  -0.2270 
  7 C        0.0150    -3.0190     0.3010 C.2   1 <1>  -0.3020 
  8 C        1.0280     2.7000     0.2060 C.2   1 <1>   0.1080 
  9 C        3.1470     2.1950     0.2350 C.2   1 <1>  -0.3320 
 10 N        1.5460    -3.7460    -1.0490 N.2   1 <1>  -0.4180 
 11 N        0.4740    -4.1100    -0.3160 N.pl3 1 <1>   0.5930 
 12 N        1.6320     3.8240     0.4350 N.2   1 <1>  -0.7070 
 13 C       -0.4780     2.6290     0.0910 C.3   1 <1>  -0.0590 
 14 N        2.9410     3.5180     0.4570 N.pl3 1 <1>   0.3140 
 15 C        4.5190     1.5360     0.2010 C.3   1 <1>  -0.0600 
 16 C       -0.0350    -5.4400    -0.2390 C.ar  1 <1>  -0.0230 
 17 C        3.9570     4.5620     0.7020 C.3   1 <1>   0.0960 
 18 C        0.8160    -6.5350    -0.3690 C.ar  1 <1>  -0.1500 
 19 C       -1.3930    -5.6790    -0.0300 C.ar  1 <1>  -0.1500 
 20 C        4.4560     5.1640    -0.6200 C.3   1 <1>  -0.1600 
 21 C        0.3290    -7.8270    -0.2880 C.ar  1 <1>  -0.1500 
 22 C       -1.8800    -6.9710     0.0520 C.ar  1 <1>  -0.1500 
 23 C        5.5230     6.2380    -0.3780 C.3   1 <1>  -0.2400 
 24 C       -1.0200    -8.0460    -0.0760 C.ar  1 <1>  -0.1500 
 25 H        2.3950    -0.1810    -0.7790 H     1 <1>   0.3700 
 26 H       -0.8290    -3.0150     0.9630 H     1 <1>   0.1500 
 27 H       -0.7630     1.8800    -0.6220 H     1 <1>   0.0800 
 28 H       -0.8640     3.5800    -0.2280 H     1 <1>   0.0800 
 29 H       -0.8980     2.3860     1.0490 H     1 <1>   0.0800 
 30 H        4.4310     0.4780     0.0320 H     1 <1>   0.0800 
 31 H        5.0240     1.6840     1.1390 H     1 <1>   0.0800 
 32 H        5.1150     1.9580    -0.5880 H     1 <1>   0.0800 
 33 H        4.7710     4.1300     1.2520 H     1 <1>   0.0800 
 34 H        3.5060     5.3280     1.3060 H     1 <1>   0.0800 
 35 H        1.8690    -6.3790    -0.5370 H     1 <1>   0.1500 
 36 H       -2.0810    -4.8570     0.0660 H     1 <1>   0.1500 
 37 H        3.6220     5.6040    -1.1400 H     1 <1>   0.0800 
 38 H        4.8700     4.3870    -1.2380 H     1 <1>   0.0800 
 39 H        1.0000    -8.6630    -0.3900 H     1 <1>   0.1500 
 40 H       -2.9310    -7.1420     0.2140 H     1 <1>   0.1500 
 41 H        5.1230     7.0380     0.2200 H     1 <1>   0.0800 
 42 H        5.8510     6.6480    -1.3170 H     1 <1>   0.0800 
 43 H        6.3760     5.8190     0.1270 H     1 <1>   0.0800 
 44 H       -1.4000    -9.0520    -0.0130 H     1 <1>   0.1500 
@<TRIPOS>BOND
  1   1   2  2   
  2   2   3  am  
  3   2   4  1   
  4   3   5  1   
  5   3  25  1   
  6   4   6  1   
  7   4   7  2   
  8   5   8  1   
  9   5   9  2   
 10   6  10  2   
 11   7  11  1   
 12   7  26  1   
 13   8  12  2   
 14   8  13  1   
 15   9  14  1   
 16   9  15  1   
 17  10  11  1   
 18  11  16  1   
 19  12  14  1   
 20  13  27  1   
 21  13  28  1   
 22  13  29  1   
 23  14  17  1   
 24  15  30  1   
 25  15  31  1   
 26  15  32  1   
 27  16  18  ar  
 28  16  19  ar  
 29  17  20  1   
 30  17  33  1   
 31  17  34  1   
 32  18  21  ar  
 33  18  35  1   
 34  19  22  ar  
 35  19  36  1   
 36  20  23  1   
 37  20  37  1   
 38  20  38  1   
 39  21  24  ar  
 40  21  39  1   
 41  22  24  ar  
 42  22  40  1   
 43  23  41  1   
 44  23  42  1   
 45  23  43  1   
 46  24  44  1   
@<TRIPOS>SUBSTRUCTURE
  1 ****   2 GROUP 4 **** **** 0

# MOE 2024.06 (io_trps.svl 2023.06)
