@<TRIPOS>MOLECULE
NONAME
45 47 1 0 0 
SMALL
USER_CHARGES


@<TRIPOS>ATOM
  1 S        1.1580     0.8320    -1.7580 S.o2  1 <1>   1.3330 
  2 O        0.6830     1.9150    -2.5890 O.2   1 <1>  -0.6500 
  3 O        1.3480    -0.4820    -2.3310 O.2   1 <1>  -0.6500 
  4 N        0.0750     0.6810    -0.4570 N.am  1 <1>  -0.8490 
  5 C        2.6990     1.3210    -0.9790 C.3   1 <1>  -0.0550 
  6 C       -1.0080    -0.2630    -0.7490 C.3   1 <1>   0.1160 
  7 C       -0.4920     1.9640    -0.0240 C.3   1 <1>   0.1160 
  8 C        3.3530     0.2190    -0.1150 C.3   1 <1>  -0.0800 
  9 C        4.7480     0.5440     0.4000 C.3   1 <1>   0.2200 
 10 C        2.5930    -0.1440     1.1670 C.3   1 <1>   0.1200 
 11 N        4.8190     1.9380     0.9000 N.am  1 <1>  -0.7300 
 12 C        4.8270    -0.4000     1.5900 C.3   1 <1>   0.1200 
 13 O        3.5560    -0.3530     2.1600 O.3   1 <1>  -0.5600 
 14 C        5.2920     3.0100     0.1980 C.2   1 <1>   0.7160 
 15 O        5.6510     2.8140    -0.9510 O.2   1 <1>  -0.5700 
 16 C        5.3180     4.3050     0.7950 C.2   1 <1>  -0.0860 
 17 C        5.4260     5.5480     0.2190 C.2   1 <1>  -0.0680 
 18 C        5.2260     4.6100     2.1630 C.2   1 <1>   0.1390 
 19 N        5.3880     6.4530     1.2090 N.pl3 1 <1>   0.6010 
 20 N        5.5480     6.1990    -0.9930 N.pl3 1 <1>  -0.5530 
 21 N        5.2590     5.8800     2.4310 N.2   1 <1>  -0.7070 
 22 C        5.4880     7.7080     0.6410 C.2   1 <1>  -0.1810 
 23 C        5.5870     7.5530    -0.6960 C.2   1 <1>  -0.0500 
 24 C        5.6610     5.5660    -2.3250 C.3   1 <1>   0.1290 
 25 H        3.3920     1.5850    -1.7540 H     1 <1>   0.0800 
 26 H        2.5330     2.1990    -0.3880 H     1 <1>   0.0800 
 27 H       -1.6710    -0.3450     0.0950 H     1 <1>   0.0800 
 28 H       -0.6020    -1.2400    -0.9530 H     1 <1>   0.0800 
 29 H       -1.5680     0.0640    -1.6100 H     1 <1>   0.0800 
 30 H       -1.0980     1.8220     0.8550 H     1 <1>   0.0800 
 31 H       -1.1010     2.3900    -0.8050 H     1 <1>   0.0800 
 32 H        0.2950     2.6580     0.2160 H     1 <1>   0.0800 
 33 H        3.4260    -0.6750    -0.7110 H     1 <1>   0.0800 
 34 H        5.5210     0.3550    -0.3280 H     1 <1>   0.0800 
 35 H        2.0120    -1.0430     1.0460 H     1 <1>   0.0800 
 36 H        1.9550     0.6560     1.4990 H     1 <1>   0.0800 
 37 H        4.3810     2.0710     1.8130 H     1 <1>   0.3700 
 38 H        5.5650    -0.1040     2.3150 H     1 <1>   0.0800 
 39 H        5.0110    -1.4110     1.2690 H     1 <1>   0.0800 
 40 H        5.1380     3.8650     2.9350 H     1 <1>   0.1500 
 41 H        5.4790     8.5840     1.2580 H     1 <1>   0.1500 
 42 H        5.6850     8.3030    -1.4650 H     1 <1>   0.1500 
 43 H        5.7050     6.3210    -3.0900 H     1 <1>   0.0800 
 44 H        4.8080     4.9340    -2.4960 H     1 <1>   0.0800 
 45 H        6.5540     4.9670    -2.3620 H     1 <1>   0.0800 
@<TRIPOS>BOND
  1   1   2  2   
  2   1   3  2   
  3   1   4  am  
  4   1   5  1   
  5   4   6  1   
  6   4   7  1   
  7   5   8  1   
  8   5  25  1   
  9   5  26  1   
 10   6  27  1   
 11   6  28  1   
 12   6  29  1   
 13   7  30  1   
 14   7  31  1   
 15   7  32  1   
 16   8   9  1   
 17   8  10  1   
 18   8  33  1   
 19   9  11  1   
 20   9  12  1   
 21   9  34  1   
 22  10  13  1   
 23  10  35  1   
 24  10  36  1   
 25  11  14  am  
 26  11  37  1   
 27  12  13  1   
 28  12  38  1   
 29  12  39  1   
 30  14  15  2   
 31  14  16  1   
 32  16  17  2   
 33  16  18  1   
 34  17  19  1   
 35  17  20  1   
 36  18  21  2   
 37  18  40  1   
 38  19  21  1   
 39  19  22  1   
 40  20  23  1   
 41  20  24  1   
 42  22  23  2   
 43  22  41  1   
 44  23  42  1   
 45  24  43  1   
 46  24  44  1   
 47  24  45  1   
@<TRIPOS>SUBSTRUCTURE
  1 ****  14 GROUP 4 **** **** 0

# MOE 2024.06 (io_trps.svl 2023.06)
