@<TRIPOS>MOLECULE
NONAME
52 55 1 0 0 
SMALL
USER_CHARGES


@<TRIPOS>ATOM
  1 O        0.0470    -0.0720    -0.2270 O.2   1 <1>  -0.5700 
  2 C        1.1490    -0.5740    -0.1160 C.2   1 <1>   0.5440 
  3 N        2.2580     0.2220     0.0690 N.am  1 <1>  -0.4940 
  4 C        1.3060    -2.0150    -0.1990 C.ar  1 <1>   0.0860 
  5 C        2.3820     1.6330     0.1390 C.2   1 <1>  -0.0880 
  6 C        2.3230    -2.6980     0.4750 C.ar  1 <1>  -0.1500 
  7 C        0.4310    -2.7860    -0.9670 C.ar  1 <1>  -0.1500 
  8 N        3.5120     2.3310     0.4750 N.pl3 1 <1>   0.3140 
  9 C        1.4350     2.5610    -0.1300 C.2   1 <1>  -0.1500 
 10 C        2.4680    -4.0690     0.3690 C.ar  1 <1>  -0.1500 
 11 C        0.5700    -4.1560    -1.0740 C.ar  1 <1>  -0.1500 
 12 N        3.2910     3.6690     0.4030 N.2   1 <1>  -0.7070 
 13 C        4.8600     1.8590     0.9330 C.3   1 <1>   0.2710 
 14 C        2.0540     3.7890     0.0470 C.2   1 <1>   0.1080 
 15 C        1.5980    -4.8200    -0.4150 C.ar  1 <1>  -0.0230 
 16 C        5.1720     0.3850     0.5930 C.3   1 <1>  -0.1950 
 17 C        5.0230     2.0880     2.4420 C.3   1 <1>  -0.2400 
 18 C        1.3920     5.1320    -0.1440 C.3   1 <1>  -0.0590 
 19 N        1.7420    -6.2290    -0.5360 N.pl3 1 <1>   0.5930 
 20 C        6.5510    -0.0090     0.1640 C.3   1 <1>  -0.2000 
 21 C        5.4130    -0.0730    -0.8130 C.3   1 <1>  -0.2000 
 22 N        0.7950    -7.1000    -0.1090 N.2   1 <1>  -0.7070 
 23 C        2.7850    -6.9140    -1.0860 C.2   1 <1>  -0.3320 
 24 C        1.2520    -8.2770    -0.3820 C.2   1 <1>   0.1080 
 25 C        2.4970    -8.2280    -0.9960 C.2   1 <1>  -0.1500 
 26 C        4.0200    -6.2670    -1.6940 C.3   1 <1>  -0.0600 
 27 C        0.4890    -9.5390    -0.0570 C.3   1 <1>  -0.0590 
 28 H        3.1450    -0.2790     0.0530 H     1 <1>   0.3700 
 29 H        3.0030    -2.1550     1.1060 H     1 <1>   0.1500 
 30 H       -0.3760    -2.2930    -1.4850 H     1 <1>   0.1500 
 31 H        0.4140     2.4030    -0.4260 H     1 <1>   0.1500 
 32 H        3.2550    -4.5700     0.9070 H     1 <1>   0.1500 
 33 H       -0.1260    -4.7250    -1.6680 H     1 <1>   0.1500 
 34 H        5.5760     2.4780     0.4220 H     1 <1>   0.0800 
 35 H        4.7060    -0.2940     1.2860 H     1 <1>   0.1000 
 36 H        4.2920     1.5210     2.9910 H     1 <1>   0.0800 
 37 H        4.8980     3.1330     2.6680 H     1 <1>   0.0800 
 38 H        6.0060     1.7890     2.7570 H     1 <1>   0.0800 
 39 H        0.3650     5.0070    -0.4330 H     1 <1>   0.0800 
 40 H        1.9100     5.6810    -0.9090 H     1 <1>   0.0800 
 41 H        1.4350     5.6870     0.7740 H     1 <1>   0.0800 
 42 H        6.9680    -0.9310     0.5320 H     1 <1>   0.1000 
 43 H        7.3030     0.7490     0.0200 H     1 <1>   0.1000 
 44 H        5.3800     0.6510    -1.6110 H     1 <1>   0.1000 
 45 H        5.0670    -1.0430    -1.1260 H     1 <1>   0.1000 
 46 H        3.0760    -9.0750    -1.3210 H     1 <1>   0.1500 
 47 H        3.7340    -5.5790    -2.4710 H     1 <1>   0.0800 
 48 H        4.6590    -7.0190    -2.1230 H     1 <1>   0.0800 
 49 H        4.5750    -5.7360    -0.9420 H     1 <1>   0.0800 
 50 H       -0.4550    -9.5300    -0.5700 H     1 <1>   0.0800 
 51 H        0.3080    -9.5860     1.0020 H     1 <1>   0.0800 
 52 H        1.0470   -10.4060    -0.3580 H     1 <1>   0.0800 
@<TRIPOS>BOND
  1   1   2  2   
  2   2   3  am  
  3   2   4  1   
  4   3   5  1   
  5   3  28  1   
  6   4   6  ar  
  7   4   7  ar  
  8   5   8  1   
  9   5   9  2   
 10   6  10  ar  
 11   6  29  1   
 12   7  11  ar  
 13   7  30  1   
 14   8  12  1   
 15   8  13  1   
 16   9  14  1   
 17   9  31  1   
 18  10  15  ar  
 19  10  32  1   
 20  11  15  ar  
 21  11  33  1   
 22  12  14  2   
 23  13  16  1   
 24  13  17  1   
 25  13  34  1   
 26  14  18  1   
 27  15  19  1   
 28  16  20  1   
 29  16  21  1   
 30  16  35  1   
 31  17  36  1   
 32  17  37  1   
 33  17  38  1   
 34  18  39  1   
 35  18  40  1   
 36  18  41  1   
 37  19  22  1   
 38  19  23  1   
 39  20  21  1   
 40  20  42  1   
 41  20  43  1   
 42  21  44  1   
 43  21  45  1   
 44  22  24  2   
 45  23  25  2   
 46  23  26  1   
 47  24  25  1   
 48  24  27  1   
 49  25  46  1   
 50  26  47  1   
 51  26  48  1   
 52  26  49  1   
 53  27  50  1   
 54  27  51  1   
 55  27  52  1   
@<TRIPOS>SUBSTRUCTURE
  1 ****   6 GROUP 4 **** **** 0

# MOE 2024.06 (io_trps.svl 2023.06)
