@<TRIPOS>MOLECULE
NONAME
46 48 1 0 0 
SMALL
USER_CHARGES


@<TRIPOS>ATOM
  1 O       -0.8500     0.1210     1.5300 O.2   1 <1>  -0.5700 
  2 C       -1.6460     0.7220     0.8470 C.2   1 <1>   0.5690 
  3 N       -2.6610     0.0400     0.2210 N.am  1 <1>  -0.6600 
  4 C       -1.4500     2.2420     0.7480 C.3   1 <1>  -0.0190 
  5 C       -3.8180     0.5640    -0.5510 C.3   1 <1>   0.1400 
  6 C       -2.7980    -1.4330     0.3730 C.3   1 <1>   0.1400 
  7 C       -2.4510     3.0320     1.6180 C.3   1 <1>  -0.1600 
  8 C       -1.3840     2.7900    -0.6950 C.3   1 <1>  -0.1600 
  9 C       -4.9060    -0.4890    -0.3550 C.3   1 <1>   0.2000 
 10 C       -4.1210    -1.8030    -0.3110 C.3   1 <1>  -0.0800 
 11 C       -2.1580     4.5410     1.5830 C.3   1 <1>  -0.1600 
 12 C       -1.0860     4.2970    -0.7060 C.3   1 <1>  -0.1600 
 13 O       -5.5020    -0.2610     0.8760 O.3   1 <1>  -0.6800 
 14 C       -4.8530    -2.9870     0.3460 C.3   1 <1>  -0.0170 
 15 C       -2.1070     5.0600     0.1430 C.3   1 <1>   0.2000 
 16 C       -4.0260    -4.2600     0.2490 C.ar  1 <1>  -0.1440 
 17 O       -1.7410     6.3850     0.1730 O.3   1 <1>  -0.6800 
 18 C       -4.0530    -5.0580    -0.8770 C.ar  1 <1>  -0.1500 
 19 C       -3.2050    -4.6820     1.2750 C.ar  1 <1>  -0.1500 
 20 C       -3.2770    -6.2050    -0.9220 C.ar  1 <1>   0.1600 
 21 C       -2.4680    -5.8460     1.1280 C.ar  1 <1>   0.1600 
 22 N       -2.4840    -6.6170     0.0530 N.ar  1 <1>  -0.6200 
 23 H       -0.4780     2.4270     1.1740 H     1 <1>   0.0800 
 24 H       -4.1470     1.5290    -0.2170 H     1 <1>   0.0800 
 25 H       -3.5480     0.6140    -1.5910 H     1 <1>   0.0800 
 26 H       -1.9650    -1.9410    -0.0830 H     1 <1>   0.0800 
 27 H       -2.8250    -1.6750     1.4220 H     1 <1>   0.0800 
 28 H       -3.4560     2.8660     1.2820 H     1 <1>   0.0800 
 29 H       -2.3870     2.6830     2.6350 H     1 <1>   0.0800 
 30 H       -0.6160     2.2680    -1.2400 H     1 <1>   0.0800 
 31 H       -2.3150     2.6290    -1.2040 H     1 <1>   0.0800 
 32 H       -5.6660    -0.4650    -1.1170 H     1 <1>   0.0800 
 33 H       -3.8880    -2.0750    -1.3250 H     1 <1>   0.0800 
 34 H       -1.2140     4.7230     2.0660 H     1 <1>   0.0800 
 35 H       -2.9260     5.0660     2.1240 H     1 <1>   0.0800 
 36 H       -1.1210     4.6610    -1.7180 H     1 <1>   0.0800 
 37 H       -0.0960     4.4600    -0.3170 H     1 <1>   0.0800 
 38 H       -4.7970    -0.1600     1.5480 H     1 <1>   0.4000 
 39 H       -5.7990    -3.1390    -0.1440 H     1 <1>   0.0800 
 40 H       -5.0600    -2.7750     1.3810 H     1 <1>   0.0800 
 41 H       -3.0840     5.0010    -0.3080 H     1 <1>   0.0800 
 42 H       -0.8610     6.4770     0.5820 H     1 <1>   0.4000 
 43 H       -4.6680    -4.8010    -1.7190 H     1 <1>   0.1500 
 44 H       -3.1290    -4.1190     2.1870 H     1 <1>   0.1500 
 45 H       -3.3110    -6.8160    -1.8080 H     1 <1>   0.1500 
 46 H       -1.8320    -6.1580     1.9390 H     1 <1>   0.1500 
@<TRIPOS>BOND
  1   1   2  2   
  2   2   3  am  
  3   2   4  1   
  4   3   5  1   
  5   3   6  1   
  6   4   7  1   
  7   4   8  1   
  8   4  23  1   
  9   5   9  1   
 10   5  24  1   
 11   5  25  1   
 12   6  10  1   
 13   6  26  1   
 14   6  27  1   
 15   7  11  1   
 16   7  28  1   
 17   7  29  1   
 18   8  12  1   
 19   8  30  1   
 20   8  31  1   
 21   9  10  1   
 22   9  13  1   
 23   9  32  1   
 24  10  14  1   
 25  10  33  1   
 26  11  15  1   
 27  11  34  1   
 28  11  35  1   
 29  12  15  1   
 30  12  36  1   
 31  12  37  1   
 32  13  38  1   
 33  14  16  1   
 34  14  39  1   
 35  14  40  1   
 36  15  17  1   
 37  15  41  1   
 38  16  18  ar  
 39  16  19  ar  
 40  17  42  1   
 41  18  20  ar  
 42  18  43  1   
 43  19  21  ar  
 44  19  44  1   
 45  20  22  ar  
 46  20  45  1   
 47  21  22  ar  
 48  21  46  1   
@<TRIPOS>SUBSTRUCTURE
  1 ****   3 GROUP 4 **** **** 0

# MOE 2024.06 (io_trps.svl 2023.06)
