@<TRIPOS>MOLECULE
NONAME
50 52 1 0 0 
SMALL
USER_CHARGES


@<TRIPOS>ATOM
  1 CL      -0.8400    -0.1520    -0.7260 Cl    1 <1>  -0.1770 
  2 C       -1.3970    -1.6850    -0.1000 C.ar  1 <1>   0.1770 
  3 C       -0.8430    -2.8510    -0.5690 C.ar  1 <1>  -0.1500 
  4 C       -2.4030    -1.6800     0.8710 C.ar  1 <1>  -0.1500 
  5 C       -1.3050    -4.0670    -0.0540 C.ar  1 <1>   0.0000 
  6 C       -2.8640    -2.8710     1.3840 C.ar  1 <1>  -0.1500 
  7 C       -2.3070    -4.0650     0.9130 C.ar  1 <1>  -0.1520 
  8 C       -0.9770    -5.4200    -0.2920 C.2   1 <1>  -0.1810 
  9 N       -2.5790    -5.3630     1.2530 N.pl3 1 <1>   0.0330 
 10 C       -1.7730    -6.1800     0.5020 C.2   1 <1>  -0.3320 
 11 C        0.1010    -5.8420    -1.2750 C.3   1 <1>  -0.0590 
 12 C       -1.8460    -7.6820     0.6300 C.3   1 <1>   0.5230 
 13 N       -2.5020    -8.1880    -0.5980 N.4   1 <1>  -0.9590 
 14 C       -3.9150    -7.7110    -0.7140 C.3   1 <1>   0.3430 
 15 C       -2.5550    -9.6780    -0.5780 C.3   1 <1>   0.3430 
 16 C       -4.7650    -8.7990    -0.0540 C.3   1 <1>   0.2000 
 17 C       -4.0380   -10.0800    -0.4680 C.3   1 <1>  -0.0800 
 18 O       -4.6950    -8.6390     1.3290 O.3   1 <1>  -0.6800 
 19 C       -4.2770   -11.3080     0.4400 C.3   1 <1>  -0.0550 
 20 S       -3.3570   -12.7450    -0.1040 S.o2  1 <1>   1.3330 
 21 O       -3.8140   -13.0720    -1.4330 O.2   1 <1>  -0.6500 
 22 O       -1.9650   -12.4180     0.1120 O.2   1 <1>  -0.6500 
 23 N       -3.8350   -13.9510     0.9850 N.am  1 <1>  -0.8490 
 24 C       -5.0410   -14.6740     0.5620 C.3   1 <1>   0.1160 
 25 C       -2.7610   -14.9090     1.2710 C.3   1 <1>   0.1160 
 26 H       -0.0700    -2.8340    -1.3130 H     1 <1>   0.1500 
 27 H       -2.8010    -0.7380     1.2030 H     1 <1>   0.1500 
 28 H       -3.6350    -2.8880     2.1340 H     1 <1>   0.1500 
 29 H       -3.2560    -5.6390     1.9740 H     1 <1>   0.2700 
 30 H        1.0310    -5.3680    -1.0120 H     1 <1>   0.0800 
 31 H       -0.1690    -5.5340    -2.2690 H     1 <1>   0.0800 
 32 H        0.2470    -6.9050    -1.2620 H     1 <1>   0.0800 
 33 H       -2.4050    -7.9640     1.5080 H     1 <1>   0.0800 
 34 H       -0.8490    -8.0840     0.7090 H     1 <1>   0.0800 
 35 H       -1.9510    -7.8210    -1.3830 H     1 <1>   0.4500 
 36 H       -4.0710    -6.7510    -0.2510 H     1 <1>   0.0800 
 37 H       -4.1830    -7.6420    -1.7550 H     1 <1>   0.0800 
 38 H       -2.1220   -10.0940    -1.4740 H     1 <1>   0.0800 
 39 H       -2.0060   -10.0550     0.2710 H     1 <1>   0.0800 
 40 H       -5.7970    -8.7600    -0.3620 H     1 <1>   0.0800 
 41 H       -4.3640   -10.3380    -1.4630 H     1 <1>   0.0800 
 42 H       -5.4340    -9.1030     1.7780 H     1 <1>   0.4000 
 43 H       -5.3240   -11.5440     0.4440 H     1 <1>   0.0800 
 44 H       -3.9870   -11.0830     1.4490 H     1 <1>   0.0800 
 45 H       -5.3460   -15.3660     1.3290 H     1 <1>   0.0800 
 46 H       -4.8520   -15.2210    -0.3480 H     1 <1>   0.0800 
 47 H       -5.8480   -13.9840     0.3880 H     1 <1>   0.0800 
 48 H       -3.0950   -15.6430     1.9840 H     1 <1>   0.0800 
 49 H       -1.9100   -14.3980     1.6910 H     1 <1>   0.0800 
 50 H       -2.4510   -15.4080     0.3670 H     1 <1>   0.0800 
@<TRIPOS>BOND
  1   1   2  1   
  2   2   3  ar  
  3   2   4  ar  
  4   3   5  ar  
  5   3  26  1   
  6   4   6  ar  
  7   4  27  1   
  8   5   7  ar  
  9   5   8  1   
 10   6   7  ar  
 11   6  28  1   
 12   7   9  1   
 13   8  10  2   
 14   8  11  1   
 15   9  10  1   
 16   9  29  1   
 17  10  12  1   
 18  11  30  1   
 19  11  31  1   
 20  11  32  1   
 21  12  13  1   
 22  12  33  1   
 23  12  34  1   
 24  13  14  1   
 25  13  15  1   
 26  13  35  1   
 27  14  16  1   
 28  14  36  1   
 29  14  37  1   
 30  15  17  1   
 31  15  38  1   
 32  15  39  1   
 33  16  17  1   
 34  16  18  1   
 35  16  40  1   
 36  17  19  1   
 37  17  41  1   
 38  18  42  1   
 39  19  20  1   
 40  19  43  1   
 41  19  44  1   
 42  20  21  2   
 43  20  22  2   
 44  20  23  am  
 45  23  24  1   
 46  23  25  1   
 47  24  45  1   
 48  24  46  1   
 49  24  47  1   
 50  25  48  1   
 51  25  49  1   
 52  25  50  1   
@<TRIPOS>SUBSTRUCTURE
  1 ****  13 GROUP 4 **** **** 0

# MOE 2024.06 (io_trps.svl 2023.06)
