@<TRIPOS>MOLECULE
NONAME
46 49 1 0 0 
SMALL
USER_CHARGES


@<TRIPOS>ATOM
  1 O       -0.5140     0.3290     1.2460 O.2   1 <1>  -0.5700 
  2 C       -1.4930     0.9560     0.8930 C.2   1 <1>   0.7150 
  3 N       -2.6730     0.2850     0.6660 N.am  1 <1>  -0.6600 
  4 C       -1.4070     2.3800     0.7080 C.2   1 <1>  -0.2370 
  5 C       -3.6940     0.7540    -0.3110 C.3   1 <1>   0.1400 
  6 C       -2.7810    -1.1890     0.8360 C.3   1 <1>   0.1400 
  7 N       -2.3570     3.2540     1.1800 N.pl3 1 <1>   0.0330 
  8 C       -0.4350     3.1180     0.0970 C.2   1 <1>  -0.1500 
  9 C       -4.6760    -0.4080    -0.4390 C.3   1 <1>   0.2000 
 10 C       -3.8040    -1.6460    -0.2110 C.3   1 <1>  -0.0800 
 11 C       -1.9990     4.5310     0.8470 C.ar  1 <1>  -0.1520 
 12 C       -0.7910     4.4770     0.1640 C.ar  1 <1>   0.0000 
 13 O       -5.6060    -0.3000     0.5840 O.3   1 <1>  -0.6800 
 14 C       -4.5720    -2.9230     0.1790 C.3   1 <1>   0.0200 
 15 C       -2.6310     5.7540     1.0880 C.ar  1 <1>  -0.1500 
 16 C       -0.1990     5.6610    -0.2900 C.ar  1 <1>  -0.1500 
 17 C       -3.6820    -4.1510     0.2650 C.2   1 <1>  -0.0400 
 18 C       -2.0370     6.9080     0.6340 C.ar  1 <1>  -0.1500 
 19 C       -0.8180     6.8680    -0.0570 C.ar  1 <1>  -0.1430 
 20 O       -4.1910    -5.2600     0.7320 O.3   1 <1>  -0.0190 
 21 C       -2.3990    -4.3940    -0.0510 C.2   1 <1>  -0.1500 
 22 C       -0.2020     8.1700    -0.5370 C.3   1 <1>  -0.0970 
 23 N       -3.3200    -6.2270     0.7510 N.2   1 <1>  -0.4100 
 24 C       -2.2300    -5.7340     0.2850 C.2   1 <1>   0.1080 
 25 C       -0.9430    -6.5120     0.1260 C.3   1 <1>  -0.0590 
 26 H       -4.1910     1.6500     0.0170 H     1 <1>   0.0800 
 27 H       -3.2140     0.9370    -1.2570 H     1 <1>   0.0800 
 28 H       -1.8290    -1.6720     0.6880 H     1 <1>   0.0800 
 29 H       -3.1290    -1.4010     1.8330 H     1 <1>   0.0800 
 30 H       -3.1770     2.9970     1.7370 H     1 <1>   0.2700 
 31 H        0.4650     2.7500    -0.3630 H     1 <1>   0.1500 
 32 H       -5.2000    -0.4180    -1.3800 H     1 <1>   0.0800 
 33 H       -3.2710    -1.8370    -1.1260 H     1 <1>   0.0800 
 34 H       -5.1360    -0.1920     1.4350 H     1 <1>   0.4000 
 35 H       -5.3430    -3.1120    -0.5480 H     1 <1>   0.0800 
 36 H       -5.0540    -2.7880     1.1320 H     1 <1>   0.0800 
 37 H       -3.5650     5.7840     1.6200 H     1 <1>   0.1500 
 38 H        0.7370     5.5990    -0.8150 H     1 <1>   0.1500 
 39 H       -2.5090     7.8590     0.8090 H     1 <1>   0.1500 
 40 H       -1.6460    -3.7500    -0.4640 H     1 <1>   0.1500 
 41 H       -0.8760     8.6660    -1.2120 H     1 <1>   0.0800 
 42 H        0.7250     7.9890    -1.0500 H     1 <1>   0.0800 
 43 H       -0.0100     8.8140     0.3020 H     1 <1>   0.0800 
 44 H       -0.1650    -6.0520     0.7050 H     1 <1>   0.0800 
 45 H       -0.6540    -6.5320    -0.9080 H     1 <1>   0.0800 
 46 H       -1.0810    -7.5220     0.4680 H     1 <1>   0.0800 
@<TRIPOS>BOND
  1   1   2  2   
  2   2   3  am  
  3   2   4  1   
  4   3   5  1   
  5   3   6  1   
  6   4   7  1   
  7   4   8  2   
  8   5   9  1   
  9   5  26  1   
 10   5  27  1   
 11   6  10  1   
 12   6  28  1   
 13   6  29  1   
 14   7  11  1   
 15   7  30  1   
 16   8  12  1   
 17   8  31  1   
 18   9  10  1   
 19   9  13  1   
 20   9  32  1   
 21  10  14  1   
 22  10  33  1   
 23  11  12  ar  
 24  11  15  ar  
 25  12  16  ar  
 26  13  34  1   
 27  14  17  1   
 28  14  35  1   
 29  14  36  1   
 30  15  18  ar  
 31  15  37  1   
 32  16  19  ar  
 33  16  38  1   
 34  17  20  1   
 35  17  21  2   
 36  18  19  ar  
 37  18  39  1   
 38  19  22  1   
 39  20  23  1   
 40  21  24  1   
 41  21  40  1   
 42  22  41  1   
 43  22  42  1   
 44  22  43  1   
 45  23  24  2   
 46  24  25  1   
 47  25  44  1   
 48  25  45  1   
 49  25  46  1   
@<TRIPOS>SUBSTRUCTURE
  1 ****   3 GROUP 4 **** **** 0

# MOE 2024.06 (io_trps.svl 2023.06)
