@<TRIPOS>MOLECULE
NONAME
45 47 1 0 0 
SMALL
USER_CHARGES


@<TRIPOS>ATOM
  1 F       -1.6230    -0.3910    -1.4290 F     1 <1>  -0.1900 
  2 C       -2.3000     0.5390    -0.8060 C.ar  1 <1>   0.1900 
  3 C       -3.1330     0.1710     0.2370 C.ar  1 <1>  -0.1440 
  4 C       -2.1660     1.8480    -1.2270 C.ar  1 <1>  -0.1500 
  5 C       -3.8570     1.1670     0.8740 C.ar  1 <1>  -0.1500 
  6 C       -3.2470    -1.2770     0.6620 C.3   1 <1>   0.4870 
  7 C       -2.8970     2.8320    -0.5830 C.ar  1 <1>  -0.1500 
  8 C       -3.7470     2.4900     0.4690 C.ar  1 <1>   0.0830 
  9 N       -3.9370    -2.0390    -0.4140 N.4   1 <1>  -0.9590 
 10 O       -4.5020     3.3860     1.1490 O.3   1 <1>  -0.3630 
 11 C       -5.3340    -1.5570    -0.6980 C.3   1 <1>   0.3430 
 12 C       -3.9990    -3.5090    -0.1610 C.3   1 <1>   0.3430 
 13 C       -4.4330     4.7680     0.8730 C.3   1 <1>   0.0400 
 14 C       -6.2620    -2.7560    -0.4720 C.3   1 <1>   0.2000 
 15 C       -5.3540    -3.9620    -0.7020 C.3   1 <1>  -0.0800 
 16 O       -6.7200    -2.7390     0.8420 O.3   1 <1>  -0.6800 
 17 C       -5.8410    -5.3100    -0.1320 C.3   1 <1>   0.0200 
 18 C       -4.7290    -6.3390    -0.1920 C.2   1 <1>  -0.0400 
 19 O       -4.0160    -6.4630    -1.2800 O.3   1 <1>  -0.0190 
 20 C       -4.2590    -7.2130     0.7100 C.2   1 <1>  -0.1500 
 21 N       -3.0820    -7.3550    -1.1470 N.2   1 <1>  -0.4100 
 22 C       -3.2100    -7.8350     0.0380 C.2   1 <1>   0.1080 
 23 C       -2.3340    -8.9270     0.6120 C.3   1 <1>  -0.0590 
 24 H       -1.5040     2.0930    -2.0400 H     1 <1>   0.1500 
 25 H       -4.5180     0.9460     1.6950 H     1 <1>   0.1500 
 26 H       -3.7990    -1.3460     1.5840 H     1 <1>   0.0800 
 27 H       -2.2580    -1.6780     0.8220 H     1 <1>   0.0800 
 28 H       -2.7950     3.8510    -0.9100 H     1 <1>   0.1500 
 29 H       -3.3750    -1.8800    -1.2660 H     1 <1>   0.4500 
 30 H       -5.6200    -0.7300    -0.0670 H     1 <1>   0.0800 
 31 H       -5.4000    -1.2470    -1.7280 H     1 <1>   0.0800 
 32 H       -3.1890    -4.0330    -0.6480 H     1 <1>   0.0800 
 33 H       -3.9560    -3.7060     0.8980 H     1 <1>   0.0800 
 34 H       -5.0970     5.2780     1.5480 H     1 <1>   0.0800 
 35 H       -4.7440     4.9400    -0.1420 H     1 <1>   0.0800 
 36 H       -3.4240     5.1070     1.0300 H     1 <1>   0.0800 
 37 H       -7.1200    -2.7380    -1.1240 H     1 <1>   0.0800 
 38 H       -5.2370    -4.0860    -1.7660 H     1 <1>   0.0800 
 39 H       -6.0070    -2.8170     1.5020 H     1 <1>   0.4000 
 40 H       -6.6790    -5.6620    -0.7090 H     1 <1>   0.0800 
 41 H       -6.1630    -5.2170     0.8900 H     1 <1>   0.0800 
 42 H       -4.5790    -7.4180     1.7160 H     1 <1>   0.1500 
 43 H       -1.8600    -8.5840     1.5130 H     1 <1>   0.0800 
 44 H       -1.5740    -9.2010    -0.0980 H     1 <1>   0.0800 
 45 H       -2.9290    -9.7940     0.8320 H     1 <1>   0.0800 
@<TRIPOS>BOND
  1   1   2  1   
  2   2   3  ar  
  3   2   4  ar  
  4   3   5  ar  
  5   3   6  1   
  6   4   7  ar  
  7   4  24  1   
  8   5   8  ar  
  9   5  25  1   
 10   6   9  1   
 11   6  26  1   
 12   6  27  1   
 13   7   8  ar  
 14   7  28  1   
 15   8  10  1   
 16   9  11  1   
 17   9  12  1   
 18   9  29  1   
 19  10  13  1   
 20  11  14  1   
 21  11  30  1   
 22  11  31  1   
 23  12  15  1   
 24  12  32  1   
 25  12  33  1   
 26  13  34  1   
 27  13  35  1   
 28  13  36  1   
 29  14  15  1   
 30  14  16  1   
 31  14  37  1   
 32  15  17  1   
 33  15  38  1   
 34  16  39  1   
 35  17  18  1   
 36  17  40  1   
 37  17  41  1   
 38  18  19  1   
 39  18  20  2   
 40  19  21  1   
 41  20  22  1   
 42  20  42  1   
 43  21  22  2   
 44  22  23  1   
 45  23  43  1   
 46  23  44  1   
 47  23  45  1   
@<TRIPOS>SUBSTRUCTURE
  1 ****   9 GROUP 4 **** **** 0

# MOE 2024.06 (io_trps.svl 2023.06)
