@<TRIPOS>MOLECULE
NONAME
45 47 1 0 0 
SMALL
USER_CHARGES


@<TRIPOS>ATOM
  1 O       -0.0840     0.8310     0.3630 O.2   1 <1>  -0.5700 
  2 C       -0.1070     2.0000     0.0720 C.2   1 <1>   0.5690 
  3 N       -0.8710     2.8690     0.7710 N.am  1 <1>  -0.7300 
  4 C        0.7140     2.5140    -1.1140 C.3   1 <1>   0.1810 
  5 C       -0.9620     4.3160     0.4620 C.3   1 <1>   0.3640 
  6 O        0.9270     3.9080    -1.0630 O.3   1 <1>  -0.5600 
  7 C       -2.4280     4.7360     0.4450 C.ar  1 <1>  -0.1440 
  8 C       -0.2580     4.6710    -0.8710 C.3   1 <1>   0.2610 
  9 C       -2.8060     5.9270     1.0480 C.ar  1 <1>  -0.1500 
 10 C       -3.3980     3.9550    -0.1720 C.ar  1 <1>  -0.1500 
 11 C        0.0110     6.1810    -0.9320 C.2   1 <1>   0.5690 
 12 C       -4.1300     6.3300     1.0390 C.ar  1 <1>  -0.1500 
 13 C       -4.7220     4.3570    -0.1810 C.ar  1 <1>  -0.1500 
 14 O       -0.6360     6.8110    -1.7380 O.2   1 <1>  -0.5700 
 15 N        0.9190     6.8150    -0.1110 N.am  1 <1>  -0.6600 
 16 C       -5.0890     5.5440     0.4260 C.ar  1 <1>  -0.1500 
 17 C        1.9210     6.1520     0.7830 C.3   1 <1>   0.1400 
 18 C        1.1960     8.2790    -0.2470 C.3   1 <1>   0.1400 
 19 C        3.3520     6.4840     0.3190 C.3   1 <1>   0.2000 
 20 C        2.6680     8.5150    -0.6430 C.3   1 <1>   0.2000 
 21 O        3.5220     7.8690     0.2560 O.3   1 <1>  -0.5600 
 22 C        4.4070     5.9490     1.2830 C.3   1 <1>  -0.2400 
 23 C        3.0380     9.9960    -0.6210 C.3   1 <1>  -0.2400 
 24 H       -1.4540     2.5150     1.5310 H     1 <1>   0.3700 
 25 H        0.2060     2.2810    -2.0320 H     1 <1>   0.0800 
 26 H        1.6760     2.0350    -1.1180 H     1 <1>   0.0800 
 27 H       -0.4730     4.8450     1.2600 H     1 <1>   0.0800 
 28 H       -0.9210     4.4320    -1.6830 H     1 <1>   0.0800 
 29 H       -2.0740     6.5570     1.5240 H     1 <1>   0.1500 
 30 H       -3.1320     3.0290    -0.6520 H     1 <1>   0.1500 
 31 H       -4.4150     7.2560     1.5080 H     1 <1>   0.1500 
 32 H       -5.4670     3.7460    -0.6600 H     1 <1>   0.1500 
 33 H       -6.1190     5.8580     0.4190 H     1 <1>   0.1500 
 34 H        1.7870     6.5120     1.7880 H     1 <1>   0.0800 
 35 H        1.7970     5.0870     0.8010 H     1 <1>   0.0800 
 36 H        0.5560     8.7250    -0.9890 H     1 <1>   0.0800 
 37 H        0.9970     8.7660     0.6910 H     1 <1>   0.0800 
 38 H        3.5210     6.0750    -0.6630 H     1 <1>   0.0800 
 39 H        2.8470     8.1150    -1.6270 H     1 <1>   0.0800 
 40 H        4.2710     6.3750     2.2610 H     1 <1>   0.0800 
 41 H        5.3880     6.1980     0.9210 H     1 <1>   0.0800 
 42 H        4.3320     4.8790     1.3560 H     1 <1>   0.0800 
 43 H        2.8970    10.4010     0.3650 H     1 <1>   0.0800 
 44 H        2.4210    10.5400    -1.3120 H     1 <1>   0.0800 
 45 H        4.0650    10.1180    -0.9110 H     1 <1>   0.0800 
@<TRIPOS>BOND
  1   1   2  2   
  2   2   3  am  
  3   2   4  1   
  4   3   5  1   
  5   3  24  1   
  6   4   6  1   
  7   4  25  1   
  8   4  26  1   
  9   5   7  1   
 10   5   8  1   
 11   5  27  1   
 12   6   8  1   
 13   7   9  ar  
 14   7  10  ar  
 15   8  11  1   
 16   8  28  1   
 17   9  12  ar  
 18   9  29  1   
 19  10  13  ar  
 20  10  30  1   
 21  11  14  2   
 22  11  15  am  
 23  12  16  ar  
 24  12  31  1   
 25  13  16  ar  
 26  13  32  1   
 27  15  17  1   
 28  15  18  1   
 29  16  33  1   
 30  17  19  1   
 31  17  34  1   
 32  17  35  1   
 33  18  20  1   
 34  18  36  1   
 35  18  37  1   
 36  19  21  1   
 37  19  22  1   
 38  19  38  1   
 39  20  21  1   
 40  20  23  1   
 41  20  39  1   
 42  22  40  1   
 43  22  41  1   
 44  22  42  1   
 45  23  43  1   
 46  23  44  1   
 47  23  45  1   
@<TRIPOS>SUBSTRUCTURE
  1 ****   8 GROUP 4 **** **** 0

# MOE 2024.06 (io_trps.svl 2023.06)
