@<TRIPOS>MOLECULE
NONAME
47 50 1 0 0 
SMALL
USER_CHARGES


@<TRIPOS>ATOM
  1 O        4.4780    -1.9480    -1.3200 O.2   1 <1>  -0.5700 
  2 C        3.3850    -1.8500    -0.7920 C.2   1 <1>   0.5440 
  3 N        3.0370    -0.5950    -0.3660 N.am  1 <1>  -0.6600 
  4 C        2.5290    -3.0050    -0.5660 C.ar  1 <1>   0.0860 
  5 C        3.3750    -0.2400     1.0560 C.3   1 <1>   0.2200 
  6 C        2.9470     0.4900    -1.3910 C.3   1 <1>   0.1400 
  7 C        1.1880    -2.8670    -0.2050 C.ar  1 <1>  -0.1500 
  8 C        3.0220    -4.3020    -0.7050 C.ar  1 <1>  -0.1500 
  9 C        2.5350     0.9290     1.5960 C.3   1 <1>   0.1200 
 10 C        4.8910     0.0480     1.2250 C.3   1 <1>   0.3430 
 11 C        3.6890     1.7920    -1.0340 C.3   1 <1>  -0.0800 
 12 C        0.3560    -3.9570     0.0230 C.ar  1 <1>   0.0540 
 13 C        2.2190    -5.4030    -0.4810 C.ar  1 <1>  -0.1500 
 14 O        3.1400     2.1510     1.2940 O.3   1 <1>  -0.5600 
 15 N        5.5820     0.3400    -0.0790 N.4   1 <1>  -0.9590 
 16 C        2.9300     2.6280     0.0080 C.3   1 <1>   0.1200 
 17 C        5.1890     1.6460    -0.6960 C.3   1 <1>   0.3430 
 18 C       -1.0310    -3.7700     0.3910 C.2   1 <1>  -0.0540 
 19 C        0.8980    -5.2300    -0.1170 C.ar  1 <1>  -0.1500 
 20 C        7.0600     0.2040     0.0370 C.3   1 <1>   0.2630 
 21 C       -2.1110    -4.5990     0.0690 C.2   1 <1>   0.1390 
 22 C       -1.6090    -2.7750     1.1140 C.2   1 <1>  -0.3020 
 23 N       -3.2400    -4.1720     0.5420 N.2   1 <1>  -0.7070 
 24 N       -2.9250    -3.0390     1.1910 N.pl3 1 <1>   0.3000 
 25 H        3.1340    -1.0910     1.6690 H     1 <1>   0.0800 
 26 H        3.3370     0.1190    -2.3260 H     1 <1>   0.0800 
 27 H        1.9060     0.7110    -1.5580 H     1 <1>   0.0800 
 28 H        0.7680    -1.8830    -0.1070 H     1 <1>   0.1500 
 29 H        4.0500    -4.4500    -0.9940 H     1 <1>   0.1500 
 30 H        2.4960     0.8690     2.6700 H     1 <1>   0.0800 
 31 H        1.5260     0.9080     1.2200 H     1 <1>   0.0800 
 32 H        5.3400    -0.8250     1.6670 H     1 <1>   0.0800 
 33 H        5.0300     0.8660     1.9120 H     1 <1>   0.0800 
 34 H        3.6530     2.3910    -1.9260 H     1 <1>   0.0800 
 35 H        2.6210    -6.3960    -0.5910 H     1 <1>   0.1500 
 36 H        5.2350    -0.4120    -0.7190 H     1 <1>   0.4500 
 37 H        1.8710     2.6510    -0.1910 H     1 <1>   0.0800 
 38 H        3.2910     3.6430    -0.0070 H     1 <1>   0.0800 
 39 H        5.4780     2.4530    -0.0430 H     1 <1>   0.0800 
 40 H        5.7430     1.7590    -1.6140 H     1 <1>   0.0800 
 41 H        0.2820    -6.0940     0.0620 H     1 <1>   0.1500 
 42 H        7.4540     0.9450     0.7130 H     1 <1>   0.0800 
 43 H        7.5210     0.3320    -0.9290 H     1 <1>   0.0800 
 44 H        7.3140    -0.7760     0.4070 H     1 <1>   0.0800 
 45 H       -2.0240    -5.5000    -0.5150 H     1 <1>   0.1500 
 46 H       -1.1580    -1.9160     1.5710 H     1 <1>   0.1500 
 47 H       -3.6360    -2.4760     1.6750 H     1 <1>   0.2700 
@<TRIPOS>BOND
  1   1   2  2   
  2   2   3  am  
  3   2   4  1   
  4   3   5  1   
  5   3   6  1   
  6   4   7  ar  
  7   4   8  ar  
  8   5   9  1   
  9   5  10  1   
 10   5  25  1   
 11   6  11  1   
 12   6  26  1   
 13   6  27  1   
 14   7  12  ar  
 15   7  28  1   
 16   8  13  ar  
 17   8  29  1   
 18   9  14  1   
 19   9  30  1   
 20   9  31  1   
 21  10  15  1   
 22  10  32  1   
 23  10  33  1   
 24  11  16  1   
 25  11  17  1   
 26  11  34  1   
 27  12  18  1   
 28  12  19  ar  
 29  13  19  ar  
 30  13  35  1   
 31  14  16  1   
 32  15  17  1   
 33  15  20  1   
 34  15  36  1   
 35  16  37  1   
 36  16  38  1   
 37  17  39  1   
 38  17  40  1   
 39  18  21  1   
 40  18  22  2   
 41  19  41  1   
 42  20  42  1   
 43  20  43  1   
 44  20  44  1   
 45  21  23  2   
 46  21  45  1   
 47  22  24  1   
 48  22  46  1   
 49  23  24  1   
 50  24  47  1   
@<TRIPOS>SUBSTRUCTURE
  1 ****   3 GROUP 4 **** **** 0

# MOE 2024.06 (io_trps.svl 2023.06)
