@<TRIPOS>MOLECULE
NONAME
49 52 1 0 0 
SMALL
USER_CHARGES


@<TRIPOS>ATOM
  1 O        3.6360    -1.6480    -2.1310 O.2   1 <1>  -0.5700 
  2 C        2.8210    -1.6550    -1.2250 C.2   1 <1>   0.7160 
  3 N        2.6610    -0.4750    -0.5480 N.am  1 <1>  -0.6600 
  4 C        2.1910    -2.8760    -0.7870 C.2   1 <1>  -0.0860 
  5 C        3.2690    -0.4120     0.8260 C.3   1 <1>   0.2200 
  6 C        2.4860     0.7920    -1.3260 C.3   1 <1>   0.1400 
  7 C        1.1180    -3.1500     0.0140 C.2   1 <1>  -0.3320 
  8 C        2.6540    -4.1420    -1.1440 C.2   1 <1>   0.1390 
  9 C        2.6730     0.7000     1.7030 C.3   1 <1>   0.1200 
 10 C        4.8130    -0.2790     0.7350 C.3   1 <1>   0.3430 
 11 C        3.4240     1.9440    -0.9170 C.3   1 <1>  -0.0800 
 12 N        1.0050    -4.5070     0.1400 N.pl3 1 <1>   0.5930 
 13 C        0.1440    -2.1710     0.6650 C.3   1 <1>  -0.0600 
 14 N        1.9790    -5.1000    -0.6080 N.2   1 <1>  -0.7070 
 15 O        3.3510     1.9030     1.4970 O.3   1 <1>  -0.5600 
 16 N        5.2890     0.1990    -0.6150 N.4   1 <1>  -0.9590 
 17 C        2.9670     2.6310     0.3800 C.3   1 <1>   0.1200 
 18 C        4.9350     1.6250    -0.9100 C.3   1 <1>   0.3430 
 19 C        0.0450    -5.2730     0.8910 C.ar  1 <1>   0.2870 
 20 C        6.7460    -0.0510    -0.8020 C.3   1 <1>   0.2630 
 21 N       -0.3600    -4.8230     2.0890 N.ar  1 <1>  -0.6200 
 22 C       -0.4310    -6.4670     0.3500 C.ar  1 <1>  -0.1500 
 23 C       -1.2390    -5.5720     2.7350 C.ar  1 <1>   0.1600 
 24 C       -1.3480    -7.2330     1.0340 C.ar  1 <1>  -0.1500 
 25 C       -1.7580    -6.7630     2.2620 C.ar  1 <1>  -0.1500 
 26 H        3.0480    -1.3390     1.3280 H     1 <1>   0.0800 
 27 H        2.6310     0.5880    -2.3750 H     1 <1>   0.0800 
 28 H        1.4630     1.1150    -1.2170 H     1 <1>   0.0800 
 29 H        3.4940    -4.3060    -1.8010 H     1 <1>   0.1500 
 30 H        2.8150     0.4460     2.7390 H     1 <1>   0.0800 
 31 H        1.6180     0.8290     1.5300 H     1 <1>   0.0800 
 32 H        5.2360    -1.2500     0.9290 H     1 <1>   0.0800 
 33 H        5.1640     0.3840     1.5080 H     1 <1>   0.0800 
 34 H        3.2920     2.6990    -1.6720 H     1 <1>   0.0800 
 35 H        0.2470    -1.1830     0.2580 H     1 <1>   0.0800 
 36 H        0.3100    -2.1310     1.7270 H     1 <1>   0.0800 
 37 H       -0.8700    -2.4900     0.4930 H     1 <1>   0.0800 
 38 H        4.7660    -0.3820    -1.3080 H     1 <1>   0.4500 
 39 H        1.8990     2.7770     0.4030 H     1 <1>   0.0800 
 40 H        3.4350     3.5980     0.4650 H     1 <1>   0.0800 
 41 H        5.4230     2.2700    -0.1970 H     1 <1>   0.0800 
 42 H        5.3260     1.8700    -1.8850 H     1 <1>   0.0800 
 43 H        7.3190     0.5250    -0.0940 H     1 <1>   0.0800 
 44 H        7.0470     0.2260    -1.8000 H     1 <1>   0.0800 
 45 H        6.9660    -1.0970    -0.6590 H     1 <1>   0.0800 
 46 H       -0.0730    -6.7920    -0.6110 H     1 <1>   0.1500 
 47 H       -1.5650    -5.2170     3.6980 H     1 <1>   0.1500 
 48 H       -1.7240    -8.1570     0.6290 H     1 <1>   0.1500 
 49 H       -2.4700    -7.3140     2.8490 H     1 <1>   0.1500 
@<TRIPOS>BOND
  1   1   2  2   
  2   2   3  am  
  3   2   4  1   
  4   3   5  1   
  5   3   6  1   
  6   4   7  2   
  7   4   8  1   
  8   5   9  1   
  9   5  10  1   
 10   5  26  1   
 11   6  11  1   
 12   6  27  1   
 13   6  28  1   
 14   7  12  1   
 15   7  13  1   
 16   8  14  2   
 17   8  29  1   
 18   9  15  1   
 19   9  30  1   
 20   9  31  1   
 21  10  16  1   
 22  10  32  1   
 23  10  33  1   
 24  11  17  1   
 25  11  18  1   
 26  11  34  1   
 27  12  14  1   
 28  12  19  1   
 29  13  35  1   
 30  13  36  1   
 31  13  37  1   
 32  15  17  1   
 33  16  18  1   
 34  16  20  1   
 35  16  38  1   
 36  17  39  1   
 37  17  40  1   
 38  18  41  1   
 39  18  42  1   
 40  19  21  ar  
 41  19  22  ar  
 42  20  43  1   
 43  20  44  1   
 44  20  45  1   
 45  21  23  ar  
 46  22  24  ar  
 47  22  46  1   
 48  23  25  ar  
 49  23  47  1   
 50  24  25  ar  
 51  24  48  1   
 52  25  49  1   
@<TRIPOS>SUBSTRUCTURE
  1 ****   4 GROUP 4 **** **** 0

# MOE 2024.06 (io_trps.svl 2023.06)
