@<TRIPOS>MOLECULE
NONAME
42 44 1 0 0 
SMALL
USER_CHARGES


@<TRIPOS>ATOM
  1 O       -0.2930     0.0730     0.5060 O.2   1 <1>  -0.5700 
  2 C       -1.3120     0.7140     0.6910 C.2   1 <1>   0.7160 
  3 N       -2.5160     0.0440     0.6970 N.am  1 <1>  -0.6600 
  4 C       -1.2550     2.1440     0.8820 C.2   1 <1>  -0.0860 
  5 C       -3.8200     0.6820     0.3850 C.3   1 <1>   0.1400 
  6 C       -2.5940    -1.4240     0.5020 C.3   1 <1>   0.1400 
  7 C       -0.5380     3.1210     0.2550 C.2   1 <1>  -0.3320 
  8 C       -1.9870     2.8540     1.8370 C.2   1 <1>   0.1390 
  9 C       -4.6600    -0.4300    -0.2420 C.3   1 <1>   0.2000 
 10 C       -4.0790    -1.7340     0.3010 C.3   1 <1>  -0.0800 
 11 N       -0.8680     4.2950     0.8250 N.pl3 1 <1>   0.3140 
 12 C        0.4650     2.9710    -0.8800 C.3   1 <1>  -0.0600 
 13 N       -1.7720     4.1290     1.8010 N.2   1 <1>  -0.7070 
 14 O       -5.9970    -0.3200     0.1060 O.3   1 <1>  -0.6800 
 15 C       -4.3400    -2.9340    -0.6210 C.3   1 <1>  -0.0170 
 16 C       -0.3500     5.6290     0.4930 C.3   1 <1>   0.0160 
 17 C       -3.7420    -4.2080    -0.0440 C.ar  1 <1>  -0.1430 
 18 C       -4.4150    -4.9630     0.8950 C.ar  1 <1>  -0.1500 
 19 C       -2.4990    -4.6740    -0.4230 C.ar  1 <1>  -0.1500 
 20 C       -3.8280    -6.1120     1.3980 C.ar  1 <1>   0.1600 
 21 C       -2.0020    -5.8360     0.1430 C.ar  1 <1>   0.1600 
 22 N       -2.6360    -6.5660     1.0460 N.ar  1 <1>  -0.6200 
 23 H       -4.2700     1.0310     1.2980 H     1 <1>   0.0800 
 24 H       -3.6930     1.5000    -0.3030 H     1 <1>   0.0800 
 25 H       -2.0240    -1.6910    -0.3730 H     1 <1>   0.0800 
 26 H       -2.1940    -1.9440     1.3560 H     1 <1>   0.0800 
 27 H       -2.6610     2.3920     2.5380 H     1 <1>   0.1500 
 28 H       -4.5820    -0.3820    -1.3150 H     1 <1>   0.0800 
 29 H       -4.4950    -1.9330     1.2730 H     1 <1>   0.0800 
 30 H        0.5460     1.9410    -1.1800 H     1 <1>   0.0800 
 31 H        1.4360     3.3050    -0.5620 H     1 <1>   0.0800 
 32 H        0.1550     3.5490    -1.7320 H     1 <1>   0.0800 
 33 H       -6.1060    -0.3780     1.0740 H     1 <1>   0.4000 
 34 H       -3.9240    -2.7480    -1.5960 H     1 <1>   0.0800 
 35 H       -5.4020    -3.0650    -0.7430 H     1 <1>   0.0800 
 36 H       -0.5810     5.8520    -0.5310 H     1 <1>   0.0800 
 37 H        0.7120     5.6410     0.6440 H     1 <1>   0.0800 
 38 H       -0.8140     6.3550     1.1340 H     1 <1>   0.0800 
 39 H       -5.3900    -4.6700     1.2400 H     1 <1>   0.1500 
 40 H       -1.9100    -4.1470    -1.1510 H     1 <1>   0.1500 
 41 H       -4.3680    -6.6890     2.1290 H     1 <1>   0.1500 
 42 H       -1.0300    -6.1840    -0.1630 H     1 <1>   0.1500 
@<TRIPOS>BOND
  1   1   2  2   
  2   2   3  am  
  3   2   4  1   
  4   3   5  1   
  5   3   6  1   
  6   4   7  2   
  7   4   8  1   
  8   5   9  1   
  9   5  23  1   
 10   5  24  1   
 11   6  10  1   
 12   6  25  1   
 13   6  26  1   
 14   7  11  1   
 15   7  12  1   
 16   8  13  2   
 17   8  27  1   
 18   9  10  1   
 19   9  14  1   
 20   9  28  1   
 21  10  15  1   
 22  10  29  1   
 23  11  13  1   
 24  11  16  1   
 25  12  30  1   
 26  12  31  1   
 27  12  32  1   
 28  14  33  1   
 29  15  17  1   
 30  15  34  1   
 31  15  35  1   
 32  16  36  1   
 33  16  37  1   
 34  16  38  1   
 35  17  18  ar  
 36  17  19  ar  
 37  18  20  ar  
 38  18  39  1   
 39  19  21  ar  
 40  19  40  1   
 41  20  22  ar  
 42  20  41  1   
 43  21  22  ar  
 44  21  42  1   
@<TRIPOS>SUBSTRUCTURE
  1 ****   3 GROUP 4 **** **** 0

# MOE 2024.06 (io_trps.svl 2023.06)
