@<TRIPOS>MOLECULE
NONAME
53 56 1 0 0 
SMALL
USER_CHARGES


@<TRIPOS>ATOM
  1 F       -2.1690    -1.0020     1.3070 F     1 <1>  -0.1900 
  2 C       -2.4630     0.1460     0.7510 C.ar  1 <1>   0.1900 
  3 C       -2.9400     0.1720    -0.5520 C.ar  1 <1>  -0.1440 
  4 C       -2.2770     1.2910     1.5000 C.ar  1 <1>  -0.1500 
  5 C       -3.2420     1.4080    -1.1080 C.ar  1 <1>  -0.1500 
  6 C       -3.1320    -1.1070    -1.3510 C.3   1 <1>   0.2540 
  7 C       -2.5730     2.5170     0.9320 C.ar  1 <1>   0.0830 
  8 C       -3.0820     2.5750    -0.3740 C.ar  1 <1>   0.0830 
  9 N       -4.2840    -1.8670    -0.8320 N.3   1 <1>  -0.8100 
 10 O       -2.3420     3.6220     1.6800 O.3   1 <1>  -0.3630 
 11 O       -3.4390     3.7330    -0.9840 O.3   1 <1>  -0.3630 
 12 C       -5.5790    -1.1590    -0.9670 C.3   1 <1>   0.1100 
 13 C       -4.3630    -3.2280    -1.4050 C.3   1 <1>   0.1100 
 14 C       -1.2730     4.4420     1.2600 C.3   1 <1>   0.0400 
 15 C       -4.4390     4.5120    -0.3630 C.3   1 <1>   0.0400 
 16 C       -6.7180    -1.9030    -0.2190 C.3   1 <1>   0.4230 
 17 C       -5.5850    -4.0190    -0.8760 C.3   1 <1>   0.3430 
 18 N       -6.2810    -3.2780     0.2320 N.4   1 <1>  -0.9590 
 19 C       -8.0040    -1.9790    -1.0720 C.3   1 <1>   0.1200 
 20 C       -7.4110    -4.0070     0.8870 C.3   1 <1>   0.5180 
 21 O       -9.0050    -2.6840    -0.3930 O.3   1 <1>  -0.5600 
 22 C       -6.9400    -5.4120     1.3110 C.3   1 <1>  -0.1950 
 23 C       -8.6670    -3.9950    -0.0210 C.3   1 <1>   0.1200 
 24 C       -6.9820    -6.6330     0.4380 C.3   1 <1>  -0.2000 
 25 C       -7.8890    -6.5270     1.6310 C.3   1 <1>  -0.2000 
 26 H       -1.9010     1.2340     2.5050 H     1 <1>   0.1500 
 27 H       -3.6110     1.4850    -2.1150 H     1 <1>   0.1500 
 28 H       -2.2380    -1.7020    -1.2630 H     1 <1>   0.0800 
 29 H       -3.2780    -0.8780    -2.3940 H     1 <1>   0.0800 
 30 H       -5.5060    -0.1690    -0.5520 H     1 <1>   0.0800 
 31 H       -5.8220    -1.0520    -2.0110 H     1 <1>   0.0800 
 32 H       -4.4130    -3.1760    -2.4800 H     1 <1>   0.0800 
 33 H       -3.4660    -3.7680    -1.1490 H     1 <1>   0.0800 
 34 H       -1.1760     5.2520     1.9600 H     1 <1>   0.0800 
 35 H       -1.4830     4.8270     0.2780 H     1 <1>   0.0800 
 36 H       -0.3710     3.8560     1.2460 H     1 <1>   0.0800 
 37 H       -4.7660     5.2580    -1.0630 H     1 <1>   0.0800 
 38 H       -4.0320     4.9880     0.5100 H     1 <1>   0.0800 
 39 H       -5.2620     3.8750    -0.0920 H     1 <1>   0.0800 
 40 H       -6.9560    -1.3190     0.6540 H     1 <1>   0.0800 
 41 H       -5.2450    -4.9790    -0.5260 H     1 <1>   0.0800 
 42 H       -6.2720    -4.1920    -1.6870 H     1 <1>   0.0800 
 43 H       -5.5390    -3.0940     0.9210 H     1 <1>   0.4500 
 44 H       -7.8220    -2.4630    -2.0150 H     1 <1>   0.0800 
 45 H       -8.3800    -0.9890    -1.2630 H     1 <1>   0.0800 
 46 H       -7.6790    -3.4770     1.7860 H     1 <1>   0.0800 
 47 H       -6.1110    -5.3330     1.9960 H     1 <1>   0.1000 
 48 H       -9.5090    -4.4020     0.5100 H     1 <1>   0.0800 
 49 H       -8.5130    -4.5760    -0.9120 H     1 <1>   0.0800 
 50 H       -7.4490    -6.6220    -0.5320 H     1 <1>   0.1000 
 51 H       -6.1730    -7.3440     0.4870 H     1 <1>   0.1000 
 52 H       -7.6830    -7.1560     2.4830 H     1 <1>   0.1000 
 53 H       -8.9470    -6.4370     1.4500 H     1 <1>   0.1000 
@<TRIPOS>BOND
  1   1   2  1   
  2   2   3  ar  
  3   2   4  ar  
  4   3   5  ar  
  5   3   6  1   
  6   4   7  ar  
  7   4  26  1   
  8   5   8  ar  
  9   5  27  1   
 10   6   9  1   
 11   6  28  1   
 12   6  29  1   
 13   7   8  ar  
 14   7  10  1   
 15   8  11  1   
 16   9  12  1   
 17   9  13  1   
 18  10  14  1   
 19  11  15  1   
 20  12  16  1   
 21  12  30  1   
 22  12  31  1   
 23  13  17  1   
 24  13  32  1   
 25  13  33  1   
 26  14  34  1   
 27  14  35  1   
 28  14  36  1   
 29  15  37  1   
 30  15  38  1   
 31  15  39  1   
 32  16  18  1   
 33  16  19  1   
 34  16  40  1   
 35  17  18  1   
 36  17  41  1   
 37  17  42  1   
 38  18  20  1   
 39  18  43  1   
 40  19  21  1   
 41  19  44  1   
 42  19  45  1   
 43  20  22  1   
 44  20  23  1   
 45  20  46  1   
 46  21  23  1   
 47  22  24  1   
 48  22  25  1   
 49  22  47  1   
 50  23  48  1   
 51  23  49  1   
 52  24  25  1   
 53  24  50  1   
 54  24  51  1   
 55  25  52  1   
 56  25  53  1   
@<TRIPOS>SUBSTRUCTURE
  1 ****  12 GROUP 4 **** **** 0

# MOE 2024.06 (io_trps.svl 2023.06)
