@<TRIPOS>MOLECULE
NONAME
49 52 1 0 0 
SMALL
USER_CHARGES


@<TRIPOS>ATOM
  1 S        1.0930    -0.4900     1.9890 S.3   1 <1>  -0.0800 
  2 C        2.0090    -0.1310     0.5590 C.2   1 <1>  -0.1400 
  3 C       -0.2930    -0.8070     0.9640 C.2   1 <1>   0.1980 
  4 C        1.2310    -0.2850    -0.5160 C.2   1 <1>   0.0460 
  5 C        3.4640     0.2820     0.6080 C.3   1 <1>   0.0200 
  6 N       -0.0820    -0.6640    -0.2890 N.2   1 <1>  -0.5650 
  7 C       -1.5880    -1.2160     1.6490 C.3   1 <1>   0.5230 
  8 C        1.7460    -0.0570    -1.9250 C.3   1 <1>   0.0210 
  9 C        3.8660     0.8380    -0.7720 C.3   1 <1>  -0.1600 
 10 N       -2.7080    -1.1800     0.6580 N.4   1 <1>  -0.9590 
 11 C        3.2900     0.0000    -1.9360 C.3   1 <1>  -0.1600 
 12 C       -3.1130     0.2290     0.3720 C.3   1 <1>   0.3430 
 13 C       -3.8560    -2.0370     1.0670 C.3   1 <1>   0.3430 
 14 C       -4.1800     0.2530    -0.7170 C.3   1 <1>  -0.1600 
 15 C       -4.9230    -2.0250    -0.0210 C.3   1 <1>  -0.1600 
 16 C       -5.3790    -0.5960    -0.2980 C.3   1 <1>   0.4180 
 17 O       -5.8610    -0.1090     0.9290 O.3   1 <1>  -0.5600 
 18 C       -6.4690    -0.6000    -1.3610 C.2   1 <1>  -0.2880 
 19 C       -6.7630     0.9670     0.8900 C.3   1 <1>   0.1200 
 20 C       -7.6870    -0.0860    -1.1790 C.2   1 <1>  -0.2760 
 21 C       -8.0420     0.5810     0.1360 C.3   1 <1>  -0.0220 
 22 C       -8.7990    -0.1210    -2.2130 C.3   1 <1>  -0.1020 
 23 H        4.0640    -0.5770     0.8520 H     1 <1>   0.0800 
 24 H        3.6150     1.0330     1.3640 H     1 <1>   0.0800 
 25 H       -1.7940    -0.5510     2.4710 H     1 <1>   0.0800 
 26 H       -1.4660    -2.2140     2.0340 H     1 <1>   0.0800 
 27 H        1.3410     0.8680    -2.2920 H     1 <1>   0.0800 
 28 H        1.4110    -0.8520    -2.5660 H     1 <1>   0.0800 
 29 H        4.9390     0.8740    -0.8430 H     1 <1>   0.0800 
 30 H        3.4990     1.8460    -0.8610 H     1 <1>   0.0800 
 31 H       -2.2840    -1.5410    -0.2130 H     1 <1>   0.4500 
 32 H        3.6230     0.4040    -2.8760 H     1 <1>   0.0800 
 33 H        3.6730    -1.0030    -1.8600 H     1 <1>   0.0800 
 34 H       -2.2580     0.8020     0.0490 H     1 <1>   0.0800 
 35 H       -3.5140     0.6820     1.2650 H     1 <1>   0.0800 
 36 H       -4.2870    -1.6590     1.9810 H     1 <1>   0.0800 
 37 H       -3.5270    -3.0500     1.2360 H     1 <1>   0.0800 
 38 H       -3.7670    -0.1210    -1.6360 H     1 <1>   0.0800 
 39 H       -4.4940     1.2640    -0.9000 H     1 <1>   0.0800 
 40 H       -5.7710    -2.6050     0.2970 H     1 <1>   0.0800 
 41 H       -4.5400    -2.4760    -0.9180 H     1 <1>   0.0800 
 42 H       -6.1660    -1.0700    -2.2800 H     1 <1>   0.1500 
 43 H       -6.2840     1.8010     0.4070 H     1 <1>   0.0800 
 44 H       -6.9980     1.2410     1.9030 H     1 <1>   0.0800 
 45 H       -8.6160     1.4740    -0.0420 H     1 <1>   0.0800 
 46 H       -8.6370    -0.0840     0.7360 H     1 <1>   0.0800 
 47 H       -9.6530    -0.6460    -1.8210 H     1 <1>   0.0800 
 48 H       -8.4720    -0.6220    -3.1060 H     1 <1>   0.0800 
 49 H       -9.0970     0.8790    -2.4740 H     1 <1>   0.0800 
@<TRIPOS>BOND
  1   1   2  1   
  2   1   3  1   
  3   2   4  2   
  4   2   5  1   
  5   3   6  2   
  6   3   7  1   
  7   4   6  1   
  8   4   8  1   
  9   5   9  1   
 10   5  23  1   
 11   5  24  1   
 12   7  10  1   
 13   7  25  1   
 14   7  26  1   
 15   8  11  1   
 16   8  27  1   
 17   8  28  1   
 18   9  11  1   
 19   9  29  1   
 20   9  30  1   
 21  10  12  1   
 22  10  13  1   
 23  10  31  1   
 24  11  32  1   
 25  11  33  1   
 26  12  14  1   
 27  12  34  1   
 28  12  35  1   
 29  13  15  1   
 30  13  36  1   
 31  13  37  1   
 32  14  16  1   
 33  14  38  1   
 34  14  39  1   
 35  15  16  1   
 36  15  40  1   
 37  15  41  1   
 38  16  17  1   
 39  16  18  1   
 40  17  19  1   
 41  18  20  2   
 42  18  42  1   
 43  19  21  1   
 44  19  43  1   
 45  19  44  1   
 46  20  21  1   
 47  20  22  1   
 48  21  45  1   
 49  21  46  1   
 50  22  47  1   
 51  22  48  1   
 52  22  49  1   
@<TRIPOS>SUBSTRUCTURE
  1 ****  12 GROUP 4 **** **** 0

# MOE 2024.06 (io_trps.svl 2023.06)
