@<TRIPOS>MOLECULE
NONAME
52 53 1 0 0 
SMALL
USER_CHARGES


@<TRIPOS>ATOM
  1 O       -0.6520     0.0340     0.7850 O.2   1 <1>  -0.5700 
  2 C       -1.7010     0.6370     0.6720 C.2   1 <1>   0.5440 
  3 N       -2.8870    -0.0630     0.7340 N.am  1 <1>  -0.6600 
  4 C       -1.6800     2.0790     0.5190 C.ar  1 <1>   0.0860 
  5 C       -2.9050    -1.5490     0.6700 C.3   1 <1>   0.3200 
  6 C       -4.1880     0.5830     1.0870 C.3   1 <1>   0.1400 
  7 C       -2.2690     2.7060    -0.5770 C.ar  1 <1>  -0.1500 
  8 C       -1.0690     2.8880     1.4750 C.ar  1 <1>  -0.1500 
  9 C       -3.7690    -2.0170    -0.4890 C.2   1 <1>  -0.3320 
 10 C       -4.2230     0.9420     2.5760 C.3   1 <1>   0.1200 
 11 C       -2.2720     4.0830    -0.7010 C.ar  1 <1>  -0.1500 
 12 C       -1.0700     4.2650     1.3560 C.ar  1 <1>  -0.1500 
 13 N       -4.2670    -3.2640    -0.5850 N.pl3 1 <1>   0.0330 
 14 C       -4.1920    -1.3620    -1.5930 C.2   1 <1>   0.0770 
 15 O       -5.4140     1.5900     2.8660 O.3   1 <1>  -0.6800 
 16 C       -1.6760     4.8730     0.2690 C.ar  1 <1>  -0.1430 
 17 C       -4.9710    -3.2810    -1.7370 C.2   1 <1>   0.0060 
 18 N       -4.9510    -2.1560    -2.3700 N.2   1 <1>  -0.5650 
 19 C       -1.6740     6.3870     0.1360 C.3   1 <1>  -0.0170 
 20 C       -5.7080    -4.5070    -2.2310 C.3   1 <1>  -0.0600 
 21 C       -0.4520     6.8450    -0.6800 C.3   1 <1>  -0.1600 
 22 C       -0.2940     8.3690    -0.8140 C.3   1 <1>   0.2800 
 23 O       -0.2180     8.9070     0.4440 O.3   1 <1>  -0.6800 
 24 C        1.0130     8.7220    -1.5210 C.3   1 <1>  -0.2400 
 25 C       -1.4780     9.0390    -1.5090 C.3   1 <1>  -0.2400 
 26 H       -3.2970    -1.9280     1.5970 H     1 <1>   0.0800 
 27 H       -1.9110    -1.9430     0.5440 H     1 <1>   0.0800 
 28 H       -5.0010    -0.0890     0.8690 H     1 <1>   0.0800 
 29 H       -4.3240     1.4700     0.4960 H     1 <1>   0.0800 
 30 H       -2.7270     2.1010    -1.3400 H     1 <1>   0.1500 
 31 H       -0.5880     2.4220     2.3170 H     1 <1>   0.1500 
 32 H       -3.4120     1.5990     2.8390 H     1 <1>   0.0800 
 33 H       -4.1780     0.0510     3.1770 H     1 <1>   0.0800 
 34 H       -2.7370     4.5400    -1.5570 H     1 <1>   0.1500 
 35 H       -0.5920     4.8650     2.1120 H     1 <1>   0.1500 
 36 H       -4.1470    -4.0450     0.0660 H     1 <1>   0.2700 
 37 H       -3.9840    -0.3430    -1.8730 H     1 <1>   0.1500 
 38 H       -5.4330     2.4820     2.4660 H     1 <1>   0.4000 
 39 H       -1.6550     6.8320     1.1150 H     1 <1>   0.0800 
 40 H       -2.5830     6.7000    -0.3450 H     1 <1>   0.0800 
 41 H       -6.4530    -4.8040    -1.5170 H     1 <1>   0.0800 
 42 H       -5.0170    -5.3150    -2.3880 H     1 <1>   0.0800 
 43 H       -6.1940    -4.2850    -3.1640 H     1 <1>   0.0800 
 44 H       -0.5230     6.4200    -1.6660 H     1 <1>   0.0800 
 45 H        0.4360     6.4390    -0.2290 H     1 <1>   0.0800 
 46 H        0.6110     8.6230     0.8680 H     1 <1>   0.4000 
 47 H        1.8540     8.2800    -1.0180 H     1 <1>   0.0800 
 48 H        1.1440     9.7890    -1.5580 H     1 <1>   0.0800 
 49 H        0.9930     8.3520    -2.5300 H     1 <1>   0.0800 
 50 H       -2.3810     8.9100    -0.9420 H     1 <1>   0.0800 
 51 H       -1.6210     8.6180    -2.4870 H     1 <1>   0.0800 
 52 H       -1.2950    10.0930    -1.6180 H     1 <1>   0.0800 
@<TRIPOS>BOND
  1   1   2  2   
  2   2   3  am  
  3   2   4  1   
  4   3   5  1   
  5   3   6  1   
  6   4   7  ar  
  7   4   8  ar  
  8   5   9  1   
  9   5  26  1   
 10   5  27  1   
 11   6  10  1   
 12   6  28  1   
 13   6  29  1   
 14   7  11  ar  
 15   7  30  1   
 16   8  12  ar  
 17   8  31  1   
 18   9  13  1   
 19   9  14  2   
 20  10  15  1   
 21  10  32  1   
 22  10  33  1   
 23  11  16  ar  
 24  11  34  1   
 25  12  16  ar  
 26  12  35  1   
 27  13  17  1   
 28  13  36  1   
 29  14  18  1   
 30  14  37  1   
 31  15  38  1   
 32  16  19  1   
 33  17  18  2   
 34  17  20  1   
 35  19  21  1   
 36  19  39  1   
 37  19  40  1   
 38  20  41  1   
 39  20  42  1   
 40  20  43  1   
 41  21  22  1   
 42  21  44  1   
 43  21  45  1   
 44  22  23  1   
 45  22  24  1   
 46  22  25  1   
 47  23  46  1   
 48  24  47  1   
 49  24  48  1   
 50  24  49  1   
 51  25  50  1   
 52  25  51  1   
 53  25  52  1   
@<TRIPOS>SUBSTRUCTURE
  1 ****   7 GROUP 4 **** **** 0

# MOE 2024.06 (io_trps.svl 2023.06)
