@<TRIPOS>MOLECULE
NONAME
49 52 1 0 0 
SMALL
USER_CHARGES


@<TRIPOS>ATOM
  1 F        4.0180    -2.2400    -2.1980 F     1 <1>  -0.1900 
  2 C        3.3440    -1.3530    -1.5150 C.ar  1 <1>   0.1900 
  3 C        2.3820    -1.7790    -0.5970 C.ar  1 <1>   0.0530 
  4 C        3.6240    -0.0220    -1.7590 C.ar  1 <1>  -0.1500 
  5 C        2.0930    -3.1730    -0.3450 C.2   1 <1>   0.0870 
  6 C        1.6930    -0.7720     0.0810 C.ar  1 <1>  -0.1500 
  7 C        2.9210     0.9480    -1.0670 C.ar  1 <1>  -0.1500 
  8 O        0.8650    -3.5430    -0.0030 O.3   1 <1>  -0.2800 
  9 C        2.8780    -4.2830    -0.3910 C.2   1 <1>  -0.1500 
 10 C        1.9560     0.5680    -0.1490 C.ar  1 <1>  -0.1500 
 11 C        0.8430    -4.8500     0.1620 C.2   1 <1>  -0.0400 
 12 C        2.0680    -5.3710    -0.0630 C.2   1 <1>  -0.1500 
 13 C       -0.4750    -5.5020     0.5270 C.3   1 <1>   0.5230 
 14 N       -1.5000    -5.0340    -0.4520 N.4   1 <1>  -0.9590 
 15 C       -2.8940    -5.2560     0.0100 C.3   1 <1>   0.4230 
 16 C       -1.2270    -5.6010    -1.8110 C.3   1 <1>   0.2630 
 17 C       -3.9110    -4.6530    -0.9580 C.3   1 <1>  -0.1600 
 18 C       -3.1780    -4.5410     1.3300 C.3   1 <1>  -0.1600 
 19 C       -5.1630    -4.3870    -0.1140 C.3   1 <1>  -0.0800 
 20 C       -4.6950    -4.3160     1.3480 C.3   1 <1>  -0.0800 
 21 C       -6.2060    -5.5120    -0.1810 C.3   1 <1>  -0.1600 
 22 C       -5.4740    -5.4010     2.1060 C.3   1 <1>  -0.1600 
 23 C       -6.7040    -5.6530     1.2480 C.3   1 <1>   0.2000 
 24 O       -7.1880    -6.9230     1.4650 O.3   1 <1>  -0.6800 
 25 H        4.3760     0.2470    -2.4780 H     1 <1>   0.1500 
 26 H        0.9440    -1.0430     0.8040 H     1 <1>   0.1500 
 27 H        3.1220     1.9910    -1.2420 H     1 <1>   0.1500 
 28 H        3.9260    -4.3370    -0.6310 H     1 <1>   0.1500 
 29 H        1.4090     1.3230     0.3910 H     1 <1>   0.1500 
 30 H        2.4030    -6.3940    -0.0180 H     1 <1>   0.1500 
 31 H       -0.7400    -5.1940     1.5240 H     1 <1>   0.0800 
 32 H       -0.3840    -6.5750     0.5050 H     1 <1>   0.0800 
 33 H       -1.3410    -4.0160    -0.5090 H     1 <1>   0.4500 
 34 H       -3.0980    -6.3090     0.1240 H     1 <1>   0.0800 
 35 H       -1.3540    -6.6710    -1.8060 H     1 <1>   0.0800 
 36 H       -0.2180    -5.3730    -2.1160 H     1 <1>   0.0800 
 37 H       -1.9010    -5.1770    -2.5380 H     1 <1>   0.0800 
 38 H       -3.5500    -3.7090    -1.3290 H     1 <1>   0.0800 
 39 H       -4.1220    -5.3050    -1.7870 H     1 <1>   0.0800 
 40 H       -2.8550    -5.1100     2.1840 H     1 <1>   0.0800 
 41 H       -2.6970    -3.5780     1.3380 H     1 <1>   0.0800 
 42 H       -5.6240    -3.4550    -0.4000 H     1 <1>   0.0800 
 43 H       -4.9320    -3.3490     1.7640 H     1 <1>   0.0800 
 44 H       -5.7530    -6.4340    -0.5010 H     1 <1>   0.0800 
 45 H       -7.0140    -5.2590    -0.8460 H     1 <1>   0.0800 
 46 H       -5.7540    -5.0680     3.0900 H     1 <1>   0.0800 
 47 H       -4.8940    -6.3030     2.1830 H     1 <1>   0.0800 
 48 H       -7.4820    -4.9390     1.4630 H     1 <1>   0.0800 
 49 H       -6.5100    -7.5950     1.2700 H     1 <1>   0.4000 
@<TRIPOS>BOND
  1   1   2  1   
  2   2   3  ar  
  3   2   4  ar  
  4   3   5  1   
  5   3   6  ar  
  6   4   7  ar  
  7   4  25  1   
  8   5   8  1   
  9   5   9  2   
 10   6  10  ar  
 11   6  26  1   
 12   7  10  ar  
 13   7  27  1   
 14   8  11  1   
 15   9  12  1   
 16   9  28  1   
 17  10  29  1   
 18  11  12  2   
 19  11  13  1   
 20  12  30  1   
 21  13  14  1   
 22  13  31  1   
 23  13  32  1   
 24  14  15  1   
 25  14  16  1   
 26  14  33  1   
 27  15  17  1   
 28  15  18  1   
 29  15  34  1   
 30  16  35  1   
 31  16  36  1   
 32  16  37  1   
 33  17  19  1   
 34  17  38  1   
 35  17  39  1   
 36  18  20  1   
 37  18  40  1   
 38  18  41  1   
 39  19  20  1   
 40  19  21  1   
 41  19  42  1   
 42  20  22  1   
 43  20  43  1   
 44  21  23  1   
 45  21  44  1   
 46  21  45  1   
 47  22  23  1   
 48  22  46  1   
 49  22  47  1   
 50  23  24  1   
 51  23  48  1   
 52  24  49  1   
@<TRIPOS>SUBSTRUCTURE
  1 ****  14 GROUP 4 **** **** 0

# MOE 2024.06 (io_trps.svl 2023.06)
