@<TRIPOS>MOLECULE
NONAME
45 48 1 0 0 
SMALL
USER_CHARGES


@<TRIPOS>ATOM
  1 F        1.6400    -0.0370     1.2630 F     1 <1>  -0.1900 
  2 C        2.6720     0.5410     0.7020 C.ar  1 <1>   0.1900 
  3 C        3.3950     1.4590     1.4240 C.ar  1 <1>  -0.1500 
  4 C        2.9830     0.1860    -0.6150 C.ar  1 <1>  -0.1500 
  5 C        4.4860     2.0540     0.7960 C.ar  1 <1>   0.2270 
  6 C        4.0630     0.7770    -1.2340 C.ar  1 <1>  -0.1500 
  7 N        5.3600     2.9830     1.2760 N.2   1 <1>  -0.5650 
  8 C        4.8070     1.7150    -0.5090 C.ar  1 <1>  -0.1520 
  9 C        6.1730     3.1920     0.2970 C.2   1 <1>   0.0060 
 10 N        5.8990     2.4610    -0.8110 N.pl3 1 <1>   0.0330 
 11 C        7.3380     4.1630     0.3390 C.3   1 <1>   0.3000 
 12 O        8.1650     3.9520    -0.7740 O.3   1 <1>  -0.5600 
 13 C        9.3560     4.7050    -0.7940 C.3   1 <1>   0.1810 
 14 C        9.1190     6.2160    -0.8670 C.2   1 <1>   0.5690 
 15 O        9.0260     6.7570    -1.9440 O.2   1 <1>  -0.5700 
 16 N        9.0260     6.9310     0.2790 N.am  1 <1>  -0.7300 
 17 C        8.6820     8.3550     0.3390 C.3   1 <1>   0.4950 
 18 C        9.9440     9.1530     0.6480 C.2   1 <1>   0.0070 
 19 C        7.5860     8.5140     1.4030 C.3   1 <1>  -0.1950 
 20 N       10.3870     9.4580     1.8210 N.2   1 <1>  -0.5650 
 21 N       10.7630     9.6140    -0.3090 N.pl3 1 <1>   0.3140 
 22 C        6.1680     8.1090     1.1350 C.3   1 <1>  -0.2000 
 23 C        6.5250     9.5630     1.2740 C.3   1 <1>  -0.2000 
 24 C       11.5030    10.1310     1.5210 C.2   1 <1>   0.3660 
 25 N       11.7720    10.2490     0.2650 N.2   1 <1>  -0.7070 
 26 C       10.6850     9.4730    -1.7730 C.3   1 <1>   0.0160 
 27 H        3.1470     1.7220     2.4340 H     1 <1>   0.1500 
 28 H        2.3730    -0.5410    -1.1200 H     1 <1>   0.1500 
 29 H        4.3340     0.5310    -2.2460 H     1 <1>   0.1500 
 30 H        6.4420     2.4810    -1.6790 H     1 <1>   0.2700 
 31 H        7.9060     4.0050     1.2390 H     1 <1>   0.0800 
 32 H        6.9580     5.1690     0.3140 H     1 <1>   0.0800 
 33 H        9.9090     4.4010    -1.6640 H     1 <1>   0.0800 
 34 H        9.9330     4.4570     0.0780 H     1 <1>   0.0800 
 35 H        9.2360     6.5350     1.1950 H     1 <1>   0.3700 
 36 H        8.2780     8.6700    -0.6080 H     1 <1>   0.0800 
 37 H        7.9680     8.3540     2.3970 H     1 <1>   0.1000 
 38 H        5.6060     7.6370     1.9230 H     1 <1>   0.1000 
 39 H        5.9000     7.7380     0.1600 H     1 <1>   0.1000 
 40 H        6.4970    10.1850     0.3960 H     1 <1>   0.1000 
 41 H        6.2170    10.0910     2.1600 H     1 <1>   0.1000 
 42 H       12.1270    10.5410     2.3000 H     1 <1>   0.1500 
 43 H        9.6760     9.6310    -2.1050 H     1 <1>   0.0800 
 44 H       11.0090     8.4880    -2.0500 H     1 <1>   0.0800 
 45 H       11.3290    10.2010    -2.2310 H     1 <1>   0.0800 
@<TRIPOS>BOND
  1   1   2  1   
  2   2   3  ar  
  3   2   4  ar  
  4   3   5  ar  
  5   3  27  1   
  6   4   6  ar  
  7   4  28  1   
  8   5   7  1   
  9   5   8  ar  
 10   6   8  ar  
 11   6  29  1   
 12   7   9  2   
 13   8  10  1   
 14   9  10  1   
 15   9  11  1   
 16  10  30  1   
 17  11  12  1   
 18  11  31  1   
 19  11  32  1   
 20  12  13  1   
 21  13  14  1   
 22  13  33  1   
 23  13  34  1   
 24  14  15  2   
 25  14  16  am  
 26  16  17  1   
 27  16  35  1   
 28  17  18  1   
 29  17  19  1   
 30  17  36  1   
 31  18  20  2   
 32  18  21  1   
 33  19  22  1   
 34  19  23  1   
 35  19  37  1   
 36  20  24  1   
 37  21  25  1   
 38  21  26  1   
 39  22  23  1   
 40  22  38  1   
 41  22  39  1   
 42  23  40  1   
 43  23  41  1   
 44  24  25  2   
 45  24  42  1   
 46  26  43  1   
 47  26  44  1   
 48  26  45  1   
@<TRIPOS>SUBSTRUCTURE
  1 ****  11 GROUP 4 **** **** 0

# MOE 2024.06 (io_trps.svl 2023.06)
