@<TRIPOS>MOLECULE
NONAME
54 57 1 0 0 
SMALL
USER_CHARGES


@<TRIPOS>ATOM
  1 O       -0.6870     0.8050    -2.2160 O.2   1 <1>  -0.5700 
  2 C       -1.5160     0.8630    -1.3290 C.2   1 <1>   0.5440 
  3 N       -2.3350    -0.2230    -1.0920 N.am  1 <1>  -0.6600 
  4 C       -1.6250     2.0710    -0.5420 C.ar  1 <1>   0.0860 
  5 C       -3.2200    -0.3410     0.0970 C.3   1 <1>   0.1400 
  6 C       -2.3810    -1.3840    -2.0200 C.3   1 <1>   0.1400 
  7 C       -0.7140     2.3820     0.4720 C.ar  1 <1>   0.1660 
  8 C       -2.6670     2.9610    -0.7660 C.ar  1 <1>  -0.1500 
  9 C       -4.6690    -0.5010    -0.3590 C.3   1 <1>  -0.1600 
 10 C       -3.8200    -1.6280    -2.4830 C.3   1 <1>  -0.1600 
 11 N       -0.7820     3.4550     1.2450 N.ar  1 <1>  -0.6200 
 12 C        0.4540     1.4520     0.7530 C.3   1 <1>  -0.0970 
 13 C       -2.7420     4.0850     0.0250 C.ar  1 <1>  -0.1500 
 14 C       -4.8890    -1.6400    -1.3730 C.3   1 <1>   0.4240 
 15 C       -1.7860     4.2820     1.0060 C.ar  1 <1>   0.1600 
 16 O       -6.0720    -1.3210    -2.0650 O.3   1 <1>  -0.5600 
 17 C       -5.0170    -3.0300    -0.6870 C.ar  1 <1>  -0.1430 
 18 C       -7.2850    -1.5950    -1.4420 C.3   1 <1>   0.1200 
 19 C       -6.2290    -3.7130    -0.6810 C.ar  1 <1>  -0.1430 
 20 C       -3.9400    -3.6370    -0.0500 C.ar  1 <1>  -0.1500 
 21 C       -7.4450    -3.1060    -1.3530 C.3   1 <1>  -0.0170 
 22 C       -6.3500    -4.9500    -0.0660 C.ar  1 <1>  -0.1500 
 23 C       -4.0390    -4.8730     0.5640 C.ar  1 <1>   0.0830 
 24 C       -5.2680    -5.5460     0.5710 C.ar  1 <1>   0.0830 
 25 O       -2.8810    -5.3230     1.1280 O.3   1 <1>  -0.3620 
 26 O       -5.3880    -6.7480     1.2090 O.3   1 <1>  -0.3620 
 27 C       -2.5800    -6.7000     1.1770 C.3   1 <1>   0.0400 
 28 C       -6.6360    -7.3820     1.3860 C.3   1 <1>   0.0400 
 29 H       -3.1430     0.5290     0.7250 H     1 <1>   0.0800 
 30 H       -2.9130    -1.1820     0.6900 H     1 <1>   0.0800 
 31 H       -1.9720    -2.2500    -1.5350 H     1 <1>   0.0800 
 32 H       -1.7710    -1.1970    -2.8880 H     1 <1>   0.0800 
 33 H       -3.3880     2.7680    -1.5410 H     1 <1>   0.1500 
 34 H       -4.9710     0.4280    -0.8080 H     1 <1>   0.0800 
 35 H       -5.2810    -0.6690     0.5070 H     1 <1>   0.0800 
 36 H       -3.8630    -2.5550    -3.0240 H     1 <1>   0.0800 
 37 H       -4.0540    -0.8390    -3.1750 H     1 <1>   0.0800 
 38 H        0.1000     0.4550     0.9450 H     1 <1>   0.0800 
 39 H        1.0080     1.7880     1.6110 H     1 <1>   0.0800 
 40 H        1.1140     1.4330    -0.0950 H     1 <1>   0.0800 
 41 H       -3.5290     4.8030    -0.1130 H     1 <1>   0.1500 
 42 H       -1.8490     5.1630     1.6230 H     1 <1>   0.1500 
 43 H       -8.0690    -1.1690    -2.0430 H     1 <1>   0.0800 
 44 H       -7.3000    -1.1410    -0.4670 H     1 <1>   0.0800 
 45 H       -2.9810    -3.1690    -0.0090 H     1 <1>   0.1500 
 46 H       -7.5510    -3.5120    -2.3430 H     1 <1>   0.0800 
 47 H       -8.3350    -3.3340    -0.7950 H     1 <1>   0.0800 
 48 H       -7.3060    -5.4360    -0.0950 H     1 <1>   0.1500 
 49 H       -1.5190    -6.8060     1.3070 H     1 <1>   0.0800 
 50 H       -2.8880    -7.1600     0.2550 H     1 <1>   0.0800 
 51 H       -3.0940    -7.1380     2.0130 H     1 <1>   0.0800 
 52 H       -6.4780    -8.2690     1.9730 H     1 <1>   0.0800 
 53 H       -7.0320    -7.6490     0.4230 H     1 <1>   0.0800 
 54 H       -7.2970    -6.7130     1.9080 H     1 <1>   0.0800 
@<TRIPOS>BOND
  1   1   2  2   
  2   2   3  am  
  3   2   4  1   
  4   3   5  1   
  5   3   6  1   
  6   4   7  ar  
  7   4   8  ar  
  8   5   9  1   
  9   5  29  1   
 10   5  30  1   
 11   6  10  1   
 12   6  31  1   
 13   6  32  1   
 14   7  11  ar  
 15   7  12  1   
 16   8  13  ar  
 17   8  33  1   
 18   9  14  1   
 19   9  34  1   
 20   9  35  1   
 21  10  14  1   
 22  10  36  1   
 23  10  37  1   
 24  11  15  ar  
 25  12  38  1   
 26  12  39  1   
 27  12  40  1   
 28  13  15  ar  
 29  13  41  1   
 30  14  16  1   
 31  14  17  1   
 32  15  42  1   
 33  16  18  1   
 34  17  19  ar  
 35  17  20  ar  
 36  18  21  1   
 37  18  43  1   
 38  18  44  1   
 39  19  21  1   
 40  19  22  ar  
 41  20  23  ar  
 42  20  45  1   
 43  21  46  1   
 44  21  47  1   
 45  22  24  ar  
 46  22  48  1   
 47  23  24  ar  
 48  23  25  1   
 49  24  26  1   
 50  25  27  1   
 51  26  28  1   
 52  27  49  1   
 53  27  50  1   
 54  27  51  1   
 55  28  52  1   
 56  28  53  1   
 57  28  54  1   
@<TRIPOS>SUBSTRUCTURE
  1 ****   5 GROUP 4 **** **** 0

# MOE 2024.06 (io_trps.svl 2023.06)
