@<TRIPOS>MOLECULE
NONAME
41 43 1 0 0 
SMALL
USER_CHARGES


@<TRIPOS>ATOM
  1 CL      -3.8820    -0.3910     4.2270 Cl    1 <1>  -0.1230 
  2 C       -3.5570     0.1840     2.6000 C.2   1 <1>   0.1230 
  3 C       -3.3460    -0.5920     1.4540 C.2   1 <1>   0.2030 
  4 C       -3.4870     1.4740     2.2360 C.2   1 <1>  -0.3020 
  5 N       -3.1650     0.2250     0.4200 N.2   1 <1>  -0.7070 
  6 C       -3.3270    -2.0510     1.4450 C.2   1 <1>   0.7160 
  7 N       -3.2450     1.4700     0.9140 N.pl3 1 <1>   0.3140 
  8 O       -2.9060    -2.6530     2.4190 O.2   1 <1>  -0.5700 
  9 N       -3.7730    -2.7970     0.3680 N.am  1 <1>  -0.6600 
 10 C       -3.0770     2.6560     0.0650 C.3   1 <1>   0.0160 
 11 C       -3.6470    -4.2960     0.3480 C.3   1 <1>   0.3640 
 12 C       -4.4950    -2.1760    -0.7880 C.3   1 <1>   0.1400 
 13 C       -2.4270    -4.7620    -0.4650 C.ar  1 <1>  -0.1440 
 14 C       -4.9530    -4.9870    -0.1620 C.3   1 <1>   0.2000 
 15 C       -5.1170    -3.2200    -1.7250 C.3   1 <1>   0.1200 
 16 C       -1.6750    -3.9280    -1.2870 C.ar  1 <1>  -0.1500 
 17 C       -2.0490    -6.0950    -0.3600 C.ar  1 <1>  -0.1500 
 18 O       -5.7830    -4.1780    -0.9650 O.3   1 <1>  -0.5600 
 19 C       -5.8170    -5.4770     1.0060 C.3   1 <1>   0.1200 
 20 C       -0.5950    -4.4190    -2.0000 C.ar  1 <1>  -0.1500 
 21 C       -0.9690    -6.5900    -1.0700 C.ar  1 <1>  -0.1500 
 22 O       -5.2340    -6.5950     1.5970 O.3   1 <1>  -0.6800 
 23 C       -0.2420    -5.7520    -1.8950 C.ar  1 <1>  -0.1500 
 24 H       -3.5940     2.3630     2.8280 H     1 <1>   0.1500 
 25 H       -3.9850     3.2290     0.0750 H     1 <1>   0.0800 
 26 H       -2.8580     2.3440    -0.9400 H     1 <1>   0.0800 
 27 H       -2.2660     3.2490     0.4420 H     1 <1>   0.0800 
 28 H       -3.4750    -4.6490     1.3500 H     1 <1>   0.0800 
 29 H       -5.2780    -1.5400    -0.4120 H     1 <1>   0.0800 
 30 H       -3.8150    -1.5630    -1.3520 H     1 <1>   0.0800 
 31 H       -4.6950    -5.8390    -0.7650 H     1 <1>   0.0800 
 32 H       -4.3670    -3.7070    -2.3250 H     1 <1>   0.0800 
 33 H       -5.8330    -2.7550    -2.3780 H     1 <1>   0.0800 
 34 H       -1.9090    -2.8840    -1.3800 H     1 <1>   0.1500 
 35 H       -2.5950    -6.7610     0.2870 H     1 <1>   0.1500 
 36 H       -6.7990    -5.7540     0.6640 H     1 <1>   0.0800 
 37 H       -5.9000    -4.7070     1.7550 H     1 <1>   0.0800 
 38 H       -0.0260    -3.7610    -2.6320 H     1 <1>   0.1500 
 39 H       -0.6930    -7.6250    -0.9780 H     1 <1>   0.1500 
 40 H       -5.4270    -7.4000     1.0770 H     1 <1>   0.4000 
 41 H        0.5980    -6.1330    -2.4490 H     1 <1>   0.1500 
@<TRIPOS>BOND
  1   1   2  1   
  2   2   3  1   
  3   2   4  2   
  4   3   5  2   
  5   3   6  1   
  6   4   7  1   
  7   4  24  1   
  8   5   7  1   
  9   6   8  2   
 10   6   9  am  
 11   7  10  1   
 12   9  11  1   
 13   9  12  1   
 14  10  25  1   
 15  10  26  1   
 16  10  27  1   
 17  11  13  1   
 18  11  14  1   
 19  11  28  1   
 20  12  15  1   
 21  12  29  1   
 22  12  30  1   
 23  13  16  ar  
 24  13  17  ar  
 25  14  18  1   
 26  14  19  1   
 27  14  31  1   
 28  15  18  1   
 29  15  32  1   
 30  15  33  1   
 31  16  20  ar  
 32  16  34  1   
 33  17  21  ar  
 34  17  35  1   
 35  19  22  1   
 36  19  36  1   
 37  19  37  1   
 38  20  23  ar  
 39  20  38  1   
 40  21  23  ar  
 41  21  39  1   
 42  22  40  1   
 43  23  41  1   
@<TRIPOS>SUBSTRUCTURE
  1 ****   9 GROUP 4 **** **** 0

# MOE 2024.06 (io_trps.svl 2023.06)
