@<TRIPOS>MOLECULE
NONAME
40 41 1 0 0 
SMALL
USER_CHARGES


@<TRIPOS>ATOM
  1 CL      -0.9100     0.9560    -2.4300 Cl    1 <1>  -0.1770 
  2 C       -1.4160     1.2910    -0.7780 C.ar  1 <1>   0.1770 
  3 C       -1.0330     2.5100    -0.1540 C.ar  1 <1>   0.4100 
  4 C       -2.1960     0.4050    -0.1000 C.ar  1 <1>   0.2170 
  5 N       -1.4560     2.8130     1.0630 N.ar  1 <1>  -0.6200 
  6 N       -0.2140     3.4180    -0.7470 N.pl3 1 <1>  -0.8380 
  7 N       -2.5740     0.7590     1.1580 N.ar  1 <1>  -0.1790 
  8 C       -2.6840    -0.9380    -0.6310 C.3   1 <1>  -0.0970 
  9 C       -2.2040     1.9360     1.6950 C.ar  1 <1>   0.7710 
 10 C        1.1620     3.0490    -1.1980 C.3   1 <1>   0.3900 
 11 C       -0.4870     4.8840    -0.6940 C.3   1 <1>   0.2090 
 12 N       -2.5870     2.2660     2.9240 N.pl3 1 <1>  -0.9000 
 13 C        2.1950     3.5630    -0.2130 C.2   1 <1>  -0.1810 
 14 C       -0.8550     5.3720    -2.0910 C.3   1 <1>  -0.2400 
 15 C        2.1020     3.5030     1.1730 C.2   1 <1>   0.1390 
 16 C        3.3820     4.1640    -0.4440 C.2   1 <1>  -0.3020 
 17 N        3.1380     4.0140     1.7600 N.2   1 <1>  -0.7070 
 18 N        3.9350     4.4260     0.7570 N.pl3 1 <1>   0.3140 
 19 C        5.2340     5.0790     1.0120 C.3   1 <1>   0.0960 
 20 C        6.3950     4.0930     0.8290 C.3   1 <1>  -0.2400 
 21 H       -3.1540     0.1550     1.7330 H     1 <1>   0.4570 
 22 H       -2.3220    -1.1280    -1.6250 H     1 <1>   0.0800 
 23 H       -3.7590    -0.9590    -0.6650 H     1 <1>   0.0800 
 24 H       -2.3400    -1.7390     0.0000 H     1 <1>   0.0800 
 25 H        1.3500     3.4590    -2.1750 H     1 <1>   0.0800 
 26 H        1.2630     1.9810    -1.2600 H     1 <1>   0.0800 
 27 H        0.3760     5.4170    -0.3280 H     1 <1>   0.0800 
 28 H       -1.3050     5.0890    -0.0250 H     1 <1>   0.0800 
 29 H       -3.1550     1.7420     3.5910 H     1 <1>   0.4000 
 30 H       -2.2630     3.1710     3.2850 H     1 <1>   0.4000 
 31 H       -0.0300     5.2500    -2.7670 H     1 <1>   0.0800 
 32 H       -1.1060     6.4160    -2.0500 H     1 <1>   0.0800 
 33 H       -1.7070     4.8300    -2.4610 H     1 <1>   0.0800 
 34 H        1.2650     3.0870     1.7080 H     1 <1>   0.1500 
 35 H        3.8600     4.4160    -1.3730 H     1 <1>   0.1500 
 36 H        5.2280     5.4550     2.0190 H     1 <1>   0.0800 
 37 H        5.3380     5.9080     0.3370 H     1 <1>   0.0800 
 38 H        6.2850     3.2670     1.5100 H     1 <1>   0.0800 
 39 H        7.3280     4.5850     1.0360 H     1 <1>   0.0800 
 40 H        6.4180     3.7220    -0.1810 H     1 <1>   0.0800 
@<TRIPOS>BOND
  1   1   2  1   
  2   2   3  ar  
  3   2   4  ar  
  4   3   5  ar  
  5   3   6  1   
  6   4   7  ar  
  7   4   8  1   
  8   5   9  ar  
  9   6  10  1   
 10   6  11  1   
 11   7   9  ar  
 12   7  21  1   
 13   8  22  1   
 14   8  23  1   
 15   8  24  1   
 16   9  12  1   
 17  10  13  1   
 18  10  25  1   
 19  10  26  1   
 20  11  14  1   
 21  11  27  1   
 22  11  28  1   
 23  12  29  1   
 24  12  30  1   
 25  13  15  1   
 26  13  16  2   
 27  14  31  1   
 28  14  32  1   
 29  14  33  1   
 30  15  17  2   
 31  15  34  1   
 32  16  18  1   
 33  16  35  1   
 34  17  18  1   
 35  18  19  1   
 36  19  20  1   
 37  19  36  1   
 38  19  37  1   
 39  20  38  1   
 40  20  39  1   
 41  20  40  1   
@<TRIPOS>SUBSTRUCTURE
  1 ****   6 GROUP 4 **** **** 0

# MOE 2024.06 (io_trps.svl 2023.06)
