@<TRIPOS>MOLECULE
NONAME
50 52 1 0 0 
SMALL
USER_CHARGES


@<TRIPOS>ATOM
  1 O        1.1260     1.5300     0.7640 O.co2 1 <1>  -0.9020 
  2 C        1.4500     0.3320     0.8110 C.2   1 <1>   0.9770 
  3 O        0.5940    -0.5310     1.0590 O.co2 1 <1>  -0.9020 
  4 C        2.8340    -0.0450     0.5730 C.ar  1 <1>  -0.1860 
  5 C        3.7870     0.9280     0.2880 C.ar  1 <1>  -0.1170 
  6 C        3.2540    -1.3880     0.6230 C.ar  1 <1>  -0.1570 
  7 C        5.0990     0.5550     0.0630 C.ar  1 <1>   0.3030 
  8 C        4.5650    -1.7580     0.3980 C.ar  1 <1>  -0.1170 
  9 N        6.2230     1.2930    -0.2300 N.pl3 1 <1>  -0.7040 
 10 C        5.4960    -0.7650     0.1120 C.ar  1 <1>   0.3030 
 11 C        7.2670     0.4780    -0.3400 C.cat 1 <1>   1.0690 
 12 N        6.8610    -0.7970    -0.1650 N.pl3 1 <1>  -0.7670 
 13 N        8.5160     0.9290    -0.5820 N.pl3 1 <1>  -0.5960 
 14 C        7.5680    -2.0700    -0.4550 C.3   1 <1>   0.2680 
 15 C        8.7800     2.2670    -1.1980 C.3   1 <1>   0.1600 
 16 C        9.7730     0.2310    -0.1790 C.3   1 <1>   0.1600 
 17 C        9.5180     3.1810    -0.2080 C.3   1 <1>  -0.0270 
 18 C       10.5780     1.1110     0.7870 C.3   1 <1>  -0.1670 
 19 C        9.7510     4.5520    -0.8370 C.2   1 <1>   0.4430 
 20 C       10.8370     2.5170     0.2250 C.3   1 <1>  -0.1670 
 21 O        9.7110     4.7010    -2.0210 O.2   1 <1>  -0.5750 
 22 C       10.0160     5.7230     0.0960 C.3   1 <1>  -0.1070 
 23 C        8.7840     6.6250     0.2990 C.3   1 <1>  -0.0880 
 24 C        9.1540     7.8180     1.1870 C.3   1 <1>  -0.2470 
 25 C        7.6000     5.8700     0.9190 C.3   1 <1>  -0.2470 
 26 H        3.4970     1.9640     0.2440 H     1 <1>   0.1430 
 27 H        2.5100    -2.1380     0.8470 H     1 <1>   0.1430 
 28 H        4.8550    -2.7900     0.4460 H     1 <1>   0.1430 
 29 H        6.2420     2.3050    -0.2990 H     1 <1>   0.4450 
 30 H        6.8820    -2.7860    -0.8760 H     1 <1>   0.0720 
 31 H        7.9790    -2.4770     0.4540 H     1 <1>   0.0720 
 32 H        8.3580    -1.9110    -1.1680 H     1 <1>   0.0720 
 33 H        7.8670     2.7390    -1.5180 H     1 <1>   0.0720 
 34 H        9.3890     2.1300    -2.0770 H     1 <1>   0.0720 
 35 H       10.3620     0.0230    -1.0570 H     1 <1>   0.0720 
 36 H        9.5620    -0.6960     0.3200 H     1 <1>   0.0720 
 37 H        8.8940     3.3150     0.6570 H     1 <1>   0.0720 
 38 H       11.5200     0.6340     0.9960 H     1 <1>   0.0720 
 39 H       10.0460     1.1880     1.7200 H     1 <1>   0.0720 
 40 H       11.3280     3.1150     0.9740 H     1 <1>   0.0720 
 41 H       11.4980     2.4470    -0.6230 H     1 <1>   0.0720 
 42 H       10.8060     6.3100    -0.3380 H     1 <1>   0.0720 
 43 H       10.3670     5.3640     1.0460 H     1 <1>   0.0720 
 44 H        8.4800     7.0050    -0.6630 H     1 <1>   0.0720 
 45 H        9.4590     7.4880     2.1650 H     1 <1>   0.0720 
 46 H        8.3110     8.4780     1.2970 H     1 <1>   0.0720 
 47 H        9.9600     8.3780     0.7460 H     1 <1>   0.0720 
 48 H        7.8810     5.4270     1.8580 H     1 <1>   0.0720 
 49 H        7.2450     5.1050     0.2540 H     1 <1>   0.0720 
 50 H        6.7860     6.5510     1.0970 H     1 <1>   0.0720 
@<TRIPOS>BOND
  1   1   2  ar  
  2   2   3  ar  
  3   2   4  1   
  4   4   5  ar  
  5   4   6  ar  
  6   5   7  ar  
  7   5  26  1   
  8   6   8  ar  
  9   6  27  1   
 10   7   9  1   
 11   7  10  ar  
 12   8  10  ar  
 13   8  28  1   
 14   9  11  ar  
 15   9  29  1   
 16  10  12  1   
 17  11  12  ar  
 18  11  13  ar  
 19  12  14  1   
 20  13  15  1   
 21  13  16  1   
 22  14  30  1   
 23  14  31  1   
 24  14  32  1   
 25  15  17  1   
 26  15  33  1   
 27  15  34  1   
 28  16  18  1   
 29  16  35  1   
 30  16  36  1   
 31  17  19  1   
 32  17  20  1   
 33  17  37  1   
 34  18  20  1   
 35  18  38  1   
 36  18  39  1   
 37  19  21  2   
 38  19  22  1   
 39  20  40  1   
 40  20  41  1   
 41  22  23  1   
 42  22  42  1   
 43  22  43  1   
 44  23  24  1   
 45  23  25  1   
 46  23  44  1   
 47  24  45  1   
 48  24  46  1   
 49  24  47  1   
 50  25  48  1   
 51  25  49  1   
 52  25  50  1   
@<TRIPOS>SUBSTRUCTURE
  1 ****   9 GROUP 4 **** **** 0

# MOE 2024.06 (io_trps.svl 2023.06)
