@<TRIPOS>MOLECULE
NONAME
45 48 1 0 0 
SMALL
USER_CHARGES


@<TRIPOS>ATOM
  1 O       -2.9870    -0.5970     1.4790 O.2   1 <1>  -0.5700 
  2 C       -2.8370     0.2410     0.6010 C.2   1 <1>   0.7670 
  3 N       -2.5040     1.5040     1.0240 N.2   1 <1>  -0.6610 
  4 C       -3.0010    -0.0620    -0.7920 C.2   1 <1>   0.0290 
  5 C       -2.3490     2.4210     0.1480 C.2   1 <1>   0.5000 
  6 C       -3.3420    -1.3860    -1.2480 C.2   1 <1>   0.6160 
  7 C       -2.8200     0.9700    -1.6680 C.2   1 <1>  -0.0500 
  8 N       -2.4960     2.2020    -1.1890 N.pl3 1 <1>  -0.5500 
  9 C       -1.9820     3.8370     0.5590 C.3   1 <1>  -0.1000 
 10 O       -3.5570    -1.5760    -2.4310 O.2   1 <1>  -0.5700 
 11 N       -3.4380    -2.4640    -0.4180 N.am  1 <1>  -0.7300 
 12 C       -2.6510     4.5040     1.7250 C.3   1 <1>  -0.2000 
 13 C       -2.9340     4.9750     0.3320 C.3   1 <1>  -0.2000 
 14 C       -3.7850    -3.8510    -0.8060 C.3   1 <1>   0.2200 
 15 C       -5.1500    -4.2030    -0.2400 C.3   1 <1>  -0.0800 
 16 C       -2.8640    -4.8410    -0.0900 C.3   1 <1>   0.1200 
 17 C       -4.7810    -4.6550     1.1720 C.3   1 <1>   0.1200 
 18 C       -5.8220    -5.3250    -1.0540 C.3   1 <1>  -0.0170 
 19 O       -3.5280    -5.2590     1.0690 O.3   1 <1>  -0.5600 
 20 C       -7.1840    -5.6960    -0.4880 C.ar  1 <1>  -0.1430 
 21 C       -7.3800    -6.8420     0.2550 C.ar  1 <1>  -0.1500 
 22 C       -8.2960    -4.9040    -0.6900 C.ar  1 <1>  -0.1500 
 23 C       -8.6420    -7.1320     0.7480 C.ar  1 <1>   0.1600 
 24 C       -9.5150    -5.2850    -0.1540 C.ar  1 <1>   0.1600 
 25 N       -9.7150    -6.3800     0.5620 N.ar  1 <1>  -0.6200 
 26 H       -2.9260     0.8410    -2.7360 H     1 <1>   0.1500 
 27 H       -2.3610     3.0040    -1.8120 H     1 <1>   0.4000 
 28 H       -0.9300     4.0260     0.4370 H     1 <1>   0.1000 
 29 H       -3.2930    -2.3080     0.5910 H     1 <1>   0.3700 
 30 H       -3.4100     3.9590     2.2590 H     1 <1>   0.1000 
 31 H       -2.0520     5.1180     2.3760 H     1 <1>   0.1000 
 32 H       -2.5430     5.9300     0.0240 H     1 <1>   0.1000 
 33 H       -3.9120     4.7780    -0.0740 H     1 <1>   0.1000 
 34 H       -3.7320    -3.9630    -1.8770 H     1 <1>   0.0800 
 35 H       -5.8010    -3.3470    -0.2170 H     1 <1>   0.0800 
 36 H       -1.9190    -4.4020     0.1790 H     1 <1>   0.0800 
 37 H       -2.6990    -5.7130    -0.6980 H     1 <1>   0.0800 
 38 H       -5.4790    -5.3530     1.5980 H     1 <1>   0.0800 
 39 H       -4.6790    -3.8060     1.8280 H     1 <1>   0.0800 
 40 H       -5.1920    -6.1980    -1.0730 H     1 <1>   0.0800 
 41 H       -5.9500    -4.9980    -2.0720 H     1 <1>   0.0800 
 42 H       -6.5640    -7.5120     0.4580 H     1 <1>   0.1500 
 43 H       -8.2260    -3.9950    -1.2600 H     1 <1>   0.1500 
 44 H       -8.7750    -8.0300     1.3260 H     1 <1>   0.1500 
 45 H      -10.3710    -4.6550    -0.3220 H     1 <1>   0.1500 
@<TRIPOS>BOND
  1   1   2  2   
  2   2   3  1   
  3   2   4  1   
  4   3   5  2   
  5   4   6  1   
  6   4   7  2   
  7   5   8  1   
  8   5   9  1   
  9   6  10  2   
 10   6  11  am  
 11   7   8  1   
 12   7  26  1   
 13   8  27  1   
 14   9  12  1   
 15   9  13  1   
 16   9  28  1   
 17  11  14  1   
 18  11  29  1   
 19  12  13  1   
 20  12  30  1   
 21  12  31  1   
 22  13  32  1   
 23  13  33  1   
 24  14  15  1   
 25  14  16  1   
 26  14  34  1   
 27  15  17  1   
 28  15  18  1   
 29  15  35  1   
 30  16  19  1   
 31  16  36  1   
 32  16  37  1   
 33  17  19  1   
 34  17  38  1   
 35  17  39  1   
 36  18  20  1   
 37  18  40  1   
 38  18  41  1   
 39  20  21  ar  
 40  20  22  ar  
 41  21  23  ar  
 42  21  42  1   
 43  22  24  ar  
 44  22  43  1   
 45  23  25  ar  
 46  23  44  1   
 47  24  25  ar  
 48  24  45  1   
@<TRIPOS>SUBSTRUCTURE
  1 ****  11 GROUP 4 **** **** 0

# MOE 2024.06 (io_trps.svl 2023.06)
