@<TRIPOS>MOLECULE
NONAME
51 54 1 0 0 
SMALL
USER_CHARGES


@<TRIPOS>ATOM
  1 N        0.4350     0.3680     0.2210 N.ar  1 <1>  -0.6200 
  2 C       -0.5460     1.2580     0.4030 C.ar  1 <1>   0.7200 
  3 C        1.3020     0.6910    -0.7020 C.ar  1 <1>   0.1660 
  4 N       -0.6970     2.4120    -0.2550 N.ar  1 <1>  -0.6200 
  5 N       -1.4820     0.9590     1.3700 N.pl3 1 <1>  -0.8380 
  6 C        1.2410     1.8390    -1.4290 C.ar  1 <1>  -0.1430 
  7 C        2.5010    -0.1470    -1.0690 C.3   1 <1>   0.1430 
  8 C        0.1990     2.6940    -1.1720 C.ar  1 <1>   0.1600 
  9 C       -2.4020     1.9980     1.9110 C.3   1 <1>   0.1290 
 10 C       -1.8190    -0.4420     1.7460 C.3   1 <1>   0.1290 
 11 C        2.3860     1.9420    -2.4060 C.3   1 <1>  -0.0160 
 12 C        3.2070    -0.5530     0.2350 C.3   1 <1>   0.3430 
 13 C        2.0610    -1.4000    -1.8550 C.3   1 <1>  -0.1600 
 14 C        3.3430     0.8280    -1.9360 C.3   1 <1>  -0.1600 
 15 N        4.3430    -1.5080    -0.0140 N.4   1 <1>  -0.9590 
 16 C        3.2080    -2.4160    -2.0100 C.3   1 <1>  -0.1600 
 17 C        3.8610    -2.7570    -0.6670 C.3   1 <1>   0.3430 
 18 C        5.0770    -1.7770     1.2420 C.3   1 <1>   0.5230 
 19 C        5.8380    -0.5190     1.5700 C.2   1 <1>  -0.3320 
 20 N        7.0610    -0.2120     1.0790 N.pl3 1 <1>   0.3140 
 21 C        5.4760     0.4990     2.3850 C.2   1 <1>  -0.1500 
 22 N        7.4700     0.9810     1.5240 N.2   1 <1>  -0.7070 
 23 C        7.9370    -1.0060     0.2010 C.3   1 <1>   0.0160 
 24 C        6.5290     1.4000     2.3110 C.2   1 <1>   0.1390 
 25 H        0.0990     3.6160    -1.7180 H     1 <1>   0.1500 
 26 H       -1.9180     2.9600     1.9190 H     1 <1>   0.0800 
 27 H       -2.6860     1.7530     2.9190 H     1 <1>   0.0800 
 28 H       -3.2830     2.0570     1.2950 H     1 <1>   0.0800 
 29 H       -1.4160    -1.1380     1.0320 H     1 <1>   0.0800 
 30 H       -2.8870    -0.5670     1.7720 H     1 <1>   0.0800 
 31 H       -1.4140    -0.6600     2.7180 H     1 <1>   0.0800 
 32 H        2.8530     2.9120    -2.3710 H     1 <1>   0.0800 
 33 H        2.0270     1.7470    -3.4020 H     1 <1>   0.0800 
 34 H        2.4810    -1.0140     0.8850 H     1 <1>   0.0800 
 35 H        3.5650     0.3380     0.7220 H     1 <1>   0.0800 
 36 H        1.6820    -1.1160    -2.8230 H     1 <1>   0.0800 
 37 H        1.2510    -1.8730    -1.3260 H     1 <1>   0.0800 
 38 H        3.8140     0.3480    -2.7750 H     1 <1>   0.0800 
 39 H        4.1080     1.2860    -1.3300 H     1 <1>   0.0800 
 40 H        4.9970    -1.0280    -0.6410 H     1 <1>   0.4500 
 41 H        3.9540    -2.0390    -2.6870 H     1 <1>   0.0800 
 42 H        2.8160    -3.3200    -2.4450 H     1 <1>   0.0800 
 43 H        3.1380    -3.2450    -0.0320 H     1 <1>   0.0800 
 44 H        4.6830    -3.4360    -0.8290 H     1 <1>   0.0800 
 45 H        5.7620    -2.6000     1.1190 H     1 <1>   0.0800 
 46 H        4.3860    -2.0140     2.0350 H     1 <1>   0.0800 
 47 H        4.5880     0.6360     2.9790 H     1 <1>   0.1500 
 48 H        7.4890    -1.1040    -0.7680 H     1 <1>   0.0800 
 49 H        8.1040    -1.9730     0.6390 H     1 <1>   0.0800 
 50 H        8.8810    -0.5010     0.1020 H     1 <1>   0.0800 
 51 H        6.5730     2.3390     2.8390 H     1 <1>   0.1500 
@<TRIPOS>BOND
  1   1   2  ar  
  2   1   3  ar  
  3   2   4  ar  
  4   2   5  1   
  5   3   6  ar  
  6   3   7  1   
  7   4   8  ar  
  8   5   9  1   
  9   5  10  1   
 10   6   8  ar  
 11   6  11  1   
 12   7  12  1   
 13   7  13  1   
 14   7  14  1   
 15   8  25  1   
 16   9  26  1   
 17   9  27  1   
 18   9  28  1   
 19  10  29  1   
 20  10  30  1   
 21  10  31  1   
 22  11  14  1   
 23  11  32  1   
 24  11  33  1   
 25  12  15  1   
 26  12  34  1   
 27  12  35  1   
 28  13  16  1   
 29  13  36  1   
 30  13  37  1   
 31  14  38  1   
 32  14  39  1   
 33  15  17  1   
 34  15  18  1   
 35  15  40  1   
 36  16  17  1   
 37  16  41  1   
 38  16  42  1   
 39  17  43  1   
 40  17  44  1   
 41  18  19  1   
 42  18  45  1   
 43  18  46  1   
 44  19  20  1   
 45  19  21  2   
 46  20  22  1   
 47  20  23  1   
 48  21  24  1   
 49  21  47  1   
 50  22  24  2   
 51  23  48  1   
 52  23  49  1   
 53  23  50  1   
 54  24  51  1   
@<TRIPOS>SUBSTRUCTURE
  1 ****  12 GROUP 4 **** **** 0

# MOE 2024.06 (io_trps.svl 2023.06)
