@<TRIPOS>MOLECULE
NONAME
53 55 1 0 0 
SMALL
USER_CHARGES


@<TRIPOS>ATOM
  1 S       -2.0550    -0.1450    -0.6240 S.3   1 <1>  -0.0800 
  2 C       -3.5610    -1.0400    -0.5290 C.2   1 <1>  -0.1100 
  3 C       -2.2810     0.4830     0.9970 C.2   1 <1>  -0.1100 
  4 C       -4.1640    -0.8460     0.6600 C.2   1 <1>  -0.1810 
  5 C       -3.4280     0.0230     1.5310 C.2   1 <1>  -0.1500 
  6 C       -5.4910    -1.4470     1.1160 C.3   1 <1>   0.0820 
  7 C       -6.2760    -2.1430     0.0090 C.2   1 <1>   0.5690 
  8 O       -6.4030    -3.3440     0.0880 O.2   1 <1>  -0.5700 
  9 N       -6.8490    -1.4350    -1.0210 N.am  1 <1>  -0.6600 
 10 C       -7.7090    -2.1350    -2.0200 C.3   1 <1>   0.1400 
 11 C       -6.9170     0.0510    -1.0950 C.3   1 <1>   0.1400 
 12 C       -9.1120    -2.4400    -1.4650 C.3   1 <1>   0.1400 
 13 C       -8.1620     0.5970    -0.3790 C.3   1 <1>  -0.1600 
 14 N       -9.5600    -1.4600    -0.4190 N.am  1 <1>  -0.6600 
 15 C       -9.4990    -0.0260    -0.8110 C.3   1 <1>   0.1400 
 16 C       -9.8550    -1.8160     0.8790 C.2   1 <1>   0.5690 
 17 O      -10.1200    -0.9790     1.7150 O.2   1 <1>  -0.5700 
 18 C       -9.8150    -3.2710     1.3400 C.3   1 <1>   0.1810 
 19 O      -10.7990    -4.0440     0.6690 O.3   1 <1>  -0.3630 
 20 C      -10.8850    -5.3930     0.8140 C.ar  1 <1>   0.0830 
 21 C      -11.9010    -6.0630     0.1290 C.ar  1 <1>  -0.1430 
 22 C      -10.0000    -6.1080     1.6160 C.ar  1 <1>  -0.1500 
 23 C      -12.0290    -7.4430     0.2690 C.ar  1 <1>  -0.1430 
 24 C      -12.8750    -5.2830    -0.7570 C.3   1 <1>  -0.0970 
 25 C      -10.1270    -7.4770     1.7400 C.ar  1 <1>  -0.1500 
 26 C      -11.1370    -8.1390     1.0700 C.ar  1 <1>  -0.1500 
 27 C      -13.1290    -8.2280    -0.4340 C.3   1 <1>  -0.0970 
 28 H       -3.8390    -1.6270    -1.3870 H     1 <1>   0.1500 
 29 H       -1.5210     1.1380     1.3840 H     1 <1>   0.1500 
 30 H       -3.7890     0.2620     2.5160 H     1 <1>   0.1500 
 31 H       -6.1080    -0.6790     1.5390 H     1 <1>   0.0800 
 32 H       -5.2920    -2.1610     1.8930 H     1 <1>   0.0800 
 33 H       -7.2400    -3.0590    -2.3150 H     1 <1>   0.0800 
 34 H       -7.8010    -1.5320    -2.9050 H     1 <1>   0.0800 
 35 H       -6.9370     0.3510    -2.1290 H     1 <1>   0.0800 
 36 H       -6.0350     0.4870    -0.6610 H     1 <1>   0.0800 
 37 H       -9.0900    -3.4370    -1.0690 H     1 <1>   0.0800 
 38 H       -9.8220    -2.4440    -2.2730 H     1 <1>   0.0800 
 39 H       -8.2120     1.6540    -0.5670 H     1 <1>   0.0800 
 40 H       -8.0490     0.4800     0.6830 H     1 <1>   0.0800 
 41 H       -9.6350     0.0710    -1.8740 H     1 <1>   0.0800 
 42 H      -10.3060     0.5000    -0.3280 H     1 <1>   0.0800 
 43 H      -10.0120    -3.3230     2.3950 H     1 <1>   0.0800 
 44 H       -8.8450    -3.6810     1.1290 H     1 <1>   0.0800 
 45 H       -9.2060    -5.6250     2.1530 H     1 <1>   0.1500 
 46 H      -12.4680    -4.3380    -1.0630 H     1 <1>   0.0800 
 47 H      -13.7850    -5.1010    -0.2150 H     1 <1>   0.0800 
 48 H      -13.1030    -5.8320    -1.6510 H     1 <1>   0.0800 
 49 H       -9.4400    -8.0290     2.3590 H     1 <1>   0.1500 
 50 H      -11.2240    -9.2060     1.1800 H     1 <1>   0.1500 
 51 H      -14.0850    -7.7740    -0.2490 H     1 <1>   0.0800 
 52 H      -13.1680    -9.2420    -0.0780 H     1 <1>   0.0800 
 53 H      -12.9450    -8.2470    -1.4930 H     1 <1>   0.0800 
@<TRIPOS>BOND
  1   1   2  1   
  2   1   3  1   
  3   2   4  2   
  4   2  28  1   
  5   3   5  2   
  6   3  29  1   
  7   4   5  1   
  8   4   6  1   
  9   5  30  1   
 10   6   7  1   
 11   6  31  1   
 12   6  32  1   
 13   7   8  2   
 14   7   9  am  
 15   9  10  1   
 16   9  11  1   
 17  10  12  1   
 18  10  33  1   
 19  10  34  1   
 20  11  13  1   
 21  11  35  1   
 22  11  36  1   
 23  12  14  1   
 24  12  37  1   
 25  12  38  1   
 26  13  15  1   
 27  13  39  1   
 28  13  40  1   
 29  14  15  1   
 30  14  16  am  
 31  15  41  1   
 32  15  42  1   
 33  16  17  2   
 34  16  18  1   
 35  18  19  1   
 36  18  43  1   
 37  18  44  1   
 38  19  20  1   
 39  20  21  ar  
 40  20  22  ar  
 41  21  23  ar  
 42  21  24  1   
 43  22  25  ar  
 44  22  45  1   
 45  23  26  ar  
 46  23  27  1   
 47  24  46  1   
 48  24  47  1   
 49  24  48  1   
 50  25  26  ar  
 51  25  49  1   
 52  26  50  1   
 53  27  51  1   
 54  27  52  1   
 55  27  53  1   
@<TRIPOS>SUBSTRUCTURE
  1 ****  12 GROUP 4 **** **** 0

# MOE 2024.06 (io_trps.svl 2023.06)
