@<TRIPOS>MOLECULE
NONAME
44 46 1 0 0 
SMALL
USER_CHARGES


@<TRIPOS>ATOM
  1 O       -0.0810    -1.8210    -2.4000 O.co2 1 <1>  -0.9000 
  2 C       -1.1310    -2.4870    -2.2740 C.2   1 <1>   0.9790 
  3 O       -1.7920    -2.6990    -3.3110 O.co2 1 <1>  -0.9000 
  4 C       -1.5400    -2.9750    -0.9470 C.ar  1 <1>   0.1310 
  5 N       -2.6090    -3.7820    -0.7620 N.ar  1 <1>  -0.6200 
  6 C       -0.7610    -2.5620     0.1400 C.ar  1 <1>   0.1600 
  7 C       -2.8200    -4.1200     0.4960 C.ar  1 <1>   0.4100 
  8 N       -0.9580    -2.8890     1.4120 N.ar  1 <1>  -0.6200 
  9 N       -3.9040    -4.9450     0.7420 N.pl3 1 <1>  -0.8380 
 10 C       -2.0060    -3.6760     1.5430 C.ar  1 <1>   0.1600 
 11 C       -5.2360    -4.3070     0.5200 C.3   1 <1>   0.2090 
 12 C       -3.8630    -6.2650     0.0470 C.3   1 <1>   0.2090 
 13 C       -6.3850    -5.2560     0.9360 C.3   1 <1>   0.2950 
 14 C       -5.0580    -7.1540     0.4690 C.3   1 <1>   0.2000 
 15 O       -6.2720    -6.4830     0.2650 O.3   1 <1>  -0.5600 
 16 C       -7.8030    -4.7260     0.6540 C.3   1 <1>  -0.1950 
 17 C       -5.1440    -8.4650    -0.3230 C.3   1 <1>  -0.1600 
 18 C       -8.1910    -4.0390    -0.6200 C.3   1 <1>  -0.2000 
 19 C       -8.1680    -3.2710     0.6730 C.3   1 <1>  -0.2000 
 20 C       -3.9480    -9.4000    -0.0780 C.3   1 <1>  -0.1600 
 21 C       -4.1320   -10.7310    -0.8150 C.3   1 <1>  -0.1600 
 22 C       -2.9380   -11.6600    -0.5790 C.3   1 <1>  -0.2400 
 23 H        0.0800    -1.9190    -0.0590 H     1 <1>   0.1500 
 24 H       -2.2620    -4.0080     2.5310 H     1 <1>   0.1500 
 25 H       -5.2900    -3.4010     1.0960 H     1 <1>   0.0800 
 26 H       -5.3360    -4.0470    -0.5200 H     1 <1>   0.0800 
 27 H       -3.8890    -6.1140    -1.0200 H     1 <1>   0.0800 
 28 H       -2.9370    -6.7560     0.2890 H     1 <1>   0.0800 
 29 H       -6.2990    -5.4490     1.9910 H     1 <1>   0.0800 
 30 H       -4.9780    -7.3770     1.5180 H     1 <1>   0.0800 
 31 H       -8.5340    -5.3970     1.0700 H     1 <1>   0.1000 
 32 H       -6.0470    -8.9740    -0.0300 H     1 <1>   0.0800 
 33 H       -5.2130    -8.2370    -1.3730 H     1 <1>   0.0800 
 34 H       -7.4370    -3.8410    -1.3630 H     1 <1>   0.1000 
 35 H       -9.1390    -4.2930    -1.0630 H     1 <1>   0.1000 
 36 H       -9.1060    -2.9820     1.1140 H     1 <1>   0.1000 
 37 H       -7.4150    -2.5110     0.7870 H     1 <1>   0.1000 
 38 H       -3.0410    -8.9330    -0.4240 H     1 <1>   0.0800 
 39 H       -3.8500    -9.5880     0.9770 H     1 <1>   0.0800 
 40 H       -5.0300   -11.2150    -0.4720 H     1 <1>   0.0800 
 41 H       -4.2350   -10.5490    -1.8720 H     1 <1>   0.0800 
 42 H       -2.8290   -11.8750     0.4700 H     1 <1>   0.0800 
 43 H       -2.0300   -11.2060    -0.9370 H     1 <1>   0.0800 
 44 H       -3.0850   -12.5880    -1.1040 H     1 <1>   0.0800 
@<TRIPOS>BOND
  1   1   2  ar  
  2   2   3  ar  
  3   2   4  1   
  4   4   5  ar  
  5   4   6  ar  
  6   5   7  ar  
  7   6   8  ar  
  8   6  23  1   
  9   7   9  1   
 10   7  10  ar  
 11   8  10  ar  
 12   9  11  1   
 13   9  12  1   
 14  10  24  1   
 15  11  13  1   
 16  11  25  1   
 17  11  26  1   
 18  12  14  1   
 19  12  27  1   
 20  12  28  1   
 21  13  15  1   
 22  13  16  1   
 23  13  29  1   
 24  14  15  1   
 25  14  17  1   
 26  14  30  1   
 27  16  18  1   
 28  16  19  1   
 29  16  31  1   
 30  17  20  1   
 31  17  32  1   
 32  17  33  1   
 33  18  19  1   
 34  18  34  1   
 35  18  35  1   
 36  19  36  1   
 37  19  37  1   
 38  20  21  1   
 39  20  38  1   
 40  20  39  1   
 41  21  22  1   
 42  21  40  1   
 43  21  41  1   
 44  22  42  1   
 45  22  43  1   
 46  22  44  1   
@<TRIPOS>SUBSTRUCTURE
  1 ****   9 GROUP 4 **** **** 0

# MOE 2024.06 (io_trps.svl 2023.06)
