@<TRIPOS>MOLECULE
NONAME
45 47 1 0 0 
SMALL
USER_CHARGES


@<TRIPOS>ATOM
  1 F       -1.3340    -0.1860    -0.9290 F     1 <1>  -0.1900 
  2 C       -2.0700     0.6710    -0.2720 C.ar  1 <1>   0.1900 
  3 C       -3.0390     0.1890     0.5940 C.ar  1 <1>  -0.1440 
  4 C       -1.8540     2.0180    -0.4830 C.ar  1 <1>  -0.1500 
  5 C       -3.8220     1.1090     1.2760 C.ar  1 <1>  -0.1500 
  6 C       -3.2350    -1.3010     0.7860 C.3   1 <1>   0.4870 
  7 C       -2.6490     2.9290     0.2040 C.ar  1 <1>   0.0830 
  8 C       -3.6250     2.4660     1.0770 C.ar  1 <1>  -0.1500 
  9 N       -3.7590    -1.8960    -0.4750 N.4   1 <1>  -0.9590 
 10 O       -2.5350     4.2730     0.0770 O.3   1 <1>  -0.3630 
 11 C       -5.1240    -1.3630    -0.7950 C.3   1 <1>   0.3430 
 12 C       -3.8940    -3.3800    -0.3430 C.3   1 <1>   0.3430 
 13 C       -1.5480     4.8560    -0.7470 C.3   1 <1>   0.0400 
 14 C       -6.1070    -2.4050    -0.2560 C.3   1 <1>   0.2000 
 15 C       -5.3760    -3.7130    -0.5540 C.3   1 <1>  -0.0800 
 16 O       -6.2210    -2.2310     1.1220 O.3   1 <1>  -0.6800 
 17 C       -5.8350    -4.9580     0.2300 C.3   1 <1>   0.0200 
 18 C       -4.8910    -6.1170    -0.0260 C.2   1 <1>  -0.0400 
 19 O       -4.5380    -6.4070    -1.2500 O.3   1 <1>  -0.0190 
 20 C       -4.2680    -6.9730     0.7970 C.2   1 <1>  -0.1500 
 21 N       -3.6990    -7.3980    -1.2890 N.2   1 <1>  -0.4100 
 22 C       -3.5250    -7.7680    -0.0710 C.2   1 <1>   0.1080 
 23 C       -2.6310    -8.9140     0.3490 C.3   1 <1>  -0.0590 
 24 H       -1.0870     2.3280    -1.1660 H     1 <1>   0.1500 
 25 H       -4.5870     0.7860     1.9640 H     1 <1>   0.1500 
 26 H       -3.9280    -1.4780     1.5940 H     1 <1>   0.0800 
 27 H       -2.2900    -1.7520     1.0410 H     1 <1>   0.0800 
 28 H       -4.2280     3.1860     1.6030 H     1 <1>   0.1500 
 29 H       -3.0940    -1.6470    -1.2220 H     1 <1>   0.4500 
 30 H       -5.3040    -0.3930    -0.3610 H     1 <1>   0.0800 
 31 H       -5.2380    -1.2950    -1.8640 H     1 <1>   0.0800 
 32 H       -3.2850    -3.8970    -1.0690 H     1 <1>   0.0800 
 33 H       -3.5940    -3.6920     0.6440 H     1 <1>   0.0800 
 34 H       -1.6420     5.9240    -0.6730 H     1 <1>   0.0800 
 35 H       -1.7110     4.5450    -1.7630 H     1 <1>   0.0800 
 36 H       -0.5770     4.5500    -0.3990 H     1 <1>   0.0800 
 37 H       -7.0830    -2.3290    -0.7070 H     1 <1>   0.0800 
 38 H       -5.5010    -3.9240    -1.6030 H     1 <1>   0.0800 
 39 H       -7.0550    -2.6230     1.4600 H     1 <1>   0.4000 
 40 H       -6.8270    -5.2380    -0.0810 H     1 <1>   0.0800 
 41 H       -5.8570    -4.7680     1.2890 H     1 <1>   0.0800 
 42 H       -4.3020    -7.0620     1.8680 H     1 <1>   0.1500 
 43 H       -1.8740    -8.5620     1.0250 H     1 <1>   0.0800 
 44 H       -2.1540    -9.3440    -0.5130 H     1 <1>   0.0800 
 45 H       -3.2150    -9.6740     0.8350 H     1 <1>   0.0800 
@<TRIPOS>BOND
  1   1   2  1   
  2   2   3  ar  
  3   2   4  ar  
  4   3   5  ar  
  5   3   6  1   
  6   4   7  ar  
  7   4  24  1   
  8   5   8  ar  
  9   5  25  1   
 10   6   9  1   
 11   6  26  1   
 12   6  27  1   
 13   7   8  ar  
 14   7  10  1   
 15   8  28  1   
 16   9  11  1   
 17   9  12  1   
 18   9  29  1   
 19  10  13  1   
 20  11  14  1   
 21  11  30  1   
 22  11  31  1   
 23  12  15  1   
 24  12  32  1   
 25  12  33  1   
 26  13  34  1   
 27  13  35  1   
 28  13  36  1   
 29  14  15  1   
 30  14  16  1   
 31  14  37  1   
 32  15  17  1   
 33  15  38  1   
 34  16  39  1   
 35  17  18  1   
 36  17  40  1   
 37  17  41  1   
 38  18  19  1   
 39  18  20  2   
 40  19  21  1   
 41  20  22  1   
 42  20  42  1   
 43  21  22  2   
 44  22  23  1   
 45  23  43  1   
 46  23  44  1   
 47  23  45  1   
@<TRIPOS>SUBSTRUCTURE
  1 ****   9 GROUP 4 **** **** 0

# MOE 2024.06 (io_trps.svl 2023.06)
