@<TRIPOS>MOLECULE
NONAME
44 46 1 0 0 
SMALL
USER_CHARGES


@<TRIPOS>ATOM
  1 F       -0.5060    -2.7160     2.3530 F     1 <1>  -0.3400 
  2 C        0.3570    -3.4780     1.6870 C.3   1 <1>   1.1640 
  3 F        1.4740    -2.7580     1.5990 F     1 <1>  -0.3400 
  4 F        0.6540    -4.4950     2.4930 F     1 <1>  -0.3400 
  5 C       -0.1850    -3.9400     0.3040 C.ar  1 <1>   0.1660 
  6 N       -1.2470    -4.7520     0.2770 N.ar  1 <1>  -0.6200 
  7 C        0.4440    -3.5030    -0.8600 C.ar  1 <1>  -0.1500 
  8 C       -1.7090    -5.1300    -0.9080 C.ar  1 <1>   0.4100 
  9 C       -0.0210    -3.9080    -2.0940 C.ar  1 <1>  -0.1500 
 10 N       -2.8210    -5.9570    -0.9180 N.pl3 1 <1>  -0.8380 
 11 C       -1.1140    -4.7380    -2.1030 C.ar  1 <1>  -0.1500 
 12 C       -3.2040    -6.7050     0.3200 C.3   1 <1>   0.2090 
 13 C       -4.0070    -5.5780    -1.7390 C.3   1 <1>   0.2090 
 14 C       -3.9420    -8.0100    -0.0680 C.3   1 <1>   0.4230 
 15 C       -4.7450    -6.8580    -2.1500 C.3   1 <1>  -0.1600 
 16 N       -4.3130    -8.8960     1.0920 N.4   1 <1>  -0.9590 
 17 C       -5.1930    -7.6910    -0.9150 C.3   1 <1>  -0.1060 
 18 C       -4.8780   -10.1940     0.6450 C.3   1 <1>   0.3430 
 19 C       -3.2720    -9.0470     2.1430 C.3   1 <1>   0.2630 
 20 C       -6.1880    -6.8880    -0.0550 C.2   1 <1>   0.9060 
 21 C       -5.8330    -9.0120    -1.4040 C.3   1 <1>  -0.1600 
 22 C       -6.1110    -9.9680    -0.2330 C.3   1 <1>  -0.1600 
 23 O       -6.9380    -6.0770    -0.5970 O.co2 1 <1>  -0.9000 
 24 O       -6.2210    -7.0860     1.1700 O.co2 1 <1>  -0.9000 
 25 H        1.2970    -2.8490    -0.8220 H     1 <1>   0.1500 
 26 H        0.4520    -3.5890    -3.0070 H     1 <1>   0.1500 
 27 H       -1.5150    -5.0970    -3.0310 H     1 <1>   0.1500 
 28 H       -2.3120    -6.9490     0.8650 H     1 <1>   0.0800 
 29 H       -3.8280    -6.0790     0.9350 H     1 <1>   0.0800 
 30 H       -4.6570    -4.9390    -1.1610 H     1 <1>   0.0800 
 31 H       -3.7100    -5.0320    -2.6170 H     1 <1>   0.0800 
 32 H       -3.2600    -8.5600    -0.6920 H     1 <1>   0.0800 
 33 H       -5.6090    -6.5820    -2.7310 H     1 <1>   0.0800 
 34 H       -4.0980    -7.4370    -2.7850 H     1 <1>   0.0800 
 35 H       -5.1230    -8.3480     1.4960 H     1 <1>   0.4500 
 36 H       -4.1330   -10.7370     0.0860 H     1 <1>   0.0800 
 37 H       -5.1600   -10.7830     1.5020 H     1 <1>   0.0800 
 38 H       -2.3890    -9.5070     1.7320 H     1 <1>   0.0800 
 39 H       -3.6460    -9.6580     2.9480 H     1 <1>   0.0800 
 40 H       -3.0100    -8.0820     2.5470 H     1 <1>   0.0800 
 41 H       -6.7580    -8.7910    -1.9130 H     1 <1>   0.0800 
 42 H       -5.1780    -9.4970    -2.1070 H     1 <1>   0.0800 
 43 H       -6.4500   -10.9140    -0.6170 H     1 <1>   0.0800 
 44 H       -6.9060    -9.5720     0.3780 H     1 <1>   0.0800 
@<TRIPOS>BOND
  1   1   2  1   
  2   2   3  1   
  3   2   4  1   
  4   2   5  1   
  5   5   6  ar  
  6   5   7  ar  
  7   6   8  ar  
  8   7   9  ar  
  9   7  25  1   
 10   8  10  1   
 11   8  11  ar  
 12   9  11  ar  
 13   9  26  1   
 14  10  12  1   
 15  10  13  1   
 16  11  27  1   
 17  12  14  1   
 18  12  28  1   
 19  12  29  1   
 20  13  15  1   
 21  13  30  1   
 22  13  31  1   
 23  14  16  1   
 24  14  17  1   
 25  14  32  1   
 26  15  17  1   
 27  15  33  1   
 28  15  34  1   
 29  16  18  1   
 30  16  19  1   
 31  16  35  1   
 32  17  20  1   
 33  17  21  1   
 34  18  22  1   
 35  18  36  1   
 36  18  37  1   
 37  19  38  1   
 38  19  39  1   
 39  19  40  1   
 40  20  23  ar  
 41  20  24  ar  
 42  21  22  1   
 43  21  41  1   
 44  21  42  1   
 45  22  43  1   
 46  22  44  1   
@<TRIPOS>SUBSTRUCTURE
  1 ****  12 GROUP 4 **** **** 0

# MOE 2024.06 (io_trps.svl 2023.06)
