@<TRIPOS>MOLECULE
NONAME
49 51 1 0 0 
SMALL
USER_CHARGES


@<TRIPOS>ATOM
  1 O       -0.5040    -1.1670     1.7540 O.2   1 <1>  -0.5700 
  2 C       -0.3890    -2.2920     1.3110 C.2   1 <1>   0.5440 
  3 N       -1.4740    -3.0820     1.4530 N.am  1 <1>  -0.8000 
  4 C        0.8350    -2.7460     0.6840 C.ar  1 <1>   0.0860 
  5 C        0.9070    -3.8690    -0.1700 C.ar  1 <1>   0.4100 
  6 C        2.0190    -2.0620     0.9250 C.ar  1 <1>  -0.1500 
  7 N        2.0390    -4.3000    -0.7210 N.ar  1 <1>  -0.6200 
  8 N       -0.2070    -4.6080    -0.5390 N.pl3 1 <1>  -0.8380 
  9 C        3.1900    -2.5040     0.3510 C.ar  1 <1>  -0.1430 
 10 C        3.1430    -3.6330    -0.4580 C.ar  1 <1>   0.1670 
 11 C       -0.0930    -6.1010    -0.5180 C.3   1 <1>   0.2090 
 12 C       -0.9530    -4.1140    -1.7240 C.3   1 <1>   0.2090 
 13 C        4.4840    -1.7450     0.6210 C.3   1 <1>  -0.0970 
 14 C        4.3970    -4.1800    -1.1150 C.3   1 <1>  -0.0970 
 15 C       -1.4920    -6.7330    -0.4610 C.3   1 <1>   0.1000 
 16 C       -2.3690    -4.7020    -1.7160 C.3   1 <1>  -0.1600 
 17 C       -1.4120    -8.2560    -0.4670 C.2   1 <1>   0.0060 
 18 C       -2.3530    -6.2390    -1.6390 C.3   1 <1>  -0.1600 
 19 N       -0.5210    -8.9330    -1.1090 N.2   1 <1>  -0.3380 
 20 N       -2.2570    -9.0610     0.1890 N.pl3 1 <1>   0.0480 
 21 N       -0.7620   -10.2210    -0.8790 N.2   1 <1>  -0.3380 
 22 C       -1.7910   -10.2810    -0.1080 C.2   1 <1>   0.0060 
 23 C       -3.4030    -8.6980     1.0500 C.3   1 <1>   0.0160 
 24 C       -2.3880   -11.5820     0.3970 C.3   1 <1>   0.3000 
 25 O       -2.2830   -11.6160     1.7780 O.3   1 <1>  -0.6800 
 26 H       -2.3440    -2.6940     1.8120 H     1 <1>   0.3700 
 27 H       -1.5000    -3.9540     0.9120 H     1 <1>   0.3700 
 28 H        2.0090    -1.1940     1.5630 H     1 <1>   0.1500 
 29 H        0.4840    -6.4110     0.3370 H     1 <1>   0.0800 
 30 H        0.4250    -6.4310    -1.4040 H     1 <1>   0.0800 
 31 H       -0.4310    -4.4140    -2.6180 H     1 <1>   0.0800 
 32 H       -0.9990    -3.0380    -1.7060 H     1 <1>   0.0800 
 33 H        4.2920    -0.8420     1.1710 H     1 <1>   0.0800 
 34 H        4.9590    -1.4770    -0.3060 H     1 <1>   0.0800 
 35 H        5.1550    -2.3560     1.1970 H     1 <1>   0.0800 
 36 H        4.2060    -5.1550    -1.5280 H     1 <1>   0.0800 
 37 H        5.1890    -4.2710    -0.3950 H     1 <1>   0.0800 
 38 H        4.7040    -3.5270    -1.9090 H     1 <1>   0.0800 
 39 H       -1.9400    -6.4140     0.4630 H     1 <1>   0.0800 
 40 H       -2.8800    -4.3940    -2.6110 H     1 <1>   0.0800 
 41 H       -2.9090    -4.2970    -0.8790 H     1 <1>   0.0800 
 42 H       -3.3570    -6.6110    -1.5430 H     1 <1>   0.0800 
 43 H       -1.9420    -6.6330    -2.5530 H     1 <1>   0.0800 
 44 H       -3.9700    -7.9130     0.5850 H     1 <1>   0.0800 
 45 H       -3.0360    -8.3640     2.0040 H     1 <1>   0.0800 
 46 H       -4.0390    -9.5510     1.1970 H     1 <1>   0.0800 
 47 H       -1.8500   -12.4230    -0.0050 H     1 <1>   0.0800 
 48 H       -3.4260   -11.6620     0.1290 H     1 <1>   0.0800 
 49 H       -1.3420   -11.4930     2.0190 H     1 <1>   0.4000 
@<TRIPOS>BOND
  1   1   2  2   
  2   2   3  am  
  3   2   4  1   
  4   3  26  1   
  5   3  27  1   
  6   4   5  ar  
  7   4   6  ar  
  8   5   7  ar  
  9   5   8  1   
 10   6   9  ar  
 11   6  28  1   
 12   7  10  ar  
 13   8  11  1   
 14   8  12  1   
 15   9  10  ar  
 16   9  13  1   
 17  10  14  1   
 18  11  15  1   
 19  11  29  1   
 20  11  30  1   
 21  12  16  1   
 22  12  31  1   
 23  12  32  1   
 24  13  33  1   
 25  13  34  1   
 26  13  35  1   
 27  14  36  1   
 28  14  37  1   
 29  14  38  1   
 30  15  17  1   
 31  15  18  1   
 32  15  39  1   
 33  16  18  1   
 34  16  40  1   
 35  16  41  1   
 36  17  19  2   
 37  17  20  1   
 38  18  42  1   
 39  18  43  1   
 40  19  21  1   
 41  20  22  1   
 42  20  23  1   
 43  21  22  2   
 44  22  24  1   
 45  23  44  1   
 46  23  45  1   
 47  23  46  1   
 48  24  25  1   
 49  24  47  1   
 50  24  48  1   
 51  25  49  1   
@<TRIPOS>SUBSTRUCTURE
  1 ****  11 GROUP 4 **** **** 0

# MOE 2024.06 (io_trps.svl 2023.06)
