@<TRIPOS>MOLECULE
NONAME
45 47 1 0 0 
SMALL
USER_CHARGES


@<TRIPOS>ATOM
  1 S       -1.8850     1.1190     1.3790 S.3   1 <1>  -0.0800 
  2 C       -0.4480     2.1150     1.4100 C.2   1 <1>   0.1980 
  3 C       -1.8530     1.1470    -0.3580 C.2   1 <1>  -0.1400 
  4 N       -0.0110     2.4260     0.2480 N.2   1 <1>  -0.5650 
  5 C        0.0620     2.4590     2.8110 C.3   1 <1>   0.2900 
  6 C       -0.7990     1.8800    -0.7550 C.2   1 <1>   0.0460 
  7 C       -2.9570     0.3830    -1.0660 C.3   1 <1>  -0.0600 
  8 N        1.2630     3.3330     2.8550 N.3   1 <1>  -0.8100 
  9 C       -0.3820     2.1660    -2.1830 C.3   1 <1>  -0.0590 
 10 C        1.1190     4.7560     2.4970 C.3   1 <1>   0.1100 
 11 C        2.5870     2.7190     2.9700 C.3   1 <1>   0.1100 
 12 C        2.1000     5.2340     1.4100 C.3   1 <1>   0.3430 
 13 C        3.0890     2.2200     1.6130 C.3   1 <1>  -0.1600 
 14 N        2.2700     4.2070     0.3370 N.4   1 <1>  -0.9590 
 15 C        3.4250     3.3150     0.5980 C.3   1 <1>   0.3430 
 16 C        2.3290     4.7980    -1.0230 C.3   1 <1>   0.5230 
 17 C        1.0890     5.6140    -1.3380 C.2   1 <1>  -0.1400 
 18 S        1.2990     6.8350    -2.5820 S.3   1 <1>  -0.0800 
 19 C       -0.1810     5.6260    -0.8830 C.2   1 <1>  -0.1500 
 20 C       -0.3740     7.3410    -2.4400 C.2   1 <1>  -0.1100 
 21 C       -1.0110     6.6100    -1.5090 C.2   1 <1>  -0.1500 
 22 H        0.2750     1.5400     3.3280 H     1 <1>   0.0800 
 23 H       -0.7340     2.9460     3.3470 H     1 <1>   0.0800 
 24 H       -3.9150     0.7760    -0.7790 H     1 <1>   0.0800 
 25 H       -2.9130    -0.6560    -0.7940 H     1 <1>   0.0800 
 26 H       -2.8590     0.4630    -2.1330 H     1 <1>   0.0800 
 27 H       -1.0220     1.6560    -2.8780 H     1 <1>   0.0800 
 28 H        0.6260     1.8330    -2.3400 H     1 <1>   0.0800 
 29 H       -0.4410     3.2200    -2.3780 H     1 <1>   0.0800 
 30 H        1.2630     5.3540     3.3800 H     1 <1>   0.0800 
 31 H        0.1140     4.9370     2.1550 H     1 <1>   0.0800 
 32 H        2.5280     1.8880     3.6530 H     1 <1>   0.0800 
 33 H        3.2810     3.4290     3.3890 H     1 <1>   0.0800 
 34 H        3.0520     5.4500     1.8630 H     1 <1>   0.0800 
 35 H        1.7210     6.1540     0.9950 H     1 <1>   0.0800 
 36 H        2.3820     1.5300     1.1900 H     1 <1>   0.0800 
 37 H        3.9890     1.6580     1.7870 H     1 <1>   0.0800 
 38 H        1.4200     3.6050     0.3830 H     1 <1>   0.4500 
 39 H        3.7230     2.8340    -0.3200 H     1 <1>   0.0800 
 40 H        4.2600     3.8950     0.9550 H     1 <1>   0.0800 
 41 H        2.4270     4.0170    -1.7590 H     1 <1>   0.0800 
 42 H        3.1930     5.4380    -1.0950 H     1 <1>   0.0800 
 43 H       -0.6000     4.9800    -0.1320 H     1 <1>   0.1500 
 44 H       -0.7080     8.1410    -3.0780 H     1 <1>   0.1500 
 45 H       -2.0460     6.7190    -1.2320 H     1 <1>   0.1500 
@<TRIPOS>BOND
  1   1   2  1   
  2   1   3  1   
  3   2   4  2   
  4   2   5  1   
  5   3   6  2   
  6   3   7  1   
  7   4   6  1   
  8   5   8  1   
  9   5  22  1   
 10   5  23  1   
 11   6   9  1   
 12   7  24  1   
 13   7  25  1   
 14   7  26  1   
 15   8  10  1   
 16   8  11  1   
 17   9  27  1   
 18   9  28  1   
 19   9  29  1   
 20  10  12  1   
 21  10  30  1   
 22  10  31  1   
 23  11  13  1   
 24  11  32  1   
 25  11  33  1   
 26  12  14  1   
 27  12  34  1   
 28  12  35  1   
 29  13  15  1   
 30  13  36  1   
 31  13  37  1   
 32  14  15  1   
 33  14  16  1   
 34  14  38  1   
 35  15  39  1   
 36  15  40  1   
 37  16  17  1   
 38  16  41  1   
 39  16  42  1   
 40  17  18  1   
 41  17  19  2   
 42  18  20  1   
 43  19  21  1   
 44  19  43  1   
 45  20  21  2   
 46  20  44  1   
 47  21  45  1   
@<TRIPOS>SUBSTRUCTURE
  1 ****   4 GROUP 4 **** **** 0

# MOE 2024.06 (io_trps.svl 2023.06)
