@<TRIPOS>MOLECULE
NONAME
42 43 1 0 0 
SMALL
USER_CHARGES


@<TRIPOS>ATOM
  1 O        2.9880    -1.5370    -2.5550 O.2   1 <1>  -0.5700 
  2 C        2.5890    -1.2590    -1.4480 C.2   1 <1>   0.5690 
  3 N        2.6320     0.0150    -0.9810 N.am  1 <1>  -0.7300 
  4 C        2.0750    -2.3800    -0.5330 C.3   1 <1>   0.1710 
  5 C        3.1410     1.1810    -1.7180 C.3   1 <1>   0.2840 
  6 N        0.5920    -2.4910    -0.3890 N.3   1 <1>  -0.8100 
  7 C        4.0190     1.9870    -0.7760 C.ar  1 <1>  -0.1430 
  8 C        0.2300    -3.7590     0.2890 C.3   1 <1>   0.2530 
  9 C        0.0040    -1.3320     0.3040 C.3   1 <1>   0.0300 
 10 C        3.4560     2.8150     0.1920 C.ar  1 <1>   0.0820 
 11 C        5.3980     1.8910    -0.8790 C.ar  1 <1>  -0.1500 
 12 C       -1.2550    -4.0970     0.1880 C.ar  1 <1>   0.1670 
 13 O        2.0990     2.8660     0.2690 O.3   1 <1>  -0.3630 
 14 C        4.2860     3.5470     1.0380 C.ar  1 <1>  -0.1500 
 15 C        6.2180     2.6190    -0.0350 C.ar  1 <1>  -0.1500 
 16 N       -1.8150    -4.6600     1.2520 N.ar  1 <1>  -0.6200 
 17 C       -1.9490    -3.8200    -0.9890 C.ar  1 <1>   0.1600 
 18 C        1.4410     3.7850     1.1130 C.3   1 <1>   0.0400 
 19 C        5.6610     3.4470     0.9220 C.ar  1 <1>  -0.1500 
 20 C       -3.0970    -4.9190     1.0570 C.ar  1 <1>   0.1600 
 21 N       -3.2330    -4.0810    -1.1830 N.ar  1 <1>  -0.6200 
 22 C       -3.7820    -4.6390    -0.1190 C.ar  1 <1>   0.1600 
 23 H        2.2920     0.2460    -0.0480 H     1 <1>   0.3700 
 24 H        2.5220    -2.2570     0.4370 H     1 <1>   0.0800 
 25 H        2.4490    -3.3010    -0.9450 H     1 <1>   0.0800 
 26 H        2.3140     1.7790    -2.0580 H     1 <1>   0.0800 
 27 H        3.7030     0.8600    -2.5790 H     1 <1>   0.0800 
 28 H        0.5100    -3.7030     1.3280 H     1 <1>   0.0800 
 29 H        0.7740    -4.5730    -0.1550 H     1 <1>   0.0800 
 30 H        0.1480    -0.4400    -0.2800 H     1 <1>   0.0800 
 31 H        0.4530    -1.2010     1.2740 H     1 <1>   0.0800 
 32 H       -1.0570    -1.4670     0.4300 H     1 <1>   0.0800 
 33 H        5.8410     1.2460    -1.6190 H     1 <1>   0.1500 
 34 H        3.8850     4.1950     1.7930 H     1 <1>   0.1500 
 35 H        7.2870     2.5380    -0.1230 H     1 <1>   0.1500 
 36 H       -1.4130    -3.3610    -1.8030 H     1 <1>   0.1500 
 37 H        0.3810     3.6800     0.9600 H     1 <1>   0.0800 
 38 H        1.7500     4.7820     0.8520 H     1 <1>   0.0800 
 39 H        1.6860     3.5600     2.1350 H     1 <1>   0.0800 
 40 H        6.3000     4.0130     1.5780 H     1 <1>   0.1500 
 41 H       -3.6340    -5.3770     1.8690 H     1 <1>   0.1500 
 42 H       -4.8270    -4.8880    -0.1800 H     1 <1>   0.1500 
@<TRIPOS>BOND
  1   1   2  2   
  2   2   3  am  
  3   2   4  1   
  4   3   5  1   
  5   3  23  1   
  6   4   6  1   
  7   4  24  1   
  8   4  25  1   
  9   5   7  1   
 10   5  26  1   
 11   5  27  1   
 12   6   8  1   
 13   6   9  1   
 14   7  10  ar  
 15   7  11  ar  
 16   8  12  1   
 17   8  28  1   
 18   8  29  1   
 19   9  30  1   
 20   9  31  1   
 21   9  32  1   
 22  10  13  1   
 23  10  14  ar  
 24  11  15  ar  
 25  11  33  1   
 26  12  16  ar  
 27  12  17  ar  
 28  13  18  1   
 29  14  19  ar  
 30  14  34  1   
 31  15  19  ar  
 32  15  35  1   
 33  16  20  ar  
 34  17  21  ar  
 35  17  36  1   
 36  18  37  1   
 37  18  38  1   
 38  18  39  1   
 39  19  40  1   
 40  20  22  ar  
 41  20  41  1   
 42  21  22  ar  
 43  22  42  1   
@<TRIPOS>SUBSTRUCTURE
  1 ****   3 GROUP 4 **** **** 0

# MOE 2024.06 (io_trps.svl 2023.06)
