@<TRIPOS>MOLECULE
NONAME
47 49 1 0 0 
SMALL
USER_CHARGES


@<TRIPOS>ATOM
  1 O        0.2500     0.1970     1.4510 O.2   1 <1>  -0.5700 
  2 C        1.2650     0.6230     0.9250 C.2   1 <1>   0.5440 
  3 N        1.1940     1.8130     0.2350 N.am  1 <1>  -0.6600 
  4 C        2.4990    -0.1150     1.0280 C.ar  1 <1>   0.0860 
  5 C       -0.0700     2.5720     0.1080 C.3   1 <1>   0.1400 
  6 C        2.1720     2.2410    -0.7900 C.3   1 <1>   0.1400 
  7 C        2.5630    -1.4670     0.6440 C.ar  1 <1>   0.4100 
  8 C        3.6600     0.4810     1.5040 C.ar  1 <1>  -0.1500 
  9 C        0.2280     3.6640    -0.9140 C.3   1 <1>  -0.1600 
 10 C        1.3680     3.1000    -1.7580 C.3   1 <1>  -0.1600 
 11 N        3.6730    -2.2020     0.6980 N.ar  1 <1>  -0.6200 
 12 N        1.4400    -2.1090     0.1760 N.pl3 1 <1>  -0.8690 
 13 C        4.8040    -0.2810     1.5620 C.ar  1 <1>  -0.1500 
 14 C        4.7550    -1.6000     1.1500 C.ar  1 <1>   0.1600 
 15 C        1.3250    -3.5780     0.0790 C.3   1 <1>   0.2090 
 16 C       -0.1180    -3.9980    -0.2320 C.3   1 <1>  -0.0800 
 17 C       -1.0640    -3.5930     0.9170 C.3   1 <1>   0.1200 
 18 C       -0.1330    -5.5190    -0.5080 C.3   1 <1>   0.0200 
 19 O       -2.3790    -3.6730     0.4930 O.3   1 <1>  -0.6800 
 20 C       -1.5070    -6.0670    -0.8450 C.2   1 <1>  -0.0400 
 21 O       -2.1560    -5.5670    -1.8770 O.3   1 <1>  -0.2800 
 22 C       -2.2450    -7.0220    -0.2400 C.2   1 <1>  -0.1500 
 23 C       -3.3170    -6.1860    -1.9570 C.2   1 <1>  -0.0100 
 24 C       -3.4360    -7.1010    -0.9720 C.2   1 <1>  -0.1500 
 25 H       -0.3650     2.9820     1.0590 H     1 <1>   0.0800 
 26 H       -0.8410     1.9130    -0.2550 H     1 <1>   0.0800 
 27 H        2.6130     1.3950    -1.2910 H     1 <1>   0.0800 
 28 H        2.9410     2.8300    -0.3190 H     1 <1>   0.0800 
 29 H        3.6530     1.5090     1.8210 H     1 <1>   0.1500 
 30 H        0.5570     4.5470    -0.3950 H     1 <1>   0.0800 
 31 H       -0.6400     3.9050    -1.5030 H     1 <1>   0.0800 
 32 H        0.9690     2.4700    -2.5340 H     1 <1>   0.0800 
 33 H        1.9690     3.8710    -2.2060 H     1 <1>   0.0800 
 34 H        0.5560    -1.6150     0.3740 H     1 <1>   0.4000 
 35 H        5.7270     0.1380     1.9240 H     1 <1>   0.1500 
 36 H        5.6560    -2.1890     1.1960 H     1 <1>   0.1500 
 37 H        1.6500    -4.0210     1.0060 H     1 <1>   0.0800 
 38 H        1.9840    -3.9170    -0.7030 H     1 <1>   0.0800 
 39 H       -0.4170    -3.4810    -1.1280 H     1 <1>   0.0800 
 40 H       -0.8970    -2.5770     1.2340 H     1 <1>   0.0800 
 41 H       -0.9410    -4.2440     1.7660 H     1 <1>   0.0800 
 42 H        0.2440    -6.0450     0.3520 H     1 <1>   0.0800 
 43 H        0.5200    -5.7350    -1.3360 H     1 <1>   0.0800 
 44 H       -2.4890    -4.4410    -0.1130 H     1 <1>   0.4000 
 45 H       -2.0050    -7.6160     0.6240 H     1 <1>   0.1500 
 46 H       -3.9980    -5.9130    -2.7440 H     1 <1>   0.1500 
 47 H       -4.2570    -7.7640    -0.7640 H     1 <1>   0.1500 
@<TRIPOS>BOND
  1   1   2  2   
  2   2   3  am  
  3   2   4  1   
  4   3   5  1   
  5   3   6  1   
  6   4   7  ar  
  7   4   8  ar  
  8   5   9  1   
  9   5  25  1   
 10   5  26  1   
 11   6  10  1   
 12   6  27  1   
 13   6  28  1   
 14   7  11  ar  
 15   7  12  1   
 16   8  13  ar  
 17   8  29  1   
 18   9  10  1   
 19   9  30  1   
 20   9  31  1   
 21  10  32  1   
 22  10  33  1   
 23  11  14  ar  
 24  12  15  1   
 25  12  34  1   
 26  13  14  ar  
 27  13  35  1   
 28  14  36  1   
 29  15  16  1   
 30  15  37  1   
 31  15  38  1   
 32  16  17  1   
 33  16  18  1   
 34  16  39  1   
 35  17  19  1   
 36  17  40  1   
 37  17  41  1   
 38  18  20  1   
 39  18  42  1   
 40  18  43  1   
 41  19  44  1   
 42  20  21  1   
 43  20  22  2   
 44  21  23  1   
 45  22  24  1   
 46  22  45  1   
 47  23  24  2   
 48  23  46  1   
 49  24  47  1   
@<TRIPOS>SUBSTRUCTURE
  1 ****  12 GROUP 4 **** **** 0

# MOE 2024.06 (io_trps.svl 2023.06)
