@<TRIPOS>MOLECULE
NONAME
39 41 1 0 0 
SMALL
USER_CHARGES


@<TRIPOS>ATOM
  1 F        0.4720    -0.7500     1.3810 F     1 <1>  -0.3400 
  2 C       -0.2940    -1.7350     0.9220 C.3   1 <1>   1.1640 
  3 F       -0.7520    -2.3540     2.0060 F     1 <1>  -0.3400 
  4 F       -1.3330    -1.1310     0.3520 F     1 <1>  -0.3400 
  5 C        0.4710    -2.6530    -0.0260 C.ar  1 <1>  -0.1440 
  6 C       -0.1930    -3.7400    -0.5910 C.ar  1 <1>   0.4100 
  7 C        1.8020    -2.4430    -0.3440 C.ar  1 <1>  -0.1500 
  8 N        0.3810    -4.6020    -1.4250 N.ar  1 <1>  -0.6200 
  9 N       -1.5180    -3.9900    -0.3050 N.pl3 1 <1>  -0.8380 
 10 C        2.3970    -3.3340    -1.2110 C.ar  1 <1>  -0.1500 
 11 C        1.6500    -4.3800    -1.7150 C.ar  1 <1>   0.1600 
 12 C       -2.4880    -3.9160    -1.4380 C.3   1 <1>   0.2090 
 13 C       -1.8090    -5.2170     0.4910 C.3   1 <1>   0.2090 
 14 C       -3.5710    -4.9490    -1.1180 C.3   1 <1>   0.2000 
 15 C       -2.8360    -6.0210    -0.3170 C.3   1 <1>  -0.0800 
 16 O       -4.5100    -4.3580    -0.2870 O.3   1 <1>  -0.6800 
 17 C       -2.1560    -7.0400    -1.2520 C.3   1 <1>   0.0200 
 18 C       -1.3440    -8.0530    -0.4700 C.2   1 <1>  -0.0400 
 19 O       -1.9320    -8.9020     0.3300 O.3   1 <1>  -0.0190 
 20 C       -0.0230    -8.2740    -0.4120 C.2   1 <1>  -0.1500 
 21 N       -1.0730    -9.6790     0.9240 N.2   1 <1>  -0.4100 
 22 C        0.0860    -9.3240     0.4950 C.2   1 <1>   0.1080 
 23 C        1.3860    -9.9640     0.9260 C.3   1 <1>  -0.0590 
 24 H        2.3700    -1.6200     0.0600 H     1 <1>   0.1500 
 25 H        3.4280    -3.2170    -1.4940 H     1 <1>   0.1500 
 26 H        2.1220    -5.0700    -2.3930 H     1 <1>   0.1500 
 27 H       -2.9020    -2.9270    -1.5320 H     1 <1>   0.0800 
 28 H       -1.9960    -4.1780    -2.3600 H     1 <1>   0.0800 
 29 H       -0.9120    -5.7780     0.6910 H     1 <1>   0.0800 
 30 H       -2.2390    -4.9220     1.4330 H     1 <1>   0.0800 
 31 H       -4.0760    -5.3230    -1.9910 H     1 <1>   0.0800 
 32 H       -3.5080    -6.5500     0.3350 H     1 <1>   0.0800 
 33 H       -4.0350    -3.8480     0.4020 H     1 <1>   0.4000 
 34 H       -1.5020    -6.5360    -1.9410 H     1 <1>   0.0800 
 35 H       -2.9020    -7.5630    -1.8230 H     1 <1>   0.0800 
 36 H        0.7770    -7.7720    -0.9230 H     1 <1>   0.1500 
 37 H        2.0570    -9.2130     1.2980 H     1 <1>   0.0800 
 38 H        1.8390   -10.4650     0.0910 H     1 <1>   0.0800 
 39 H        1.2010   -10.6820     1.7040 H     1 <1>   0.0800 
@<TRIPOS>BOND
  1   1   2  1   
  2   2   3  1   
  3   2   4  1   
  4   2   5  1   
  5   5   6  ar  
  6   5   7  ar  
  7   6   8  ar  
  8   6   9  1   
  9   7  10  ar  
 10   7  24  1   
 11   8  11  ar  
 12   9  12  1   
 13   9  13  1   
 14  10  11  ar  
 15  10  25  1   
 16  11  26  1   
 17  12  14  1   
 18  12  27  1   
 19  12  28  1   
 20  13  15  1   
 21  13  29  1   
 22  13  30  1   
 23  14  15  1   
 24  14  16  1   
 25  14  31  1   
 26  15  17  1   
 27  15  32  1   
 28  16  33  1   
 29  17  18  1   
 30  17  34  1   
 31  17  35  1   
 32  18  19  1   
 33  18  20  2   
 34  19  21  1   
 35  20  22  1   
 36  20  36  1   
 37  21  22  2   
 38  22  23  1   
 39  23  37  1   
 40  23  38  1   
 41  23  39  1   
@<TRIPOS>SUBSTRUCTURE
  1 ****  13 GROUP 4 **** **** 0

# MOE 2024.06 (io_trps.svl 2023.06)
