@<TRIPOS>MOLECULE
NONAME
49 51 1 0 0 
SMALL
USER_CHARGES


@<TRIPOS>ATOM
  1 O       -0.2390     0.9060     0.5170 O.2   1 <1>  -0.5700 
  2 C       -0.1470     2.0980     0.6640 C.2   1 <1>   0.5690 
  3 N       -1.2520     2.8560     0.8330 N.am  1 <1>  -0.7300 
  4 C        1.2270     2.7740     0.6210 C.3   1 <1>   0.1810 
  5 C       -1.2200     4.3290     1.0110 C.3   1 <1>   0.3640 
  6 O        1.2190     4.0770     1.1590 O.3   1 <1>  -0.5600 
  7 C       -2.2900     4.9520     0.1190 C.ar  1 <1>  -0.1440 
  8 C        0.1780     4.9140     0.6810 C.3   1 <1>   0.2610 
  9 C       -3.0630     6.0040     0.5940 C.ar  1 <1>   0.1600 
 10 C       -2.5180     4.4970    -1.1680 C.ar  1 <1>  -0.1500 
 11 C        0.3060     6.3340     1.2570 C.2   1 <1>   0.5690 
 12 N       -4.0300     6.6020    -0.0850 N.ar  1 <1>  -0.6200 
 13 C       -3.5130     5.1170    -1.8910 C.ar  1 <1>  -0.1500 
 14 O       -0.1320     6.5270     2.3710 O.2   1 <1>  -0.5700 
 15 N        0.8750     7.3600     0.5370 N.am  1 <1>  -0.6600 
 16 C       -4.2310     6.1470    -1.3100 C.ar  1 <1>   0.1600 
 17 C        0.7360     8.7620     1.0270 C.3   1 <1>   0.3200 
 18 C        1.4440     7.2390    -0.8370 C.3   1 <1>   0.1400 
 19 C       -0.4080     9.4400     0.2930 C.2   1 <1>  -0.0400 
 20 C        2.8420     6.5930    -0.8220 C.3   1 <1>  -0.0800 
 21 O       -1.6240     8.9490     0.4350 O.3   1 <1>  -0.2800 
 22 C       -0.4270    10.5070    -0.5360 C.2   1 <1>  -0.1500 
 23 C        3.8540     7.4180    -0.0140 C.3   1 <1>  -0.2400 
 24 C        3.3520     6.4200    -2.2580 C.3   1 <1>  -0.2400 
 25 C       -2.4400     9.6760    -0.2980 C.2   1 <1>  -0.0100 
 26 C       -1.7640    10.6610    -0.9250 C.2   1 <1>  -0.1500 
 27 H       -2.1620     2.3970     0.8820 H     1 <1>   0.3700 
 28 H        1.5670     2.8290    -0.3960 H     1 <1>   0.0800 
 29 H        1.9280     2.1900     1.1900 H     1 <1>   0.0800 
 30 H       -1.4560     4.5340     2.0420 H     1 <1>   0.0800 
 31 H        0.2720     4.9530    -0.3860 H     1 <1>   0.0800 
 32 H       -2.8760     6.3820     1.5870 H     1 <1>   0.1500 
 33 H       -1.9510     3.6880    -1.5990 H     1 <1>   0.1500 
 34 H       -3.7370     4.8060    -2.8950 H     1 <1>   0.1500 
 35 H       -5.0100     6.6220    -1.8820 H     1 <1>   0.1500 
 36 H        0.5390     8.7830     2.0840 H     1 <1>   0.0800 
 37 H        1.6530     9.2960     0.8530 H     1 <1>   0.0800 
 38 H        0.7740     6.6680    -1.4550 H     1 <1>   0.0800 
 39 H        1.5160     8.2160    -1.2850 H     1 <1>   0.0800 
 40 H        2.7710     5.6150    -0.3790 H     1 <1>   0.0800 
 41 H        0.3890    11.1290    -0.8580 H     1 <1>   0.1500 
 42 H        3.9360     8.4160    -0.4080 H     1 <1>   0.0800 
 43 H        4.8250     6.9550    -0.0480 H     1 <1>   0.0800 
 44 H        3.5530     7.4760     1.0170 H     1 <1>   0.0800 
 45 H        3.4550     7.3750    -2.7440 H     1 <1>   0.0800 
 46 H        2.6700     5.8150    -2.8300 H     1 <1>   0.0800 
 47 H        4.3110     5.9330    -2.2570 H     1 <1>   0.0800 
 48 H       -3.4850     9.4150    -0.3120 H     1 <1>   0.1500 
 49 H       -2.1420    11.4170    -1.5900 H     1 <1>   0.1500 
@<TRIPOS>BOND
  1   1   2  2   
  2   2   3  am  
  3   2   4  1   
  4   3   5  1   
  5   3  27  1   
  6   4   6  1   
  7   4  28  1   
  8   4  29  1   
  9   5   7  1   
 10   5   8  1   
 11   5  30  1   
 12   6   8  1   
 13   7   9  ar  
 14   7  10  ar  
 15   8  11  1   
 16   8  31  1   
 17   9  12  ar  
 18   9  32  1   
 19  10  13  ar  
 20  10  33  1   
 21  11  14  2   
 22  11  15  am  
 23  12  16  ar  
 24  13  16  ar  
 25  13  34  1   
 26  15  17  1   
 27  15  18  1   
 28  16  35  1   
 29  17  19  1   
 30  17  36  1   
 31  17  37  1   
 32  18  20  1   
 33  18  38  1   
 34  18  39  1   
 35  19  21  1   
 36  19  22  2   
 37  20  23  1   
 38  20  24  1   
 39  20  40  1   
 40  21  25  1   
 41  22  26  1   
 42  22  41  1   
 43  23  42  1   
 44  23  43  1   
 45  23  44  1   
 46  24  45  1   
 47  24  46  1   
 48  24  47  1   
 49  25  26  2   
 50  25  48  1   
 51  26  49  1   
@<TRIPOS>SUBSTRUCTURE
  1 ****  11 GROUP 4 **** **** 0

# MOE 2024.06 (io_trps.svl 2023.06)
