@<TRIPOS>MOLECULE
NONAME
45 47 1 0 0 
SMALL
USER_CHARGES


@<TRIPOS>ATOM
  1 F        1.0340     0.3180     0.3730 F     1 <1>  -0.1900 
  2 C        1.9900    -0.2900    -0.2750 C.ar  1 <1>   0.1900 
  3 C        3.2140     0.3580    -0.4930 C.ar  1 <1>   0.3960 
  4 C        1.7400    -1.5740    -0.7030 C.ar  1 <1>  -0.1500 
  5 N        4.2360    -0.2750    -1.1220 N.ar  1 <1>  -0.6200 
  6 C        3.3900     1.7370    -0.0480 C.2   1 <1>   0.5440 
  7 C        2.7910    -2.1730    -1.3550 C.ar  1 <1>   0.1900 
  8 C        3.9950    -1.5120    -1.5420 C.ar  1 <1>   0.1600 
  9 O        2.6570     2.6050    -0.4860 O.2   1 <1>  -0.5700 
 10 N        4.4050     2.1370     0.8120 N.am  1 <1>  -0.6600 
 11 F        2.6530    -3.3900    -1.8000 F     1 <1>  -0.1900 
 12 C        5.5680     1.2760     1.1810 C.3   1 <1>   0.1400 
 13 C        4.5250     3.5540     1.2500 C.3   1 <1>   0.1400 
 14 C        6.7250     1.4210     0.1700 C.3   1 <1>   0.3430 
 15 C        5.2030     4.4020     0.1660 C.3   1 <1>  -0.1600 
 16 N        7.1340     2.8460    -0.0720 N.4   1 <1>  -0.9590 
 17 C        6.0950     3.6290    -0.8070 C.3   1 <1>   0.3430 
 18 C        8.4630     2.9500    -0.7210 C.3   1 <1>   0.4860 
 19 C        8.9490     4.3790    -0.5940 C.ar  1 <1>  -0.1440 
 20 C        9.0440     4.9800     0.6630 C.ar  1 <1>   0.4100 
 21 C        9.2840     5.1150    -1.7110 C.ar  1 <1>  -0.1500 
 22 N        9.4090     6.2230     0.8700 N.ar  1 <1>  -0.6200 
 23 N        8.7440     4.3290     1.8180 N.pl3 1 <1>  -0.9000 
 24 C        9.6860     6.4190    -1.5020 C.ar  1 <1>  -0.1500 
 25 C        9.7270     6.9160    -0.2110 C.ar  1 <1>   0.1600 
 26 H        0.8000    -2.0700    -0.5400 H     1 <1>   0.1500 
 27 H        4.7820    -2.0350    -2.0600 H     1 <1>   0.1500 
 28 H        5.2640     0.2450     1.2280 H     1 <1>   0.0800 
 29 H        5.9160     1.5410     2.1640 H     1 <1>   0.0800 
 30 H        5.0930     3.6040     2.1630 H     1 <1>   0.0800 
 31 H        3.5450     3.9530     1.4610 H     1 <1>   0.0800 
 32 H        6.4250     0.9690    -0.7620 H     1 <1>   0.0800 
 33 H        7.5680     0.8640     0.5450 H     1 <1>   0.0800 
 34 H        5.7600     5.1990     0.6250 H     1 <1>   0.0800 
 35 H        4.4260     4.8680    -0.4150 H     1 <1>   0.0800 
 36 H        7.2820     3.3220     0.8390 H     1 <1>   0.4500 
 37 H        6.5620     4.3350    -1.4740 H     1 <1>   0.0800 
 38 H        5.4870     2.9640    -1.4000 H     1 <1>   0.0800 
 39 H        8.3970     2.6650    -1.7580 H     1 <1>   0.0800 
 40 H        9.1650     2.3000    -0.2260 H     1 <1>   0.0800 
 41 H        9.2410     4.7130    -2.7100 H     1 <1>   0.1500 
 42 H        8.4940     5.0450     2.5120 H     1 <1>   0.4000 
 43 H        9.5790     3.8860     2.2160 H     1 <1>   0.4000 
 44 H        9.9650     7.0480    -2.3300 H     1 <1>   0.1500 
 45 H       10.0390     7.9370    -0.0610 H     1 <1>   0.1500 
@<TRIPOS>BOND
  1   1   2  1   
  2   2   3  ar  
  3   2   4  ar  
  4   3   5  ar  
  5   3   6  1   
  6   4   7  ar  
  7   4  26  1   
  8   5   8  ar  
  9   6   9  2   
 10   6  10  am  
 11   7   8  ar  
 12   7  11  1   
 13   8  27  1   
 14  10  12  1   
 15  10  13  1   
 16  12  14  1   
 17  12  28  1   
 18  12  29  1   
 19  13  15  1   
 20  13  30  1   
 21  13  31  1   
 22  14  16  1   
 23  14  32  1   
 24  14  33  1   
 25  15  17  1   
 26  15  34  1   
 27  15  35  1   
 28  16  17  1   
 29  16  18  1   
 30  16  36  1   
 31  17  37  1   
 32  17  38  1   
 33  18  19  1   
 34  18  39  1   
 35  18  40  1   
 36  19  20  ar  
 37  19  21  ar  
 38  20  22  ar  
 39  20  23  1   
 40  21  24  ar  
 41  21  41  1   
 42  22  25  ar  
 43  23  42  1   
 44  23  43  1   
 45  24  25  ar  
 46  24  44  1   
 47  25  45  1   
@<TRIPOS>SUBSTRUCTURE
  1 ****  14 GROUP 4 **** **** 0

# MOE 2024.06 (io_trps.svl 2023.06)
