@<TRIPOS>MOLECULE
NONAME
51 52 1 0 0 
SMALL
USER_CHARGES


@<TRIPOS>ATOM
  1 O        0.5530     3.8300    -1.8690 O.2   1 <1>  -0.5700 
  2 C        0.1450     3.4540    -0.7890 C.2   1 <1>   0.5690 
  3 N       -1.1240     3.8610    -0.3870 N.am  1 <1>  -0.6600 
  4 C        1.0900     2.5280     0.0710 C.3   1 <1>   0.3410 
  5 C       -1.9000     3.4460     0.8140 C.3   1 <1>   0.1400 
  6 C       -1.9060     4.8250    -1.2140 C.3   1 <1>   0.1400 
  7 O        2.3340     2.3900    -0.6000 O.3   1 <1>  -0.5600 
  8 C        0.4990     1.1080     0.2030 C.3   1 <1>  -0.2400 
  9 C        1.4080     3.1720     1.4390 C.3   1 <1>  -0.2400 
 10 C       -3.1870     2.7470     0.3680 C.3   1 <1>  -0.1600 
 11 C       -3.1970     4.1580    -1.6940 C.3   1 <1>  -0.1600 
 12 C        3.3680     1.6020    -0.0930 C.3   1 <1>   0.1200 
 13 C       -4.0700     3.6380    -0.5280 C.3   1 <1>   0.2800 
 14 C        4.5360     1.7220    -1.0640 C.3   1 <1>  -0.2400 
 15 O       -4.4170     4.7530     0.2660 O.3   1 <1>  -0.5600 
 16 C       -5.3420     2.8440    -1.0060 C.3   1 <1>   0.2000 
 17 C       -5.6000     5.4220    -0.0290 C.3   1 <1>   0.1200 
 18 O       -5.7340     3.2340    -2.2990 O.3   1 <1>  -0.6800 
 19 C       -6.5450     3.0210    -0.0350 C.3   1 <1>   0.2800 
 20 C       -6.8130     4.5150     0.2360 C.3   1 <1>  -0.1600 
 21 O       -6.2400     2.4230     1.1730 O.3   1 <1>  -0.6800 
 22 C       -7.8160     2.3040    -0.5080 C.3   1 <1>  -0.2400 
 23 H       -1.3480     2.7840     1.4490 H     1 <1>   0.0800 
 24 H       -2.1460     4.3210     1.3930 H     1 <1>   0.0800 
 25 H       -2.1400     5.6900    -0.6170 H     1 <1>   0.0800 
 26 H       -1.3400     5.1620    -2.0660 H     1 <1>   0.0800 
 27 H       -0.5180     1.1240     0.5310 H     1 <1>   0.0800 
 28 H        1.0530     0.5170     0.9080 H     1 <1>   0.0800 
 29 H        0.5160     0.6290    -0.7600 H     1 <1>   0.0800 
 30 H        0.5270     3.5000     1.9480 H     1 <1>   0.0800 
 31 H        2.0270     4.0370     1.2850 H     1 <1>   0.0800 
 32 H        1.9120     2.4810     2.0880 H     1 <1>   0.0800 
 33 H       -3.7340     2.4510     1.2420 H     1 <1>   0.0800 
 34 H       -2.9230     1.8520    -0.1650 H     1 <1>   0.0800 
 35 H       -2.9330     3.3370    -2.3370 H     1 <1>   0.0800 
 36 H       -3.7430     4.8650    -2.2880 H     1 <1>   0.0800 
 37 H        3.6610     1.9640     0.8770 H     1 <1>   0.0800 
 38 H        3.0470     0.5780    -0.0320 H     1 <1>   0.0800 
 39 H        4.8490     2.7480    -1.1350 H     1 <1>   0.0800 
 40 H        4.2400     1.3710    -2.0360 H     1 <1>   0.0800 
 41 H        5.3630     1.1290    -0.7180 H     1 <1>   0.0800 
 42 H       -5.1060     1.7980    -1.0820 H     1 <1>   0.0800 
 43 H       -5.6450     6.2980     0.5940 H     1 <1>   0.0800 
 44 H       -5.5620     5.7370    -1.0570 H     1 <1>   0.0800 
 45 H       -5.8730     4.1980    -2.3240 H     1 <1>   0.4000 
 46 H       -7.6030     4.8610    -0.4060 H     1 <1>   0.0800 
 47 H       -7.1520     4.6600     1.2460 H     1 <1>   0.0800 
 48 H       -6.9790     2.5490     1.7950 H     1 <1>   0.4000 
 49 H       -8.1520     2.7120    -1.4440 H     1 <1>   0.0800 
 50 H       -8.6100     2.4140     0.2080 H     1 <1>   0.0800 
 51 H       -7.6140     1.2580    -0.6590 H     1 <1>   0.0800 
@<TRIPOS>BOND
  1   1   2  2   
  2   2   3  am  
  3   2   4  1   
  4   3   5  1   
  5   3   6  1   
  6   4   7  1   
  7   4   8  1   
  8   4   9  1   
  9   5  10  1   
 10   5  23  1   
 11   5  24  1   
 12   6  11  1   
 13   6  25  1   
 14   6  26  1   
 15   7  12  1   
 16   8  27  1   
 17   8  28  1   
 18   8  29  1   
 19   9  30  1   
 20   9  31  1   
 21   9  32  1   
 22  10  13  1   
 23  10  33  1   
 24  10  34  1   
 25  11  13  1   
 26  11  35  1   
 27  11  36  1   
 28  12  14  1   
 29  12  37  1   
 30  12  38  1   
 31  13  15  1   
 32  13  16  1   
 33  14  39  1   
 34  14  40  1   
 35  14  41  1   
 36  15  17  1   
 37  16  18  1   
 38  16  19  1   
 39  16  42  1   
 40  17  20  1   
 41  17  43  1   
 42  17  44  1   
 43  18  45  1   
 44  19  20  1   
 45  19  21  1   
 46  19  22  1   
 47  20  46  1   
 48  20  47  1   
 49  21  48  1   
 50  22  49  1   
 51  22  50  1   
 52  22  51  1   
@<TRIPOS>SUBSTRUCTURE
  1 ****   5 GROUP 4 **** **** 0

# MOE 2024.06 (io_trps.svl 2023.06)
