@<TRIPOS>MOLECULE
NONAME
50 53 1 0 0 
SMALL
USER_CHARGES


@<TRIPOS>ATOM
  1 O        0.2080    -0.3870    -1.4570 O.2   1 <1>  -0.5700 
  2 C       -0.7070     0.3930    -1.3340 C.2   1 <1>   0.5690 
  3 N       -2.0010    -0.0490    -1.2430 N.am  1 <1>  -0.6600 
  4 C       -0.3720     1.8770    -1.2780 C.3   1 <1>   0.0820 
  5 C       -3.2280     0.7720    -1.0720 C.3   1 <1>   0.1400 
  6 C       -2.3350    -1.4930    -1.1720 C.3   1 <1>   0.1400 
  7 C       -0.6050     2.4740     0.1050 C.2   1 <1>  -0.1810 
  8 C       -4.2430    -0.1870    -0.4540 C.3   1 <1>   0.2000 
  9 C       -3.8630    -1.5530    -1.0390 C.3   1 <1>  -0.0800 
 10 C       -1.3380     3.5370     0.4780 C.2   1 <1>  -0.0400 
 11 C       -0.0830     2.0090     1.3140 C.2   1 <1>   0.1080 
 12 O       -4.0510    -0.1880     0.9200 O.3   1 <1>  -0.6800 
 13 C       -4.3760    -2.7620    -0.2260 C.3   1 <1>  -0.0170 
 14 O       -1.2480     3.6530     1.7740 O.3   1 <1>  -0.0190 
 15 C       -2.1810     4.5370    -0.2880 C.3   1 <1>  -0.0600 
 16 N       -0.4920     2.7320     2.2940 N.2   1 <1>  -0.4100 
 17 C        0.8420     0.8230     1.4950 C.3   1 <1>  -0.0590 
 18 C       -4.1520    -4.1510    -0.8360 C.ar  1 <1>  -0.1440 
 19 C       -4.4100    -5.3070    -0.0560 C.ar  1 <1>   0.0000 
 20 C       -3.7200    -4.3550    -2.1170 C.ar  1 <1>  -0.1500 
 21 C       -4.1780    -6.5740    -0.6460 C.ar  1 <1>   0.3100 
 22 C       -4.8920    -5.2820     1.2750 C.ar  1 <1>  -0.1500 
 23 C       -3.5270    -5.6530    -2.6050 C.ar  1 <1>   0.1600 
 24 N       -3.7360    -6.7300    -1.9190 N.ar  1 <1>  -0.6200 
 25 C       -4.4160    -7.7340     0.1090 C.ar  1 <1>  -0.1500 
 26 C       -5.1170    -6.4310     1.9830 C.ar  1 <1>  -0.1500 
 27 C       -4.8750    -7.6750     1.3960 C.ar  1 <1>  -0.1500 
 28 H        0.6620     2.0070    -1.5400 H     1 <1>   0.0800 
 29 H       -0.9600     2.3910    -2.0130 H     1 <1>   0.0800 
 30 H       -3.0710     1.6280    -0.4420 H     1 <1>   0.0800 
 31 H       -3.5720     1.0920    -2.0410 H     1 <1>   0.0800 
 32 H       -1.9860    -2.0030    -2.0530 H     1 <1>   0.0800 
 33 H       -1.8570    -1.9200    -0.3060 H     1 <1>   0.0800 
 34 H       -5.2630     0.0920    -0.6530 H     1 <1>   0.0800 
 35 H       -4.2840    -1.5940    -2.0270 H     1 <1>   0.0800 
 36 H       -3.0900    -0.1930     1.1120 H     1 <1>   0.4000 
 37 H       -5.4320    -2.6370    -0.0610 H     1 <1>   0.0800 
 38 H       -3.8960    -2.7400     0.7360 H     1 <1>   0.0800 
 39 H       -2.1620     4.3300    -1.3410 H     1 <1>   0.0800 
 40 H       -1.7990     5.5290    -0.1220 H     1 <1>   0.0800 
 41 H       -3.1970     4.4960     0.0610 H     1 <1>   0.0800 
 42 H        1.6190     0.8410     0.7520 H     1 <1>   0.0800 
 43 H        0.2870    -0.0920     1.4010 H     1 <1>   0.0800 
 44 H        1.2950     0.8550     2.4690 H     1 <1>   0.0800 
 45 H       -3.5130    -3.5530    -2.7980 H     1 <1>   0.1500 
 46 H       -5.0930    -4.3400     1.7500 H     1 <1>   0.1500 
 47 H       -3.1820    -5.7620    -3.6190 H     1 <1>   0.1500 
 48 H       -4.2250    -8.6790    -0.3650 H     1 <1>   0.1500 
 49 H       -5.4820    -6.3930     2.9950 H     1 <1>   0.1500 
 50 H       -5.0540    -8.5720     1.9630 H     1 <1>   0.1500 
@<TRIPOS>BOND
  1   1   2  2   
  2   2   3  am  
  3   2   4  1   
  4   3   5  1   
  5   3   6  1   
  6   4   7  1   
  7   4  28  1   
  8   4  29  1   
  9   5   8  1   
 10   5  30  1   
 11   5  31  1   
 12   6   9  1   
 13   6  32  1   
 14   6  33  1   
 15   7  10  2   
 16   7  11  1   
 17   8   9  1   
 18   8  12  1   
 19   8  34  1   
 20   9  13  1   
 21   9  35  1   
 22  10  14  1   
 23  10  15  1   
 24  11  16  2   
 25  11  17  1   
 26  12  36  1   
 27  13  18  1   
 28  13  37  1   
 29  13  38  1   
 30  14  16  1   
 31  15  39  1   
 32  15  40  1   
 33  15  41  1   
 34  17  42  1   
 35  17  43  1   
 36  17  44  1   
 37  18  19  ar  
 38  18  20  ar  
 39  19  21  ar  
 40  19  22  ar  
 41  20  23  ar  
 42  20  45  1   
 43  21  24  ar  
 44  21  25  ar  
 45  22  26  ar  
 46  22  46  1   
 47  23  24  ar  
 48  23  47  1   
 49  25  27  ar  
 50  25  48  1   
 51  26  27  ar  
 52  26  49  1   
 53  27  50  1   
@<TRIPOS>SUBSTRUCTURE
  1 ****   6 GROUP 4 **** **** 0

# MOE 2024.06 (io_trps.svl 2023.06)
