@<TRIPOS>MOLECULE
NONAME
56 58 1 0 0 
SMALL
USER_CHARGES


@<TRIPOS>ATOM
  1 O        0.2390    -0.1890     1.5260 O.2   1 <1>  -0.5700 
  2 C        0.9660    -0.6090     0.6530 C.2   1 <1>   0.5690 
  3 N        1.6330     0.2750    -0.1310 N.am  1 <1>  -0.7300 
  4 C        1.1480    -2.1440     0.4660 C.3   1 <1>   0.2040 
  5 C        1.6950     1.7260     0.0780 C.3   1 <1>   0.3200 
  6 C       -0.1840    -2.8670     0.1430 C.ar  1 <1>  -0.1440 
  7 C        2.1630    -2.4980    -0.6520 C.3   1 <1>  -0.1600 
  8 C        1.8220    -2.6910     1.7570 C.3   1 <1>  -0.1600 
  9 C        2.9750     2.2600    -0.5580 C.2   1 <1>   0.0060 
 10 C       -0.2680    -4.2540     0.2340 C.ar  1 <1>  -0.1500 
 11 C       -1.3180    -2.1730    -0.2740 C.ar  1 <1>  -0.1500 
 12 C        3.5220    -2.5950     0.0320 C.3   1 <1>  -0.1600 
 13 C        3.1920    -3.2530     1.3650 C.3   1 <1>  -0.1600 
 14 N        3.7530     1.5500    -1.3230 N.2   1 <1>  -0.5650 
 15 N        3.4110     3.5330    -0.3720 N.pl3 1 <1>   0.0480 
 16 C       -1.4370    -4.9310    -0.0660 C.ar  1 <1>   0.0830 
 17 C       -2.4980    -2.8370    -0.5610 C.ar  1 <1>  -0.1500 
 18 C        4.7440     2.3960    -1.6510 C.2   1 <1>   0.0770 
 19 C        4.5550     3.6040    -1.0830 C.2   1 <1>  -0.3020 
 20 C        2.7970     4.6240     0.4350 C.3   1 <1>   0.1760 
 21 O       -1.4120    -6.2850     0.0170 O.3   1 <1>  -0.3630 
 22 C       -2.5750    -4.2120    -0.4430 C.ar  1 <1>   0.0830 
 23 C        2.5300     5.8540    -0.4400 C.3   1 <1>  -0.2400 
 24 C        3.7030     4.9770     1.6200 C.3   1 <1>  -0.2400 
 25 C       -1.6040    -6.9910    -1.1890 C.3   1 <1>   0.0400 
 26 O       -3.7700    -4.8000    -0.6970 O.3   1 <1>  -0.3630 
 27 C       -4.4150    -5.3900     0.4090 C.3   1 <1>   0.0400 
 28 H        2.3590    -0.0300    -0.7890 H     1 <1>   0.3700 
 29 H        1.6880     1.9340     1.1340 H     1 <1>   0.0800 
 30 H        0.8370     2.1860    -0.3800 H     1 <1>   0.0800 
 31 H        2.1610    -1.8100    -1.4780 H     1 <1>   0.0800 
 32 H        1.9340    -3.4680    -1.0570 H     1 <1>   0.0800 
 33 H        1.2250    -3.4340     2.2530 H     1 <1>   0.0800 
 34 H        1.9730    -1.8920     2.4630 H     1 <1>   0.0800 
 35 H        0.5840    -4.8370     0.5300 H     1 <1>   0.1500 
 36 H       -1.3090    -1.1030    -0.3790 H     1 <1>   0.1500 
 37 H        3.9220    -1.6080     0.1990 H     1 <1>   0.0800 
 38 H        4.2260    -3.1720    -0.5420 H     1 <1>   0.0800 
 39 H        3.1160    -4.3190     1.2280 H     1 <1>   0.0800 
 40 H        3.9420    -3.0490     2.1110 H     1 <1>   0.0800 
 41 H       -3.3670    -2.2880    -0.8720 H     1 <1>   0.1500 
 42 H        5.5560     2.0870    -2.2890 H     1 <1>   0.1500 
 43 H        5.1610     4.4890    -1.1450 H     1 <1>   0.1500 
 44 H        1.8550     4.2750     0.8200 H     1 <1>   0.0800 
 45 H        3.4500     6.2650    -0.8160 H     1 <1>   0.0800 
 46 H        2.0310     6.6140     0.1350 H     1 <1>   0.0800 
 47 H        1.8980     5.5890    -1.2690 H     1 <1>   0.0800 
 48 H        4.6500     5.3540     1.2760 H     1 <1>   0.0800 
 49 H        3.8710     4.1070     2.2290 H     1 <1>   0.0800 
 50 H        3.2370     5.7310     2.2290 H     1 <1>   0.0800 
 51 H       -1.4280    -8.0340    -0.9990 H     1 <1>   0.0800 
 52 H       -0.9050    -6.6250    -1.9200 H     1 <1>   0.0800 
 53 H       -2.6120    -6.8460    -1.5310 H     1 <1>   0.0800 
 54 H       -5.3780    -5.7420     0.0880 H     1 <1>   0.0800 
 55 H       -4.5290    -4.6480     1.1790 H     1 <1>   0.0800 
 56 H       -3.8240    -6.2130     0.7690 H     1 <1>   0.0800 
@<TRIPOS>BOND
  1   1   2  2   
  2   2   3  am  
  3   2   4  1   
  4   3   5  1   
  5   3  28  1   
  6   4   6  1   
  7   4   7  1   
  8   4   8  1   
  9   5   9  1   
 10   5  29  1   
 11   5  30  1   
 12   6  10  ar  
 13   6  11  ar  
 14   7  12  1   
 15   7  31  1   
 16   7  32  1   
 17   8  13  1   
 18   8  33  1   
 19   8  34  1   
 20   9  14  2   
 21   9  15  1   
 22  10  16  ar  
 23  10  35  1   
 24  11  17  ar  
 25  11  36  1   
 26  12  13  1   
 27  12  37  1   
 28  12  38  1   
 29  13  39  1   
 30  13  40  1   
 31  14  18  1   
 32  15  19  1   
 33  15  20  1   
 34  16  21  1   
 35  16  22  ar  
 36  17  22  ar  
 37  17  41  1   
 38  18  19  2   
 39  18  42  1   
 40  19  43  1   
 41  20  23  1   
 42  20  24  1   
 43  20  44  1   
 44  21  25  1   
 45  22  26  1   
 46  23  45  1   
 47  23  46  1   
 48  23  47  1   
 49  24  48  1   
 50  24  49  1   
 51  24  50  1   
 52  25  51  1   
 53  25  52  1   
 54  25  53  1   
 55  26  27  1   
 56  27  54  1   
 57  27  55  1   
 58  27  56  1   
@<TRIPOS>SUBSTRUCTURE
  1 ****   2 GROUP 4 **** **** 0

# MOE 2024.06 (io_trps.svl 2023.06)
