@<TRIPOS>MOLECULE
NONAME
45 47 1 0 0 
SMALL
USER_CHARGES


@<TRIPOS>ATOM
  1 O       -2.0340     0.8830    -1.7190 O.2   1 <1>  -0.5700 
  2 C       -1.8460     0.8980    -0.5180 C.2   1 <1>   0.7160 
  3 N       -2.0570    -0.2540     0.1800 N.am  1 <1>  -0.7300 
  4 C       -1.4140     2.0910     0.1730 C.2   1 <1>  -0.0860 
  5 C       -2.4760    -1.5470    -0.4030 C.3   1 <1>   0.2200 
  6 C       -0.7720     3.2220    -0.2480 C.2   1 <1>  -0.3320 
  7 C       -1.6000     2.3270     1.5380 C.2   1 <1>   0.1390 
  8 C       -3.9240    -1.8150    -0.0310 C.3   1 <1>  -0.0800 
  9 C       -1.7570    -2.6840     0.3140 C.3   1 <1>   0.1200 
 10 N       -0.6170     4.0260     0.8240 N.pl3 1 <1>   0.3140 
 11 C       -0.2920     3.5760    -1.6500 C.3   1 <1>  -0.0600 
 12 N       -1.1270     3.4640     1.9320 N.2   1 <1>  -0.7070 
 13 C       -3.7920    -2.4330     1.3670 C.3   1 <1>   0.1200 
 14 C       -4.5960    -2.7740    -1.0330 C.3   1 <1>  -0.0170 
 15 O       -2.4850    -2.9210     1.4810 O.3   1 <1>  -0.5600 
 16 C        0.0150     5.3620     0.8790 C.3   1 <1>   0.0960 
 17 C       -6.0520    -3.0260    -0.6740 C.ar  1 <1>  -0.1430 
 18 C       -1.0050     6.4700     0.5860 C.3   1 <1>  -0.2400 
 19 C       -7.0290    -2.0770    -0.8990 C.ar  1 <1>  -0.1500 
 20 C       -6.4750    -4.2120    -0.1080 C.ar  1 <1>  -0.1500 
 21 C       -8.3420    -2.3490    -0.5520 C.ar  1 <1>   0.1600 
 22 C       -7.8140    -4.3840     0.2030 C.ar  1 <1>   0.1600 
 23 N       -8.7570    -3.4790    -0.0040 N.ar  1 <1>  -0.6200 
 24 H       -1.8380    -0.2890     1.1760 H     1 <1>   0.3700 
 25 H       -2.2990    -1.5610    -1.4660 H     1 <1>   0.0800 
 26 H       -2.0900     1.6430     2.2090 H     1 <1>   0.1500 
 27 H       -4.4910    -0.9020     0.0040 H     1 <1>   0.0800 
 28 H       -0.7390    -2.4420     0.5640 H     1 <1>   0.0800 
 29 H       -1.7820    -3.5830    -0.2750 H     1 <1>   0.0800 
 30 H       -0.4850     2.7740    -2.3390 H     1 <1>   0.0800 
 31 H        0.7660     3.7630    -1.6460 H     1 <1>   0.0800 
 32 H       -0.8030     4.4520    -2.0070 H     1 <1>   0.0800 
 33 H       -4.4820    -3.2390     1.5410 H     1 <1>   0.0800 
 34 H       -3.9240    -1.6820     2.1270 H     1 <1>   0.0800 
 35 H       -4.0670    -3.7100    -1.0690 H     1 <1>   0.0800 
 36 H       -4.5570    -2.3420    -2.0190 H     1 <1>   0.0800 
 37 H        0.4240     5.4960     1.8640 H     1 <1>   0.0800 
 38 H        0.8200     5.3960     0.1700 H     1 <1>   0.0800 
 39 H       -1.8000     6.4370     1.3100 H     1 <1>   0.0800 
 40 H       -1.4180     6.3510    -0.4000 H     1 <1>   0.0800 
 41 H       -0.5280     7.4320     0.6450 H     1 <1>   0.0800 
 42 H       -6.7820    -1.1290    -1.3420 H     1 <1>   0.1500 
 43 H       -5.7790    -5.0050     0.0970 H     1 <1>   0.1500 
 44 H       -9.0910    -1.5970    -0.7360 H     1 <1>   0.1500 
 45 H       -8.1250    -5.3150     0.6450 H     1 <1>   0.1500 
@<TRIPOS>BOND
  1   1   2  2   
  2   2   3  am  
  3   2   4  1   
  4   3   5  1   
  5   3  24  1   
  6   4   6  2   
  7   4   7  1   
  8   5   8  1   
  9   5   9  1   
 10   5  25  1   
 11   6  10  1   
 12   6  11  1   
 13   7  12  2   
 14   7  26  1   
 15   8  13  1   
 16   8  14  1   
 17   8  27  1   
 18   9  15  1   
 19   9  28  1   
 20   9  29  1   
 21  10  12  1   
 22  10  16  1   
 23  11  30  1   
 24  11  31  1   
 25  11  32  1   
 26  13  15  1   
 27  13  33  1   
 28  13  34  1   
 29  14  17  1   
 30  14  35  1   
 31  14  36  1   
 32  16  18  1   
 33  16  37  1   
 34  16  38  1   
 35  17  19  ar  
 36  17  20  ar  
 37  18  39  1   
 38  18  40  1   
 39  18  41  1   
 40  19  21  ar  
 41  19  42  1   
 42  20  22  ar  
 43  20  43  1   
 44  21  23  ar  
 45  21  44  1   
 46  22  23  ar  
 47  22  45  1   
@<TRIPOS>SUBSTRUCTURE
  1 ****   3 GROUP 4 **** **** 0

# MOE 2024.06 (io_trps.svl 2023.06)
