@<TRIPOS>MOLECULE
NONAME
55 58 1 0 0 
SMALL
USER_CHARGES


@<TRIPOS>ATOM
  1 O       -0.9680     1.4790     2.4300 O.2   1 <1>  -0.5700 
  2 C       -0.7200     2.5780     2.0040 C.2   1 <1>   0.5690 
  3 N       -1.7120     3.3970     1.5930 N.am  1 <1>  -0.7300 
  4 C        0.7310     3.0500     1.8900 C.3   1 <1>   0.1810 
  5 C       -1.4840     4.7720     1.0800 C.3   1 <1>   0.3640 
  6 O        0.8410     4.4500     1.7630 O.3   1 <1>  -0.5600 
  7 C       -2.3460     4.9630    -0.1640 C.ar  1 <1>  -0.1440 
  8 C        0.0180     5.0320     0.7650 C.3   1 <1>   0.2610 
  9 C       -2.3870     4.0010    -1.1660 C.ar  1 <1>   0.1600 
 10 C       -3.1000     6.1100    -0.3240 C.ar  1 <1>  -0.1500 
 11 C        0.3220     6.5340     0.5760 C.2   1 <1>   0.5690 
 12 N       -3.0920     4.0930    -2.2820 N.ar  1 <1>  -0.6200 
 13 C       -3.8450     6.2200    -1.4780 C.ar  1 <1>  -0.1500 
 14 O       -0.5300     7.3040     0.9660 O.2   1 <1>  -0.5700 
 15 N        1.4570     7.0220    -0.0530 N.am  1 <1>  -0.6600 
 16 C       -3.8060     5.1990    -2.4110 C.ar  1 <1>   0.1600 
 17 C        2.7340     6.3080    -0.3940 C.3   1 <1>   0.2200 
 18 C        1.5280     8.5060    -0.3390 C.3   1 <1>   0.2840 
 19 C        2.5810     5.0610    -1.2760 C.3   1 <1>  -0.1600 
 20 C        3.5900     6.0080     0.8440 C.3   1 <1>  -0.1600 
 21 C        2.6920     9.2170     0.3560 C.ar  1 <1>   0.1670 
 22 C        3.9650     4.5720    -1.7290 C.3   1 <1>  -0.1600 
 23 C        4.9740     5.4860     0.4240 C.3   1 <1>  -0.1600 
 24 N        2.5700     9.4620     1.6550 N.ar  1 <1>  -0.6200 
 25 C        3.8090     9.5780    -0.3880 C.ar  1 <1>  -0.1500 
 26 C        4.8610     4.2750    -0.5160 C.3   1 <1>  -0.1600 
 27 C        3.5920    10.0700     2.2320 C.ar  1 <1>   0.1600 
 28 C        4.8680    10.2120     0.2260 C.ar  1 <1>  -0.1500 
 29 C        4.7470    10.4580     1.5750 C.ar  1 <1>  -0.1500 
 30 H       -2.6800     3.0920     1.7070 H     1 <1>   0.3700 
 31 H        1.1930     2.5930     1.0340 H     1 <1>   0.0800 
 32 H        1.2710     2.7600     2.7730 H     1 <1>   0.0800 
 33 H       -1.8060     5.4580     1.8450 H     1 <1>   0.0800 
 34 H        0.2190     4.5400    -0.1620 H     1 <1>   0.0800 
 35 H       -1.8080     3.1010    -1.0470 H     1 <1>   0.1500 
 36 H       -3.1050     6.8950     0.4150 H     1 <1>   0.1500 
 37 H       -4.4500     7.0910    -1.6560 H     1 <1>   0.1500 
 38 H       -4.3920     5.2970    -3.3090 H     1 <1>   0.1500 
 39 H        3.3160     6.9890    -0.9910 H     1 <1>   0.0800 
 40 H        1.6180     8.6380    -1.4010 H     1 <1>   0.0800 
 41 H        0.6240     9.0080    -0.0440 H     1 <1>   0.0800 
 42 H        2.1440     4.2570    -0.7230 H     1 <1>   0.0800 
 43 H        1.9740     5.2870    -2.1340 H     1 <1>   0.0800 
 44 H        3.7150     6.9000     1.4320 H     1 <1>   0.0800 
 45 H        3.1160     5.2710     1.4600 H     1 <1>   0.0800 
 46 H        3.8560     3.6800    -2.3220 H     1 <1>   0.0800 
 47 H        4.4320     5.3210    -2.3460 H     1 <1>   0.0800 
 48 H        5.5120     6.2750    -0.0750 H     1 <1>   0.0800 
 49 H        5.5350     5.2130     1.3010 H     1 <1>   0.0800 
 50 H        3.8550     9.3640    -1.4400 H     1 <1>   0.1500 
 51 H        5.8430     3.9910    -0.8540 H     1 <1>   0.0800 
 52 H        4.4510     3.4440     0.0320 H     1 <1>   0.0800 
 53 H        3.5040    10.2680     3.2860 H     1 <1>   0.1500 
 54 H        5.7480    10.5010    -0.3230 H     1 <1>   0.1500 
 55 H        5.5350    10.9480     2.1170 H     1 <1>   0.1500 
@<TRIPOS>BOND
  1   1   2  2   
  2   2   3  am  
  3   2   4  1   
  4   3   5  1   
  5   3  30  1   
  6   4   6  1   
  7   4  31  1   
  8   4  32  1   
  9   5   7  1   
 10   5   8  1   
 11   5  33  1   
 12   6   8  1   
 13   7   9  ar  
 14   7  10  ar  
 15   8  11  1   
 16   8  34  1   
 17   9  12  ar  
 18   9  35  1   
 19  10  13  ar  
 20  10  36  1   
 21  11  14  2   
 22  11  15  am  
 23  12  16  ar  
 24  13  16  ar  
 25  13  37  1   
 26  15  17  1   
 27  15  18  1   
 28  16  38  1   
 29  17  19  1   
 30  17  20  1   
 31  17  39  1   
 32  18  21  1   
 33  18  40  1   
 34  18  41  1   
 35  19  22  1   
 36  19  42  1   
 37  19  43  1   
 38  20  23  1   
 39  20  44  1   
 40  20  45  1   
 41  21  24  ar  
 42  21  25  ar  
 43  22  26  1   
 44  22  46  1   
 45  22  47  1   
 46  23  26  1   
 47  23  48  1   
 48  23  49  1   
 49  24  27  ar  
 50  25  28  ar  
 51  25  50  1   
 52  26  51  1   
 53  26  52  1   
 54  27  29  ar  
 55  27  53  1   
 56  28  29  ar  
 57  28  54  1   
 58  29  55  1   
@<TRIPOS>SUBSTRUCTURE
  1 ****  11 GROUP 4 **** **** 0

# MOE 2024.06 (io_trps.svl 2023.06)
