@<TRIPOS>MOLECULE
NONAME
52 56 1 0 0 
SMALL
USER_CHARGES


@<TRIPOS>ATOM
  1 N        0.5180     0.1760     0.2510 N.ar  1 <1>  -0.6200 
  2 C       -0.5640     0.8060     0.7380 C.ar  1 <1>   0.6200 
  3 C        1.2350     0.8670    -0.5980 C.ar  1 <1>   0.1660 
  4 N       -0.9200     2.0620     0.4360 N.ar  1 <1>  -0.6200 
  5 C       -1.4130     0.0700     1.6650 C.ar  1 <1>   0.0000 
  6 C        0.9490     2.1450    -0.9600 C.ar  1 <1>  -0.1430 
  7 C        2.4810     0.3540    -1.2790 C.3   1 <1>   0.1440 
  8 C       -0.1640     2.7240    -0.4090 C.ar  1 <1>   0.1600 
  9 C       -2.7880     0.3090     1.7420 C.ar  1 <1>  -0.1500 
 10 C       -0.8960    -0.9090     2.5200 C.ar  1 <1>  -0.1500 
 11 C        1.9640     2.6890    -1.9340 C.3   1 <1>  -0.0160 
 12 C        3.3600    -0.3340    -0.2190 C.3   1 <1>   0.3430 
 13 C        2.1070    -0.6430    -2.3930 C.3   1 <1>  -0.1600 
 14 C        3.1060     1.6560    -1.8500 C.3   1 <1>  -0.1600 
 15 C       -3.6020    -0.3860     2.6180 C.ar  1 <1>  -0.1500 
 16 C       -1.7040    -1.6090     3.3980 C.ar  1 <1>  -0.1500 
 17 N        4.5760    -1.0030    -0.8150 N.4   1 <1>  -0.9590 
 18 C        3.3410    -1.3850    -2.9350 C.3   1 <1>  -0.1600 
 19 C       -3.0600    -1.3490     3.4490 C.ar  1 <1>  -0.1500 
 20 C        4.1560    -2.0360    -1.8140 C.3   1 <1>   0.3430 
 21 C        5.4440    -1.6420     0.2320 C.3   1 <1>   0.3430 
 22 C        6.0980    -0.6270     1.1810 C.3   1 <1>   0.0960 
 23 N        6.9380    -1.3610     2.1380 N.pl3 1 <1>   0.0480 
 24 C        6.5910    -1.8960     3.3110 C.2   1 <1>   0.0360 
 25 C        8.2190    -1.7160     2.0220 C.2   1 <1>   0.0360 
 26 N        7.5700    -2.5300     3.8510 N.2   1 <1>  -0.3380 
 27 N        8.6120    -2.4150     3.0270 N.2   1 <1>  -0.3380 
 28 H       -0.4400     3.7350    -0.6600 H     1 <1>   0.1500 
 29 H       -3.2290     1.0560     1.1030 H     1 <1>   0.1500 
 30 H        0.1560    -1.1250     2.4980 H     1 <1>   0.1500 
 31 H        2.2940     3.6770    -1.6580 H     1 <1>   0.0800 
 32 H        1.5380     2.7120    -2.9230 H     1 <1>   0.0800 
 33 H        2.7570    -1.0720     0.2850 H     1 <1>   0.0800 
 34 H        3.6530     0.4020     0.5110 H     1 <1>   0.0800 
 35 H        1.5980    -0.1330    -3.1940 H     1 <1>   0.0800 
 36 H        1.4160    -1.3680    -1.9930 H     1 <1>   0.0800 
 37 H        3.5700     1.5190    -2.8110 H     1 <1>   0.0800 
 38 H        3.8440     2.0380    -1.1650 H     1 <1>   0.0800 
 39 H       -4.6570    -0.1780     2.6530 H     1 <1>   0.1500 
 40 H       -1.2790    -2.3580     4.0440 H     1 <1>   0.1500 
 41 H        5.1150    -0.2940    -1.3320 H     1 <1>   0.4500 
 42 H        3.9690    -0.7170    -3.4970 H     1 <1>   0.0800 
 43 H        3.0130    -2.1540    -3.6150 H     1 <1>   0.0800 
 44 H       -3.6910    -1.8920     4.1310 H     1 <1>   0.1500 
 45 H        3.5540    -2.7900    -1.3300 H     1 <1>   0.0800 
 46 H        5.0230    -2.5190    -2.2380 H     1 <1>   0.0800 
 47 H        6.2270    -2.2030    -0.2540 H     1 <1>   0.0800 
 48 H        4.8520    -2.3330     0.8110 H     1 <1>   0.0800 
 49 H        5.3570    -0.0790     1.7340 H     1 <1>   0.0800 
 50 H        6.7200     0.0590     0.6350 H     1 <1>   0.0800 
 51 H        5.6120    -1.8090     3.7480 H     1 <1>   0.1500 
 52 H        8.8450    -1.4520     1.1880 H     1 <1>   0.1500 
@<TRIPOS>BOND
  1   1   2  ar  
  2   1   3  ar  
  3   2   4  ar  
  4   2   5  1   
  5   3   6  ar  
  6   3   7  1   
  7   4   8  ar  
  8   5   9  ar  
  9   5  10  ar  
 10   6   8  ar  
 11   6  11  1   
 12   7  12  1   
 13   7  13  1   
 14   7  14  1   
 15   8  28  1   
 16   9  15  ar  
 17   9  29  1   
 18  10  16  ar  
 19  10  30  1   
 20  11  14  1   
 21  11  31  1   
 22  11  32  1   
 23  12  17  1   
 24  12  33  1   
 25  12  34  1   
 26  13  18  1   
 27  13  35  1   
 28  13  36  1   
 29  14  37  1   
 30  14  38  1   
 31  15  19  ar  
 32  15  39  1   
 33  16  19  ar  
 34  16  40  1   
 35  17  20  1   
 36  17  21  1   
 37  17  41  1   
 38  18  20  1   
 39  18  42  1   
 40  18  43  1   
 41  19  44  1   
 42  20  45  1   
 43  20  46  1   
 44  21  22  1   
 45  21  47  1   
 46  21  48  1   
 47  22  23  1   
 48  22  49  1   
 49  22  50  1   
 50  23  24  1   
 51  23  25  1   
 52  24  26  2   
 53  24  51  1   
 54  25  27  2   
 55  25  52  1   
 56  26  27  1   
@<TRIPOS>SUBSTRUCTURE
  1 ****  12 GROUP 4 **** **** 0

# MOE 2024.06 (io_trps.svl 2023.06)
