@<TRIPOS>MOLECULE
NONAME
46 48 1 0 0 
SMALL
USER_CHARGES


@<TRIPOS>ATOM
  1 O        0.8790     0.6250     1.3090 O.co2 1 <1>  -0.9030 
  2 C        1.3000    -0.5380     1.1980 C.2   1 <1>   0.9770 
  3 O        0.5380    -1.4940     1.4060 O.co2 1 <1>  -0.9030 
  4 C        2.6880    -0.7630     0.8230 C.ar  1 <1>  -0.1870 
  5 C        3.5330     0.3140     0.5760 C.ar  1 <1>  -0.1170 
  6 C        3.2180    -2.0620     0.6990 C.ar  1 <1>  -0.1580 
  7 C        4.8490     0.0850     0.2190 C.ar  1 <1>   0.3020 
  8 C        4.5330    -2.2880     0.3430 C.ar  1 <1>  -0.1170 
  9 N        5.8830     0.9450    -0.0750 N.pl3 1 <1>  -0.7040 
 10 C        5.3530    -1.1930     0.0980 C.ar  1 <1>   0.3020 
 11 C        6.9760     0.2400    -0.3470 C.cat 1 <1>   1.0690 
 12 N        6.6890    -1.0760    -0.2780 N.pl3 1 <1>  -0.7680 
 13 N        8.1610     0.8170    -0.6350 N.pl3 1 <1>  -0.5970 
 14 C        7.4710    -2.2470    -0.7510 C.3   1 <1>   0.2670 
 15 C        8.2690     2.2270    -1.1330 C.3   1 <1>   0.1600 
 16 C        9.4980     0.1990    -0.3890 C.3   1 <1>   0.1600 
 17 C        9.0290     3.1100    -0.1360 C.3   1 <1>   0.1920 
 18 C       10.3020     1.0550     0.5980 C.3   1 <1>  -0.1680 
 19 O        9.1510     4.3600    -0.7290 O.3   1 <1>  -0.5650 
 20 C       10.4180     2.5210     0.1520 C.3   1 <1>  -0.1680 
 21 C        9.4740     5.4110     0.1280 C.3   1 <1>   0.1120 
 22 C        9.4150     6.7060    -0.6800 C.3   1 <1>  -0.1680 
 23 C        9.7520     7.9200     0.1910 C.3   1 <1>  -0.2470 
 24 H        3.1560     1.3200     0.6640 H     1 <1>   0.1420 
 25 H        2.5580    -2.8940     0.8940 H     1 <1>   0.1420 
 26 H        4.9090    -3.2900     0.2590 H     1 <1>   0.1420 
 27 H        5.8190     1.9580    -0.0340 H     1 <1>   0.4440 
 28 H        6.8130    -2.9740    -1.1980 H     1 <1>   0.0710 
 29 H        7.9810    -2.7060     0.0790 H     1 <1>   0.0710 
 30 H        8.1890    -1.9480    -1.4950 H     1 <1>   0.0710 
 31 H        7.2990     2.6530    -1.3170 H     1 <1>   0.0710 
 32 H        8.8070     2.2210    -2.0660 H     1 <1>   0.0710 
 33 H       10.0320     0.1230    -1.3230 H     1 <1>   0.0710 
 34 H        9.4020    -0.7840     0.0310 H     1 <1>   0.0710 
 35 H        8.4550     3.2130     0.7690 H     1 <1>   0.0710 
 36 H       11.2900     0.6400     0.7010 H     1 <1>   0.0710 
 37 H        9.8340     1.0100     1.5670 H     1 <1>   0.0710 
 38 H       10.9080     3.0830     0.9270 H     1 <1>   0.0710 
 39 H       11.0180     2.5750    -0.7410 H     1 <1>   0.0710 
 40 H       10.4660     5.2590     0.5150 H     1 <1>   0.0710 
 41 H        8.7620     5.4400     0.9340 H     1 <1>   0.0710 
 42 H        8.4270     6.8260    -1.0880 H     1 <1>   0.0710 
 43 H       10.1180     6.6470    -1.4930 H     1 <1>   0.0710 
 44 H        9.0520     8.0080     1.0030 H     1 <1>   0.0710 
 45 H        9.7050     8.8180    -0.4000 H     1 <1>   0.0710 
 46 H       10.7450     7.8290     0.5950 H     1 <1>   0.0710 
@<TRIPOS>BOND
  1   1   2  ar  
  2   2   3  ar  
  3   2   4  1   
  4   4   5  ar  
  5   4   6  ar  
  6   5   7  ar  
  7   5  24  1   
  8   6   8  ar  
  9   6  25  1   
 10   7   9  1   
 11   7  10  ar  
 12   8  10  ar  
 13   8  26  1   
 14   9  11  ar  
 15   9  27  1   
 16  10  12  1   
 17  11  12  ar  
 18  11  13  ar  
 19  12  14  1   
 20  13  15  1   
 21  13  16  1   
 22  14  28  1   
 23  14  29  1   
 24  14  30  1   
 25  15  17  1   
 26  15  31  1   
 27  15  32  1   
 28  16  18  1   
 29  16  33  1   
 30  16  34  1   
 31  17  19  1   
 32  17  20  1   
 33  17  35  1   
 34  18  20  1   
 35  18  36  1   
 36  18  37  1   
 37  19  21  1   
 38  20  38  1   
 39  20  39  1   
 40  21  22  1   
 41  21  40  1   
 42  21  41  1   
 43  22  23  1   
 44  22  42  1   
 45  22  43  1   
 46  23  44  1   
 47  23  45  1   
 48  23  46  1   
@<TRIPOS>SUBSTRUCTURE
  1 ****   9 GROUP 4 **** **** 0

# MOE 2024.06 (io_trps.svl 2023.06)
