@<TRIPOS>MOLECULE
NONAME
38 39 1 0 0 
SMALL
USER_CHARGES


@<TRIPOS>ATOM
  1 F        1.2460    -1.1210     1.9620 F     1 <1>  -0.1900 
  2 C        0.6940    -1.9920     1.1620 C.ar  1 <1>   0.1900 
  3 C        1.4110    -3.1170     0.8110 C.ar  1 <1>  -0.1500 
  4 C       -0.5860    -1.7510     0.7010 C.ar  1 <1>  -0.1500 
  5 C        0.8170    -4.0450    -0.0410 C.ar  1 <1>   0.0830 
  6 C       -1.1710    -2.6770    -0.1480 C.ar  1 <1>  -0.1500 
  7 O        1.4380    -5.1830    -0.4410 O.3   1 <1>  -0.3630 
  8 C       -0.4740    -3.8220    -0.5180 C.ar  1 <1>  -0.1440 
  9 C        2.7850    -5.4470    -0.1000 C.3   1 <1>   0.0400 
 10 C       -1.1100    -4.8280    -1.4590 C.3   1 <1>   0.4870 
 11 N       -2.0380    -5.6940    -0.6940 N.4   1 <1>  -0.9590 
 12 C       -1.2630    -6.6330     0.2110 C.3   1 <1>   0.3430 
 13 C       -2.9670    -6.4370    -1.5900 C.3   1 <1>   0.3430 
 14 C       -1.9940    -7.9570     0.5160 C.3   1 <1>   0.2000 
 15 C       -4.0520    -7.1170    -0.7480 C.3   1 <1>  -0.1600 
 16 O       -1.7190    -8.8540    -0.5030 O.3   1 <1>  -0.6800 
 17 C       -3.5110    -7.7410     0.5660 C.3   1 <1>  -0.1860 
 18 C       -4.2020    -9.0420     0.9100 C.2   1 <1>   0.9060 
 19 O       -4.9760    -9.0540     1.8650 O.co2 1 <1>  -0.9000 
 20 O       -3.9400   -10.0340     0.2210 O.co2 1 <1>  -0.9000 
 21 H        2.4020    -3.2390     1.2050 H     1 <1>   0.1500 
 22 H       -1.1030    -0.8560     1.0000 H     1 <1>   0.1500 
 23 H       -2.1660    -2.4880    -0.5160 H     1 <1>   0.1500 
 24 H        3.0720    -6.3770    -0.5590 H     1 <1>   0.0800 
 25 H        2.8690    -5.5290     0.9690 H     1 <1>   0.0800 
 26 H        3.4050    -4.6510    -0.4740 H     1 <1>   0.0800 
 27 H       -0.3510    -5.4290    -1.9340 H     1 <1>   0.0800 
 28 H       -1.6500    -4.2980    -2.2260 H     1 <1>   0.0800 
 29 H       -2.6110    -5.0990    -0.0870 H     1 <1>   0.4500 
 30 H       -0.3140    -6.8800    -0.2340 H     1 <1>   0.0800 
 31 H       -1.0630    -6.1270     1.1400 H     1 <1>   0.0800 
 32 H       -3.4260    -5.7750    -2.3060 H     1 <1>   0.0800 
 33 H       -2.4150    -7.1930    -2.1270 H     1 <1>   0.0800 
 34 H       -1.6350    -8.3930     1.4340 H     1 <1>   0.0800 
 35 H       -4.8390    -6.4220    -0.5180 H     1 <1>   0.0800 
 36 H       -4.4890    -7.8930    -1.3540 H     1 <1>   0.0800 
 37 H       -2.4140    -9.5800    -0.4190 H     1 <1>   0.4000 
 38 H       -3.7170    -7.0640     1.3740 H     1 <1>   0.0800 
@<TRIPOS>BOND
  1   1   2  1   
  2   2   3  ar  
  3   2   4  ar  
  4   3   5  ar  
  5   3  21  1   
  6   4   6  ar  
  7   4  22  1   
  8   5   7  1   
  9   5   8  ar  
 10   6   8  ar  
 11   6  23  1   
 12   7   9  1   
 13   8  10  1   
 14   9  24  1   
 15   9  25  1   
 16   9  26  1   
 17  10  11  1   
 18  10  27  1   
 19  10  28  1   
 20  11  12  1   
 21  11  13  1   
 22  11  29  1   
 23  12  14  1   
 24  12  30  1   
 25  12  31  1   
 26  13  15  1   
 27  13  32  1   
 28  13  33  1   
 29  14  16  1   
 30  14  17  1   
 31  14  34  1   
 32  15  17  1   
 33  15  35  1   
 34  15  36  1   
 35  16  37  1   
 36  17  18  1   
 37  17  38  1   
 38  18  19  ar  
 39  18  20  ar  
@<TRIPOS>SUBSTRUCTURE
  1 ****  12 GROUP 4 **** **** 0

# MOE 2024.06 (io_trps.svl 2023.06)
