@<TRIPOS>MOLECULE
NONAME
50 51 1 0 0 
SMALL
USER_CHARGES


@<TRIPOS>ATOM
  1 F       -0.2520     1.6140    -1.3130 F     1 <1>  -0.1900 
  2 C       -1.5100     1.5340    -0.9610 C.ar  1 <1>   0.1900 
  3 C       -1.9780     2.0630     0.2480 C.ar  1 <1>   0.0830 
  4 C       -2.3580     0.9000    -1.8490 C.ar  1 <1>  -0.1500 
  5 O       -1.2460     2.7090     1.2010 O.3   1 <1>  -0.3630 
  6 C       -3.3280     1.9280     0.5270 C.ar  1 <1>  -0.1500 
  7 C       -3.7000     0.7840    -1.5380 C.ar  1 <1>  -0.1500 
  8 C        0.1470     2.9060     1.0980 C.3   1 <1>   0.0400 
  9 C       -4.2130     1.2890    -0.3430 C.ar  1 <1>   0.0530 
 10 C       -5.6100     1.1820    -0.0080 C.2   1 <1>   0.0870 
 11 O       -6.2420     2.2430     0.4230 O.3   1 <1>  -0.0190 
 12 C       -6.5110     0.1600    -0.0170 C.2   1 <1>  -0.0860 
 13 N       -7.4990     2.0170     0.6900 N.2   1 <1>  -0.4100 
 14 C       -7.6920     0.7730     0.4290 C.2   1 <1>   0.3720 
 15 C       -6.3610    -1.2240    -0.3530 C.2   1 <1>   0.7160 
 16 N       -8.9460     0.1450     0.5690 N.pl3 1 <1>  -0.8210 
 17 O       -5.4200    -1.6330    -1.0050 O.2   1 <1>  -0.5700 
 18 N       -7.3020    -2.1150     0.0470 N.am  1 <1>  -0.7300 
 19 C       -9.8230     0.7400     1.6200 C.3   1 <1>   0.1290 
 20 C       -9.6780    -0.0020    -0.7230 C.3   1 <1>   0.1290 
 21 C       -7.5620    -3.4360    -0.5830 C.3   1 <1>   0.2810 
 22 C       -9.0690    -3.6920    -0.8290 C.2   1 <1>   0.5690 
 23 C       -6.8780    -4.5320     0.2420 C.3   1 <1>  -0.2400 
 24 O       -9.3790    -3.9930    -1.9600 O.2   1 <1>  -0.5700 
 25 N      -10.0360    -3.5670     0.1550 N.am  1 <1>  -0.6600 
 26 C       -9.8070    -3.2320     1.5910 C.3   1 <1>   0.0600 
 27 C      -11.4740    -3.8250    -0.1500 C.3   1 <1>   0.0600 
 28 H       -1.9700     0.5030    -2.7700 H     1 <1>   0.1500 
 29 H       -3.7030     2.3310     1.4510 H     1 <1>   0.1500 
 30 H       -4.3610     0.2940    -2.2320 H     1 <1>   0.1500 
 31 H        0.4780     3.4210     1.9820 H     1 <1>   0.0800 
 32 H        0.3520     3.5070     0.2290 H     1 <1>   0.0800 
 33 H        0.6330     1.9490     1.0290 H     1 <1>   0.0800 
 34 H       -8.1390    -1.6700     0.4530 H     1 <1>   0.3700 
 35 H       -9.2740     0.8340     2.5420 H     1 <1>   0.0800 
 36 H      -10.6790     0.1110     1.7890 H     1 <1>   0.0800 
 37 H      -10.1560     1.7180     1.3170 H     1 <1>   0.0800 
 38 H       -9.0150    -0.3600    -1.4920 H     1 <1>   0.0800 
 39 H      -10.0800     0.9480    -1.0310 H     1 <1>   0.0800 
 40 H      -10.4830    -0.7090    -0.6120 H     1 <1>   0.0800 
 41 H       -7.0940    -3.4330    -1.5530 H     1 <1>   0.0800 
 42 H       -7.2860    -4.5990     1.2310 H     1 <1>   0.0800 
 43 H       -5.8230    -4.3340     0.3050 H     1 <1>   0.0800 
 44 H       -7.0150    -5.4800    -0.2460 H     1 <1>   0.0800 
 45 H       -8.7660    -3.1250     1.8240 H     1 <1>   0.0800 
 46 H      -10.2110    -4.0120     2.2120 H     1 <1>   0.0800 
 47 H      -10.3030    -2.3070     1.8270 H     1 <1>   0.0800 
 48 H      -11.6280    -3.9920    -1.2020 H     1 <1>   0.0800 
 49 H      -12.0690    -2.9800     0.1490 H     1 <1>   0.0800 
 50 H      -11.8070    -4.6980     0.3840 H     1 <1>   0.0800 
@<TRIPOS>BOND
  1   1   2  1   
  2   2   3  ar  
  3   2   4  ar  
  4   3   5  1   
  5   3   6  ar  
  6   4   7  ar  
  7   4  28  1   
  8   5   8  1   
  9   6   9  ar  
 10   6  29  1   
 11   7   9  ar  
 12   7  30  1   
 13   8  31  1   
 14   8  32  1   
 15   8  33  1   
 16   9  10  1   
 17  10  11  1   
 18  10  12  2   
 19  11  13  1   
 20  12  14  1   
 21  12  15  1   
 22  13  14  2   
 23  14  16  1   
 24  15  17  2   
 25  15  18  am  
 26  16  19  1   
 27  16  20  1   
 28  18  21  1   
 29  18  34  1   
 30  19  35  1   
 31  19  36  1   
 32  19  37  1   
 33  20  38  1   
 34  20  39  1   
 35  20  40  1   
 36  21  22  1   
 37  21  23  1   
 38  21  41  1   
 39  22  24  2   
 40  22  25  am  
 41  23  42  1   
 42  23  43  1   
 43  23  44  1   
 44  25  26  1   
 45  25  27  1   
 46  26  45  1   
 47  26  46  1   
 48  26  47  1   
 49  27  48  1   
 50  27  49  1   
 51  27  50  1   
@<TRIPOS>SUBSTRUCTURE
  1 ****  12 GROUP 4 **** **** 0

# MOE 2024.06 (io_trps.svl 2023.06)
