@<TRIPOS>MOLECULE
NONAME
49 52 1 0 0 
SMALL
USER_CHARGES


@<TRIPOS>ATOM
  1 O       -0.6680     0.7610    -1.3190 O.2   1 <1>  -0.5700 
  2 C       -1.6870     1.2430    -0.8590 C.2   1 <1>   0.5440 
  3 N       -2.8980     0.6320    -1.1220 N.am  1 <1>  -0.6600 
  4 C       -1.5870     2.4290    -0.0450 C.ar  1 <1>   0.0860 
  5 C       -3.0240    -0.4600    -2.1300 C.3   1 <1>   0.1400 
  6 C       -4.1210     0.8190    -0.2930 C.3   1 <1>   0.1400 
  7 C       -0.6850     2.4790     1.0150 C.ar  1 <1>   0.1600 
  8 C       -2.3580     3.5660    -0.2700 C.ar  1 <1>  -0.1500 
  9 C       -3.3310    -1.7800    -1.4180 C.3   1 <1>  -0.1600 
 10 C       -4.4350    -0.4830     0.4470 C.3   1 <1>  -0.1600 
 11 N       -0.5120     3.4960     1.8430 N.ar  1 <1>  -0.6200 
 12 C       -2.1900     4.6350     0.5760 C.ar  1 <1>  -0.1500 
 13 C       -4.5750    -1.6780    -0.5180 C.3   1 <1>   0.4240 
 14 C       -1.2670     4.5540     1.6130 C.ar  1 <1>   0.4100 
 15 O       -5.6150    -1.3530    -1.4160 O.3   1 <1>  -0.5600 
 16 C       -4.8550    -3.0170     0.2240 C.ar  1 <1>  -0.1430 
 17 N       -1.0680     5.5810     2.4680 N.pl3 1 <1>  -0.9000 
 18 C       -6.9220    -1.6190    -1.0240 C.3   1 <1>   0.1200 
 19 C       -3.9390    -3.5780     1.1260 C.ar  1 <1>   0.0830 
 20 C       -6.0510    -3.6980     0.0000 C.ar  1 <1>  -0.1430 
 21 C       -7.0900    -3.1280    -0.9430 C.3   1 <1>  -0.0170 
 22 O       -2.7770    -2.9210     1.3780 O.3   1 <1>  -0.3620 
 23 C       -4.2250    -4.7880     1.7570 C.ar  1 <1>  -0.1500 
 24 C       -6.3230    -4.9010     0.6300 C.ar  1 <1>  -0.1500 
 25 C       -1.7230    -3.4880     2.1240 C.3   1 <1>   0.0400 
 26 C       -5.4100    -5.4480     1.5070 C.ar  1 <1>  -0.1500 
 27 H       -2.1180    -0.5580    -2.7020 H     1 <1>   0.0800 
 28 H       -3.8190    -0.2160    -2.8130 H     1 <1>   0.0800 
 29 H       -4.9440     1.0870    -0.9350 H     1 <1>   0.0800 
 30 H       -3.9870     1.6050     0.4280 H     1 <1>   0.0800 
 31 H       -0.0710     1.6090     1.1800 H     1 <1>   0.1500 
 32 H       -3.0590     3.5930    -1.0860 H     1 <1>   0.1500 
 33 H       -2.4630    -2.0450    -0.8490 H     1 <1>   0.0800 
 34 H       -3.4860    -2.5570    -2.1430 H     1 <1>   0.0800 
 35 H       -5.3310    -0.3730     1.0260 H     1 <1>   0.0800 
 36 H       -3.6380    -0.6590     1.1420 H     1 <1>   0.0800 
 37 H       -2.7630     5.5350     0.4530 H     1 <1>   0.1500 
 38 H       -1.1760     6.5390     2.1380 H     1 <1>   0.4000 
 39 H       -0.2810     5.4420     3.1040 H     1 <1>   0.4000 
 40 H       -7.5810    -1.2040    -1.7650 H     1 <1>   0.0800 
 41 H       -7.1140    -1.1530    -0.0740 H     1 <1>   0.0800 
 42 H       -6.9710    -3.5570    -1.9220 H     1 <1>   0.0800 
 43 H       -8.0800    -3.3530    -0.5900 H     1 <1>   0.0800 
 44 H       -3.5390    -5.2340     2.4500 H     1 <1>   0.1500 
 45 H       -7.2470    -5.4180     0.4400 H     1 <1>   0.1500 
 46 H       -0.8950    -2.8020     2.1040 H     1 <1>   0.0800 
 47 H       -1.4360    -4.4200     1.6710 H     1 <1>   0.0800 
 48 H       -2.0510    -3.6340     3.1380 H     1 <1>   0.0800 
 49 H       -5.6240    -6.3820     1.9960 H     1 <1>   0.1500 
@<TRIPOS>BOND
  1   1   2  2   
  2   2   3  am  
  3   2   4  1   
  4   3   5  1   
  5   3   6  1   
  6   4   7  ar  
  7   4   8  ar  
  8   5   9  1   
  9   5  27  1   
 10   5  28  1   
 11   6  10  1   
 12   6  29  1   
 13   6  30  1   
 14   7  11  ar  
 15   7  31  1   
 16   8  12  ar  
 17   8  32  1   
 18   9  13  1   
 19   9  33  1   
 20   9  34  1   
 21  10  13  1   
 22  10  35  1   
 23  10  36  1   
 24  11  14  ar  
 25  12  14  ar  
 26  12  37  1   
 27  13  15  1   
 28  13  16  1   
 29  14  17  1   
 30  15  18  1   
 31  16  19  ar  
 32  16  20  ar  
 33  17  38  1   
 34  17  39  1   
 35  18  21  1   
 36  18  40  1   
 37  18  41  1   
 38  19  22  1   
 39  19  23  ar  
 40  20  21  1   
 41  20  24  ar  
 42  21  42  1   
 43  21  43  1   
 44  22  25  1   
 45  23  26  ar  
 46  23  44  1   
 47  24  26  ar  
 48  24  45  1   
 49  25  46  1   
 50  25  47  1   
 51  25  48  1   
 52  26  49  1   
@<TRIPOS>SUBSTRUCTURE
  1 ****  10 GROUP 4 **** **** 0

# MOE 2024.06 (io_trps.svl 2023.06)
