@<TRIPOS>MOLECULE
NONAME
47 50 1 0 0 
SMALL
USER_CHARGES


@<TRIPOS>ATOM
  1 O       -0.7830    -0.4840     0.7620 O.2   1 <1>  -0.5750 
  2 C       -1.9690    -0.4080     0.5440 C.2   1 <1>   0.6860 
  3 N       -2.7710    -1.5310     0.4020 N.am  1 <1>  -0.4420 
  4 N       -2.5320     0.8300     0.4370 N.am  1 <1>  -0.4950 
  5 C       -4.1210    -1.3280     0.1560 C.2   1 <1>   0.4200 
  6 C       -2.2060    -2.9070     0.5240 C.3   1 <1>   0.0520 
  7 C       -3.8590     1.0450     0.1980 C.2   1 <1>   0.6990 
  8 N       -5.0820    -2.2740    -0.0070 N.pl3 1 <1>  -0.7040 
  9 C       -4.6970    -0.1100     0.0470 C.2   1 <1>   0.2700 
 10 O       -4.2650     2.1880     0.1290 O.2   1 <1>  -0.5750 
 11 C       -6.2540    -1.6670    -0.2050 C.cat 1 <1>   1.0690 
 12 N       -6.0690    -0.3350    -0.2000 N.pl3 1 <1>  -0.7680 
 13 N       -7.4090    -2.3510    -0.3640 N.pl3 1 <1>  -0.5970 
 14 C       -7.0190     0.7870    -0.4540 C.3   1 <1>   0.2670 
 15 C       -8.7940    -1.8000    -0.2830 C.3   1 <1>   0.1600 
 16 C       -7.5010    -3.8320    -0.3640 C.3   1 <1>   0.1600 
 17 C       -9.7120    -2.9980    -0.0040 C.3   1 <1>   0.1920 
 18 C       -8.7820    -4.1350     0.4050 C.3   1 <1>  -0.0880 
 19 O      -10.6030    -2.7180     1.0160 O.3   1 <1>  -0.6840 
 20 C       -9.3320    -5.5480     0.1510 C.3   1 <1>   0.0110 
 21 C       -8.2110    -6.5670     0.2580 C.2   1 <1>  -0.0490 
 22 O       -7.3820    -6.5210     1.2680 O.3   1 <1>  -0.0280 
 23 C       -7.8260    -7.5700    -0.5440 C.2   1 <1>  -0.1580 
 24 N       -6.4470    -7.4170     1.1690 N.2   1 <1>  -0.4160 
 25 C       -6.6980    -8.0770     0.0940 C.2   1 <1>   0.1000 
 26 C       -5.8720    -9.2430    -0.4050 C.3   1 <1>  -0.0680 
 27 H       -1.9180     1.6350     0.5480 H     1 <1>   0.3640 
 28 H       -2.6430    -3.4090     1.3690 H     1 <1>   0.0720 
 29 H       -1.1380    -2.8730     0.6640 H     1 <1>   0.0720 
 30 H       -2.4090    -3.4670    -0.3720 H     1 <1>   0.0720 
 31 H       -4.9510    -3.2800     0.0460 H     1 <1>   0.4440 
 32 H       -6.4980     1.6380    -0.8590 H     1 <1>   0.0720 
 33 H       -7.4950     1.0830     0.4660 H     1 <1>   0.0720 
 34 H       -7.7680     0.4980    -1.1680 H     1 <1>   0.0720 
 35 H       -8.8620    -1.0810     0.5160 H     1 <1>   0.0720 
 36 H       -9.0680    -1.3470    -1.2200 H     1 <1>   0.0720 
 37 H       -7.5830    -4.1840    -1.3800 H     1 <1>   0.0720 
 38 H       -6.6550    -4.2990     0.1090 H     1 <1>   0.0720 
 39 H      -10.2790    -3.2390    -0.8880 H     1 <1>   0.0720 
 40 H       -8.5450    -4.0460     1.4520 H     1 <1>   0.0720 
 41 H      -10.1940    -2.8260     1.8970 H     1 <1>   0.3940 
 42 H       -9.7720    -5.6130    -0.8290 H     1 <1>   0.0720 
 43 H      -10.0940    -5.7750     0.8760 H     1 <1>   0.0720 
 44 H       -8.2510    -7.9230    -1.4660 H     1 <1>   0.1420 
 45 H       -6.4840   -10.1240    -0.4600 H     1 <1>   0.0720 
 46 H       -5.0540    -9.4300     0.2670 H     1 <1>   0.0720 
 47 H       -5.4790    -9.0230    -1.3800 H     1 <1>   0.0720 
@<TRIPOS>BOND
  1   1   2  2   
  2   2   3  am  
  3   2   4  am  
  4   3   5  1   
  5   3   6  1   
  6   4   7  am  
  7   4  27  1   
  8   5   8  1   
  9   5   9  2   
 10   6  28  1   
 11   6  29  1   
 12   6  30  1   
 13   7   9  1   
 14   7  10  2   
 15   8  11  ar  
 16   8  31  1   
 17   9  12  1   
 18  11  12  ar  
 19  11  13  ar  
 20  12  14  1   
 21  13  15  1   
 22  13  16  1   
 23  14  32  1   
 24  14  33  1   
 25  14  34  1   
 26  15  17  1   
 27  15  35  1   
 28  15  36  1   
 29  16  18  1   
 30  16  37  1   
 31  16  38  1   
 32  17  18  1   
 33  17  19  1   
 34  17  39  1   
 35  18  20  1   
 36  18  40  1   
 37  19  41  1   
 38  20  21  1   
 39  20  42  1   
 40  20  43  1   
 41  21  22  1   
 42  21  23  2   
 43  22  24  1   
 44  23  25  1   
 45  23  44  1   
 46  24  25  2   
 47  25  26  1   
 48  26  45  1   
 49  26  46  1   
 50  26  47  1   
@<TRIPOS>SUBSTRUCTURE
  1 ****   8 GROUP 4 **** **** 0

# MOE 2024.06 (io_trps.svl 2023.06)
