@<TRIPOS>MOLECULE
NONAME
41 44 1 0 0 
SMALL
USER_CHARGES


@<TRIPOS>ATOM
  1 S       -0.2530    -0.8020    -0.4500 S.3   1 <1>  -0.0800 
  2 C       -1.9590    -0.3610    -0.5880 C.2   1 <1>   0.0400 
  3 C        0.2650     0.8640    -0.6180 C.2   1 <1>  -0.1100 
  4 C       -2.9600    -1.3890    -0.5190 C.2   1 <1>   0.1400 
  5 C       -2.0480     0.9830    -0.7500 C.2   1 <1>  -0.1500 
  6 C       -0.7990     1.6730    -0.7670 C.2   1 <1>  -0.1500 
  7 O       -2.6230    -2.6620    -0.3540 O.3   1 <1>  -0.2800 
  8 C       -4.3150    -1.3070    -0.5980 C.2   1 <1>  -0.1500 
  9 C       -3.7160    -3.3950    -0.3240 C.2   1 <1>  -0.0400 
 10 C       -4.8050    -2.6080    -0.4710 C.2   1 <1>  -0.1500 
 11 C       -3.5600    -4.8950    -0.1410 C.3   1 <1>   0.0200 
 12 C       -4.9110    -5.6240    -0.1270 C.3   1 <1>  -0.0990 
 13 C       -4.7950    -7.1250     0.0830 C.2   1 <1>   0.5690 
 14 O       -3.7010    -7.6410     0.0330 O.2   1 <1>  -0.5700 
 15 N       -5.9250    -7.8420     0.3210 N.am  1 <1>  -0.6600 
 16 C       -7.3210    -7.3200     0.3110 C.3   1 <1>   0.2350 
 17 C       -5.9420    -9.3180     0.5210 C.3   1 <1>   0.2350 
 18 C       -8.1990    -8.5140    -0.0040 C.3   1 <1>  -0.2420 
 19 C       -7.3490    -9.7550     0.1440 C.3   1 <1>  -0.2420 
 20 C       -9.6560    -8.1950     0.3380 C.2   1 <1>   0.9470 
 21 C       -7.9190    -9.3880    -1.2020 C.3   1 <1>  -0.2000 
 22 C       -7.6750   -11.1210     0.7510 C.2   1 <1>   0.9470 
 23 O      -10.5230    -8.2750    -0.5440 O.co2 1 <1>  -0.9000 
 24 O       -9.9110    -7.6790     1.4350 O.co2 1 <1>  -0.9000 
 25 O       -7.9490   -12.0700     0.0030 O.co2 1 <1>  -0.9000 
 26 O       -7.5050   -11.2920     1.9650 O.co2 1 <1>  -0.9000 
 27 H        1.3220     1.0600    -0.5870 H     1 <1>   0.1500 
 28 H       -2.9720     1.5210    -0.8600 H     1 <1>   0.1500 
 29 H       -0.7550     2.7410    -0.8900 H     1 <1>   0.1500 
 30 H       -4.9130    -0.4250    -0.7310 H     1 <1>   0.1500 
 31 H       -5.8440    -2.8860    -0.4910 H     1 <1>   0.1500 
 32 H       -2.9510    -5.2800    -0.9400 H     1 <1>   0.0800 
 33 H       -3.0440    -5.0800     0.7850 H     1 <1>   0.0800 
 34 H       -5.4110    -5.4560    -1.0620 H     1 <1>   0.0800 
 35 H       -5.5140    -5.2190     0.6640 H     1 <1>   0.0800 
 36 H       -7.5620    -6.9330     1.2870 H     1 <1>   0.0800 
 37 H       -7.4600    -6.5550    -0.4320 H     1 <1>   0.0800 
 38 H       -5.2090    -9.8040    -0.0980 H     1 <1>   0.0800 
 39 H       -5.7470    -9.5380     1.5570 H     1 <1>   0.0800 
 40 H       -7.2640    -9.0360    -1.9760 H     1 <1>   0.1000 
 41 H       -8.7240    -9.9940    -1.5840 H     1 <1>   0.1000 
@<TRIPOS>BOND
  1   1   2  1   
  2   1   3  1   
  3   2   4  1   
  4   2   5  2   
  5   3   6  2   
  6   3  27  1   
  7   4   7  1   
  8   4   8  2   
  9   5   6  1   
 10   5  28  1   
 11   6  29  1   
 12   7   9  1   
 13   8  10  1   
 14   8  30  1   
 15   9  10  2   
 16   9  11  1   
 17  10  31  1   
 18  11  12  1   
 19  11  32  1   
 20  11  33  1   
 21  12  13  1   
 22  12  34  1   
 23  12  35  1   
 24  13  14  2   
 25  13  15  am  
 26  15  16  1   
 27  15  17  1   
 28  16  18  1   
 29  16  36  1   
 30  16  37  1   
 31  17  19  1   
 32  17  38  1   
 33  17  39  1   
 34  18  19  1   
 35  18  20  1   
 36  18  21  1   
 37  19  21  1   
 38  19  22  1   
 39  20  23  ar  
 40  20  24  ar  
 41  21  40  1   
 42  21  41  1   
 43  22  25  ar  
 44  22  26  ar  
@<TRIPOS>SUBSTRUCTURE
  1 ****  12 GROUP 4 **** **** 0

# MOE 2024.06 (io_trps.svl 2023.06)
