@<TRIPOS>MOLECULE
NONAME
51 53 1 0 0 
SMALL
USER_CHARGES


@<TRIPOS>ATOM
  1 CL      -1.2000    -7.8400     0.3310 Cl    1 <1>  -0.1770 
  2 C       -1.4100    -6.2500    -0.3530 C.ar  1 <1>   0.1770 
  3 C       -1.4890    -5.1550     0.4870 C.ar  1 <1>  -0.1500 
  4 C       -1.5000    -6.1100    -1.7250 C.ar  1 <1>  -0.1500 
  5 C       -1.6700    -3.8890    -0.0510 C.ar  1 <1>  -0.1440 
  6 C       -1.6720    -4.8470    -2.2640 C.ar  1 <1>  -0.1500 
  7 C       -1.7550    -3.7440    -1.4300 C.ar  1 <1>  -0.1500 
  8 C       -1.7770    -2.6720     0.8660 C.3   1 <1>   0.0450 
  9 C       -2.7290    -2.8720     2.0440 C.2   1 <1>   0.5690 
 10 O       -2.2320    -2.8180     3.1450 O.2   1 <1>  -0.5700 
 11 N       -4.0810    -3.0930     1.8770 N.am  1 <1>  -0.6600 
 12 C       -4.7450    -3.1350     0.5370 C.3   1 <1>   0.2200 
 13 C       -4.9320    -3.3190     3.0880 C.3   1 <1>   0.0600 
 14 C       -6.0590    -2.3630     0.4480 C.3   1 <1>  -0.1600 
 15 C       -5.1270    -4.5470     0.1100 C.3   1 <1>  -0.1600 
 16 C       -6.7530    -2.9400    -0.7960 C.3   1 <1>  -0.0800 
 17 C       -6.1540    -4.3410    -1.0120 C.3   1 <1>  -0.0800 
 18 C       -8.2660    -3.1340    -0.6310 C.3   1 <1>  -0.1600 
 19 C       -7.3220    -5.3330    -0.9710 C.3   1 <1>  -0.1600 
 20 C       -8.4220    -4.5970    -0.2130 C.3   1 <1>   0.4230 
 21 N       -9.7810    -5.1760    -0.4490 N.4   1 <1>  -0.9590 
 22 C      -10.2790    -5.0970    -1.8630 C.3   1 <1>   0.2630 
 23 C      -10.7840    -4.5660     0.4790 C.3   1 <1>   0.2630 
 24 H       -1.4130    -5.3010     1.5510 H     1 <1>   0.1500 
 25 H       -1.4340    -6.9780    -2.3560 H     1 <1>   0.1500 
 26 H       -1.7380    -4.7230    -3.3320 H     1 <1>   0.1500 
 27 H       -1.8830    -2.7680    -1.8660 H     1 <1>   0.1500 
 28 H       -2.0930    -1.8060     0.3170 H     1 <1>   0.0800 
 29 H       -0.7980    -2.4580     1.2540 H     1 <1>   0.0800 
 30 H       -4.0920    -2.7280    -0.2140 H     1 <1>   0.0800 
 31 H       -5.6860    -4.0580     2.8950 H     1 <1>   0.0800 
 32 H       -5.4010    -2.3940     3.3750 H     1 <1>   0.0800 
 33 H       -4.3340    -3.6650     3.9140 H     1 <1>   0.0800 
 34 H       -6.6640    -2.5380     1.3170 H     1 <1>   0.0800 
 35 H       -5.8810    -1.3070     0.3450 H     1 <1>   0.0800 
 36 H       -4.2720    -5.0950    -0.2440 H     1 <1>   0.0800 
 37 H       -5.5660    -5.0760     0.9350 H     1 <1>   0.0800 
 38 H       -6.5410    -2.3120    -1.6470 H     1 <1>   0.0800 
 39 H       -5.6500    -4.3850    -1.9650 H     1 <1>   0.0800 
 40 H       -8.7260    -2.9530    -1.5850 H     1 <1>   0.0800 
 41 H       -8.6800    -2.4580     0.0960 H     1 <1>   0.0800 
 42 H       -7.0480    -6.2550    -0.4900 H     1 <1>   0.0800 
 43 H       -7.6160    -5.5360    -1.9840 H     1 <1>   0.0800 
 44 H       -8.1860    -4.6630     0.8380 H     1 <1>   0.0800 
 45 H       -9.7060    -6.1750    -0.2080 H     1 <1>   0.4500 
 46 H      -10.3980    -4.0700    -2.1660 H     1 <1>   0.0800 
 47 H      -11.2340    -5.5900    -1.9490 H     1 <1>   0.0800 
 48 H       -9.5890    -5.5780    -2.5370 H     1 <1>   0.0800 
 49 H      -10.9040    -3.5160     0.2630 H     1 <1>   0.0800 
 50 H      -10.4610    -4.6720     1.5020 H     1 <1>   0.0800 
 51 H      -11.7400    -5.0510     0.3690 H     1 <1>   0.0800 
@<TRIPOS>BOND
  1   1   2  1   
  2   2   3  ar  
  3   2   4  ar  
  4   3   5  ar  
  5   3  24  1   
  6   4   6  ar  
  7   4  25  1   
  8   5   7  ar  
  9   5   8  1   
 10   6   7  ar  
 11   6  26  1   
 12   7  27  1   
 13   8   9  1   
 14   8  28  1   
 15   8  29  1   
 16   9  10  2   
 17   9  11  am  
 18  11  12  1   
 19  11  13  1   
 20  12  14  1   
 21  12  15  1   
 22  12  30  1   
 23  13  31  1   
 24  13  32  1   
 25  13  33  1   
 26  14  16  1   
 27  14  34  1   
 28  14  35  1   
 29  15  17  1   
 30  15  36  1   
 31  15  37  1   
 32  16  17  1   
 33  16  18  1   
 34  16  38  1   
 35  17  19  1   
 36  17  39  1   
 37  18  20  1   
 38  18  40  1   
 39  18  41  1   
 40  19  20  1   
 41  19  42  1   
 42  19  43  1   
 43  20  21  1   
 44  20  44  1   
 45  21  22  1   
 46  21  23  1   
 47  21  45  1   
 48  22  46  1   
 49  22  47  1   
 50  22  48  1   
 51  23  49  1   
 52  23  50  1   
 53  23  51  1   
@<TRIPOS>SUBSTRUCTURE
  1 ****  15 GROUP 4 **** **** 0

# MOE 2024.06 (io_trps.svl 2023.06)
