@<TRIPOS>MOLECULE
NONAME
55 57 1 0 0 
SMALL
USER_CHARGES


@<TRIPOS>ATOM
  1 O       -2.1840     0.3660    -2.3260 O.2   1 <1>  -0.5700 
  2 C       -1.9860     0.8550    -1.2300 C.2   1 <1>   0.7160 
  3 N       -2.2370     0.0620    -0.1310 N.am  1 <1>  -0.6600 
  4 C       -1.6320     2.2450    -1.0950 C.2   1 <1>  -0.0860 
  5 C       -3.0590     0.5870     1.0000 C.3   1 <1>   0.1400 
  6 C       -2.3190    -1.4180    -0.2850 C.3   1 <1>   0.1400 
  7 C       -0.8740     2.9380    -0.1920 C.2   1 <1>  -0.3320 
  8 C       -2.0790     3.2370    -1.9670 C.2   1 <1>   0.1390 
  9 C       -4.5390     0.1500     0.8600 C.3   1 <1>   0.4230 
 10 C       -3.7860    -1.8400    -0.4820 C.3   1 <1>   0.3430 
 11 N       -0.9240     4.2410    -0.5410 N.pl3 1 <1>   0.3140 
 12 C       -0.0660     2.4100     0.9860 C.3   1 <1>  -0.0600 
 13 N       -1.6820     4.4210    -1.6340 N.2   1 <1>  -0.7070 
 14 N       -4.6780    -1.3510     0.6430 N.4   1 <1>  -0.9590 
 15 C       -5.2420     0.9400    -0.2700 C.3   1 <1>   0.1200 
 16 C       -0.2550     5.3900     0.1080 C.3   1 <1>   0.0960 
 17 C       -6.1320    -1.6890     0.4390 C.3   1 <1>   0.4230 
 18 O       -6.5800     0.5450    -0.3730 O.3   1 <1>  -0.5600 
 19 C        1.1300     5.6380    -0.5070 C.3   1 <1>  -0.1600 
 20 C       -6.7710    -0.8100    -0.6640 C.3   1 <1>   0.1200 
 21 C       -6.3090    -3.1950     0.1810 C.3   1 <1>  -0.1600 
 22 C        1.8410     6.8120     0.1740 C.3   1 <1>  -0.2400 
 23 C       -7.7670    -3.6510     0.3490 C.3   1 <1>  -0.1600 
 24 C       -7.8880    -5.1660     0.1680 C.3   1 <1>  -0.2400 
 25 H       -2.6600     0.2160     1.9270 H     1 <1>   0.0800 
 26 H       -3.0080     1.6620     1.0380 H     1 <1>   0.0800 
 27 H       -1.7370    -1.7350    -1.1360 H     1 <1>   0.0800 
 28 H       -1.9060    -1.8980     0.5850 H     1 <1>   0.0800 
 29 H       -2.6950     3.0430    -2.8310 H     1 <1>   0.1500 
 30 H       -5.0410     0.4170     1.7750 H     1 <1>   0.0800 
 31 H       -3.8310    -2.9140    -0.5490 H     1 <1>   0.0800 
 32 H       -4.1260    -1.4360    -1.4220 H     1 <1>   0.0800 
 33 H       -0.0740     1.3350     1.0060 H     1 <1>   0.0800 
 34 H       -0.4700     2.7760     1.9130 H     1 <1>   0.0800 
 35 H        0.9580     2.7290     0.9040 H     1 <1>   0.0800 
 36 H       -4.3750    -1.8170     1.5050 H     1 <1>   0.4500 
 37 H       -4.7650     0.7880    -1.2230 H     1 <1>   0.0800 
 38 H       -5.2320     1.9940    -0.0510 H     1 <1>   0.0800 
 39 H       -0.8760     6.2570    -0.0290 H     1 <1>   0.0800 
 40 H       -0.1700     5.1940     1.1600 H     1 <1>   0.0800 
 41 H       -6.6570    -1.4620     1.3530 H     1 <1>   0.0800 
 42 H        1.7340     4.7530    -0.4090 H     1 <1>   0.0800 
 43 H        1.0140     5.8540    -1.5560 H     1 <1>   0.0800 
 44 H       -7.8330    -0.9770    -0.7080 H     1 <1>   0.0800 
 45 H       -6.3530    -1.0210    -1.6320 H     1 <1>   0.0800 
 46 H       -5.9870    -3.4440    -0.8160 H     1 <1>   0.0800 
 47 H       -5.7080    -3.7460     0.8840 H     1 <1>   0.0800 
 48 H        1.9860     6.6130     1.2220 H     1 <1>   0.0800 
 49 H        1.2640     7.7140     0.0670 H     1 <1>   0.0800 
 50 H        2.8040     6.9690    -0.2790 H     1 <1>   0.0800 
 51 H       -8.1260    -3.3900     1.3320 H     1 <1>   0.0800 
 52 H       -8.4020    -3.1700    -0.3760 H     1 <1>   0.0800 
 53 H       -7.2960    -5.6890     0.8990 H     1 <1>   0.0800 
 54 H       -7.5640    -5.4610    -0.8160 H     1 <1>   0.0800 
 55 H       -8.9140    -5.4690     0.2880 H     1 <1>   0.0800 
@<TRIPOS>BOND
  1   1   2  2   
  2   2   3  am  
  3   2   4  1   
  4   3   5  1   
  5   3   6  1   
  6   4   7  2   
  7   4   8  1   
  8   5   9  1   
  9   5  25  1   
 10   5  26  1   
 11   6  10  1   
 12   6  27  1   
 13   6  28  1   
 14   7  11  1   
 15   7  12  1   
 16   8  13  2   
 17   8  29  1   
 18   9  14  1   
 19   9  15  1   
 20   9  30  1   
 21  10  14  1   
 22  10  31  1   
 23  10  32  1   
 24  11  13  1   
 25  11  16  1   
 26  12  33  1   
 27  12  34  1   
 28  12  35  1   
 29  14  17  1   
 30  14  36  1   
 31  15  18  1   
 32  15  37  1   
 33  15  38  1   
 34  16  19  1   
 35  16  39  1   
 36  16  40  1   
 37  17  20  1   
 38  17  21  1   
 39  17  41  1   
 40  18  20  1   
 41  19  22  1   
 42  19  42  1   
 43  19  43  1   
 44  20  44  1   
 45  20  45  1   
 46  21  23  1   
 47  21  46  1   
 48  21  47  1   
 49  22  48  1   
 50  22  49  1   
 51  22  50  1   
 52  23  24  1   
 53  23  51  1   
 54  23  52  1   
 55  24  53  1   
 56  24  54  1   
 57  24  55  1   
@<TRIPOS>SUBSTRUCTURE
  1 ****   3 GROUP 4 **** **** 0

# MOE 2024.06 (io_trps.svl 2023.06)
