@<TRIPOS>MOLECULE
NONAME
48 51 1 0 0 
SMALL
USER_CHARGES


@<TRIPOS>ATOM
  1 CL      -1.2210    -4.2800    -2.5510 Cl    1 <1>  -0.1770 
  2 C       -2.5810    -3.8630    -1.5400 C.ar  1 <1>   0.1770 
  3 C       -2.7660    -4.5250    -0.3430 C.ar  1 <1>  -0.1500 
  4 C       -3.4550    -2.8780    -1.9520 C.ar  1 <1>  -0.1500 
  5 C       -3.8490    -4.1920     0.4510 C.ar  1 <1>  -0.1500 
  6 C       -4.5390    -2.5520    -1.1530 C.ar  1 <1>  -0.1500 
  7 C       -4.7540    -3.2100     0.0570 C.ar  1 <1>  -0.1080 
  8 C       -5.9530    -2.9230     0.9870 C.3   1 <1>   0.1610 
  9 C       -6.6320    -4.2160     1.4710 C.2   1 <1>   0.5770 
 10 C       -5.5570    -1.9200     2.1180 C.3   1 <1>   0.0000 
 11 C       -6.9960    -1.8480     0.5430 C.3   1 <1>   0.0000 
 12 O       -6.6010    -4.4920     2.6490 O.2   1 <1>  -0.5700 
 13 N       -7.2320    -5.0670     0.5770 N.am  1 <1>  -0.6600 
 14 C       -6.0950    -0.7810     1.2150 C.3   1 <1>   0.0000 
 15 C       -7.3200    -4.8910    -0.8970 C.3   1 <1>   0.1400 
 16 C       -7.5980    -6.4570     0.9490 C.3   1 <1>   0.1400 
 17 C       -8.0470    -6.1400    -1.3940 C.3   1 <1>   0.2000 
 18 C       -7.6780    -7.2240    -0.3800 C.3   1 <1>  -0.0800 
 19 O       -9.4110    -5.9180    -1.3100 O.3   1 <1>  -0.6800 
 20 C       -6.3310    -7.8790    -0.7550 C.3   1 <1>  -0.0170 
 21 C       -5.9400    -8.9910     0.2050 C.ar  1 <1>   0.1670 
 22 N       -5.0570    -8.6830     1.1400 N.ar  1 <1>  -0.6200 
 23 C       -6.5060   -10.2580     0.0690 C.ar  1 <1>   0.1600 
 24 C       -4.7860    -9.7110     1.9270 C.ar  1 <1>   0.1600 
 25 N       -6.2370   -11.2880     0.8530 N.ar  1 <1>  -0.6200 
 26 C       -5.3570   -10.9710     1.7880 C.ar  1 <1>   0.1600 
 27 H       -2.0730    -5.2880    -0.0380 H     1 <1>   0.1500 
 28 H       -3.2860    -2.3730    -2.8860 H     1 <1>   0.1500 
 29 H       -3.9850    -4.7140     1.3860 H     1 <1>   0.1500 
 30 H       -5.2000    -1.7780    -1.4960 H     1 <1>   0.1500 
 31 H       -6.1410    -2.0140     3.0180 H     1 <1>   0.0000 
 32 H       -4.5000    -1.8540     2.3070 H     1 <1>   0.0000 
 33 H       -7.1230    -1.7240    -0.5160 H     1 <1>   0.0000 
 34 H       -7.9380    -1.9520     1.0550 H     1 <1>   0.0000 
 35 H       -5.3460    -0.3800     0.5550 H     1 <1>   0.0000 
 36 H       -6.6430    -0.0260     1.7500 H     1 <1>   0.0000 
 37 H       -7.8480    -3.9930    -1.1650 H     1 <1>   0.0800 
 38 H       -6.3280    -4.8660    -1.3120 H     1 <1>   0.0800 
 39 H       -6.8760    -6.8740     1.6290 H     1 <1>   0.0800 
 40 H       -8.5600    -6.4440     1.4330 H     1 <1>   0.0800 
 41 H       -7.8090    -6.3920    -2.4140 H     1 <1>   0.0800 
 42 H       -8.4350    -7.9870    -0.3380 H     1 <1>   0.0800 
 43 H       -9.6220    -5.5620    -0.4230 H     1 <1>   0.4000 
 44 H       -5.5470    -7.1400    -0.7690 H     1 <1>   0.0800 
 45 H       -6.3990    -8.2920    -1.7460 H     1 <1>   0.0800 
 46 H       -7.2150   -10.4260    -0.7220 H     1 <1>   0.1500 
 47 H       -4.0780    -9.5490     2.7200 H     1 <1>   0.1500 
 48 H       -5.0730   -11.7450     2.4790 H     1 <1>   0.1500 
@<TRIPOS>BOND
  1   1   2  1   
  2   2   3  ar  
  3   2   4  ar  
  4   3   5  ar  
  5   3  27  1   
  6   4   6  ar  
  7   4  28  1   
  8   5   7  ar  
  9   5  29  1   
 10   6   7  ar  
 11   6  30  1   
 12   7   8  1   
 13   8   9  1   
 14   8  10  1   
 15   8  11  1   
 16   9  12  2   
 17   9  13  am  
 18  10  14  1   
 19  10  31  1   
 20  10  32  1   
 21  11  14  1   
 22  11  33  1   
 23  11  34  1   
 24  13  15  1   
 25  13  16  1   
 26  14  35  1   
 27  14  36  1   
 28  15  17  1   
 29  15  37  1   
 30  15  38  1   
 31  16  18  1   
 32  16  39  1   
 33  16  40  1   
 34  17  18  1   
 35  17  19  1   
 36  17  41  1   
 37  18  20  1   
 38  18  42  1   
 39  19  43  1   
 40  20  21  1   
 41  20  44  1   
 42  20  45  1   
 43  21  22  ar  
 44  21  23  ar  
 45  22  24  ar  
 46  23  25  ar  
 47  23  46  1   
 48  24  26  ar  
 49  24  47  1   
 50  25  26  ar  
 51  26  48  1   
@<TRIPOS>SUBSTRUCTURE
  1 ****  13 GROUP 4 **** **** 0

# MOE 2024.06 (io_trps.svl 2023.06)
