@<TRIPOS>MOLECULE
NONAME
46 48 1 0 0 
SMALL
USER_CHARGES


@<TRIPOS>ATOM
  1 O       -0.0140     1.4890     0.2290 O.co2 1 <1>  -0.9000 
  2 C        0.9260     1.6200     1.0230 C.2   1 <1>   0.9470 
  3 O        0.7870     2.2640     2.0730 O.co2 1 <1>  -0.9000 
  4 C        2.3370     1.1900     0.6080 C.3   1 <1>  -0.2420 
  5 C        3.1180    -0.0910     0.7880 C.3   1 <1>  -0.2420 
  6 C        3.3050     2.3430     0.7820 C.3   1 <1>   0.2350 
  7 C        2.4840     0.2240    -0.5420 C.3   1 <1>  -0.2000 
  8 C        2.7510    -1.3920     1.5050 C.2   1 <1>   0.9470 
  9 C        4.5710     0.2770     1.0460 C.3   1 <1>   0.2350 
 10 N        4.6640     1.7340     0.7470 N.am  1 <1>  -0.6600 
 11 O        2.9680    -1.4890     2.7200 O.co2 1 <1>  -0.9000 
 12 O        2.3930    -2.3740     0.8390 O.co2 1 <1>  -0.9000 
 13 C        5.8210     2.3610     0.3990 C.2   1 <1>   0.5690 
 14 O        6.8730     1.7700     0.3080 O.2   1 <1>  -0.5700 
 15 C        5.7870     3.8580     0.1080 C.3   1 <1>  -0.0990 
 16 C        7.1670     4.5420     0.1070 C.3   1 <1>  -0.1600 
 17 C        7.0490     6.0470    -0.1610 C.3   1 <1>  -0.0160 
 18 C        8.4180     6.7060    -0.1300 C.ar  1 <1>  -0.1440 
 19 C        8.9210     7.2200     1.0540 C.ar  1 <1>  -0.1500 
 20 C        9.1770     6.8000    -1.2850 C.ar  1 <1>  -0.1500 
 21 C       10.1670     7.8230     1.0820 C.ar  1 <1>  -0.1500 
 22 C       10.4230     7.4030    -1.2570 C.ar  1 <1>  -0.1500 
 23 C       10.9260     7.9180    -0.0730 C.ar  1 <1>  -0.1440 
 24 C       12.2940     8.5790    -0.0420 C.3   1 <1>  -0.0170 
 25 C       12.1740    10.0780    -0.3250 C.3   1 <1>  -0.2400 
 26 H        3.1540     2.8120     1.7400 H     1 <1>   0.0800 
 27 H        3.1680     3.0620    -0.0040 H     1 <1>   0.0800 
 28 H        3.1070     0.4810    -1.3770 H     1 <1>   0.1000 
 29 H        1.6220    -0.3540    -0.8310 H     1 <1>   0.1000 
 30 H        5.2310    -0.2940     0.4160 H     1 <1>   0.0800 
 31 H        4.8210     0.1100     2.0800 H     1 <1>   0.0800 
 32 H        5.3200     3.9930    -0.8500 H     1 <1>   0.0800 
 33 H        5.1730     4.3310     0.8530 H     1 <1>   0.0800 
 34 H        7.6420     4.3830     1.0600 H     1 <1>   0.0800 
 35 H        7.7900     4.0920    -0.6480 H     1 <1>   0.0800 
 36 H        6.4180     6.5010     0.5830 H     1 <1>   0.0800 
 37 H        6.5930     6.2120    -1.1220 H     1 <1>   0.0800 
 38 H        8.3460     7.1520     1.9600 H     1 <1>   0.1500 
 39 H        8.8030     6.4020    -2.2110 H     1 <1>   0.1500 
 40 H       10.5430     8.2190     2.0080 H     1 <1>   0.1500 
 41 H       10.9990     7.4700    -2.1620 H     1 <1>   0.1500 
 42 H       12.7470     8.4280     0.9220 H     1 <1>   0.0800 
 43 H       12.9340     8.1220    -0.7770 H     1 <1>   0.0800 
 44 H       11.5490    10.5450     0.4150 H     1 <1>   0.0800 
 45 H       11.7360    10.2370    -1.2950 H     1 <1>   0.0800 
 46 H       13.1450    10.5400    -0.3020 H     1 <1>   0.0800 
@<TRIPOS>BOND
  1   1   2  ar  
  2   2   3  ar  
  3   2   4  1   
  4   4   5  1   
  5   4   6  1   
  6   4   7  1   
  7   5   7  1   
  8   5   8  1   
  9   5   9  1   
 10   6  10  1   
 11   6  26  1   
 12   6  27  1   
 13   7  28  1   
 14   7  29  1   
 15   8  11  ar  
 16   8  12  ar  
 17   9  10  1   
 18   9  30  1   
 19   9  31  1   
 20  10  13  am  
 21  13  14  2   
 22  13  15  1   
 23  15  16  1   
 24  15  32  1   
 25  15  33  1   
 26  16  17  1   
 27  16  34  1   
 28  16  35  1   
 29  17  18  1   
 30  17  36  1   
 31  17  37  1   
 32  18  19  ar  
 33  18  20  ar  
 34  19  21  ar  
 35  19  38  1   
 36  20  22  ar  
 37  20  39  1   
 38  21  23  ar  
 39  21  40  1   
 40  22  23  ar  
 41  22  41  1   
 42  23  24  1   
 43  24  25  1   
 44  24  42  1   
 45  24  43  1   
 46  25  44  1   
 47  25  45  1   
 48  25  46  1   
@<TRIPOS>SUBSTRUCTURE
  1 ****  15 GROUP 4 **** **** 0

# MOE 2024.06 (io_trps.svl 2023.06)
