@<TRIPOS>MOLECULE
NONAME
65 68 1 0 0 
SMALL
USER_CHARGES


@<TRIPOS>ATOM
  1 O       -1.1350    -1.2200     1.9140 O.2   1 <1>  -0.5700 
  2 C       -0.5420    -2.1640     1.4420 C.2   1 <1>   0.5690 
  3 N        0.8280    -2.2260     1.4430 N.am  1 <1>  -0.6600 
  4 C       -1.3540    -3.2940     0.8250 C.3   1 <1>  -0.0990 
  5 C        1.6380    -3.3640     0.9290 C.3   1 <1>   0.1400 
  6 C        1.6380    -1.1020     1.9770 C.3   1 <1>   0.1400 
  7 C       -2.8720    -3.0180     0.7830 C.3   1 <1>  -0.0990 
  8 C        2.1620    -3.0860    -0.4850 C.3   1 <1>  -0.1600 
  9 C        1.8770    -0.0260     0.9100 C.3   1 <1>  -0.1600 
 10 C       -3.6840    -4.1030     0.0890 C.2   1 <1>   0.5690 
 11 C        2.9820    -1.7910    -0.6390 C.3   1 <1>  -0.1600 
 12 C        2.1170    -0.5240    -0.5280 C.3   1 <1>  -0.1600 
 13 O       -3.1010    -5.0790    -0.3250 O.2   1 <1>  -0.5700 
 14 N       -5.0400    -3.9550    -0.0640 N.am  1 <1>  -0.6600 
 15 C       -5.8440    -2.7910     0.4340 C.3   1 <1>   0.1400 
 16 C       -5.8560    -4.9690    -0.7890 C.3   1 <1>   0.1400 
 17 C       -6.5570    -2.0780    -0.7310 C.3   1 <1>   0.1430 
 18 C       -6.5840    -4.3080    -1.9670 C.3   1 <1>  -0.1600 
 19 C       -7.3790    -0.9400    -0.1560 C.ar  1 <1>   0.1670 
 20 C       -7.4160    -3.0930    -1.5170 C.3   1 <1>  -0.1600 
 21 C       -5.5530    -1.3290    -1.6490 C.3   1 <1>  -0.1600 
 22 N       -8.5010    -1.0730     0.5060 N.ar  1 <1>  -0.6200 
 23 C       -6.7930     0.2670    -0.3910 C.ar  1 <1>  -0.1440 
 24 C       -5.5010     0.1280    -1.1560 C.3   1 <1>  -0.0170 
 25 C       -9.0510     0.0670     0.9330 C.ar  1 <1>   0.7200 
 26 C       -7.4280     1.3860     0.0860 C.ar  1 <1>   0.1600 
 27 N       -8.5580     1.2970     0.7470 N.ar  1 <1>  -0.6200 
 28 N      -10.2430    -0.0350     1.6280 N.pl3 1 <1>  -0.8380 
 29 C      -11.0000     1.1750     2.0570 C.3   1 <1>   0.1290 
 30 C      -10.9910    -1.3220     1.7000 C.3   1 <1>   0.1290 
 31 H       -1.1820    -4.1900     1.3920 H     1 <1>   0.0800 
 32 H       -1.0030    -3.4530    -0.1780 H     1 <1>   0.0800 
 33 H        1.0550    -4.2670     0.9210 H     1 <1>   0.0800 
 34 H        2.4690    -3.5340     1.5920 H     1 <1>   0.0800 
 35 H        2.5850    -1.4770     2.3260 H     1 <1>   0.0800 
 36 H        1.1360    -0.6620     2.8230 H     1 <1>   0.0800 
 37 H       -3.0340    -2.0910     0.2660 H     1 <1>   0.0800 
 38 H       -3.2310    -2.9130     1.7900 H     1 <1>   0.0800 
 39 H        1.3330    -3.0730    -1.1700 H     1 <1>   0.0800 
 40 H        2.7860    -3.9150    -0.7690 H     1 <1>   0.0800 
 41 H        2.7210     0.5610     1.2230 H     1 <1>   0.0800 
 42 H        1.0260     0.6330     0.9030 H     1 <1>   0.0800 
 43 H        3.4230    -1.8020    -1.6210 H     1 <1>   0.0800 
 44 H        3.7880    -1.7620     0.0730 H     1 <1>   0.0800 
 45 H        2.5890     0.2710    -1.0780 H     1 <1>   0.0800 
 46 H        1.1650    -0.7050    -0.9980 H     1 <1>   0.0800 
 47 H       -5.2340    -2.0840     0.9650 H     1 <1>   0.0800 
 48 H       -6.5850    -3.1560     1.1240 H     1 <1>   0.0800 
 49 H       -6.5730    -5.3920    -0.1060 H     1 <1>   0.0800 
 50 H       -5.2360    -5.7700    -1.1540 H     1 <1>   0.0800 
 51 H       -7.2290    -5.0320    -2.4320 H     1 <1>   0.0800 
 52 H       -5.8550    -4.0070    -2.6990 H     1 <1>   0.0800 
 53 H       -7.8710    -2.6160    -2.3670 H     1 <1>   0.0800 
 54 H       -8.2120    -3.4390    -0.8800 H     1 <1>   0.0800 
 55 H       -5.9300    -1.3220    -2.6560 H     1 <1>   0.0800 
 56 H       -4.5790    -1.7830    -1.6610 H     1 <1>   0.0800 
 57 H       -5.4440     0.8220    -1.9760 H     1 <1>   0.0800 
 58 H       -4.6680     0.2760    -0.4900 H     1 <1>   0.0800 
 59 H       -7.0060     2.3620    -0.0750 H     1 <1>   0.1500 
 60 H      -10.3250     1.9220     2.4380 H     1 <1>   0.0800 
 61 H      -11.6990     0.9260     2.8350 H     1 <1>   0.0800 
 62 H      -11.5330     1.5830     1.2150 H     1 <1>   0.0800 
 63 H      -10.3190    -2.1290     1.9370 H     1 <1>   0.0800 
 64 H      -11.4560    -1.5210     0.7510 H     1 <1>   0.0800 
 65 H      -11.7470    -1.2770     2.4640 H     1 <1>   0.0800 
@<TRIPOS>BOND
  1   1   2  2   
  2   2   3  am  
  3   2   4  1   
  4   3   5  1   
  5   3   6  1   
  6   4   7  1   
  7   4  31  1   
  8   4  32  1   
  9   5   8  1   
 10   5  33  1   
 11   5  34  1   
 12   6   9  1   
 13   6  35  1   
 14   6  36  1   
 15   7  10  1   
 16   7  37  1   
 17   7  38  1   
 18   8  11  1   
 19   8  39  1   
 20   8  40  1   
 21   9  12  1   
 22   9  41  1   
 23   9  42  1   
 24  10  13  2   
 25  10  14  am  
 26  11  12  1   
 27  11  43  1   
 28  11  44  1   
 29  12  45  1   
 30  12  46  1   
 31  14  15  1   
 32  14  16  1   
 33  15  17  1   
 34  15  47  1   
 35  15  48  1   
 36  16  18  1   
 37  16  49  1   
 38  16  50  1   
 39  17  19  1   
 40  17  20  1   
 41  17  21  1   
 42  18  20  1   
 43  18  51  1   
 44  18  52  1   
 45  19  22  ar  
 46  19  23  ar  
 47  20  53  1   
 48  20  54  1   
 49  21  24  1   
 50  21  55  1   
 51  21  56  1   
 52  22  25  ar  
 53  23  24  1   
 54  23  26  ar  
 55  24  57  1   
 56  24  58  1   
 57  25  27  ar  
 58  25  28  1   
 59  26  27  ar  
 60  26  59  1   
 61  28  29  1   
 62  28  30  1   
 63  29  60  1   
 64  29  61  1   
 65  29  62  1   
 66  30  63  1   
 67  30  64  1   
 68  30  65  1   
@<TRIPOS>SUBSTRUCTURE
  1 ****  15 GROUP 4 **** **** 0

# MOE 2024.06 (io_trps.svl 2023.06)
