@<TRIPOS>MOLECULE
NONAME
46 48 1 0 0 
SMALL
USER_CHARGES


@<TRIPOS>ATOM
  1 S       -0.7800     0.3080    -0.1020 S.o2  1 <1>   1.0900 
  2 O       -1.9060     0.4680     0.7880 O.2   1 <1>  -0.6500 
  3 O       -0.7710    -0.7440    -1.0900 O.2   1 <1>  -0.6500 
  4 C       -0.4890     1.8680    -0.9350 C.3   1 <1>  -0.0550 
  5 C        0.7070     0.1640     0.8890 C.3   1 <1>  -0.0550 
  6 C       -0.1060     3.0000     0.0330 C.3   1 <1>  -0.1600 
  7 C        1.0020     1.4270     1.7160 C.3   1 <1>  -0.1600 
  8 C        1.1620     2.6690     0.8320 C.3   1 <1>   0.2890 
  9 N        1.4590     3.8050     1.7000 N.pl3 1 <1>  -0.8690 
 10 C        2.3490     4.7380     1.2700 C.ar  1 <1>   0.4100 
 11 N        1.8370     5.8820     0.9700 N.ar  1 <1>  -0.6200 
 12 C        3.7120     4.4470     1.1600 C.ar  1 <1>  -0.1500 
 13 C        2.6690     6.8550     0.5070 C.ar  1 <1>   0.3100 
 14 C        4.5900     5.3830     0.7080 C.ar  1 <1>  -0.1430 
 15 C        4.0740     6.6650     0.3520 C.ar  1 <1>   0.0000 
 16 C        2.0900     8.1080     0.1670 C.ar  1 <1>   0.0820 
 17 C        6.0600     4.9870     0.6250 C.3   1 <1>  -0.0970 
 18 C        4.8390     7.7640    -0.1410 C.ar  1 <1>   0.0820 
 19 O        0.7370     8.2500     0.3200 O.3   1 <1>  -0.3630 
 20 C        2.8690     9.1370    -0.3050 C.ar  1 <1>  -0.1500 
 21 O        6.1820     7.6080    -0.2980 O.3   1 <1>  -0.3620 
 22 C        4.2380     8.9620    -0.4560 C.ar  1 <1>  -0.1500 
 23 C        0.0790     9.4840     0.1410 C.3   1 <1>   0.0400 
 24 C        7.0360     8.6350    -0.7550 C.3   1 <1>   0.0400 
 25 H       -1.3750     2.1510    -1.4720 H     1 <1>   0.0800 
 26 H        0.2980     1.7470    -1.6550 H     1 <1>   0.0800 
 27 H        1.5440    -0.0320     0.2460 H     1 <1>   0.0800 
 28 H        0.6080    -0.6740     1.5520 H     1 <1>   0.0800 
 29 H       -0.9250     3.1750     0.7100 H     1 <1>   0.0800 
 30 H        0.0610     3.9010    -0.5330 H     1 <1>   0.0800 
 31 H        1.9080     1.2770     2.2760 H     1 <1>   0.0800 
 32 H        0.1980     1.5870     2.4150 H     1 <1>   0.0800 
 33 H        1.9840     2.5190     0.1500 H     1 <1>   0.0800 
 34 H        0.6000     4.2880     1.9760 H     1 <1>   0.4000 
 35 H        4.0260     3.4650     1.4560 H     1 <1>   0.1500 
 36 H        6.2120     3.9740     0.9490 H     1 <1>   0.0800 
 37 H        6.6500     5.6290     1.2550 H     1 <1>   0.0800 
 38 H        6.4080     5.0690    -0.3890 H     1 <1>   0.0800 
 39 H        2.4560    10.0910    -0.5700 H     1 <1>   0.1500 
 40 H        4.7950     9.8000    -0.8290 H     1 <1>   0.1500 
 41 H       -0.9600     9.3420     0.3770 H     1 <1>   0.0800 
 42 H        0.1820     9.7890    -0.8850 H     1 <1>   0.0800 
 43 H        0.5100    10.2090     0.8090 H     1 <1>   0.0800 
 44 H        8.0390     8.2490    -0.7740 H     1 <1>   0.0800 
 45 H        6.9790     9.4660    -0.0750 H     1 <1>   0.0800 
 46 H        6.7380     8.9220    -1.7470 H     1 <1>   0.0800 
@<TRIPOS>BOND
  1   1   2  2   
  2   1   3  2   
  3   1   4  1   
  4   1   5  1   
  5   4   6  1   
  6   4  25  1   
  7   4  26  1   
  8   5   7  1   
  9   5  27  1   
 10   5  28  1   
 11   6   8  1   
 12   6  29  1   
 13   6  30  1   
 14   7   8  1   
 15   7  31  1   
 16   7  32  1   
 17   8   9  1   
 18   8  33  1   
 19   9  10  1   
 20   9  34  1   
 21  10  11  ar  
 22  10  12  ar  
 23  11  13  ar  
 24  12  14  ar  
 25  12  35  1   
 26  13  15  ar  
 27  13  16  ar  
 28  14  15  ar  
 29  14  17  1   
 30  15  18  ar  
 31  16  19  1   
 32  16  20  ar  
 33  17  36  1   
 34  17  37  1   
 35  17  38  1   
 36  18  21  1   
 37  18  22  ar  
 38  19  23  1   
 39  20  22  ar  
 40  20  39  1   
 41  21  24  1   
 42  22  40  1   
 43  23  41  1   
 44  23  42  1   
 45  23  43  1   
 46  24  44  1   
 47  24  45  1   
 48  24  46  1   
@<TRIPOS>SUBSTRUCTURE
  1 ****  10 GROUP 4 **** **** 0

# MOE 2024.06 (io_trps.svl 2023.06)
