@<TRIPOS>MOLECULE
NONAME
42 43 1 0 0 
SMALL
USER_CHARGES


@<TRIPOS>ATOM
  1 CL       0.2580     1.7860     0.8980 Cl    1 <1>  -0.1770 
  2 C        2.0070     1.9090     0.9210 C.ar  1 <1>   0.1770 
  3 C        2.6820     3.0160     0.4150 C.ar  1 <1>   0.1660 
  4 C        2.7110     0.8570     1.4660 C.ar  1 <1>  -0.1500 
  5 N        4.0070     3.1330     0.4190 N.ar  1 <1>  -0.6200 
  6 C        1.9410     4.1970    -0.1910 C.3   1 <1>  -0.0960 
  7 C        4.0800     0.9770     1.4720 C.ar  1 <1>  -0.1500 
  8 C        4.6840     2.1150     0.9440 C.ar  1 <1>   0.4100 
  9 N        6.0590     2.2090     0.9630 N.pl3 1 <1>  -0.8690 
 10 C        6.7960     3.1790     0.1170 C.3   1 <1>   0.2090 
 11 C        6.6870     4.5920     0.7300 C.3   1 <1>   0.3430 
 12 N        6.5770     5.6990    -0.2880 N.4   1 <1>  -0.9590 
 13 C        6.7490     7.0680     0.3190 C.3   1 <1>   0.4230 
 14 C        5.2430     5.5840    -0.9600 C.3   1 <1>   0.3430 
 15 C        6.6420     8.1250    -0.7970 C.3   1 <1>  -0.1600 
 16 C        8.0900     7.2200     1.0850 C.3   1 <1>   0.1200 
 17 C        5.1300     6.5960    -2.0970 C.3   1 <1>  -0.1600 
 18 C        5.3310     8.0240    -1.5850 C.3   1 <1>  -0.1600 
 19 O        8.1660     8.4810     1.6610 O.3   1 <1>  -0.6800 
 20 H        2.2030    -0.0040     1.8630 H     1 <1>   0.1500 
 21 H        0.8750     4.0800    -0.1460 H     1 <1>   0.0800 
 22 H        2.2220     4.3070    -1.2220 H     1 <1>   0.0800 
 23 H        2.1990     5.0950     0.3400 H     1 <1>   0.0800 
 24 H        4.6890     0.1960     1.8870 H     1 <1>   0.1500 
 25 H        6.5380     1.3110     1.0920 H     1 <1>   0.4000 
 26 H        6.3830     3.1470    -0.8760 H     1 <1>   0.0800 
 27 H        7.8310     2.8880     0.0640 H     1 <1>   0.0800 
 28 H        7.5470     4.7400     1.3580 H     1 <1>   0.0800 
 29 H        5.8120     4.6140     1.3600 H     1 <1>   0.0800 
 30 H        7.2980     5.5900    -1.0090 H     1 <1>   0.4500 
 31 H        5.9510     7.2320     1.0250 H     1 <1>   0.0800 
 32 H        4.4600     5.7600    -0.2390 H     1 <1>   0.0800 
 33 H        5.1030     4.5920    -1.3560 H     1 <1>   0.0800 
 34 H        7.4780     8.0290    -1.4670 H     1 <1>   0.0800 
 35 H        6.6960     9.1080    -0.3620 H     1 <1>   0.0800 
 36 H        8.9260     7.1120     0.4160 H     1 <1>   0.0800 
 37 H        8.1650     6.5100     1.8880 H     1 <1>   0.0800 
 38 H        4.1550     6.5130    -2.5450 H     1 <1>   0.0800 
 39 H        5.8560     6.3670    -2.8580 H     1 <1>   0.0800 
 40 H        5.3460     8.7140    -2.4130 H     1 <1>   0.0800 
 41 H        4.5070     8.2970    -0.9460 H     1 <1>   0.0800 
 42 H        9.0110     8.6150     2.1420 H     1 <1>   0.4000 
@<TRIPOS>BOND
  1   1   2  1   
  2   2   3  ar  
  3   2   4  ar  
  4   3   5  ar  
  5   3   6  1   
  6   4   7  ar  
  7   4  20  1   
  8   5   8  ar  
  9   6  21  1   
 10   6  22  1   
 11   6  23  1   
 12   7   8  ar  
 13   7  24  1   
 14   8   9  1   
 15   9  10  1   
 16   9  25  1   
 17  10  11  1   
 18  10  26  1   
 19  10  27  1   
 20  11  12  1   
 21  11  28  1   
 22  11  29  1   
 23  12  13  1   
 24  12  14  1   
 25  12  30  1   
 26  13  15  1   
 27  13  16  1   
 28  13  31  1   
 29  14  17  1   
 30  14  32  1   
 31  14  33  1   
 32  15  18  1   
 33  15  34  1   
 34  15  35  1   
 35  16  19  1   
 36  16  36  1   
 37  16  37  1   
 38  17  18  1   
 39  17  38  1   
 40  17  39  1   
 41  18  40  1   
 42  18  41  1   
 43  19  42  1   
@<TRIPOS>SUBSTRUCTURE
  1 ****   5 GROUP 4 **** **** 0

# MOE 2024.06 (io_trps.svl 2023.06)
