@<TRIPOS>MOLECULE
NONAME
44 45 1 0 0 
SMALL
USER_CHARGES


@<TRIPOS>ATOM
  1 CL       0.0930     0.1570     2.4980 Cl    1 <1>  -0.1770 
  2 C        1.3900    -0.7300     1.7410 C.ar  1 <1>   0.1770 
  3 C        1.3600    -2.1090     1.7540 C.ar  1 <1>  -0.1500 
  4 C        2.4230    -0.0370     1.1410 C.ar  1 <1>  -0.1500 
  5 C        2.3780    -2.8410     1.1460 C.ar  1 <1>   0.0860 
  6 C        3.4540    -0.7420     0.5430 C.ar  1 <1>  -0.1440 
  7 C        2.3650    -4.2920     1.1290 C.2   1 <1>   0.5440 
  8 C        3.4220    -2.1280     0.5540 C.ar  1 <1>  -0.1500 
  9 C        4.6040    -0.0010    -0.1150 C.3   1 <1>  -0.0960 
 10 O        3.3720    -4.9090     1.4150 O.2   1 <1>  -0.5700 
 11 N        1.2370    -4.9990     0.7770 N.am  1 <1>  -0.6600 
 12 C        0.1380    -4.4620    -0.0650 C.3   1 <1>   0.1400 
 13 C        1.1980    -6.4830     0.8040 C.3   1 <1>   0.1400 
 14 C       -0.4220    -5.6850    -0.7860 C.3   1 <1>   0.2000 
 15 C       -0.1270    -6.8620     0.1370 C.3   1 <1>  -0.0800 
 16 O       -1.7850    -5.5790    -1.0040 O.3   1 <1>  -0.6800 
 17 C       -0.0950    -8.2040    -0.6140 C.3   1 <1>  -0.0550 
 18 S        0.0870    -9.6140     0.4750 S.o2  1 <1>   1.3330 
 19 O        1.4140    -9.5990     1.0490 O.2   1 <1>  -0.6500 
 20 O       -1.0680    -9.6450     1.3440 O.2   1 <1>  -0.6500 
 21 N       -0.0060   -10.9310    -0.5910 N.am  1 <1>  -0.8490 
 22 C        1.2730   -11.2530    -1.2320 C.3   1 <1>   0.1160 
 23 C       -0.5570   -12.1280     0.0510 C.3   1 <1>   0.1160 
 24 H        0.5490    -2.6180     2.2420 H     1 <1>   0.1500 
 25 H        2.4150     1.0380     1.1470 H     1 <1>   0.1500 
 26 H        4.2210    -2.6870     0.0970 H     1 <1>   0.1500 
 27 H        5.4710    -0.6330    -0.1900 H     1 <1>   0.0800 
 28 H        4.8680     0.8670     0.4640 H     1 <1>   0.0800 
 29 H        4.3190     0.3140    -1.1020 H     1 <1>   0.0800 
 30 H       -0.6090    -4.0190     0.5700 H     1 <1>   0.0800 
 31 H        0.5110    -3.7380    -0.7690 H     1 <1>   0.0800 
 32 H        2.0390    -6.8670     0.2500 H     1 <1>   0.0800 
 33 H        1.2520    -6.8450     1.8180 H     1 <1>   0.0800 
 34 H        0.0670    -5.7990    -1.7390 H     1 <1>   0.0800 
 35 H       -0.8750    -6.9030     0.9110 H     1 <1>   0.0800 
 36 H       -2.2700    -5.5510    -0.1560 H     1 <1>   0.4000 
 37 H        0.7040    -8.1950    -1.3290 H     1 <1>   0.0800 
 38 H       -1.0160    -8.3120    -1.1550 H     1 <1>   0.0800 
 39 H        1.1350   -12.0330    -1.9610 H     1 <1>   0.0800 
 40 H        1.9900   -11.5830    -0.4970 H     1 <1>   0.0800 
 41 H        1.6680   -10.3860    -1.7330 H     1 <1>   0.0800 
 42 H       -0.6180   -12.9370    -0.6560 H     1 <1>   0.0800 
 43 H       -1.5510   -11.9260     0.4160 H     1 <1>   0.0800 
 44 H        0.0610   -12.4250     0.8820 H     1 <1>   0.0800 
@<TRIPOS>BOND
  1   1   2  1   
  2   2   3  ar  
  3   2   4  ar  
  4   3   5  ar  
  5   3  24  1   
  6   4   6  ar  
  7   4  25  1   
  8   5   7  1   
  9   5   8  ar  
 10   6   8  ar  
 11   6   9  1   
 12   7  10  2   
 13   7  11  am  
 14   8  26  1   
 15   9  27  1   
 16   9  28  1   
 17   9  29  1   
 18  11  12  1   
 19  11  13  1   
 20  12  14  1   
 21  12  30  1   
 22  12  31  1   
 23  13  15  1   
 24  13  32  1   
 25  13  33  1   
 26  14  15  1   
 27  14  16  1   
 28  14  34  1   
 29  15  17  1   
 30  15  35  1   
 31  16  36  1   
 32  17  18  1   
 33  17  37  1   
 34  17  38  1   
 35  18  19  2   
 36  18  20  2   
 37  18  21  am  
 38  21  22  1   
 39  21  23  1   
 40  22  39  1   
 41  22  40  1   
 42  22  41  1   
 43  23  42  1   
 44  23  43  1   
 45  23  44  1   
@<TRIPOS>SUBSTRUCTURE
  1 ****  11 GROUP 4 **** **** 0

# MOE 2024.06 (io_trps.svl 2023.06)
