@<TRIPOS>MOLECULE
NONAME
53 55 1 0 0 
SMALL
USER_CHARGES


@<TRIPOS>ATOM
  1 O        0.3250     1.2610    -2.0500 O.2   1 <1>  -0.5700 
  2 C        0.2040     2.2660    -1.3730 C.2   1 <1>   0.5440 
  3 N       -1.0370     2.8640    -1.2710 N.am  1 <1>  -0.6600 
  4 C        1.3620     2.7960    -0.6930 C.ar  1 <1>   0.0860 
  5 C       -1.3030     4.0960    -0.4800 C.3   1 <1>   0.1400 
  6 C       -2.2550     2.2950    -1.9110 C.3   1 <1>   0.1400 
  7 C        1.5750     2.6660     0.6880 C.ar  1 <1>   0.0830 
  8 C        2.3110     3.5040    -1.4250 C.ar  1 <1>  -0.1500 
  9 C       -2.3030     3.7650     0.6290 C.3   1 <1>  -0.1600 
 10 C       -3.2770     1.9540    -0.8240 C.3   1 <1>  -0.1600 
 11 O        0.7460     1.9820     1.5120 O.3   1 <1>  -0.3620 
 12 C        2.6720     3.2580     1.2910 C.ar  1 <1>  -0.1500 
 13 C        3.4100     4.0960    -0.8340 C.ar  1 <1>   0.0830 
 14 C       -3.5960     3.1640     0.0610 C.3   1 <1>   0.4180 
 15 C        0.3420     0.6710     1.1710 C.3   1 <1>   0.0400 
 16 C        3.6070     3.9720     0.5510 C.ar  1 <1>   0.0830 
 17 O        4.2370     4.7680    -1.6860 O.3   1 <1>  -0.3630 
 18 O       -4.2220     4.1060    -0.7770 O.3   1 <1>  -0.5600 
 19 C       -4.5400     2.7410     1.1840 C.2   1 <1>  -0.2880 
 20 O        4.7040     4.5270     1.1350 O.3   1 <1>  -0.3630 
 21 C        4.8340     5.9830    -1.2890 C.3   1 <1>   0.0400 
 22 C       -4.9970     5.1000    -0.1670 C.3   1 <1>   0.1200 
 23 C       -5.7230     3.3110     1.4250 C.2   1 <1>  -0.2760 
 24 C        5.0450     4.2870     2.4830 C.3   1 <1>   0.0400 
 25 C       -6.1890     4.4770     0.5730 C.3   1 <1>  -0.0220 
 26 C       -6.6850     2.8720     2.5140 C.3   1 <1>  -0.1020 
 27 H       -1.7150     4.8480    -1.1320 H     1 <1>   0.0800 
 28 H       -0.4000     4.4880    -0.0490 H     1 <1>   0.0800 
 29 H       -2.0160     1.4100    -2.4750 H     1 <1>   0.0800 
 30 H       -2.6680     3.0220    -2.5890 H     1 <1>   0.0800 
 31 H        2.1790     3.5990    -2.4890 H     1 <1>   0.1500 
 32 H       -2.5220     4.6450     1.2030 H     1 <1>   0.0800 
 33 H       -1.8490     3.0580     1.2980 H     1 <1>   0.0800 
 34 H       -2.8810     1.1590    -0.2200 H     1 <1>   0.0800 
 35 H       -4.1850     1.5990    -1.2760 H     1 <1>   0.0800 
 36 H        2.7710     3.1370     2.3520 H     1 <1>   0.1500 
 37 H        0.1480     0.1320     2.0800 H     1 <1>   0.0800 
 38 H        1.1280     0.1870     0.6170 H     1 <1>   0.0800 
 39 H       -0.5560     0.7210     0.5830 H     1 <1>   0.0800 
 40 H       -4.1550     1.9220     1.7630 H     1 <1>   0.1500 
 41 H        5.0900     6.5350    -2.1750 H     1 <1>   0.0800 
 42 H        5.7240     5.7660    -0.7280 H     1 <1>   0.0800 
 43 H        4.1340     6.5430    -0.6940 H     1 <1>   0.0800 
 44 H       -5.3430     5.7660    -0.9370 H     1 <1>   0.0800 
 45 H       -4.3770     5.6520     0.5150 H     1 <1>   0.0800 
 46 H        5.9830     4.7730     2.6810 H     1 <1>   0.0800 
 47 H        5.1450     3.2270     2.6350 H     1 <1>   0.0800 
 48 H        4.2800     4.6990     3.1170 H     1 <1>   0.0800 
 49 H       -6.9220     4.1400    -0.1370 H     1 <1>   0.0800 
 50 H       -6.6400     5.2330     1.1900 H     1 <1>   0.0800 
 51 H       -6.8570     3.6760     3.2060 H     1 <1>   0.0800 
 52 H       -6.2830     2.0350     3.0560 H     1 <1>   0.0800 
 53 H       -7.6240     2.5780     2.0800 H     1 <1>   0.0800 
@<TRIPOS>BOND
  1   1   2  2   
  2   2   3  am  
  3   2   4  1   
  4   3   5  1   
  5   3   6  1   
  6   4   7  ar  
  7   4   8  ar  
  8   5   9  1   
  9   5  27  1   
 10   5  28  1   
 11   6  10  1   
 12   6  29  1   
 13   6  30  1   
 14   7  11  1   
 15   7  12  ar  
 16   8  13  ar  
 17   8  31  1   
 18   9  14  1   
 19   9  32  1   
 20   9  33  1   
 21  10  14  1   
 22  10  34  1   
 23  10  35  1   
 24  11  15  1   
 25  12  16  ar  
 26  12  36  1   
 27  13  16  ar  
 28  13  17  1   
 29  14  18  1   
 30  14  19  1   
 31  15  37  1   
 32  15  38  1   
 33  15  39  1   
 34  16  20  1   
 35  17  21  1   
 36  18  22  1   
 37  19  23  2   
 38  19  40  1   
 39  20  24  1   
 40  21  41  1   
 41  21  42  1   
 42  21  43  1   
 43  22  25  1   
 44  22  44  1   
 45  22  45  1   
 46  23  25  1   
 47  23  26  1   
 48  24  46  1   
 49  24  47  1   
 50  24  48  1   
 51  25  49  1   
 52  25  50  1   
 53  26  51  1   
 54  26  52  1   
 55  26  53  1   
@<TRIPOS>SUBSTRUCTURE
  1 ****   5 GROUP 4 **** **** 0

# MOE 2024.06 (io_trps.svl 2023.06)
