@<TRIPOS>MOLECULE
NONAME
37 39 1 0 0 
SMALL
USER_CHARGES


@<TRIPOS>ATOM
  1 S        0.0150     0.1290     0.9590 S.3   1 <1>  -0.0800 
  2 C       -0.3140    -1.5800     1.1240 C.2   1 <1>  -0.1100 
  3 C        1.2980    -0.1920    -0.1870 C.2   1 <1>  -0.1100 
  4 C        0.4960    -2.3360     0.3400 C.2   1 <1>  -0.0860 
  5 C        1.4220    -1.5140    -0.3980 C.2   1 <1>  -0.1500 
  6 C        0.5050    -3.7810     0.2160 C.2   1 <1>   0.7160 
  7 O        1.5500    -4.3600    -0.0150 O.2   1 <1>  -0.5700 
  8 N       -0.6460    -4.5270     0.3340 N.am  1 <1>  -0.6600 
  9 C       -2.0170    -4.0080     0.0910 C.3   1 <1>   0.1400 
 10 C       -0.6330    -6.0100     0.2480 C.3   1 <1>   0.1400 
 11 C       -2.8000    -5.2090    -0.4360 C.3   1 <1>   0.2000 
 12 C       -2.1010    -6.4280     0.1570 C.3   1 <1>  -0.0800 
 13 O       -4.1250    -5.1700    -0.0370 O.3   1 <1>  -0.6800 
 14 C       -2.3250    -7.7130    -0.6540 C.3   1 <1>   0.0210 
 15 C       -1.5190    -8.8630    -0.0840 C.2   1 <1>   0.1080 
 16 N       -1.6450    -9.2720     1.1400 N.2   1 <1>  -0.7070 
 17 C       -0.5630    -9.5910    -0.7860 C.2   1 <1>  -0.1500 
 18 N       -0.7650   -10.2850     1.2530 N.pl3 1 <1>   0.3000 
 19 C       -0.0960   -10.4960     0.1000 C.2   1 <1>  -0.3320 
 20 C        0.9640   -11.5650    -0.0880 C.3   1 <1>  -0.0600 
 21 H       -1.0920    -1.8630     1.8100 H     1 <1>   0.1500 
 22 H        1.8330     0.6530    -0.5840 H     1 <1>   0.1500 
 23 H        2.1420    -1.9740    -1.0540 H     1 <1>   0.1500 
 24 H       -2.4340    -3.6660     1.0210 H     1 <1>   0.0800 
 25 H       -2.0060    -3.2110    -0.6330 H     1 <1>   0.0800 
 26 H       -0.0920    -6.3080    -0.6350 H     1 <1>   0.0800 
 27 H       -0.1570    -6.4400     1.1140 H     1 <1>   0.0800 
 28 H       -2.7680    -5.2180    -1.5130 H     1 <1>   0.0800 
 29 H       -2.4440    -6.5860     1.1650 H     1 <1>   0.0800 
 30 H       -4.1980    -5.3590     0.9190 H     1 <1>   0.4000 
 31 H       -2.0460    -7.5560    -1.6800 H     1 <1>   0.0800 
 32 H       -3.3670    -7.9770    -0.6280 H     1 <1>   0.0800 
 33 H       -0.2770    -9.4420    -1.8110 H     1 <1>   0.1500 
 34 H       -0.6460   -10.8110     2.1270 H     1 <1>   0.2700 
 35 H        1.3480   -11.5320    -1.0920 H     1 <1>   0.0800 
 36 H        0.5450   -12.5400     0.0870 H     1 <1>   0.0800 
 37 H        1.7800   -11.4040     0.5950 H     1 <1>   0.0800 
@<TRIPOS>BOND
  1   1   2  1   
  2   1   3  1   
  3   2   4  2   
  4   2  21  1   
  5   3   5  2   
  6   3  22  1   
  7   4   5  1   
  8   4   6  1   
  9   5  23  1   
 10   6   7  2   
 11   6   8  am  
 12   8   9  1   
 13   8  10  1   
 14   9  11  1   
 15   9  24  1   
 16   9  25  1   
 17  10  12  1   
 18  10  26  1   
 19  10  27  1   
 20  11  12  1   
 21  11  13  1   
 22  11  28  1   
 23  12  14  1   
 24  12  29  1   
 25  13  30  1   
 26  14  15  1   
 27  14  31  1   
 28  14  32  1   
 29  15  16  2   
 30  15  17  1   
 31  16  18  1   
 32  17  19  2   
 33  17  33  1   
 34  18  19  1   
 35  18  34  1   
 36  19  20  1   
 37  20  35  1   
 38  20  36  1   
 39  20  37  1   
@<TRIPOS>SUBSTRUCTURE
  1 ****  10 GROUP 4 **** **** 0

# MOE 2024.06 (io_trps.svl 2023.06)
