@<TRIPOS>MOLECULE
NONAME
48 50 1 0 0 
SMALL
USER_CHARGES


@<TRIPOS>ATOM
  1 O        2.1830    -0.4740    -2.4660 O.2   1 <1>  -0.5700 
  2 C        1.6310    -0.6490    -1.3930 C.2   1 <1>   0.5440 
  3 N        1.1960     0.4660    -0.7350 N.am  1 <1>  -0.7300 
  4 C        1.5160    -1.9710    -0.8240 C.ar  1 <1>   0.0860 
  5 C        1.2910     1.8310    -1.3100 C.3   1 <1>   0.2200 
  6 C        0.2780    -2.5100    -0.3650 C.ar  1 <1>   0.0000 
  7 C        2.6530    -2.7490    -0.7240 C.ar  1 <1>  -0.1500 
  8 C        2.7240     2.3430    -1.1830 C.3   1 <1>   0.3430 
  9 C        0.5160     2.8080    -0.4410 C.3   1 <1>  -0.1600 
 10 C        0.2550    -3.7960     0.2320 C.ar  1 <1>   0.0000 
 11 C       -0.9510    -1.8200    -0.4870 C.ar  1 <1>  -0.1500 
 12 C        2.6230    -4.0210    -0.1730 C.ar  1 <1>  -0.1500 
 13 N        2.8410     2.7590     0.2410 N.4   1 <1>  -0.9590 
 14 C        1.4520     3.1200     0.7350 C.3   1 <1>   0.3170 
 15 C        1.4520    -4.5650     0.3020 C.ar  1 <1>   0.1000 
 16 C       -0.9700    -4.2760     0.7450 C.ar  1 <1>  -0.1500 
 17 C       -2.1240    -2.3260    -0.0010 C.ar  1 <1>  -0.1500 
 18 C        3.8990     3.7410     0.5840 C.3   1 <1>   0.2630 
 19 C        1.0890     2.2490     1.9530 C.2   1 <1>   0.9060 
 20 N        1.4610    -5.8560     0.8120 N.pl3 1 <1>  -0.8380 
 21 C       -2.1330    -3.5680     0.6330 C.ar  1 <1>  -0.1500 
 22 O        1.6420     1.1370     1.9940 O.co2 1 <1>  -0.9000 
 23 O        0.3250     2.6760     2.8170 O.co2 1 <1>  -0.9000 
 24 C        2.4130    -6.2390     1.8860 C.3   1 <1>   0.1290 
 25 C        0.9010    -6.9630    -0.0030 C.3   1 <1>   0.1290 
 26 H        1.1180     0.4110     0.3030 H     1 <1>   0.3700 
 27 H        0.9540     1.8230    -2.3340 H     1 <1>   0.0800 
 28 H        3.5900    -2.3640    -1.0850 H     1 <1>   0.1500 
 29 H        2.8570     3.1950    -1.8270 H     1 <1>   0.0800 
 30 H        3.4330     1.5740    -1.4430 H     1 <1>   0.0800 
 31 H       -0.4330     2.4120    -0.1180 H     1 <1>   0.0800 
 32 H        0.3340     3.7170    -0.9860 H     1 <1>   0.0800 
 33 H       -0.9750    -0.8640    -0.9760 H     1 <1>   0.1500 
 34 H        3.5290    -4.5940    -0.1260 H     1 <1>   0.1500 
 35 H        2.9830     1.8780     0.7970 H     1 <1>   0.4500 
 36 H        1.3810     4.1530     1.0220 H     1 <1>   0.0800 
 37 H       -0.9750    -5.2290     1.2400 H     1 <1>   0.1500 
 38 H       -3.0450    -1.7780    -0.0960 H     1 <1>   0.1500 
 39 H        3.7200     4.6750     0.0780 H     1 <1>   0.0800 
 40 H        4.8650     3.3620     0.2930 H     1 <1>   0.0800 
 41 H        3.9040     3.9170     1.6480 H     1 <1>   0.0800 
 42 H       -3.0560    -3.9520     1.0290 H     1 <1>   0.1500 
 43 H        1.9130    -6.8600     2.6080 H     1 <1>   0.0800 
 44 H        2.7770    -5.3560     2.3830 H     1 <1>   0.0800 
 45 H        3.2450    -6.7760     1.4670 H     1 <1>   0.0800 
 46 H        0.2640    -7.5780     0.6090 H     1 <1>   0.0800 
 47 H        1.6980    -7.5620    -0.4050 H     1 <1>   0.0800 
 48 H        0.3220    -6.5630    -0.8170 H     1 <1>   0.0800 
@<TRIPOS>BOND
  1   1   2  2   
  2   2   3  am  
  3   2   4  1   
  4   3   5  1   
  5   3  26  1   
  6   4   6  ar  
  7   4   7  ar  
  8   5   8  1   
  9   5   9  1   
 10   5  27  1   
 11   6  10  ar  
 12   6  11  ar  
 13   7  12  ar  
 14   7  28  1   
 15   8  13  1   
 16   8  29  1   
 17   8  30  1   
 18   9  14  1   
 19   9  31  1   
 20   9  32  1   
 21  10  15  ar  
 22  10  16  ar  
 23  11  17  ar  
 24  11  33  1   
 25  12  15  ar  
 26  12  34  1   
 27  13  14  1   
 28  13  18  1   
 29  13  35  1   
 30  14  19  1   
 31  14  36  1   
 32  15  20  1   
 33  16  21  ar  
 34  16  37  1   
 35  17  21  ar  
 36  17  38  1   
 37  18  39  1   
 38  18  40  1   
 39  18  41  1   
 40  19  22  ar  
 41  19  23  ar  
 42  20  24  1   
 43  20  25  1   
 44  21  42  1   
 45  24  43  1   
 46  24  44  1   
 47  24  45  1   
 48  25  46  1   
 49  25  47  1   
 50  25  48  1   
@<TRIPOS>SUBSTRUCTURE
  1 ****   4 GROUP 4 **** **** 0

# MOE 2024.06 (io_trps.svl 2023.06)
