@<TRIPOS>MOLECULE
NONAME
50 52 1 0 0 
SMALL
USER_CHARGES


@<TRIPOS>ATOM
  1 O       -0.4110     0.2220    -1.5300 O.2   1 <1>  -0.5700 
  2 C       -1.3830     0.8620    -1.1710 C.2   1 <1>   0.5440 
  3 N       -2.5300     0.1850    -0.8340 N.am  1 <1>  -0.6600 
  4 C       -1.3140     2.3050    -1.1140 C.ar  1 <1>   0.0860 
  5 C       -3.7610     0.8010    -0.2940 C.3   1 <1>   0.1400 
  6 C       -2.6330    -1.2880    -0.8320 C.3   1 <1>   0.1400 
  7 C       -1.2420     3.0420     0.0810 C.ar  1 <1>   0.0830 
  8 C       -1.3520     3.0190    -2.3110 C.ar  1 <1>  -0.1500 
  9 C       -4.4280    -0.3180     0.5140 C.3   1 <1>  -0.0800 
 10 C       -3.9890    -1.6150    -0.1950 C.3   1 <1>  -0.0800 
 11 O       -1.1630     2.4900     1.3160 O.3   1 <1>  -0.3630 
 12 C       -1.2580     4.4280     0.0480 C.ar  1 <1>  -0.1500 
 13 C       -1.3510     4.4000    -2.3350 C.ar  1 <1>  -0.1500 
 14 C       -5.9640    -0.1750     0.7460 C.3   1 <1>   0.2800 
 15 C       -5.0340    -2.0560    -1.2310 C.3   1 <1>  -0.1600 
 16 C       -0.3330     1.3740     1.5640 C.3   1 <1>   0.0400 
 17 C       -1.3120     5.1160    -1.1500 C.ar  1 <1>  -0.1430 
 18 O       -6.5400     0.5480    -0.2820 O.3   1 <1>  -0.6800 
 19 C       -6.6310    -1.5630     0.7320 C.3   1 <1>  -0.1600 
 20 C       -6.3040     0.5620     2.0610 C.3   1 <1>  -0.1600 
 21 C       -6.3970    -2.3500    -0.5760 C.3   1 <1>  -0.1600 
 22 C       -1.3210     6.6340    -1.1810 C.3   1 <1>  -0.0970 
 23 C       -5.7600     1.9960     2.1820 C.3   1 <1>  -0.2400 
 24 H       -3.5410     1.6530     0.3220 H     1 <1>   0.0800 
 25 H       -4.3690     1.1090    -1.1260 H     1 <1>   0.0800 
 26 H       -2.5590    -1.6650    -1.8380 H     1 <1>   0.0800 
 27 H       -1.8300    -1.6950    -0.2430 H     1 <1>   0.0800 
 28 H       -1.3870     2.4700    -3.2360 H     1 <1>   0.1500 
 29 H       -3.9500    -0.3320     1.4770 H     1 <1>   0.0800 
 30 H       -3.8610    -2.4100     0.5190 H     1 <1>   0.0800 
 31 H       -1.2200     4.9630     0.9800 H     1 <1>   0.1500 
 32 H       -1.3840     4.9190    -3.2770 H     1 <1>   0.1500 
 33 H       -5.1580    -1.2640    -1.9520 H     1 <1>   0.0800 
 34 H       -4.6930    -2.9270    -1.7620 H     1 <1>   0.0800 
 35 H       -0.0330     1.4030     2.5960 H     1 <1>   0.0800 
 36 H        0.5350     1.4260     0.9290 H     1 <1>   0.0800 
 37 H       -0.8880     0.4740     1.3750 H     1 <1>   0.0800 
 38 H       -7.5030     0.5830    -0.1500 H     1 <1>   0.4000 
 39 H       -6.2190    -2.1340     1.5450 H     1 <1>   0.0800 
 40 H       -7.6870    -1.4770     0.9180 H     1 <1>   0.0800 
 41 H       -7.3730     0.5920     2.1750 H     1 <1>   0.0800 
 42 H       -5.9210    -0.0130     2.8860 H     1 <1>   0.0800 
 43 H       -6.4740    -3.4020    -0.3630 H     1 <1>   0.0800 
 44 H       -7.1710    -2.1070    -1.2830 H     1 <1>   0.0800 
 45 H       -2.1350     6.9850    -1.7900 H     1 <1>   0.0800 
 46 H       -0.3960     6.9960    -1.5920 H     1 <1>   0.0800 
 47 H       -1.4380     7.0360    -0.1910 H     1 <1>   0.0800 
 48 H       -6.0620     2.5940     1.3400 H     1 <1>   0.0800 
 49 H       -4.6860     1.9960     2.2400 H     1 <1>   0.0800 
 50 H       -6.1400     2.4560     3.0770 H     1 <1>   0.0800 
@<TRIPOS>BOND
  1   1   2  2   
  2   2   3  am  
  3   2   4  1   
  4   3   5  1   
  5   3   6  1   
  6   4   7  ar  
  7   4   8  ar  
  8   5   9  1   
  9   5  24  1   
 10   5  25  1   
 11   6  10  1   
 12   6  26  1   
 13   6  27  1   
 14   7  11  1   
 15   7  12  ar  
 16   8  13  ar  
 17   8  28  1   
 18   9  10  1   
 19   9  14  1   
 20   9  29  1   
 21  10  15  1   
 22  10  30  1   
 23  11  16  1   
 24  12  17  ar  
 25  12  31  1   
 26  13  17  ar  
 27  13  32  1   
 28  14  18  1   
 29  14  19  1   
 30  14  20  1   
 31  15  21  1   
 32  15  33  1   
 33  15  34  1   
 34  16  35  1   
 35  16  36  1   
 36  16  37  1   
 37  17  22  1   
 38  18  38  1   
 39  19  21  1   
 40  19  39  1   
 41  19  40  1   
 42  20  23  1   
 43  20  41  1   
 44  20  42  1   
 45  21  43  1   
 46  21  44  1   
 47  22  45  1   
 48  22  46  1   
 49  22  47  1   
 50  23  48  1   
 51  23  49  1   
 52  23  50  1   
@<TRIPOS>SUBSTRUCTURE
  1 ****   5 GROUP 4 **** **** 0

# MOE 2024.06 (io_trps.svl 2023.06)
