@<TRIPOS>MOLECULE
NONAME
52 56 1 0 0 
SMALL
USER_CHARGES


@<TRIPOS>ATOM
  1 O       -3.4000     0.5630     0.6800 O.2   1 <1>  -0.5700 
  2 C       -3.3310     1.3060    -0.2850 C.2   1 <1>   0.5440 
  3 N       -4.0110     0.8940    -1.4060 N.am  1 <1>  -0.6600 
  4 C       -2.5980     2.5600    -0.2420 C.ar  1 <1>   0.0860 
  5 C       -5.4960     1.0800    -1.4060 C.3   1 <1>   0.1400 
  6 C       -3.5950    -0.4100    -2.0190 C.3   1 <1>   0.1400 
  7 C       -2.4600     3.3810    -1.3630 C.ar  1 <1>  -0.1500 
  8 C       -1.9920     3.0050     0.9330 C.ar  1 <1>  -0.1500 
  9 C       -6.2180    -0.0560    -0.6270 C.3   1 <1>   0.4230 
 10 C       -4.4790    -1.5920    -1.5490 C.3   1 <1>   0.3430 
 11 C       -1.7620     4.5730    -1.3100 C.ar  1 <1>  -0.1500 
 12 C       -1.2950     4.1960     0.9860 C.ar  1 <1>  -0.1500 
 13 N       -5.2940    -1.2160    -0.3430 N.4   1 <1>  -0.9590 
 14 C       -7.4940    -0.5310    -1.3610 C.3   1 <1>   0.1200 
 15 C       -1.1580     5.0180    -0.1330 C.ar  1 <1>   0.0540 
 16 C       -6.0260    -2.3240     0.3370 C.3   1 <1>   0.5180 
 17 O       -8.1110    -1.5750    -0.6600 O.3   1 <1>  -0.5600 
 18 C       -0.4230     6.2700    -0.0660 C.2   1 <1>   0.4620 
 19 C       -5.0910    -3.5210     0.5440 C.3   1 <1>  -0.1950 
 20 C       -7.3090    -2.7050    -0.4330 C.3   1 <1>   0.1200 
 21 N       -0.2710     7.0800    -1.1220 N.2   1 <1>  -0.2270 
 22 N        0.1530     6.7300     0.9980 N.2   1 <1>  -0.7070 
 23 C       -5.1230    -4.2850     1.8320 C.3   1 <1>  -0.2000 
 24 C       -3.9260    -3.4480     1.4850 C.3   1 <1>  -0.2000 
 25 N        0.4130     8.0750    -0.7260 N.2   1 <1>  -0.4180 
 26 N        0.6620     7.8500     0.5490 N.pl3 1 <1>   0.5800 
 27 C        1.4300     8.7700     1.3910 C.3   1 <1>   0.0160 
 28 H       -5.7440     2.0270    -0.9560 H     1 <1>   0.0800 
 29 H       -5.8410     1.1120    -2.4250 H     1 <1>   0.0800 
 30 H       -3.6300    -0.3340    -3.0920 H     1 <1>   0.0800 
 31 H       -2.5730    -0.6160    -1.7480 H     1 <1>   0.0800 
 32 H       -2.9030     3.0840    -2.2970 H     1 <1>   0.1500 
 33 H       -2.0680     2.4040     1.8240 H     1 <1>   0.1500 
 34 H       -6.5360     0.3590     0.3160 H     1 <1>   0.0800 
 35 H       -3.8370    -2.4270    -1.3210 H     1 <1>   0.0800 
 36 H       -5.1320    -1.8900    -2.3510 H     1 <1>   0.0800 
 37 H       -1.6820     5.1730    -2.2010 H     1 <1>   0.1500 
 38 H       -0.8430     4.5010     1.9150 H     1 <1>   0.1500 
 39 H       -4.5950    -0.8300     0.3270 H     1 <1>   0.4500 
 40 H       -7.2690    -0.8730    -2.3560 H     1 <1>   0.0800 
 41 H       -8.2040     0.2750    -1.4290 H     1 <1>   0.0800 
 42 H       -6.3290    -1.9760     1.3120 H     1 <1>   0.0800 
 43 H       -4.9820    -4.1230    -0.3430 H     1 <1>   0.1000 
 44 H       -7.8870    -3.4050     0.1450 H     1 <1>   0.0800 
 45 H       -7.0740    -3.1580    -1.3800 H     1 <1>   0.0800 
 46 H       -5.7480    -3.9570     2.6460 H     1 <1>   0.1000 
 47 H       -5.0150    -5.3570     1.8110 H     1 <1>   0.1000 
 48 H       -3.0100    -3.9550     1.2330 H     1 <1>   0.1000 
 49 H       -3.7500    -2.5550     2.0630 H     1 <1>   0.1000 
 50 H        2.0510     8.1990     2.0550 H     1 <1>   0.0800 
 51 H        0.7470     9.3720     1.9590 H     1 <1>   0.0800 
 52 H        2.0400     9.3960     0.7680 H     1 <1>   0.0800 
@<TRIPOS>BOND
  1   1   2  2   
  2   2   3  am  
  3   2   4  1   
  4   3   5  1   
  5   3   6  1   
  6   4   7  ar  
  7   4   8  ar  
  8   5   9  1   
  9   5  28  1   
 10   5  29  1   
 11   6  10  1   
 12   6  30  1   
 13   6  31  1   
 14   7  11  ar  
 15   7  32  1   
 16   8  12  ar  
 17   8  33  1   
 18   9  13  1   
 19   9  14  1   
 20   9  34  1   
 21  10  13  1   
 22  10  35  1   
 23  10  36  1   
 24  11  15  ar  
 25  11  37  1   
 26  12  15  ar  
 27  12  38  1   
 28  13  16  1   
 29  13  39  1   
 30  14  17  1   
 31  14  40  1   
 32  14  41  1   
 33  15  18  1   
 34  16  19  1   
 35  16  20  1   
 36  16  42  1   
 37  17  20  1   
 38  18  21  1   
 39  18  22  2   
 40  19  23  1   
 41  19  24  1   
 42  19  43  1   
 43  20  44  1   
 44  20  45  1   
 45  21  25  2   
 46  22  26  1   
 47  23  24  1   
 48  23  46  1   
 49  23  47  1   
 50  24  48  1   
 51  24  49  1   
 52  25  26  1   
 53  26  27  1   
 54  27  50  1   
 55  27  51  1   
 56  27  52  1   
@<TRIPOS>SUBSTRUCTURE
  1 ****   2 GROUP 4 **** **** 0

# MOE 2024.06 (io_trps.svl 2023.06)
