@<TRIPOS>MOLECULE
NONAME
49 52 1 0 0 
SMALL
USER_CHARGES


@<TRIPOS>ATOM
  1 O        0.7830     0.3960    -0.0950 O.3   1 <1>  -0.6800 
  2 C        1.8560     0.0120    -0.8930 C.3   1 <1>   0.2000 
  3 C        2.4500    -1.2600    -0.3000 C.3   1 <1>  -0.0800 
  4 C        2.9760     1.0470    -0.7180 C.3   1 <1>   0.3430 
  5 C        3.2350    -0.7170     0.8980 C.3   1 <1>   0.3430 
  6 C        3.3500    -1.9920    -1.3160 C.3   1 <1>   0.0210 
  7 N        3.7740     0.6090     0.4760 N.4   1 <1>  -0.9590 
  8 C        4.1240    -3.1190    -0.6640 C.2   1 <1>   0.1080 
  9 C        3.7190     1.5970     1.5850 C.3   1 <1>   0.4860 
 10 N        5.1990    -2.9110     0.0300 N.2   1 <1>  -0.7070 
 11 C        3.7890    -4.4660    -0.7340 C.2   1 <1>  -0.1500 
 12 C        4.2450     2.9330     1.0920 C.ar  1 <1>  -0.1440 
 13 N        5.5960    -4.1440     0.4150 N.pl3 1 <1>   0.3000 
 14 C        4.7520    -5.0980    -0.0300 C.2   1 <1>  -0.3320 
 15 C        5.5770     3.0760     0.7380 C.ar  1 <1>  -0.1500 
 16 C        3.3910     4.0200     0.9820 C.ar  1 <1>  -0.1500 
 17 C        4.9250    -6.5820     0.2410 C.3   1 <1>  -0.0600 
 18 C        6.0710     4.2860     0.2570 C.ar  1 <1>  -0.0230 
 19 C        3.8670     5.2310     0.5110 C.ar  1 <1>  -0.1500 
 20 N        7.4410     4.4020    -0.1220 N.pl3 1 <1>   0.5930 
 21 C        5.1950     5.3620     0.1480 C.ar  1 <1>  -0.1500 
 22 N        8.1570     3.3530    -0.6080 N.2   1 <1>  -0.7070 
 23 C        8.2290     5.5050    -0.0660 C.2   1 <1>  -0.3020 
 24 C        9.3440     3.8190    -0.8430 C.2   1 <1>   0.1390 
 25 C        9.4520     5.1660    -0.5230 C.2   1 <1>  -0.1500 
 26 H       -0.0170    -0.1380    -0.2930 H     1 <1>   0.4000 
 27 H        1.5210    -0.0770    -1.9130 H     1 <1>   0.0800 
 28 H        1.6870    -1.9420     0.0320 H     1 <1>   0.0800 
 29 H        2.5610     2.0330    -0.5930 H     1 <1>   0.0800 
 30 H        3.6090     1.0420    -1.5890 H     1 <1>   0.0800 
 31 H        4.0160    -1.3820     1.2220 H     1 <1>   0.0800 
 32 H        2.5440    -0.5770     1.7130 H     1 <1>   0.0800 
 33 H        4.0640    -1.3210    -1.7600 H     1 <1>   0.0800 
 34 H        2.7480    -2.3980    -2.1100 H     1 <1>   0.0800 
 35 H        4.7570     0.4910     0.1920 H     1 <1>   0.4500 
 36 H        2.7010     1.7100     1.9210 H     1 <1>   0.0800 
 37 H        4.3190     1.2570     2.4140 H     1 <1>   0.0800 
 38 H        2.9450    -4.8930    -1.2460 H     1 <1>   0.1500 
 39 H        6.4450    -4.3060     0.9710 H     1 <1>   0.2700 
 40 H        6.2580     2.2460     0.8280 H     1 <1>   0.1500 
 41 H        2.3520     3.9390     1.2570 H     1 <1>   0.1500 
 42 H        4.1280    -7.1380    -0.2200 H     1 <1>   0.0800 
 43 H        4.9060    -6.7740     1.3000 H     1 <1>   0.0800 
 44 H        5.8600    -6.9280    -0.1620 H     1 <1>   0.0800 
 45 H        3.2020     6.0750     0.4260 H     1 <1>   0.1500 
 46 H        5.5440     6.3100    -0.2260 H     1 <1>   0.1500 
 47 H        7.8750     6.4510     0.2950 H     1 <1>   0.1500 
 48 H       10.1500     3.2240    -1.2410 H     1 <1>   0.1500 
 49 H       10.3330     5.7740    -0.6270 H     1 <1>   0.1500 
@<TRIPOS>BOND
  1   1   2  1   
  2   1  26  1   
  3   2   3  1   
  4   2   4  1   
  5   2  27  1   
  6   3   5  1   
  7   3   6  1   
  8   3  28  1   
  9   4   7  1   
 10   4  29  1   
 11   4  30  1   
 12   5   7  1   
 13   5  31  1   
 14   5  32  1   
 15   6   8  1   
 16   6  33  1   
 17   6  34  1   
 18   7   9  1   
 19   7  35  1   
 20   8  10  2   
 21   8  11  1   
 22   9  12  1   
 23   9  36  1   
 24   9  37  1   
 25  10  13  1   
 26  11  14  2   
 27  11  38  1   
 28  12  15  ar  
 29  12  16  ar  
 30  13  14  1   
 31  13  39  1   
 32  14  17  1   
 33  15  18  ar  
 34  15  40  1   
 35  16  19  ar  
 36  16  41  1   
 37  17  42  1   
 38  17  43  1   
 39  17  44  1   
 40  18  20  1   
 41  18  21  ar  
 42  19  21  ar  
 43  19  45  1   
 44  20  22  1   
 45  20  23  1   
 46  21  46  1   
 47  22  24  2   
 48  23  25  2   
 49  23  47  1   
 50  24  25  1   
 51  24  48  1   
 52  25  49  1   
@<TRIPOS>SUBSTRUCTURE
  1 ****   7 GROUP 4 **** **** 0

# MOE 2024.06 (io_trps.svl 2023.06)
