@<TRIPOS>MOLECULE
NONAME
46 47 1 0 0 
SMALL
USER_CHARGES


@<TRIPOS>ATOM
  1 O        2.1040     0.1050     2.5590 O.2   1 <1>  -0.5700 
  2 C        2.5140    -0.7900     1.8610 C.2   1 <1>   0.5690 
  3 N        3.4820    -0.5890     0.9060 N.am  1 <1>  -0.6600 
  4 C        1.8710    -2.1550     2.0530 C.3   1 <1>  -0.0990 
  5 C        4.0090     0.7900     0.6350 C.3   1 <1>   0.1400 
  6 C        4.2120    -1.7090     0.2430 C.3   1 <1>   0.0600 
  7 C        0.7480    -2.3770     1.0270 C.3   1 <1>  -0.1600 
  8 C        3.3190     1.5180    -0.5560 C.3   1 <1>   0.0000 
  9 C        0.0040    -3.6950     1.2700 C.3   1 <1>   0.0960 
 10 C        1.8240     1.7970    -0.2610 C.3   1 <1>  -0.1600 
 11 C        4.0170     2.8860    -0.7610 C.3   1 <1>  -0.1600 
 12 C        3.4620     0.6400    -1.8230 C.3   1 <1>   0.1200 
 13 N       -1.0370    -3.8810     0.2420 N.pl3 1 <1>   0.0480 
 14 C        1.6380     2.8490     0.8390 C.3   1 <1>   0.1200 
 15 C        3.6900     3.8850     0.3590 C.3   1 <1>   0.1200 
 16 O        3.0060     1.2840    -2.9640 O.3   1 <1>  -0.6800 
 17 C       -2.2630    -3.3130     0.1940 C.2   1 <1>   0.0360 
 18 C       -0.9640    -4.6300    -0.8730 C.2   1 <1>  -0.3020 
 19 O        2.3080     4.0140     0.4700 O.3   1 <1>  -0.5600 
 20 N       -2.9560    -3.6430    -0.8470 N.2   1 <1>  -0.5650 
 21 C       -2.1390    -4.4740    -1.5210 C.2   1 <1>   0.0770 
 22 H        1.4580    -2.1870     3.0460 H     1 <1>   0.0800 
 23 H        2.6080    -2.9310     1.9870 H     1 <1>   0.0800 
 24 H        5.0660     0.7240     0.4440 H     1 <1>   0.0800 
 25 H        3.9040     1.3790     1.5290 H     1 <1>   0.0800 
 26 H        3.5330    -2.2870    -0.3590 H     1 <1>   0.0800 
 27 H        4.6570    -2.3450     0.9880 H     1 <1>   0.0800 
 28 H        4.9970    -1.3330    -0.3910 H     1 <1>   0.0800 
 29 H        1.1640    -2.3770     0.0350 H     1 <1>   0.0800 
 30 H        0.0490    -1.5590     1.0980 H     1 <1>   0.0800 
 31 H       -0.4650    -3.6880     2.2380 H     1 <1>   0.0800 
 32 H        0.6860    -4.5250     1.2230 H     1 <1>   0.0800 
 33 H        1.3180     0.8920     0.0220 H     1 <1>   0.0800 
 34 H        1.3320     2.1710    -1.1400 H     1 <1>   0.0800 
 35 H        3.6980     3.3380    -1.6830 H     1 <1>   0.0800 
 36 H        5.0830     2.7570    -0.8270 H     1 <1>   0.0800 
 37 H        2.8920    -0.2670    -1.7180 H     1 <1>   0.0800 
 38 H        4.4940     0.3860    -1.9940 H     1 <1>   0.0800 
 39 H        2.0160     2.5160     1.7900 H     1 <1>   0.0800 
 40 H        0.5960     3.0920     0.9520 H     1 <1>   0.0800 
 41 H        4.0890     4.8560     0.1220 H     1 <1>   0.0800 
 42 H        4.0840     3.5720     1.3100 H     1 <1>   0.0800 
 43 H        2.1180     1.6590    -2.8060 H     1 <1>   0.4000 
 44 H       -2.6130    -2.6460     0.9620 H     1 <1>   0.1500 
 45 H       -0.1070    -5.2190    -1.1420 H     1 <1>   0.1500 
 46 H       -2.4450    -4.9220    -2.4520 H     1 <1>   0.1500 
@<TRIPOS>BOND
  1   1   2  2   
  2   2   3  am  
  3   2   4  1   
  4   3   5  1   
  5   3   6  1   
  6   4   7  1   
  7   4  22  1   
  8   4  23  1   
  9   5   8  1   
 10   5  24  1   
 11   5  25  1   
 12   6  26  1   
 13   6  27  1   
 14   6  28  1   
 15   7   9  1   
 16   7  29  1   
 17   7  30  1   
 18   8  10  1   
 19   8  11  1   
 20   8  12  1   
 21   9  13  1   
 22   9  31  1   
 23   9  32  1   
 24  10  14  1   
 25  10  33  1   
 26  10  34  1   
 27  11  15  1   
 28  11  35  1   
 29  11  36  1   
 30  12  16  1   
 31  12  37  1   
 32  12  38  1   
 33  13  17  1   
 34  13  18  1   
 35  14  19  1   
 36  14  39  1   
 37  14  40  1   
 38  15  19  1   
 39  15  41  1   
 40  15  42  1   
 41  16  43  1   
 42  17  20  2   
 43  17  44  1   
 44  18  21  2   
 45  18  45  1   
 46  20  21  1   
 47  21  46  1   
@<TRIPOS>SUBSTRUCTURE
  1 ****   2 GROUP 4 **** **** 0

# MOE 2024.06 (io_trps.svl 2023.06)
