@<TRIPOS>MOLECULE
NONAME
38 39 1 0 0 
SMALL
USER_CHARGES


@<TRIPOS>ATOM
  1 S        0.2420    -1.3770     0.3060 S.3   1 <1>  -0.0800 
  2 C       -0.7840    -2.1990    -0.8620 C.2   1 <1>  -0.1400 
  3 C        1.2790    -2.7830     0.4530 C.2   1 <1>  -0.1100 
  4 C       -0.3250    -3.4440    -1.0970 C.2   1 <1>  -0.1500 
  5 C       -1.9730    -1.4330    -1.3970 C.3   1 <1>   0.5230 
  6 C        0.8480    -3.7750    -0.3460 C.2   1 <1>  -0.1500 
  7 N       -2.7930    -0.9960    -0.2320 N.4   1 <1>  -0.9590 
  8 C       -3.9520    -1.8980     0.0220 C.3   1 <1>   0.4860 
  9 C       -3.2340     0.4310    -0.3390 C.3   1 <1>   0.3430 
 10 C       -3.4510    -3.2780     0.4140 C.ar  1 <1>  -0.1430 
 11 C       -2.0730     1.4300    -0.2020 C.3   1 <1>   0.1200 
 12 C       -2.8280    -3.4720     1.6390 C.ar  1 <1>  -0.1500 
 13 C       -3.6010    -4.3580    -0.4500 C.ar  1 <1>  -0.1500 
 14 O       -2.5960     2.6970    -0.3800 O.3   1 <1>  -0.6800 
 15 C       -2.3620    -4.7320     1.9540 C.ar  1 <1>   0.1900 
 16 C       -3.1270    -5.6290    -0.1240 C.ar  1 <1>  -0.1430 
 17 F       -1.7700    -4.9080     3.1030 F     1 <1>  -0.1900 
 18 C       -2.4960    -5.8100     1.1030 C.ar  1 <1>  -0.1500 
 19 C       -3.2970    -6.7900    -1.1190 C.3   1 <1>   1.1630 
 20 F       -2.5580    -6.5990    -2.2040 F     1 <1>  -0.3400 
 21 F       -2.9510    -7.9720    -0.6270 F     1 <1>  -0.3400 
 22 F       -4.5510    -6.9030    -1.5360 F     1 <1>  -0.3400 
 23 H        2.1150    -2.7200     1.1280 H     1 <1>   0.1500 
 24 H       -0.7540    -4.1690    -1.7680 H     1 <1>   0.1500 
 25 H       -2.5490    -2.0550    -2.0620 H     1 <1>   0.0800 
 26 H       -1.6140    -0.5800    -1.9500 H     1 <1>   0.0800 
 27 H        1.3120    -4.7430    -0.4420 H     1 <1>   0.1500 
 28 H       -2.1640    -1.0970     0.5770 H     1 <1>   0.4500 
 29 H       -4.5730    -1.9660    -0.8560 H     1 <1>   0.0800 
 30 H       -4.5520    -1.5060     0.8280 H     1 <1>   0.0800 
 31 H       -3.9440     0.6480     0.4420 H     1 <1>   0.0800 
 32 H       -3.7200     0.5930    -1.2880 H     1 <1>   0.0800 
 33 H       -1.3190     1.2780    -0.9550 H     1 <1>   0.0800 
 34 H       -1.6350     1.3840     0.7810 H     1 <1>   0.0800 
 35 H       -2.6940    -2.6790     2.3530 H     1 <1>   0.1500 
 36 H       -4.0950    -4.2200    -1.4000 H     1 <1>   0.1500 
 37 H       -1.9110     3.3930    -0.2760 H     1 <1>   0.4000 
 38 H       -2.1070    -6.7670     1.4090 H     1 <1>   0.1500 
@<TRIPOS>BOND
  1   1   2  1   
  2   1   3  1   
  3   2   4  2   
  4   2   5  1   
  5   3   6  2   
  6   3  23  1   
  7   4   6  1   
  8   4  24  1   
  9   5   7  1   
 10   5  25  1   
 11   5  26  1   
 12   6  27  1   
 13   7   8  1   
 14   7   9  1   
 15   7  28  1   
 16   8  10  1   
 17   8  29  1   
 18   8  30  1   
 19   9  11  1   
 20   9  31  1   
 21   9  32  1   
 22  10  12  ar  
 23  10  13  ar  
 24  11  14  1   
 25  11  33  1   
 26  11  34  1   
 27  12  15  ar  
 28  12  35  1   
 29  13  16  ar  
 30  13  36  1   
 31  14  37  1   
 32  15  17  1   
 33  15  18  ar  
 34  16  18  ar  
 35  16  19  1   
 36  18  38  1   
 37  19  20  1   
 38  19  21  1   
 39  19  22  1   
@<TRIPOS>SUBSTRUCTURE
  1 ****  10 GROUP 4 **** **** 0

# MOE 2024.06 (io_trps.svl 2023.06)
