@<TRIPOS>MOLECULE
NONAME
45 48 1 0 0 
SMALL
USER_CHARGES


@<TRIPOS>ATOM
  1 O       -0.6420     0.2430    -0.2350 O.2   1 <1>  -0.5700 
  2 C       -1.6530     0.8640     0.0460 C.2   1 <1>   0.5440 
  3 N       -2.8140     0.1270     0.2170 N.am  1 <1>  -0.6600 
  4 C       -1.5770     2.3240     0.1570 C.ar  1 <1>   0.3960 
  5 C       -2.8000    -1.3570     0.4270 C.3   1 <1>   0.1400 
  6 C       -4.2010     0.6810     0.1180 C.3   1 <1>   0.1400 
  7 N       -2.4090     3.0110     0.9610 N.ar  1 <1>  -0.6200 
  8 C       -0.6010     2.9890    -0.5950 C.ar  1 <1>   0.1600 
  9 C       -3.7310    -2.0690    -0.5690 C.3   1 <1>   0.3440 
 10 C       -5.0760    -0.1530    -0.8470 C.3   1 <1>   0.2950 
 11 C       -2.1960     4.3140     0.9480 C.ar  1 <1>   0.1600 
 12 N       -0.3960     4.2970    -0.6170 N.ar  1 <1>  -0.6200 
 13 O       -5.0170    -1.5090    -0.5100 O.3   1 <1>  -0.5600 
 14 C       -3.8060    -3.5620    -0.2620 C.ar  1 <1>  -0.1430 
 15 C       -6.5650     0.2360    -0.8650 C.3   1 <1>  -0.1950 
 16 C       -1.2210     4.9450     0.1820 C.ar  1 <1>   0.1670 
 17 C       -4.7520    -4.0780     0.6140 C.ar  1 <1>  -0.1500 
 18 C       -2.9000    -4.4290    -0.8580 C.ar  1 <1>  -0.1500 
 19 C       -7.0640     1.6260    -0.6060 C.3   1 <1>  -0.2000 
 20 C       -7.3660     0.5200     0.3670 C.3   1 <1>  -0.2000 
 21 C       -1.0520     6.4500     0.2280 C.3   1 <1>  -0.0970 
 22 C       -4.7920    -5.4340     0.8890 C.ar  1 <1>  -0.1500 
 23 C       -2.9380    -5.7850    -0.5840 C.ar  1 <1>  -0.1500 
 24 C       -3.8850    -6.2880     0.2900 C.ar  1 <1>  -0.1500 
 25 H       -1.8060    -1.7520     0.3200 H     1 <1>   0.0800 
 26 H       -3.1290    -1.5740     1.4280 H     1 <1>   0.0800 
 27 H       -4.6420     0.6890     1.0980 H     1 <1>   0.0800 
 28 H       -4.1760     1.6910    -0.2450 H     1 <1>   0.0800 
 29 H        0.0460     2.3940    -1.2160 H     1 <1>   0.1500 
 30 H       -3.3570    -1.9350    -1.5690 H     1 <1>   0.0800 
 31 H       -4.6870    -0.0440    -1.8450 H     1 <1>   0.0800 
 32 H       -2.8270     4.9160     1.5770 H     1 <1>   0.1500 
 33 H       -7.0750    -0.3070    -1.6430 H     1 <1>   0.1000 
 34 H       -5.4650    -3.4210     1.0830 H     1 <1>   0.1500 
 35 H       -2.1560    -4.0520    -1.5390 H     1 <1>   0.1500 
 36 H       -6.3960     2.4060    -0.2850 H     1 <1>   0.1000 
 37 H       -7.8660     2.0060    -1.2150 H     1 <1>   0.1000 
 38 H       -8.3680     0.1300     0.4200 H     1 <1>   0.1000 
 39 H       -6.8810     0.5190     1.3280 H     1 <1>   0.1000 
 40 H       -1.7590     6.9030     0.8980 H     1 <1>   0.0800 
 41 H       -1.1930     6.8580    -0.7560 H     1 <1>   0.0800 
 42 H       -0.0570     6.6900     0.5590 H     1 <1>   0.0800 
 43 H       -5.5310    -5.8210     1.5680 H     1 <1>   0.1500 
 44 H       -2.2320    -6.4490    -1.0520 H     1 <1>   0.1500 
 45 H       -3.9160    -7.3430     0.5030 H     1 <1>   0.1500 
@<TRIPOS>BOND
  1   1   2  2   
  2   2   3  am  
  3   2   4  1   
  4   3   5  1   
  5   3   6  1   
  6   4   7  ar  
  7   4   8  ar  
  8   5   9  1   
  9   5  25  1   
 10   5  26  1   
 11   6  10  1   
 12   6  27  1   
 13   6  28  1   
 14   7  11  ar  
 15   8  12  ar  
 16   8  29  1   
 17   9  13  1   
 18   9  14  1   
 19   9  30  1   
 20  10  13  1   
 21  10  15  1   
 22  10  31  1   
 23  11  16  ar  
 24  11  32  1   
 25  12  16  ar  
 26  14  17  ar  
 27  14  18  ar  
 28  15  19  1   
 29  15  20  1   
 30  15  33  1   
 31  16  21  1   
 32  17  22  ar  
 33  17  34  1   
 34  18  23  ar  
 35  18  35  1   
 36  19  20  1   
 37  19  36  1   
 38  19  37  1   
 39  20  38  1   
 40  20  39  1   
 41  21  40  1   
 42  21  41  1   
 43  21  42  1   
 44  22  24  ar  
 45  22  43  1   
 46  23  24  ar  
 47  23  44  1   
 48  24  45  1   
@<TRIPOS>SUBSTRUCTURE
  1 ****   3 GROUP 4 **** **** 0

# MOE 2024.06 (io_trps.svl 2023.06)
