@<TRIPOS>MOLECULE
NONAME
41 42 1 0 0 
SMALL
USER_CHARGES


@<TRIPOS>ATOM
  1 O       -1.5180    -1.3500     0.7610 O.3   1 <1>  -0.5600 
  2 C       -2.5830    -2.2480     0.5910 C.3   1 <1>   0.1200 
  3 C       -0.6600    -1.2620    -0.3450 C.3   1 <1>   0.1200 
  4 C       -2.0700    -3.6700     0.2660 C.3   1 <1>   0.3430 
  5 C       -0.0630    -2.6430    -0.7050 C.3   1 <1>   0.3430 
  6 N       -0.5650    -3.7170     0.2160 N.4   1 <1>  -0.9590 
  7 C       -0.0380    -5.0740    -0.1580 C.3   1 <1>   0.3430 
  8 C       -0.3000    -6.1630     0.9020 C.3   1 <1>   0.2090 
  9 N       -0.7080    -7.4250     0.2260 N.pl3 1 <1>  -0.8210 
 10 C       -2.0530    -7.5350    -0.1480 C.2   1 <1>   0.5990 
 11 C       -0.0580    -8.6610     0.7610 C.3   1 <1>   0.1290 
 12 N       -2.8300    -6.5460    -0.3770 N.2   1 <1>  -0.4100 
 13 N       -2.6400    -8.7110    -0.3050 N.2   1 <1>  -0.5650 
 14 O       -3.9930    -7.0460    -0.7040 O.3   1 <1>  -0.0190 
 15 C       -3.8060    -8.3420    -0.6410 C.2   1 <1>   0.2980 
 16 C       -4.9650    -9.2670    -0.9650 C.3   1 <1>   0.0200 
 17 C       -6.0860    -9.1610     0.0790 C.3   1 <1>  -0.1600 
 18 C       -7.2480   -10.1070    -0.2430 C.3   1 <1>  -0.2400 
 19 H       -3.2200    -1.8840    -0.1980 H     1 <1>   0.0800 
 20 H       -3.1520    -2.2590     1.5040 H     1 <1>   0.0800 
 21 H        0.1270    -0.5710    -0.0950 H     1 <1>   0.0800 
 22 H       -1.2110    -0.8570    -1.1770 H     1 <1>   0.0800 
 23 H       -2.4790    -3.9820    -0.6810 H     1 <1>   0.0800 
 24 H       -2.4410    -4.3540     1.0110 H     1 <1>   0.0800 
 25 H        1.0120    -2.5850    -0.6530 H     1 <1>   0.0800 
 26 H       -0.3250    -2.8800    -1.7230 H     1 <1>   0.0800 
 27 H       -0.2470    -3.4420     1.1570 H     1 <1>   0.4500 
 28 H        1.0240    -5.0180    -0.3280 H     1 <1>   0.0800 
 29 H       -0.5030    -5.3870    -1.0780 H     1 <1>   0.0800 
 30 H       -1.0790    -5.8650     1.5820 H     1 <1>   0.0800 
 31 H        0.5990    -6.3240     1.4720 H     1 <1>   0.0800 
 32 H        0.9970    -8.5030     0.9010 H     1 <1>   0.0800 
 33 H       -0.1860    -9.4740     0.0660 H     1 <1>   0.0800 
 34 H       -0.5060    -8.9360     1.7010 H     1 <1>   0.0800 
 35 H       -4.6000   -10.2780    -0.9990 H     1 <1>   0.0800 
 36 H       -5.3450    -9.0170    -1.9400 H     1 <1>   0.0800 
 37 H       -6.4540    -8.1490     0.1140 H     1 <1>   0.0800 
 38 H       -5.6900    -9.4040     1.0510 H     1 <1>   0.0800 
 39 H       -7.6770    -9.8700    -1.2010 H     1 <1>   0.0800 
 40 H       -8.0160   -10.0140     0.5050 H     1 <1>   0.0800 
 41 H       -6.9110   -11.1290    -0.2570 H     1 <1>   0.0800 
@<TRIPOS>BOND
  1   1   2  1   
  2   1   3  1   
  3   2   4  1   
  4   2  19  1   
  5   2  20  1   
  6   3   5  1   
  7   3  21  1   
  8   3  22  1   
  9   4   6  1   
 10   4  23  1   
 11   4  24  1   
 12   5   6  1   
 13   5  25  1   
 14   5  26  1   
 15   6   7  1   
 16   6  27  1   
 17   7   8  1   
 18   7  28  1   
 19   7  29  1   
 20   8   9  1   
 21   8  30  1   
 22   8  31  1   
 23   9  10  1   
 24   9  11  1   
 25  10  12  2   
 26  10  13  1   
 27  11  32  1   
 28  11  33  1   
 29  11  34  1   
 30  12  14  1   
 31  13  15  2   
 32  14  15  1   
 33  15  16  1   
 34  16  17  1   
 35  16  35  1   
 36  16  36  1   
 37  17  18  1   
 38  17  37  1   
 39  17  38  1   
 40  18  39  1   
 41  18  40  1   
 42  18  41  1   
@<TRIPOS>SUBSTRUCTURE
  1 ****  12 GROUP 4 **** **** 0

# MOE 2024.06 (io_trps.svl 2023.06)
