@<TRIPOS>MOLECULE
NONAME
60 62 1 0 0 
SMALL
USER_CHARGES


@<TRIPOS>ATOM
  1 O       -1.7950    -0.4700     2.1550 O.2   1 <1>  -0.5700 
  2 C       -1.8630     0.4730     1.4040 C.2   1 <1>   0.5690 
  3 N       -2.3780     0.3220     0.1340 N.am  1 <1>  -0.6600 
  4 C       -1.3510     1.8080     1.9490 C.3   1 <1>   0.0820 
  5 C       -2.3130    -1.0480    -0.4800 C.3   1 <1>   0.3210 
  6 C       -2.5930     1.4650    -0.8210 C.3   1 <1>   0.1400 
  7 C       -0.4030     2.5340     0.9960 C.2   1 <1>  -0.1810 
  8 C       -3.5980    -1.8570    -0.2950 C.2   1 <1>   0.0460 
  9 C       -3.9460     1.4420    -1.5580 C.3   1 <1>   0.3430 
 10 C       -0.5460     3.8560     0.4790 C.ar  1 <1>   0.0000 
 11 C        0.7150     1.9900     0.4520 C.2   1 <1>  -0.3320 
 12 N       -4.6710    -1.6790    -1.0990 N.2   1 <1>  -0.5650 
 13 C       -3.8400    -2.8410     0.6050 C.2   1 <1>  -0.3320 
 14 N       -5.1020     1.0990    -0.6700 N.4   1 <1>  -0.9590 
 15 C       -1.4270     4.9420     0.6700 C.ar  1 <1>  -0.1440 
 16 C        0.4990     4.0090    -0.4340 C.ar  1 <1>  -0.1520 
 17 N        1.2700     2.8800    -0.4150 N.pl3 1 <1>   0.0330 
 18 C        1.3550     0.6290     0.6750 C.3   1 <1>  -0.0600 
 19 C       -5.5240    -2.5580    -0.6810 C.2   1 <1>   0.0360 
 20 N       -5.0820    -3.2910     0.3590 N.pl3 1 <1>   0.0330 
 21 C       -2.9740    -3.4300     1.7080 C.3   1 <1>  -0.0600 
 22 C       -6.3750     1.0500    -1.4420 C.3   1 <1>   0.2630 
 23 C       -5.2200     1.9300     0.5610 C.3   1 <1>   0.2630 
 24 C       -1.2620     6.0810    -0.0870 C.ar  1 <1>  -0.1500 
 25 C       -2.5360     4.9240     1.7090 C.3   1 <1>  -0.0970 
 26 C        0.6630     5.1660    -1.2010 C.ar  1 <1>  -0.1440 
 27 C       -0.2310     6.1930    -1.0220 C.ar  1 <1>  -0.1500 
 28 C        1.8050     5.2790    -2.1960 C.3   1 <1>  -0.0970 
 29 H       -0.8210     1.6240     2.8660 H     1 <1>   0.0800 
 30 H       -2.2030     2.4000     2.1940 H     1 <1>   0.0800 
 31 H       -1.4970    -1.5940    -0.0390 H     1 <1>   0.0800 
 32 H       -2.1000    -0.9700    -1.5310 H     1 <1>   0.0800 
 33 H       -1.7920     1.4830    -1.5400 H     1 <1>   0.0800 
 34 H       -2.5580     2.3970    -0.2930 H     1 <1>   0.0800 
 35 H       -3.8870     0.7100    -2.3460 H     1 <1>   0.0800 
 36 H       -4.1080     2.4030    -2.0160 H     1 <1>   0.0800 
 37 H       -4.8950     0.1120    -0.3810 H     1 <1>   0.4500 
 38 H        2.1300     2.7510    -0.9560 H     1 <1>   0.2700 
 39 H        0.8770     0.1000     1.4800 H     1 <1>   0.0800 
 40 H        2.3930     0.7490     0.9310 H     1 <1>   0.0800 
 41 H        1.2840     0.0340    -0.2170 H     1 <1>   0.0800 
 42 H       -6.5000    -2.7160    -1.1080 H     1 <1>   0.1500 
 43 H       -5.5760    -4.0460     0.8450 H     1 <1>   0.2700 
 44 H       -1.9770    -3.0310     1.6720 H     1 <1>   0.0800 
 45 H       -2.9100    -4.4980     1.6050 H     1 <1>   0.0800 
 46 H       -3.3920    -3.1960     2.6710 H     1 <1>   0.0800 
 47 H       -6.6200     2.0270    -1.8260 H     1 <1>   0.0800 
 48 H       -7.1790     0.7110    -0.8100 H     1 <1>   0.0800 
 49 H       -6.2770     0.3630    -2.2660 H     1 <1>   0.0800 
 50 H       -5.3710     2.9640     0.3030 H     1 <1>   0.0800 
 51 H       -4.3250     1.8420     1.1540 H     1 <1>   0.0800 
 52 H       -6.0530     1.5930     1.1560 H     1 <1>   0.0800 
 53 H       -1.9210     6.9230     0.0340 H     1 <1>   0.1500 
 54 H       -2.1330     4.6460     2.6660 H     1 <1>   0.0800 
 55 H       -3.3060     4.2360     1.4200 H     1 <1>   0.0800 
 56 H       -2.9780     5.8980     1.8130 H     1 <1>   0.0800 
 57 H       -0.1430     7.1030    -1.5890 H     1 <1>   0.1500 
 58 H        1.7360     4.4940    -2.9270 H     1 <1>   0.0800 
 59 H        2.7460     5.2040    -1.6830 H     1 <1>   0.0800 
 60 H        1.7720     6.2250    -2.7080 H     1 <1>   0.0800 
@<TRIPOS>BOND
  1   1   2  2   
  2   2   3  am  
  3   2   4  1   
  4   3   5  1   
  5   3   6  1   
  6   4   7  1   
  7   4  29  1   
  8   4  30  1   
  9   5   8  1   
 10   5  31  1   
 11   5  32  1   
 12   6   9  1   
 13   6  33  1   
 14   6  34  1   
 15   7  10  1   
 16   7  11  2   
 17   8  12  1   
 18   8  13  2   
 19   9  14  1   
 20   9  35  1   
 21   9  36  1   
 22  10  15  ar  
 23  10  16  ar  
 24  11  17  1   
 25  11  18  1   
 26  12  19  2   
 27  13  20  1   
 28  13  21  1   
 29  14  22  1   
 30  14  23  1   
 31  14  37  1   
 32  15  24  ar  
 33  15  25  1   
 34  16  17  1   
 35  16  26  ar  
 36  17  38  1   
 37  18  39  1   
 38  18  40  1   
 39  18  41  1   
 40  19  20  1   
 41  19  42  1   
 42  20  43  1   
 43  21  44  1   
 44  21  45  1   
 45  21  46  1   
 46  22  47  1   
 47  22  48  1   
 48  22  49  1   
 49  23  50  1   
 50  23  51  1   
 51  23  52  1   
 52  24  27  ar  
 53  24  53  1   
 54  25  54  1   
 55  25  55  1   
 56  25  56  1   
 57  26  27  ar  
 58  26  28  1   
 59  27  57  1   
 60  28  58  1   
 61  28  59  1   
 62  28  60  1   
@<TRIPOS>SUBSTRUCTURE
  1 ****   6 GROUP 4 **** **** 0

# MOE 2024.06 (io_trps.svl 2023.06)
