@<TRIPOS>MOLECULE
NONAME
43 44 1 0 0 
SMALL
USER_CHARGES


@<TRIPOS>ATOM
  1 S       -0.9150    -0.1680    -0.4240 S.o2  1 <1>   1.3330 
  2 O       -1.6540    -0.4570    -1.6290 O.2   1 <1>  -0.6500 
  3 O       -0.8640     1.1580     0.1370 O.2   1 <1>  -0.6500 
  4 N       -1.5200    -1.1580     0.7890 N.am  1 <1>  -0.9140 
  5 C        0.7620    -0.7310    -0.6410 C.3   1 <1>  -0.1350 
  6 C       -1.5990    -2.5760     0.4800 C.3   1 <1>   0.1960 
  7 C       -2.3640    -3.2880     1.5860 C.3   1 <1>  -0.0990 
  8 C       -2.4780    -4.7540     1.2310 C.2   1 <1>   0.5690 
  9 O       -1.5290    -5.4550     1.4860 O.2   1 <1>  -0.5700 
 10 N       -3.5950    -5.2460     0.6170 N.am  1 <1>  -0.6600 
 11 C       -4.8070    -4.4840     0.2200 C.3   1 <1>   0.1400 
 12 C       -3.7300    -6.6740     0.2350 C.3   1 <1>   0.1400 
 13 C       -5.7020    -5.4990    -0.4950 C.3   1 <1>   0.2000 
 14 C       -5.2230    -6.8740    -0.0330 C.3   1 <1>  -0.0800 
 15 O       -7.0360    -5.3270    -0.1610 O.3   1 <1>  -0.6800 
 16 C       -5.5380    -7.9820    -1.0520 C.3   1 <1>  -0.0160 
 17 C       -5.0930    -9.3470    -0.5570 C.ar  1 <1>   0.1670 
 18 N       -3.8270    -9.6680    -0.7740 N.ar  1 <1>  -0.6200 
 19 C       -6.0030   -10.1750     0.0840 C.ar  1 <1>  -0.1500 
 20 C       -3.4520   -10.8580    -0.3330 C.ar  1 <1>   0.1600 
 21 C       -5.5990   -11.4120     0.5380 C.ar  1 <1>  -0.1500 
 22 C       -4.2830   -11.7540     0.3180 C.ar  1 <1>  -0.1500 
 23 H       -1.0000    -0.9630     1.6420 H     1 <1>   0.4200 
 24 H        0.7780    -1.7440    -0.9910 H     1 <1>   0.0800 
 25 H        1.3010    -0.6670     0.2830 H     1 <1>   0.0800 
 26 H        1.2570    -0.1160    -1.3670 H     1 <1>   0.0800 
 27 H       -2.1200    -2.7120    -0.4560 H     1 <1>   0.0800 
 28 H       -0.6130    -3.0010     0.3890 H     1 <1>   0.0800 
 29 H       -3.3340    -2.8480     1.7120 H     1 <1>   0.0800 
 30 H       -1.8280    -3.2050     2.5120 H     1 <1>   0.0800 
 31 H       -5.2930    -4.1010     1.1000 H     1 <1>   0.0800 
 32 H       -4.5450    -3.6780    -0.4440 H     1 <1>   0.0800 
 33 H       -3.1510    -6.8570    -0.6550 H     1 <1>   0.0800 
 34 H       -3.3780    -7.3220     1.0210 H     1 <1>   0.0800 
 35 H       -5.6000    -5.3850    -1.5610 H     1 <1>   0.0800 
 36 H       -5.6820    -7.1180     0.9090 H     1 <1>   0.0800 
 37 H       -7.1730    -5.4850     0.7930 H     1 <1>   0.4000 
 38 H       -5.0500    -7.7740    -1.9880 H     1 <1>   0.0800 
 39 H       -6.5970    -7.9990    -1.2390 H     1 <1>   0.0800 
 40 H       -7.0190    -9.8560     0.2290 H     1 <1>   0.1500 
 41 H       -2.4250   -11.1350    -0.5000 H     1 <1>   0.1500 
 42 H       -6.2790   -12.0790     1.0400 H     1 <1>   0.1500 
 43 H       -3.9010   -12.7030     0.6460 H     1 <1>   0.1500 
@<TRIPOS>BOND
  1   1   2  2   
  2   1   3  2   
  3   1   4  am  
  4   1   5  1   
  5   4   6  1   
  6   4  23  1   
  7   5  24  1   
  8   5  25  1   
  9   5  26  1   
 10   6   7  1   
 11   6  27  1   
 12   6  28  1   
 13   7   8  1   
 14   7  29  1   
 15   7  30  1   
 16   8   9  2   
 17   8  10  am  
 18  10  11  1   
 19  10  12  1   
 20  11  13  1   
 21  11  31  1   
 22  11  32  1   
 23  12  14  1   
 24  12  33  1   
 25  12  34  1   
 26  13  14  1   
 27  13  15  1   
 28  13  35  1   
 29  14  16  1   
 30  14  36  1   
 31  15  37  1   
 32  16  17  1   
 33  16  38  1   
 34  16  39  1   
 35  17  18  ar  
 36  17  19  ar  
 37  18  20  ar  
 38  19  21  ar  
 39  19  40  1   
 40  20  22  ar  
 41  20  41  1   
 42  21  22  ar  
 43  21  42  1   
 44  22  43  1   
@<TRIPOS>SUBSTRUCTURE
  1 ****  10 GROUP 4 **** **** 0

# MOE 2024.06 (io_trps.svl 2023.06)
