@<TRIPOS>MOLECULE
NONAME
52 55 1 0 0 
SMALL
USER_CHARGES


@<TRIPOS>ATOM
  1 O       -2.0120     2.5900     2.3480 O.2   1 <1>  -0.5700 
  2 C       -1.5980     2.8350     1.2370 C.2   1 <1>   0.6900 
  3 N       -2.3240     2.6910     0.0940 N.am  1 <1>  -0.4200 
  4 N       -0.3420     3.2510     0.9810 N.am  1 <1>  -0.7300 
  5 C       -1.5220     2.9160    -0.9810 C.2   1 <1>   0.5690 
  6 C       -3.5760     1.9020     0.0270 C.3   1 <1>   0.2010 
  7 C       -0.1110     3.2700    -0.4700 C.3   1 <1>   0.3610 
  8 O       -1.8640     2.8480    -2.1400 O.2   1 <1>  -0.5700 
  9 C       -3.3370     0.3870     0.0300 C.2   1 <1>   0.5690 
 10 C        0.9300     2.2040    -0.8150 C.3   1 <1>  -0.2400 
 11 C        0.3480     4.6710    -0.8770 C.3   1 <1>  -0.2400 
 12 O       -2.2150    -0.0310    -0.1510 O.2   1 <1>  -0.5700 
 13 N       -4.3870    -0.4790     0.2230 N.am  1 <1>  -0.6600 
 14 C       -4.1730    -1.9590     0.3250 C.3   1 <1>   0.1400 
 15 C       -5.8330    -0.1020     0.3210 C.3   1 <1>   0.1400 
 16 C       -5.1280    -2.7290    -0.6050 C.3   1 <1>   0.3430 
 17 C       -6.7000    -0.9710    -0.6200 C.3   1 <1>   0.2950 
 18 O       -6.4540    -2.3250    -0.3800 O.3   1 <1>  -0.5600 
 19 C       -5.0050    -4.2330    -0.3740 C.ar  1 <1>  -0.1430 
 20 C       -8.2180    -0.7630    -0.4700 C.3   1 <1>  -0.1950 
 21 C       -4.0860    -4.9650    -1.1140 C.ar  1 <1>  -0.1500 
 22 C       -5.7810    -4.8880     0.5720 C.ar  1 <1>  -0.1500 
 23 C       -8.8490     0.5430    -0.0880 C.3   1 <1>  -0.2000 
 24 C       -8.9150    -0.6310     0.8500 C.3   1 <1>  -0.2000 
 25 C       -3.9450    -6.3270    -0.9110 C.ar  1 <1>  -0.1500 
 26 C       -5.6420    -6.2500     0.7760 C.ar  1 <1>  -0.1500 
 27 C       -4.7230    -6.9700     0.0340 C.ar  1 <1>  -0.1500 
 28 H        0.4090     3.0810     1.6470 H     1 <1>   0.3700 
 29 H       -4.1840     2.1610     0.8740 H     1 <1>   0.0800 
 30 H       -4.1030     2.1660    -0.8710 H     1 <1>   0.0800 
 31 H        1.0660     2.1640    -1.8810 H     1 <1>   0.0800 
 32 H        0.5950     1.2350    -0.4870 H     1 <1>   0.0800 
 33 H        1.8760     2.4300    -0.3570 H     1 <1>   0.0800 
 34 H        0.4630     4.7180    -1.9460 H     1 <1>   0.0800 
 35 H        1.2910     4.9080    -0.4190 H     1 <1>   0.0800 
 36 H       -0.3830     5.4030    -0.5840 H     1 <1>   0.0800 
 37 H       -3.1600    -2.2180     0.0740 H     1 <1>   0.0800 
 38 H       -4.3450    -2.2720     1.3400 H     1 <1>   0.0800 
 39 H       -6.1570    -0.2420     1.3370 H     1 <1>   0.0800 
 40 H       -5.9770     0.9310     0.0650 H     1 <1>   0.0800 
 41 H       -4.8860    -2.5100    -1.6300 H     1 <1>   0.0800 
 42 H       -6.4290    -0.7590    -1.6400 H     1 <1>   0.0800 
 43 H       -8.7390    -1.3300    -1.2220 H     1 <1>   0.1000 
 44 H       -3.4720    -4.4780    -1.8520 H     1 <1>   0.1500 
 45 H       -6.5020    -4.3370     1.1520 H     1 <1>   0.1500 
 46 H       -8.2530     1.3870     0.2100 H     1 <1>   0.1000 
 47 H       -9.7510     0.8440    -0.5930 H     1 <1>   0.1000 
 48 H       -9.8520    -1.1440     0.9790 H     1 <1>   0.1000 
 49 H       -8.3380    -0.6110     1.7580 H     1 <1>   0.1000 
 50 H       -3.2310    -6.8860    -1.4900 H     1 <1>   0.1500 
 51 H       -6.2510    -6.7470     1.5100 H     1 <1>   0.1500 
 52 H       -4.6150    -8.0290     0.1920 H     1 <1>   0.1500 
@<TRIPOS>BOND
  1   1   2  2   
  2   2   3  am  
  3   2   4  am  
  4   3   5  am  
  5   3   6  1   
  6   4   7  1   
  7   4  28  1   
  8   5   7  1   
  9   5   8  2   
 10   6   9  1   
 11   6  29  1   
 12   6  30  1   
 13   7  10  1   
 14   7  11  1   
 15   9  12  2   
 16   9  13  am  
 17  10  31  1   
 18  10  32  1   
 19  10  33  1   
 20  11  34  1   
 21  11  35  1   
 22  11  36  1   
 23  13  14  1   
 24  13  15  1   
 25  14  16  1   
 26  14  37  1   
 27  14  38  1   
 28  15  17  1   
 29  15  39  1   
 30  15  40  1   
 31  16  18  1   
 32  16  19  1   
 33  16  41  1   
 34  17  18  1   
 35  17  20  1   
 36  17  42  1   
 37  19  21  ar  
 38  19  22  ar  
 39  20  23  1   
 40  20  24  1   
 41  20  43  1   
 42  21  25  ar  
 43  21  44  1   
 44  22  26  ar  
 45  22  45  1   
 46  23  24  1   
 47  23  46  1   
 48  23  47  1   
 49  24  48  1   
 50  24  49  1   
 51  25  27  ar  
 52  25  50  1   
 53  26  27  ar  
 54  26  51  1   
 55  27  52  1   
@<TRIPOS>SUBSTRUCTURE
  1 ****  13 GROUP 4 **** **** 0

# MOE 2024.06 (io_trps.svl 2023.06)
