@<TRIPOS>MOLECULE
NONAME
18 18 1 0 0 
SMALL
USER_CHARGES


@<TRIPOS>ATOM
  1 N        0.3000   -10.2940     0.0120 N.2   1 <1>  -0.5650 
  2 C       -0.9900   -10.2480     0.0110 C.2   1 <1>   0.0360 
  3 C        0.6720    -9.0050     0.0100 C.2   1 <1>   0.0770 
  4 N       -1.4870    -8.9950     0.0090 N.pl3 1 <1>   0.0330 
  5 C       -0.4070    -8.1840     0.0090 C.2   1 <1>  -0.3320 
  6 C       -0.5080    -6.6670     0.0070 C.3   1 <1>   0.0200 
  7 C        0.8850    -6.0270     0.0060 C.3   1 <1>   0.3430 
  8 N        0.8030    -4.5400     0.0040 N.4   1 <1>  -0.8530 
  9 H       -1.6250   -11.1190     0.0120 H     1 <1>   0.1500 
 10 H        1.7200    -8.7570     0.0110 H     1 <1>   0.1500 
 11 H       -2.4820    -8.7460     0.0080 H     1 <1>   0.2700 
 12 H       -1.0510    -6.3580     0.8830 H     1 <1>   0.0800 
 13 H       -1.0500    -6.3610    -0.8710 H     1 <1>   0.0800 
 14 H        1.4240    -6.3650    -0.8660 H     1 <1>   0.0800 
 15 H        1.4230    -6.3630     0.8800 H     1 <1>   0.0800 
 16 H        0.3120    -4.1950    -0.8290 H     1 <1>   0.4500 
 17 H        1.7430    -4.1260     0.0040 H     1 <1>   0.4500 
 18 H        0.3110    -4.1930     0.8360 H     1 <1>   0.4500 
@<TRIPOS>BOND
  1   1   2  2   
  2   1   3  1   
  3   2   4  1   
  4   2   9  1   
  5   3   5  2   
  6   3  10  1   
  7   4   5  1   
  8   4  11  1   
  9   5   6  1   
 10   6   7  1   
 11   6  12  1   
 12   6  13  1   
 13   7   8  1   
 14   7  14  1   
 15   7  15  1   
 16   8  16  1   
 17   8  17  1   
 18   8  18  1   
@<TRIPOS>SUBSTRUCTURE
  1 ****   5 GROUP 4 **** **** 0

# MOE 2024.06 (io_trps.svl 2023.06)
