@<TRIPOS>MOLECULE
NONAME
55 56 1 0 0 
SMALL
USER_CHARGES


@<TRIPOS>ATOM
  1 O        1.7600    -3.5880     2.6760 O.2   1 <1>  -0.5700 
  2 C        1.8510    -2.8180     1.7500 C.2   1 <1>   0.5690 
  3 N        1.5450    -3.1910     0.4840 N.am  1 <1>  -0.7300 
  4 C        2.3110    -1.3820     2.0110 C.3   1 <1>  -0.0190 
  5 C        0.9650    -4.5070     0.0870 C.3   1 <1>   0.2010 
  6 C        1.2270    -0.3570     1.6370 C.3   1 <1>  -0.2400 
  7 C        3.6230    -1.0570     1.2790 C.3   1 <1>  -0.2400 
  8 C       -0.1590    -4.3600    -0.9530 C.2   1 <1>   0.5690 
  9 O       -0.1050    -3.3990    -1.6910 O.2   1 <1>  -0.5700 
 10 N       -1.1930    -5.2630    -1.0550 N.am  1 <1>  -0.6600 
 11 C       -1.2800    -6.5170    -0.2180 C.3   1 <1>   0.3640 
 12 C       -2.3490    -4.9240    -1.9410 C.3   1 <1>   0.1400 
 13 C       -0.0190    -7.3530    -0.4590 C.ar  1 <1>  -0.1440 
 14 C       -2.5300    -7.4230    -0.4590 C.3   1 <1>   0.2000 
 15 C       -3.2090    -6.1370    -2.2910 C.3   1 <1>   0.1200 
 16 C        0.7100    -7.8430     0.6170 C.ar  1 <1>  -0.1500 
 17 C        0.4160    -7.6340    -1.7480 C.ar  1 <1>  -0.1500 
 18 O       -3.5840    -6.7750    -1.1170 O.3   1 <1>  -0.5600 
 19 C       -3.1180    -7.9730     0.8490 C.3   1 <1>   0.1200 
 20 C        1.8510    -8.6010     0.4160 C.ar  1 <1>   0.0820 
 21 C        1.5630    -8.3790    -1.9590 C.ar  1 <1>  -0.1500 
 22 O       -2.1660    -8.6810     1.5750 O.3   1 <1>  -0.6800 
 23 O        2.4890    -9.0710     1.5150 O.3   1 <1>  -0.3630 
 24 C        2.2960    -8.8530    -0.8850 C.ar  1 <1>   0.0820 
 25 C        2.4690   -10.4680     1.7020 C.3   1 <1>   0.0400 
 26 O        3.4290    -9.5440    -1.1580 O.3   1 <1>  -0.3630 
 27 C        4.6410    -8.9530    -0.7420 C.3   1 <1>   0.0400 
 28 H        1.5230    -2.4950    -0.2660 H     1 <1>   0.3700 
 29 H        2.4930    -1.2980     3.0690 H     1 <1>   0.0800 
 30 H        1.7430    -5.1160    -0.3340 H     1 <1>   0.0800 
 31 H        0.5900    -4.9970     0.9660 H     1 <1>   0.0800 
 32 H        1.0240    -0.3810     0.5810 H     1 <1>   0.0800 
 33 H        1.5420     0.6360     1.9050 H     1 <1>   0.0800 
 34 H        0.3160    -0.5790     2.1650 H     1 <1>   0.0800 
 35 H        3.4890    -1.1040     0.2130 H     1 <1>   0.0800 
 36 H        4.3830    -1.7670     1.5590 H     1 <1>   0.0800 
 37 H        3.9650    -0.0720     1.5420 H     1 <1>   0.0800 
 38 H       -1.2980    -6.2120     0.8150 H     1 <1>   0.0800 
 39 H       -2.9640    -4.1940    -1.4440 H     1 <1>   0.0800 
 40 H       -1.9890    -4.4810    -2.8540 H     1 <1>   0.0800 
 41 H       -2.2520    -8.2570    -1.0790 H     1 <1>   0.0800 
 42 H       -2.6760    -6.8280    -2.9230 H     1 <1>   0.0800 
 43 H       -4.1040    -5.8220    -2.7970 H     1 <1>   0.0800 
 44 H        0.3970    -7.6490     1.6300 H     1 <1>   0.1500 
 45 H       -0.1330    -7.2650    -2.5980 H     1 <1>   0.1500 
 46 H       -3.9410    -8.6350     0.6420 H     1 <1>   0.0800 
 47 H       -3.4610    -7.1620     1.4680 H     1 <1>   0.0800 
 48 H        1.9010    -8.5900    -2.9580 H     1 <1>   0.1500 
 49 H       -1.9050    -9.5010     1.1090 H     1 <1>   0.4000 
 50 H        2.9400   -10.6880     2.6420 H     1 <1>   0.0800 
 51 H        3.0080   -10.9430     0.9020 H     1 <1>   0.0800 
 52 H        1.4470   -10.8020     1.7140 H     1 <1>   0.0800 
 53 H        5.4530    -9.5400    -1.1310 H     1 <1>   0.0800 
 54 H        4.6820    -8.9390     0.3320 H     1 <1>   0.0800 
 55 H        4.6900    -7.9510    -1.1310 H     1 <1>   0.0800 
@<TRIPOS>BOND
  1   1   2  2   
  2   2   3  am  
  3   2   4  1   
  4   3   5  1   
  5   3  28  1   
  6   4   6  1   
  7   4   7  1   
  8   4  29  1   
  9   5   8  1   
 10   5  30  1   
 11   5  31  1   
 12   6  32  1   
 13   6  33  1   
 14   6  34  1   
 15   7  35  1   
 16   7  36  1   
 17   7  37  1   
 18   8   9  2   
 19   8  10  am  
 20  10  11  1   
 21  10  12  1   
 22  11  13  1   
 23  11  14  1   
 24  11  38  1   
 25  12  15  1   
 26  12  39  1   
 27  12  40  1   
 28  13  16  ar  
 29  13  17  ar  
 30  14  18  1   
 31  14  19  1   
 32  14  41  1   
 33  15  18  1   
 34  15  42  1   
 35  15  43  1   
 36  16  20  ar  
 37  16  44  1   
 38  17  21  ar  
 39  17  45  1   
 40  19  22  1   
 41  19  46  1   
 42  19  47  1   
 43  20  23  1   
 44  20  24  ar  
 45  21  24  ar  
 46  21  48  1   
 47  22  49  1   
 48  23  25  1   
 49  24  26  1   
 50  25  50  1   
 51  25  51  1   
 52  25  52  1   
 53  26  27  1   
 54  27  53  1   
 55  27  54  1   
 56  27  55  1   
@<TRIPOS>SUBSTRUCTURE
  1 ****  13 GROUP 4 **** **** 0

# MOE 2024.06 (io_trps.svl 2023.06)
