@<TRIPOS>MOLECULE
NONAME
48 51 1 0 0 
SMALL
USER_CHARGES


@<TRIPOS>ATOM
  1 O       -0.5980     1.2740     1.3770 O.2   1 <1>  -0.5700 
  2 C       -0.2730     2.3760     0.9720 C.2   1 <1>   0.5440 
  3 N       -1.2560     3.2710     0.5960 N.am  1 <1>  -0.6600 
  4 C        1.1360     2.7040     0.8830 C.ar  1 <1>   0.0860 
  5 C       -2.6990     3.0380     0.9170 C.3   1 <1>   0.1400 
  6 C       -1.0170     4.4500    -0.2810 C.3   1 <1>   0.1400 
  7 C        2.0190     1.8640     0.1970 C.ar  1 <1>  -0.1500 
  8 C        1.6560     3.8600     1.4820 C.ar  1 <1>  -0.1500 
  9 C       -3.5370     2.8520    -0.3730 C.3   1 <1>   0.0000 
 10 C       -1.8170     4.3010    -1.5800 C.3   1 <1>  -0.1600 
 11 C        3.3570     2.1920     0.1080 C.ar  1 <1>  -0.1430 
 12 C        2.9990     4.1860     1.3900 C.ar  1 <1>  -0.1500 
 13 C       -5.0280     2.6590    -0.0490 C.3   1 <1>   0.2000 
 14 C       -3.3120     4.0580    -1.3110 C.3   1 <1>  -0.1600 
 15 C       -3.1930     1.5120    -1.0490 C.3   1 <1>  -0.1600 
 16 C        3.8340     3.3350     0.6920 C.ar  1 <1>   0.0830 
 17 C        4.4990     1.4830    -0.5560 C.3   1 <1>  -0.0170 
 18 O       -5.4470     3.5140     0.9740 O.3   1 <1>  -0.5600 
 19 C       -5.1790     1.1880     0.3530 C.3   1 <1>  -0.1600 
 20 C       -3.9940     0.4520    -0.2860 C.3   1 <1>  -0.1600 
 21 O        5.1490     3.5050     0.5110 O.3   1 <1>  -0.3630 
 22 C        5.6790     2.4200    -0.2390 C.3   1 <1>   0.1200 
 23 C       -6.8270     3.6190     1.1240 C.3   1 <1>   0.0400 
 24 H       -2.8100     2.1830     1.5600 H     1 <1>   0.0800 
 25 H       -3.0620     3.8930     1.4600 H     1 <1>   0.0800 
 26 H       -1.3290     5.3390     0.2400 H     1 <1>   0.0800 
 27 H        0.0260     4.5480    -0.5220 H     1 <1>   0.0800 
 28 H        1.6420     0.9630    -0.2540 H     1 <1>   0.1500 
 29 H        0.9880     4.5040     2.0270 H     1 <1>   0.1500 
 30 H       -1.7000     5.1930    -2.1690 H     1 <1>   0.0800 
 31 H       -1.4090     3.4830    -2.1460 H     1 <1>   0.0800 
 32 H        3.3990     5.0730     1.8460 H     1 <1>   0.1500 
 33 H       -5.6090     2.8580    -0.9340 H     1 <1>   0.0800 
 34 H       -3.8270     3.9070    -2.2430 H     1 <1>   0.0800 
 35 H       -3.7290     4.9360    -0.8460 H     1 <1>   0.0800 
 36 H       -3.5230     1.5260    -2.0730 H     1 <1>   0.0800 
 37 H       -2.1390     1.2950    -1.0330 H     1 <1>   0.0800 
 38 H        4.3450     1.4020    -1.6170 H     1 <1>   0.0800 
 39 H        4.6540     0.5080    -0.1310 H     1 <1>   0.0800 
 40 H       -5.1270     1.0870     1.4230 H     1 <1>   0.0800 
 41 H       -6.1130     0.7930    -0.0050 H     1 <1>   0.0800 
 42 H       -3.3760     0.0240     0.4860 H     1 <1>   0.0800 
 43 H       -4.3190    -0.3350    -0.9450 H     1 <1>   0.0800 
 44 H        6.1230     2.8170    -1.1340 H     1 <1>   0.0800 
 45 H        6.4230     1.9300     0.3630 H     1 <1>   0.0800 
 46 H       -7.0240     4.3160     1.9190 H     1 <1>   0.0800 
 47 H       -7.2350     2.6570     1.3790 H     1 <1>   0.0800 
 48 H       -7.2580     3.9840     0.2080 H     1 <1>   0.0800 
@<TRIPOS>BOND
  1   1   2  2   
  2   2   3  am  
  3   2   4  1   
  4   3   5  1   
  5   3   6  1   
  6   4   7  ar  
  7   4   8  ar  
  8   5   9  1   
  9   5  24  1   
 10   5  25  1   
 11   6  10  1   
 12   6  26  1   
 13   6  27  1   
 14   7  11  ar  
 15   7  28  1   
 16   8  12  ar  
 17   8  29  1   
 18   9  13  1   
 19   9  14  1   
 20   9  15  1   
 21  10  14  1   
 22  10  30  1   
 23  10  31  1   
 24  11  16  ar  
 25  11  17  1   
 26  12  16  ar  
 27  12  32  1   
 28  13  18  1   
 29  13  19  1   
 30  13  33  1   
 31  14  34  1   
 32  14  35  1   
 33  15  20  1   
 34  15  36  1   
 35  15  37  1   
 36  16  21  1   
 37  17  22  1   
 38  17  38  1   
 39  17  39  1   
 40  18  23  1   
 41  19  20  1   
 42  19  40  1   
 43  19  41  1   
 44  20  42  1   
 45  20  43  1   
 46  21  22  1   
 47  22  44  1   
 48  22  45  1   
 49  23  46  1   
 50  23  47  1   
 51  23  48  1   
@<TRIPOS>SUBSTRUCTURE
  1 ****   3 GROUP 4 **** **** 0

# MOE 2024.06 (io_trps.svl 2023.06)
