@<TRIPOS>MOLECULE
NONAME
55 57 1 0 0 
SMALL
USER_CHARGES


@<TRIPOS>ATOM
  1 O       -3.8220     2.1820    -1.4840 O.2   1 <1>  -0.5700 
  2 C       -3.2800     1.2470    -0.9240 C.2   1 <1>   0.5440 
  3 N       -3.6990    -0.0340    -1.2230 N.am  1 <1>  -0.6600 
  4 C       -2.2320     1.5140     0.0410 C.ar  1 <1>   0.0860 
  5 C       -3.1050    -1.2400    -0.5420 C.3   1 <1>   0.3640 
  6 C       -4.8850    -0.2200    -2.1120 C.3   1 <1>   0.1400 
  7 C       -0.9000     1.6160    -0.3490 C.ar  1 <1>  -0.1500 
  8 C       -2.5190     1.6650     1.3940 C.ar  1 <1>  -0.1500 
  9 C       -1.6420    -1.3900    -0.9670 C.ar  1 <1>  -0.1430 
 10 C       -3.8400    -2.5970    -0.7770 C.3   1 <1>   0.2000 
 11 C       -5.1170    -1.6790    -2.5080 C.3   1 <1>   0.1200 
 12 C        0.1180     1.8350     0.5640 C.ar  1 <1>  -0.1440 
 13 C       -1.5150     1.8960     2.3160 C.ar  1 <1>  -0.1500 
 14 C       -0.6650    -1.5830    -0.0020 C.ar  1 <1>  -0.1500 
 15 C       -1.2650    -1.3200    -2.2990 C.ar  1 <1>  -0.1500 
 16 O       -5.1060    -2.4690    -1.3640 O.3   1 <1>  -0.5600 
 17 C       -4.0440    -3.3810     0.5280 C.3   1 <1>   0.1200 
 18 C       -0.1920     1.9820     1.9110 C.ar  1 <1>  -0.1430 
 19 C        1.5520     1.8960     0.0580 C.3   1 <1>  -0.0970 
 20 C        0.6820    -1.6970    -0.3410 C.ar  1 <1>   0.0830 
 21 C        0.0650    -1.4420    -2.6540 C.ar  1 <1>  -0.1500 
 22 O       -2.8310    -3.6150     1.1710 O.3   1 <1>  -0.6800 
 23 C        0.8880     2.2440     2.9510 C.3   1 <1>  -0.0970 
 24 O        1.6380    -1.8410     0.6240 O.3   1 <1>  -0.3620 
 25 C        1.0470    -1.6340    -1.6960 C.ar  1 <1>   0.0830 
 26 C        1.3430    -1.6730     1.9940 C.3   1 <1>   0.0400 
 27 O        2.3120    -1.7390    -2.1940 O.3   1 <1>  -0.3630 
 28 C        3.3180    -2.4620    -1.5220 C.3   1 <1>   0.0400 
 29 H       -3.1260    -1.0430     0.5160 H     1 <1>   0.0800 
 30 H       -5.7590     0.1450    -1.6000 H     1 <1>   0.0800 
 31 H       -4.7580     0.3720    -3.0020 H     1 <1>   0.0800 
 32 H       -0.6710     1.5050    -1.3940 H     1 <1>   0.1500 
 33 H       -3.5430     1.6050     1.7190 H     1 <1>   0.1500 
 34 H       -3.2560    -3.2050    -1.4460 H     1 <1>   0.0800 
 35 H       -4.3580    -2.0240    -3.1890 H     1 <1>   0.0800 
 36 H       -6.0790    -1.7850    -2.9760 H     1 <1>   0.0800 
 37 H       -1.7720     2.0130     3.3540 H     1 <1>   0.1500 
 38 H       -0.9770    -1.6310     1.0240 H     1 <1>   0.1500 
 39 H       -2.0040    -1.1590    -3.0650 H     1 <1>   0.1500 
 40 H       -4.5050    -4.3330     0.3270 H     1 <1>   0.0800 
 41 H       -4.6670    -2.8180     1.2010 H     1 <1>   0.0800 
 42 H        1.5890     1.7920    -1.0110 H     1 <1>   0.0800 
 43 H        2.1280     1.0960     0.4880 H     1 <1>   0.0800 
 44 H        2.0000     2.8370     0.3220 H     1 <1>   0.0800 
 45 H        0.3540    -1.3840    -3.6880 H     1 <1>   0.1500 
 46 H       -2.2730    -4.2290     0.6520 H     1 <1>   0.4000 
 47 H        0.4770     2.2410     3.9440 H     1 <1>   0.0800 
 48 H        1.3380     3.2040     2.7730 H     1 <1>   0.0800 
 49 H        1.6500     1.4870     2.8990 H     1 <1>   0.0800 
 50 H        2.2660    -1.7080     2.5430 H     1 <1>   0.0800 
 51 H        0.6980    -2.4720     2.3130 H     1 <1>   0.0800 
 52 H        0.8690    -0.7170     2.1340 H     1 <1>   0.0800 
 53 H        4.1040    -2.6760    -2.2240 H     1 <1>   0.0800 
 54 H        2.9000    -3.3790    -1.1460 H     1 <1>   0.0800 
 55 H        3.7030    -1.8590    -0.7200 H     1 <1>   0.0800 
@<TRIPOS>BOND
  1   1   2  2   
  2   2   3  am  
  3   2   4  1   
  4   3   5  1   
  5   3   6  1   
  6   4   7  ar  
  7   4   8  ar  
  8   5   9  1   
  9   5  10  1   
 10   5  29  1   
 11   6  11  1   
 12   6  30  1   
 13   6  31  1   
 14   7  12  ar  
 15   7  32  1   
 16   8  13  ar  
 17   8  33  1   
 18   9  14  ar  
 19   9  15  ar  
 20  10  16  1   
 21  10  17  1   
 22  10  34  1   
 23  11  16  1   
 24  11  35  1   
 25  11  36  1   
 26  12  18  ar  
 27  12  19  1   
 28  13  18  ar  
 29  13  37  1   
 30  14  20  ar  
 31  14  38  1   
 32  15  21  ar  
 33  15  39  1   
 34  17  22  1   
 35  17  40  1   
 36  17  41  1   
 37  18  23  1   
 38  19  42  1   
 39  19  43  1   
 40  19  44  1   
 41  20  24  1   
 42  20  25  ar  
 43  21  25  ar  
 44  21  45  1   
 45  22  46  1   
 46  23  47  1   
 47  23  48  1   
 48  23  49  1   
 49  24  26  1   
 50  25  27  1   
 51  26  50  1   
 52  26  51  1   
 53  26  52  1   
 54  27  28  1   
 55  28  53  1   
 56  28  54  1   
 57  28  55  1   
@<TRIPOS>SUBSTRUCTURE
  1 ****   9 GROUP 4 **** **** 0

# MOE 2024.06 (io_trps.svl 2023.06)
