@<TRIPOS>MOLECULE
NONAME
42 43 1 0 0 
SMALL
USER_CHARGES


@<TRIPOS>ATOM
  1 O        0.6780     0.3890     3.0650 O.2   1 <1>  -0.5700 
  2 C        1.0790    -0.3400     2.1900 C.2   1 <1>   0.5690 
  3 N        1.8350     0.0750     1.1300 N.am  1 <1>  -0.4940 
  4 C        0.7240    -1.8080     2.2390 C.3   1 <1>  -0.0990 
  5 C        2.2910     1.3780     0.8160 C.2   1 <1>  -0.0880 
  6 C       -0.2350    -2.1870     1.0990 C.3   1 <1>  -0.0160 
  7 N        2.7400     1.7800    -0.4030 N.pl3 1 <1>   0.3140 
  8 C        2.3760     2.4620     1.6220 C.2   1 <1>  -0.1500 
  9 C       -0.0980    -3.6600     0.7470 C.ar  1 <1>  -0.1430 
 10 N        3.1140     3.0790    -0.3930 N.2   1 <1>  -0.7070 
 11 C        2.7860     0.9830    -1.6460 C.3   1 <1>   0.0960 
 12 C        2.8900     3.4740     0.8230 C.2   1 <1>   0.1390 
 13 C        1.0040    -4.1220     0.0280 C.ar  1 <1>   0.0820 
 14 C       -1.0830    -4.5500     1.1450 C.ar  1 <1>  -0.1500 
 15 C        4.0860     0.1720    -1.7310 C.3   1 <1>  -0.1600 
 16 O        1.9630    -3.2190    -0.3290 O.3   1 <1>  -0.3630 
 17 C        1.0930    -5.4760    -0.2910 C.ar  1 <1>  -0.1500 
 18 C       -0.9840    -5.8930     0.8290 C.ar  1 <1>  -0.1500 
 19 C        4.1180    -0.6930    -2.9960 C.3   1 <1>  -0.2400 
 20 C        3.2030    -3.6530    -0.8460 C.3   1 <1>   0.0400 
 21 C        0.1030    -6.3550     0.1100 C.ar  1 <1>  -0.1500 
 22 H        2.0740    -0.6690     0.4710 H     1 <1>   0.3700 
 23 H        0.2720    -2.0410     3.1860 H     1 <1>   0.0800 
 24 H        1.6360    -2.3710     2.1690 H     1 <1>   0.0800 
 25 H       -0.0270    -1.6130     0.2140 H     1 <1>   0.0800 
 26 H       -1.2440    -1.9550     1.3910 H     1 <1>   0.0800 
 27 H        2.1060     2.5400     2.6600 H     1 <1>   0.1500 
 28 H        2.7200     1.6600    -2.4780 H     1 <1>   0.0800 
 29 H        1.9310     0.3340    -1.6680 H     1 <1>   0.0800 
 30 H        3.0830     4.4770     1.1640 H     1 <1>   0.1500 
 31 H       -1.9350    -4.2040     1.7040 H     1 <1>   0.1500 
 32 H        4.1770    -0.4570    -0.8630 H     1 <1>   0.0800 
 33 H        4.9220     0.8520    -1.7450 H     1 <1>   0.0800 
 34 H        1.9200    -5.8680    -0.8500 H     1 <1>   0.1500 
 35 H       -1.7530    -6.5780     1.1410 H     1 <1>   0.1500 
 36 H        3.2890    -1.3790    -3.0100 H     1 <1>   0.0800 
 37 H        5.0330    -1.2580    -3.0330 H     1 <1>   0.0800 
 38 H        4.0680    -0.0730    -3.8750 H     1 <1>   0.0800 
 39 H        3.8500    -2.8010    -0.9380 H     1 <1>   0.0800 
 40 H        3.0420    -4.0950    -1.8140 H     1 <1>   0.0800 
 41 H        3.6370    -4.3640    -0.1660 H     1 <1>   0.0800 
 42 H        0.1770    -7.3990    -0.1380 H     1 <1>   0.1500 
@<TRIPOS>BOND
  1   1   2  2   
  2   2   3  am  
  3   2   4  1   
  4   3   5  1   
  5   3  22  1   
  6   4   6  1   
  7   4  23  1   
  8   4  24  1   
  9   5   7  1   
 10   5   8  2   
 11   6   9  1   
 12   6  25  1   
 13   6  26  1   
 14   7  10  1   
 15   7  11  1   
 16   8  12  1   
 17   8  27  1   
 18   9  13  ar  
 19   9  14  ar  
 20  10  12  2   
 21  11  15  1   
 22  11  28  1   
 23  11  29  1   
 24  12  30  1   
 25  13  16  1   
 26  13  17  ar  
 27  14  18  ar  
 28  14  31  1   
 29  15  19  1   
 30  15  32  1   
 31  15  33  1   
 32  16  20  1   
 33  17  21  ar  
 34  17  34  1   
 35  18  21  ar  
 36  18  35  1   
 37  19  36  1   
 38  19  37  1   
 39  19  38  1   
 40  20  39  1   
 41  20  40  1   
 42  20  41  1   
 43  21  42  1   
@<TRIPOS>SUBSTRUCTURE
  1 ****   3 GROUP 4 **** **** 0

# MOE 2024.06 (io_trps.svl 2023.06)
