@<TRIPOS>MOLECULE
NONAME
24 25 1 0 0 
SMALL
USER_CHARGES


@<TRIPOS>ATOM
  1 CL      -0.2100     0.1150     1.5160 Cl    1 <1>  -0.1770 
  2 C       -1.3950    -1.0800     1.0740 C.ar  1 <1>   0.4870 
  3 N       -1.0400    -1.9490     0.1440 N.ar  1 <1>  -0.6200 
  4 C       -2.6230    -1.0500     1.7090 C.ar  1 <1>  -0.1500 
  5 C       -1.9580    -2.8450    -0.1660 C.ar  1 <1>   0.1600 
  6 C       -3.5750    -1.9870     1.3660 C.ar  1 <1>  -0.1500 
  7 C       -3.2300    -2.9140     0.3940 C.ar  1 <1>  -0.1080 
  8 C       -4.2190    -3.9750    -0.0680 C.3   1 <1>   0.5800 
  9 N       -5.0790    -3.4420    -1.1420 N.4   1 <1>  -0.8220 
 10 C       -3.6400    -5.3800    -0.4060 C.3   1 <1>   0.0000 
 11 C       -5.0400    -4.6740     1.0550 C.3   1 <1>   0.0000 
 12 C       -4.9130    -5.9890     0.2400 C.3   1 <1>   0.0000 
 13 H       -2.8120    -0.3010     2.4570 H     1 <1>   0.1500 
 14 H       -1.6620    -3.5600    -0.9170 H     1 <1>   0.1500 
 15 H       -4.5370    -1.9780     1.8540 H     1 <1>   0.1500 
 16 H       -4.5080    -3.1660    -1.9460 H     1 <1>   0.4500 
 17 H       -5.5800    -2.6150    -0.8040 H     1 <1>   0.4500 
 18 H       -5.7600    -4.1480    -1.4400 H     1 <1>   0.4500 
 19 H       -2.7550    -5.6170     0.1600 H     1 <1>   0.0000 
 20 H       -3.5400    -5.5800    -1.4580 H     1 <1>   0.0000 
 21 H       -6.0490    -4.3150     1.1600 H     1 <1>   0.0000 
 22 H       -4.5080    -4.7300     1.9900 H     1 <1>   0.0000 
 23 H       -4.7210    -6.8580     0.8440 H     1 <1>   0.0000 
 24 H       -5.7160    -6.1240    -0.4650 H     1 <1>   0.0000 
@<TRIPOS>BOND
  1   1   2  1   
  2   2   3  ar  
  3   2   4  ar  
  4   3   5  ar  
  5   4   6  ar  
  6   4  13  1   
  7   5   7  ar  
  8   5  14  1   
  9   6   7  ar  
 10   6  15  1   
 11   7   8  1   
 12   8   9  1   
 13   8  10  1   
 14   8  11  1   
 15   9  16  1   
 16   9  17  1   
 17   9  18  1   
 18  10  12  1   
 19  10  19  1   
 20  10  20  1   
 21  11  12  1   
 22  11  21  1   
 23  11  22  1   
 24  12  23  1   
 25  12  24  1   
@<TRIPOS>SUBSTRUCTURE
  1 ****   7 GROUP 4 **** **** 0

# MOE 2024.06 (io_trps.svl 2023.06)
