@<TRIPOS>MOLECULE
NONAME
39 40 1 0 0 
SMALL
USER_CHARGES


@<TRIPOS>ATOM
  1 O        1.2290    -0.2770     2.6130 O.2   1 <1>  -0.5760 
  2 C        1.5320    -0.8310     1.5910 C.2   1 <1>   0.8490 
  3 N        2.0110    -0.1390     0.5270 N.pl3 1 <1>  -0.7340 
  4 C        1.3840    -2.3280     1.4600 C.3   1 <1>  -0.1090 
  5 C        2.2110     1.1780     0.4520 C.cat 1 <1>   1.0690 
  6 C        0.0320    -2.7130     0.8460 C.3   1 <1>  -0.0270 
  7 N        1.9760     2.0520     1.4110 N.pl3 1 <1>  -0.7050 
  8 N        2.6880     1.8110    -0.6220 N.pl3 1 <1>  -0.7680 
  9 C        0.0090    -4.2090     0.5750 C.ar  1 <1>  -0.1530 
 10 C        2.3070     3.3060     0.9610 C.2   1 <1>   0.1910 
 11 C        2.7490     3.1590    -0.3010 C.2   1 <1>   0.1910 
 12 C        3.1060     1.2870    -1.9510 C.3   1 <1>   0.2660 
 13 C        0.3540    -4.7580    -0.6580 C.ar  1 <1>  -0.1530 
 14 C       -0.3630    -5.0500     1.6130 C.ar  1 <1>  -0.1590 
 15 C        0.3190    -6.1360    -0.8210 C.ar  1 <1>  -0.1590 
 16 C        0.7670    -3.9050    -1.8490 C.3   1 <1>  -0.1060 
 17 C       -0.3930    -6.4210     1.4380 C.ar  1 <1>  -0.1590 
 18 C       -0.0520    -6.9720     0.2170 C.ar  1 <1>  -0.1530 
 19 C       -0.0810    -8.4760     0.0150 C.3   1 <1>  -0.1060 
 20 H        2.2410    -0.6790    -0.2930 H     1 <1>   0.4430 
 21 H        1.4670    -2.7750     2.4360 H     1 <1>   0.0700 
 22 H        2.1820    -2.7200     0.8580 H     1 <1>   0.0700 
 23 H       -0.1480    -2.1660    -0.0600 H     1 <1>   0.0700 
 24 H       -0.7610    -2.4610     1.5310 H     1 <1>   0.0700 
 25 H        1.6030     1.7600     2.3240 H     1 <1>   0.4430 
 26 H        2.2060     4.1990     1.5600 H     1 <1>   0.1410 
 27 H        3.1010     3.9160    -0.9870 H     1 <1>   0.1410 
 28 H        2.9520     0.2250    -2.0160 H     1 <1>   0.0700 
 29 H        4.1510     1.4950    -2.1120 H     1 <1>   0.0700 
 30 H        2.5350     1.7670    -2.7280 H     1 <1>   0.0700 
 31 H       -0.6340    -4.6450     2.5720 H     1 <1>   0.1410 
 32 H        0.5820    -6.5710    -1.7690 H     1 <1>   0.1410 
 33 H        1.5920    -3.2710    -1.5850 H     1 <1>   0.0700 
 34 H       -0.0630    -3.3030    -2.1720 H     1 <1>   0.0700 
 35 H        1.0720    -4.5230    -2.6740 H     1 <1>   0.0700 
 36 H       -0.6840    -7.0560     2.2560 H     1 <1>   0.1410 
 37 H       -0.4070    -8.7120    -0.9820 H     1 <1>   0.0700 
 38 H       -0.7580    -8.9380     0.7110 H     1 <1>   0.0700 
 39 H        0.9030    -8.8810     0.1650 H     1 <1>   0.0700 
@<TRIPOS>BOND
  1   1   2  2   
  2   2   3  1   
  3   2   4  1   
  4   3   5  ar  
  5   3  20  1   
  6   4   6  1   
  7   4  21  1   
  8   4  22  1   
  9   5   7  ar  
 10   5   8  ar  
 11   6   9  1   
 12   6  23  1   
 13   6  24  1   
 14   7  10  1   
 15   7  25  1   
 16   8  11  1   
 17   8  12  1   
 18   9  13  ar  
 19   9  14  ar  
 20  10  11  2   
 21  10  26  1   
 22  11  27  1   
 23  12  28  1   
 24  12  29  1   
 25  12  30  1   
 26  13  15  ar  
 27  13  16  1   
 28  14  17  ar  
 29  14  31  1   
 30  15  18  ar  
 31  15  32  1   
 32  16  33  1   
 33  16  34  1   
 34  16  35  1   
 35  17  18  ar  
 36  17  36  1   
 37  18  19  1   
 38  19  37  1   
 39  19  38  1   
 40  19  39  1   
@<TRIPOS>SUBSTRUCTURE
  1 ****   4 GROUP 4 **** **** 0

# MOE 2024.06 (io_trps.svl 2023.06)
