@<TRIPOS>MOLECULE
NONAME
49 51 1 0 0 
SMALL
USER_CHARGES


@<TRIPOS>ATOM
  1 O       -0.2990     1.3430     0.3700 O.2   1 <1>  -0.5700 
  2 C        0.7190     0.7810     0.7250 C.2   1 <1>   0.7160 
  3 N        1.9170     1.3360     0.4110 N.am  1 <1>  -0.7300 
  4 C        0.6730    -0.4530     1.4730 C.2   1 <1>  -0.0860 
  5 C        2.1010     2.4750    -0.4830 C.3   1 <1>   0.4010 
  6 C       -0.3510    -1.3410     1.6310 C.2   1 <1>  -0.0400 
  7 C        1.7270    -1.0070     2.2340 C.2   1 <1>  -0.1500 
  8 C        3.4500     2.3080    -1.1580 C.2   1 <1>  -0.1810 
  9 C        2.0380     3.7700     0.3200 C.3   1 <1>  -0.2400 
 10 O        0.0070    -2.3380     2.4080 O.3   1 <1>  -0.2800 
 11 C       -1.7640    -1.3280     1.0650 C.3   1 <1>   0.3000 
 12 C        1.2540    -2.1480     2.7720 C.2   1 <1>  -0.0100 
 13 C        4.6970     2.1040    -0.6630 C.2   1 <1>  -0.3320 
 14 C        3.6230     2.3410    -2.5370 C.2   1 <1>   0.1390 
 15 O       -1.9290    -2.4300     0.1970 O.3   1 <1>  -0.3630 
 16 N        5.5270     2.0300    -1.7300 N.pl3 1 <1>   0.3140 
 17 C        5.1790     1.9810     0.7760 C.3   1 <1>  -0.0600 
 18 N        4.8600     2.1750    -2.8850 N.2   1 <1>  -0.7070 
 19 C       -3.1170    -2.6670    -0.4140 C.ar  1 <1>   0.0830 
 20 C        6.9810     1.8260    -1.7220 C.3   1 <1>   0.0160 
 21 C       -3.2160    -3.8350    -1.1510 C.ar  1 <1>  -0.1500 
 22 C       -4.2150    -1.8140    -0.3390 C.ar  1 <1>  -0.1500 
 23 C       -4.3920    -4.1570    -1.8050 C.ar  1 <1>  -0.1500 
 24 C       -5.3900    -2.1390    -0.9950 C.ar  1 <1>  -0.1500 
 25 C       -5.4860    -3.3100    -1.7290 C.ar  1 <1>  -0.1430 
 26 C       -6.7770    -3.6600    -2.4470 C.3   1 <1>  -0.0970 
 27 H        2.7590     0.7710     0.4920 H     1 <1>   0.3700 
 28 H        1.3210     2.4760    -1.2280 H     1 <1>   0.0800 
 29 H        2.7060    -0.5790     2.3510 H     1 <1>   0.1500 
 30 H        2.7910     3.7850     1.0850 H     1 <1>   0.0800 
 31 H        1.0670     3.8740     0.7700 H     1 <1>   0.0800 
 32 H        2.2000     4.6050    -0.3360 H     1 <1>   0.0800 
 33 H       -1.9490    -0.4320     0.5040 H     1 <1>   0.0800 
 34 H       -2.4780    -1.4170     1.8640 H     1 <1>   0.0800 
 35 H        1.7230    -2.8730     3.4140 H     1 <1>   0.1500 
 36 H        2.8290     2.4860    -3.2510 H     1 <1>   0.1500 
 37 H        4.3630     2.0700     1.4680 H     1 <1>   0.0800 
 38 H        5.8890     2.7600     0.9930 H     1 <1>   0.0800 
 39 H        5.6520     1.0270     0.9290 H     1 <1>   0.0800 
 40 H        7.2030     0.8880    -1.2500 H     1 <1>   0.0800 
 41 H        7.4470     2.6310    -1.1850 H     1 <1>   0.0800 
 42 H        7.3400     1.8140    -2.7340 H     1 <1>   0.0800 
 43 H       -2.3650    -4.4910    -1.2070 H     1 <1>   0.1500 
 44 H       -4.1780    -0.8970     0.2170 H     1 <1>   0.1500 
 45 H       -4.4500    -5.0680    -2.3730 H     1 <1>   0.1500 
 46 H       -6.2320    -1.4720    -0.9320 H     1 <1>   0.1500 
 47 H       -6.8900    -4.7270    -2.5190 H     1 <1>   0.0800 
 48 H       -6.7640    -3.2450    -3.4390 H     1 <1>   0.0800 
 49 H       -7.6230    -3.2650    -1.9150 H     1 <1>   0.0800 
@<TRIPOS>BOND
  1   1   2  2   
  2   2   3  am  
  3   2   4  1   
  4   3   5  1   
  5   3  27  1   
  6   4   6  2   
  7   4   7  1   
  8   5   8  1   
  9   5   9  1   
 10   5  28  1   
 11   6  10  1   
 12   6  11  1   
 13   7  12  2   
 14   7  29  1   
 15   8  13  2   
 16   8  14  1   
 17   9  30  1   
 18   9  31  1   
 19   9  32  1   
 20  10  12  1   
 21  11  15  1   
 22  11  33  1   
 23  11  34  1   
 24  12  35  1   
 25  13  16  1   
 26  13  17  1   
 27  14  18  2   
 28  14  36  1   
 29  15  19  1   
 30  16  18  1   
 31  16  20  1   
 32  17  37  1   
 33  17  38  1   
 34  17  39  1   
 35  19  21  ar  
 36  19  22  ar  
 37  20  40  1   
 38  20  41  1   
 39  20  42  1   
 40  21  23  ar  
 41  21  43  1   
 42  22  24  ar  
 43  22  44  1   
 44  23  25  ar  
 45  23  45  1   
 46  24  25  ar  
 47  24  46  1   
 48  25  26  1   
 49  26  47  1   
 50  26  48  1   
 51  26  49  1   
@<TRIPOS>SUBSTRUCTURE
  1 ****   2 GROUP 4 **** **** 0

# MOE 2024.06 (io_trps.svl 2023.06)
