@<TRIPOS>MOLECULE
NONAME
47 48 1 0 0 
SMALL
USER_CHARGES


@<TRIPOS>ATOM
  1 O        0.4840     0.8480     0.0830 O.co2 1 <1>  -0.9000 
  2 C       -0.5760     0.1960     0.0640 C.2   1 <1>   0.9790 
  3 O       -0.5370    -1.0360     0.2080 O.co2 1 <1>  -0.9000 
  4 C       -1.8450     0.8900    -0.0980 C.ar  1 <1>  -0.1790 
  5 C       -1.8750     2.2480    -0.4060 C.ar  1 <1>  -0.1500 
  6 C       -3.0730     0.2460     0.0630 C.ar  1 <1>  -0.1500 
  7 C       -3.0640     2.9430    -0.5080 C.ar  1 <1>  -0.1430 
  8 C       -4.2710     0.9270    -0.0470 C.ar  1 <1>  -0.1500 
  9 C       -4.2750     2.2910    -0.3230 C.ar  1 <1>   0.0830 
 10 C       -3.0300     4.4230    -0.7810 C.3   1 <1>   0.4870 
 11 O       -5.4070     3.0390    -0.4040 O.3   1 <1>  -0.3620 
 12 N       -3.3820     5.1060     0.4930 N.4   1 <1>  -0.9590 
 13 C       -6.6790     2.4220    -0.4210 C.3   1 <1>   0.0400 
 14 C       -3.6540     6.5660     0.2630 C.3   1 <1>   0.5240 
 15 C       -2.3210     4.8760     1.5280 C.3   1 <1>   0.2630 
 16 C       -2.4630     7.3020    -0.3580 C.2   1 <1>   0.3350 
 17 N       -2.3490     7.5640    -1.5970 N.2   1 <1>  -0.4100 
 18 N       -1.4230     7.6920     0.3660 N.2   1 <1>  -0.5650 
 19 O       -1.2070     8.1620    -1.7560 O.3   1 <1>  -0.0190 
 20 C       -0.6970     8.2030    -0.5490 C.2   1 <1>   0.2980 
 21 C        0.6680     8.8350    -0.3450 C.3   1 <1>   0.0200 
 22 C        1.8250     7.8300    -0.5170 C.3   1 <1>  -0.0800 
 23 C        3.1610     8.4950    -0.1600 C.3   1 <1>  -0.2400 
 24 C        1.9010     7.2660    -1.9430 C.3   1 <1>  -0.2400 
 25 H       -0.9290     2.7460    -0.5510 H     1 <1>   0.1500 
 26 H       -3.0650    -0.8100     0.2850 H     1 <1>   0.1500 
 27 H       -5.1800     0.3750     0.0930 H     1 <1>   0.1500 
 28 H       -3.7490     4.6580    -1.5490 H     1 <1>   0.0800 
 29 H       -2.0490     4.7210    -1.1160 H     1 <1>   0.0800 
 30 H       -4.2460     4.6280     0.7940 H     1 <1>   0.4500 
 31 H       -7.4230     3.1830    -0.5740 H     1 <1>   0.0800 
 32 H       -6.8450     1.9320     0.5220 H     1 <1>   0.0800 
 33 H       -6.7120     1.7130    -1.2310 H     1 <1>   0.0800 
 34 H       -3.9020     7.0430     1.1960 H     1 <1>   0.0800 
 35 H       -4.4950     6.6730    -0.4010 H     1 <1>   0.0800 
 36 H       -1.3760     5.2760     1.1960 H     1 <1>   0.0800 
 37 H       -2.1950     3.8190     1.7090 H     1 <1>   0.0800 
 38 H       -2.5890     5.3510     2.4570 H     1 <1>   0.0800 
 39 H        0.7010     9.2390     0.6510 H     1 <1>   0.0800 
 40 H        0.7840     9.6540    -1.0320 H     1 <1>   0.0800 
 41 H        1.6670     7.0100     0.1650 H     1 <1>   0.0800 
 42 H        3.3650     9.3210    -0.8190 H     1 <1>   0.0800 
 43 H        3.9650     7.7850    -0.2440 H     1 <1>   0.0800 
 44 H        3.1430     8.8580     0.8530 H     1 <1>   0.0800 
 45 H        2.0170     8.0580    -2.6620 H     1 <1>   0.0800 
 46 H        1.0140     6.7060    -2.1840 H     1 <1>   0.0800 
 47 H        2.7400     6.5990    -2.0340 H     1 <1>   0.0800 
@<TRIPOS>BOND
  1   1   2  ar  
  2   2   3  ar  
  3   2   4  1   
  4   4   5  ar  
  5   4   6  ar  
  6   5   7  ar  
  7   5  25  1   
  8   6   8  ar  
  9   6  26  1   
 10   7   9  ar  
 11   7  10  1   
 12   8   9  ar  
 13   8  27  1   
 14   9  11  1   
 15  10  12  1   
 16  10  28  1   
 17  10  29  1   
 18  11  13  1   
 19  12  14  1   
 20  12  15  1   
 21  12  30  1   
 22  13  31  1   
 23  13  32  1   
 24  13  33  1   
 25  14  16  1   
 26  14  34  1   
 27  14  35  1   
 28  15  36  1   
 29  15  37  1   
 30  15  38  1   
 31  16  17  2   
 32  16  18  1   
 33  17  19  1   
 34  18  20  2   
 35  19  20  1   
 36  20  21  1   
 37  21  22  1   
 38  21  39  1   
 39  21  40  1   
 40  22  23  1   
 41  22  24  1   
 42  22  41  1   
 43  23  42  1   
 44  23  43  1   
 45  23  44  1   
 46  24  45  1   
 47  24  46  1   
 48  24  47  1   
@<TRIPOS>SUBSTRUCTURE
  1 ****  10 GROUP 4 **** **** 0

# MOE 2024.06 (io_trps.svl 2023.06)
