@<TRIPOS>MOLECULE
NONAME
48 51 1 0 0 
SMALL
USER_CHARGES


@<TRIPOS>ATOM
  1 O        2.0190     2.1260     0.9700 O.3   1 <1>  -0.0270 
  2 N        2.6290     0.9790     0.9810 N.2   1 <1>  -0.4150 
  3 C        0.8420     2.0500     0.4050 C.2   1 <1>  -0.0480 
  4 C        1.8230     0.1430     0.4300 C.2   1 <1>   0.1000 
  5 C        0.6470     0.7760     0.0340 C.2   1 <1>  -0.1570 
  6 C       -0.0190     3.2930     0.2660 C.3   1 <1>   0.0120 
  7 C        2.1180    -1.3280     0.2380 C.3   1 <1>  -0.0670 
  8 C        0.5980     4.2740    -0.7500 C.3   1 <1>  -0.0880 
  9 C       -0.1810     5.5680    -0.9820 C.3   1 <1>   0.1930 
 10 C        2.0060     4.7450    -0.3750 C.3   1 <1>   0.1600 
 11 O       -0.6070     6.0920     0.2310 O.3   1 <1>  -0.6840 
 12 C        0.8710     6.5100    -1.5620 C.3   1 <1>   0.1600 
 13 N        2.1370     6.1470    -0.8590 N.pl3 1 <1>  -0.5960 
 14 C        3.2000     6.9120    -0.5250 C.cat 1 <1>   1.0690 
 15 N        4.3020     6.3590    -0.0220 N.pl3 1 <1>  -0.7040 
 16 N        3.3830     8.2460    -0.6240 N.pl3 1 <1>  -0.7670 
 17 C        5.2400     7.3350     0.2200 C.ar  1 <1>   0.3030 
 18 C        4.6670     8.5320    -0.1590 C.ar  1 <1>   0.3030 
 19 C        2.3830     9.3210    -0.8630 C.3   1 <1>   0.3480 
 20 C        6.5280     7.2760     0.7360 C.ar  1 <1>  -0.1170 
 21 C        5.3830     9.7190    -0.0280 C.ar  1 <1>  -0.1170 
 22 C        1.5380     9.6140     0.3980 C.3   1 <1>   0.1120 
 23 C        7.2370     8.4550     0.8650 C.ar  1 <1>  -0.1570 
 24 C        6.6660     9.6700     0.4840 C.ar  1 <1>  -0.1570 
 25 O        0.9790     8.4540     0.9390 O.3   1 <1>  -0.6840 
 26 H       -0.1930     0.3190    -0.4530 H     1 <1>   0.1430 
 27 H       -1.0020     3.0080    -0.0660 H     1 <1>   0.0720 
 28 H       -0.1190     3.7530     1.2340 H     1 <1>   0.0720 
 29 H        1.3510    -1.9170     0.7060 H     1 <1>   0.0720 
 30 H        3.0660    -1.5750     0.6820 H     1 <1>   0.0720 
 31 H        2.1530    -1.5600    -0.8100 H     1 <1>   0.0720 
 32 H        0.6720     3.7640    -1.6950 H     1 <1>   0.0720 
 33 H       -1.0400     5.4370    -1.6180 H     1 <1>   0.0720 
 34 H        2.7470     4.1050    -0.8250 H     1 <1>   0.0720 
 35 H        2.1210     4.7320     0.6970 H     1 <1>   0.0720 
 36 H        0.0640     6.7190     0.5860 H     1 <1>   0.3940 
 37 H        0.5580     7.5220    -1.4150 H     1 <1>   0.0720 
 38 H        0.9860     6.3180    -2.6150 H     1 <1>   0.0720 
 39 H        4.4180     5.3650     0.1510 H     1 <1>   0.4450 
 40 H        2.8940    10.2250    -1.1440 H     1 <1>   0.0720 
 41 H        1.7530     9.0760    -1.6960 H     1 <1>   0.0720 
 42 H        6.9580     6.3340     1.0270 H     1 <1>   0.1430 
 43 H        4.9530    10.6590    -0.3210 H     1 <1>   0.1430 
 44 H        0.7370    10.2910     0.1550 H     1 <1>   0.0720 
 45 H        2.1560    10.0680     1.1540 H     1 <1>   0.0720 
 46 H        8.2400     8.4440     1.2620 H     1 <1>   0.1430 
 47 H        7.2390    10.5770     0.5940 H     1 <1>   0.1430 
 48 H        0.4590     8.6750     1.7450 H     1 <1>   0.3940 
@<TRIPOS>BOND
  1   1   2  1   
  2   1   3  1   
  3   2   4  2   
  4   3   5  2   
  5   3   6  1   
  6   4   5  1   
  7   4   7  1   
  8   5  26  1   
  9   6   8  1   
 10   6  27  1   
 11   6  28  1   
 12   7  29  1   
 13   7  30  1   
 14   7  31  1   
 15   8   9  1   
 16   8  10  1   
 17   8  32  1   
 18   9  11  1   
 19   9  12  1   
 20   9  33  1   
 21  10  13  1   
 22  10  34  1   
 23  10  35  1   
 24  11  36  1   
 25  12  13  1   
 26  12  37  1   
 27  12  38  1   
 28  13  14  ar  
 29  14  15  ar  
 30  14  16  ar  
 31  15  17  1   
 32  15  39  1   
 33  16  18  1   
 34  16  19  1   
 35  17  18  ar  
 36  17  20  ar  
 37  18  21  ar  
 38  19  22  1   
 39  19  40  1   
 40  19  41  1   
 41  20  23  ar  
 42  20  42  1   
 43  21  24  ar  
 44  21  43  1   
 45  22  25  1   
 46  22  44  1   
 47  22  45  1   
 48  23  24  ar  
 49  23  46  1   
 50  24  47  1   
 51  25  48  1   
@<TRIPOS>SUBSTRUCTURE
  1 ****  13 GROUP 4 **** **** 0

# MOE 2024.06 (io_trps.svl 2023.06)
