@<TRIPOS>MOLECULE
NONAME
39 41 1 0 0 
SMALL
USER_CHARGES


@<TRIPOS>ATOM
  1 O       -1.6830     0.4170     2.0850 O.2   1 <1>  -0.5700 
  2 C       -1.9790     0.8230     0.9740 C.2   1 <1>   0.6160 
  3 N       -2.7140    -0.0050     0.1590 N.am  1 <1>  -0.6600 
  4 C       -1.6290     2.1700     0.6150 C.2   1 <1>   0.0290 
  5 C       -2.9130    -1.4410     0.4600 C.3   1 <1>   0.3640 
  6 C       -3.6360     0.4470    -0.9030 C.3   1 <1>   0.1400 
  7 C       -1.0660     2.4720    -0.6640 C.2   1 <1>   0.5410 
  8 C       -1.8070     3.2030     1.5020 C.2   1 <1>  -0.0500 
  9 C       -1.6570    -2.2760     0.2030 C.ar  1 <1>  -0.1440 
 10 C       -4.0620    -1.8760    -0.4540 C.3   1 <1>  -0.1600 
 11 C       -4.7550    -0.5840    -0.8840 C.3   1 <1>  -0.1600 
 12 O       -0.8410     1.6260    -1.5260 O.2   1 <1>  -0.5700 
 13 C       -0.7540     3.8290    -0.9470 C.2   1 <1>  -0.1360 
 14 N       -1.4930     4.4960     1.1850 N.pl3 1 <1>  -0.6000 
 15 C       -1.3930    -3.3750     1.0080 C.ar  1 <1>  -0.1500 
 16 C       -0.7750    -1.9700    -0.8260 C.ar  1 <1>  -0.1500 
 17 C       -0.9670     4.8140    -0.0400 C.2   1 <1>  -0.0380 
 18 C       -0.2720    -4.1580     0.7870 C.ar  1 <1>  -0.1500 
 19 C        0.3460    -2.7510    -1.0480 C.ar  1 <1>  -0.1500 
 20 C       -0.6500     6.2740    -0.2910 C.3   1 <1>  -0.1020 
 21 C        0.5980    -3.8470    -0.2430 C.ar  1 <1>  -0.1500 
 22 H       -3.2140    -1.5340     1.4900 H     1 <1>   0.0800 
 23 H       -3.1210     0.4220    -1.8490 H     1 <1>   0.0800 
 24 H       -4.0050     1.4400    -0.7130 H     1 <1>   0.0800 
 25 H       -2.2040     3.0090     2.4870 H     1 <1>   0.1500 
 26 H       -4.7290    -2.5510     0.0500 H     1 <1>   0.0800 
 27 H       -3.6600    -2.3730    -1.3200 H     1 <1>   0.0800 
 28 H       -5.2320    -0.6740    -1.8440 H     1 <1>   0.0800 
 29 H       -5.4860    -0.2960    -0.1500 H     1 <1>   0.0800 
 30 H       -0.3400     4.0260    -1.9170 H     1 <1>   0.1500 
 31 H       -1.6350     5.2430     1.8790 H     1 <1>   0.4000 
 32 H       -2.0590    -3.6250     1.8140 H     1 <1>   0.1500 
 33 H       -0.9540    -1.1170    -1.4580 H     1 <1>   0.1500 
 34 H       -0.0770    -5.0070     1.4170 H     1 <1>   0.1500 
 35 H        1.0220    -2.4990    -1.8460 H     1 <1>   0.1500 
 36 H        0.0710     6.6220     0.4270 H     1 <1>   0.0800 
 37 H       -1.5440     6.8650    -0.2050 H     1 <1>   0.0800 
 38 H       -0.2430     6.4090    -1.2770 H     1 <1>   0.0800 
 39 H        1.4690    -4.4530    -0.4150 H     1 <1>   0.1500 
@<TRIPOS>BOND
  1   1   2  2   
  2   2   3  am  
  3   2   4  1   
  4   3   5  1   
  5   3   6  1   
  6   4   7  1   
  7   4   8  2   
  8   5   9  1   
  9   5  10  1   
 10   5  22  1   
 11   6  11  1   
 12   6  23  1   
 13   6  24  1   
 14   7  12  2   
 15   7  13  1   
 16   8  14  1   
 17   8  25  1   
 18   9  15  ar  
 19   9  16  ar  
 20  10  11  1   
 21  10  26  1   
 22  10  27  1   
 23  11  28  1   
 24  11  29  1   
 25  13  17  2   
 26  13  30  1   
 27  14  17  1   
 28  14  31  1   
 29  15  18  ar  
 30  15  32  1   
 31  16  19  ar  
 32  16  33  1   
 33  17  20  1   
 34  18  21  ar  
 35  18  34  1   
 36  19  21  ar  
 37  19  35  1   
 38  20  36  1   
 39  20  37  1   
 40  20  38  1   
 41  21  39  1   
@<TRIPOS>SUBSTRUCTURE
  1 ****   2 GROUP 4 **** **** 0

# MOE 2024.06 (io_trps.svl 2023.06)
