@<TRIPOS>MOLECULE
NONAME
45 47 1 0 0 
SMALL
USER_CHARGES


@<TRIPOS>ATOM
  1 O        0.2330     0.8500     0.8450 O.3   1 <1>  -0.0190 
  2 N        1.0680    -0.1450     0.7670 N.2   1 <1>  -0.4100 
  3 C        0.7220     1.9420     0.3210 C.2   1 <1>  -0.0400 
  4 C        2.1140     0.3120     0.1800 C.2   1 <1>   0.1080 
  5 C        1.9530     1.6580    -0.1360 C.2   1 <1>  -0.1500 
  6 C       -0.1300     3.2010     0.3280 C.3   1 <1>   0.0200 
  7 C        3.3460    -0.5100    -0.1210 C.3   1 <1>  -0.0590 
  8 C        0.6360     4.4490    -0.1490 C.3   1 <1>  -0.0800 
  9 C       -0.2180     5.7020    -0.3210 C.3   1 <1>   0.2000 
 10 C        1.7090     4.9150     0.8320 C.3   1 <1>   0.1100 
 11 O       -1.1710     5.7510     0.7040 O.3   1 <1>  -0.5600 
 12 C        0.7910     6.8500    -0.1560 C.3   1 <1>   0.1100 
 13 N        2.0280     6.2980     0.4540 N.3   1 <1>  -0.8100 
 14 C       -2.2520     6.5970     0.4650 C.3   1 <1>   0.0400 
 15 C        3.1710     6.3520    -0.4850 C.3   1 <1>   0.2900 
 16 C        3.5800     7.7890    -0.7400 C.2   1 <1>   0.0060 
 17 N        3.9900     8.2740    -1.8610 N.2   1 <1>  -0.3380 
 18 N        3.5420     8.7190     0.2080 N.pl3 1 <1>   0.0330 
 19 N        4.2330     9.5720    -1.6540 N.2   1 <1>  -0.3380 
 20 C        3.9590     9.8180    -0.4190 C.2   1 <1>   0.0060 
 21 C        4.0870    11.1750     0.2480 C.3   1 <1>   0.0200 
 22 C        2.7240    11.7130     0.6960 C.3   1 <1>  -0.2400 
 23 H        2.6720     2.2810    -0.6320 H     1 <1>   0.1500 
 24 H       -0.9800     3.0390    -0.3100 H     1 <1>   0.0800 
 25 H       -0.4990     3.3600     1.3270 H     1 <1>   0.0800 
 26 H        3.5530    -0.4860    -1.1750 H     1 <1>   0.0800 
 27 H        3.1890    -1.5300     0.1800 H     1 <1>   0.0800 
 28 H        4.1890    -0.1150     0.4160 H     1 <1>   0.0800 
 29 H        1.1030     4.2330    -1.0920 H     1 <1>   0.0800 
 30 H       -0.7190     5.7190    -1.2750 H     1 <1>   0.0800 
 31 H        2.5790     4.2800     0.8270 H     1 <1>   0.0800 
 32 H        1.2980     4.9250     1.8280 H     1 <1>   0.0800 
 33 H        0.3880     7.6170     0.4800 H     1 <1>   0.0800 
 34 H        1.0000     7.2820    -1.1200 H     1 <1>   0.0800 
 35 H       -2.8980     6.5610     1.3250 H     1 <1>   0.0800 
 36 H       -2.7870     6.2520    -0.4030 H     1 <1>   0.0800 
 37 H       -1.9000     7.6030     0.3200 H     1 <1>   0.0800 
 38 H        4.0120     5.8350    -0.0580 H     1 <1>   0.0800 
 39 H        2.9180     5.8790    -1.4180 H     1 <1>   0.0800 
 40 H        3.2290     8.5820     1.1710 H     1 <1>   0.2700 
 41 H        4.7480    11.0970     1.0920 H     1 <1>   0.0800 
 42 H        4.5270    11.8640    -0.4530 H     1 <1>   0.0800 
 43 H        2.2810    11.0630     1.4290 H     1 <1>   0.0800 
 44 H        2.0630    11.7830    -0.1510 H     1 <1>   0.0800 
 45 H        2.8370    12.6920     1.1250 H     1 <1>   0.0800 
@<TRIPOS>BOND
  1   1   2  1   
  2   1   3  1   
  3   2   4  2   
  4   3   5  2   
  5   3   6  1   
  6   4   5  1   
  7   4   7  1   
  8   5  23  1   
  9   6   8  1   
 10   6  24  1   
 11   6  25  1   
 12   7  26  1   
 13   7  27  1   
 14   7  28  1   
 15   8   9  1   
 16   8  10  1   
 17   8  29  1   
 18   9  11  1   
 19   9  12  1   
 20   9  30  1   
 21  10  13  1   
 22  10  31  1   
 23  10  32  1   
 24  11  14  1   
 25  12  13  1   
 26  12  33  1   
 27  12  34  1   
 28  13  15  1   
 29  14  35  1   
 30  14  36  1   
 31  14  37  1   
 32  15  16  1   
 33  15  38  1   
 34  15  39  1   
 35  16  17  2   
 36  16  18  1   
 37  17  19  1   
 38  18  20  1   
 39  18  40  1   
 40  19  20  2   
 41  20  21  1   
 42  21  22  1   
 43  21  41  1   
 44  21  42  1   
 45  22  43  1   
 46  22  44  1   
 47  22  45  1   
@<TRIPOS>SUBSTRUCTURE
  1 ****  13 GROUP 4 **** **** 0

# MOE 2024.06 (io_trps.svl 2023.06)
