@<TRIPOS>MOLECULE
NONAME
50 52 1 0 0 
SMALL
USER_CHARGES


@<TRIPOS>ATOM
  1 O        1.4830     1.0520    -0.6790 O.co2 1 <1>  -0.9000 
  2 C        1.6370     1.8770     0.2450 C.2   1 <1>   1.0330 
  3 O        2.1390     1.4780     1.3130 O.co2 1 <1>  -0.9000 
  4 C        1.2560     3.2730     0.0210 C.2   1 <1>  -0.0060 
  5 N        1.2610     4.3180     0.9180 N.2   1 <1>  -0.5650 
  6 C        0.8340     3.7760    -1.1570 C.2   1 <1>  -0.0100 
  7 C        0.8700     5.3240     0.2280 C.2   1 <1>   0.2980 
  8 O        0.6000     5.0510    -1.0270 O.3   1 <1>  -0.2800 
  9 C        0.7240     6.7640     0.7220 C.3   1 <1>   0.2900 
 10 N        1.9990     7.5430     0.7240 N.3   1 <1>  -0.8100 
 11 C        2.5710     7.6030    -0.6260 C.3   1 <1>   0.1100 
 12 C        2.9330     6.9630     1.7000 C.3   1 <1>   0.1100 
 13 C        3.7890     8.5220    -0.6050 C.3   1 <1>  -0.1600 
 14 C        4.1600     7.8620     1.8060 C.3   1 <1>  -0.1600 
 15 C        4.8000     8.0100     0.4220 C.3   1 <1>   0.4230 
 16 N        5.9920     8.9010     0.4540 N.4   1 <1>  -0.9590 
 17 C        7.1830     8.2860     1.1260 C.3   1 <1>   0.3430 
 18 C        5.7670    10.2950     0.9660 C.3   1 <1>   0.3430 
 19 C        8.4350     9.1850     0.9700 C.3   1 <1>   0.1100 
 20 C        7.0330    11.1670     0.7720 C.3   1 <1>   0.1100 
 21 N        8.1600    10.4050     0.1720 N.3   1 <1>  -0.8100 
 22 C        9.3830    11.2210     0.0170 C.3   1 <1>   0.1100 
 23 C        9.2560    12.2180    -1.1410 C.3   1 <1>   0.1200 
 24 O       10.4570    12.8930    -1.2960 O.3   1 <1>  -0.6800 
 25 H        0.6910     3.2790    -2.1000 H     1 <1>   0.1500 
 26 H        0.3280     6.7360     1.7210 H     1 <1>   0.0800 
 27 H        0.0020     7.2670     0.1040 H     1 <1>   0.0800 
 28 H        1.8370     7.9910    -1.3130 H     1 <1>   0.0800 
 29 H        2.8550     6.6160    -0.9560 H     1 <1>   0.0800 
 30 H        3.2280     5.9700     1.3970 H     1 <1>   0.0800 
 31 H        2.4550     6.8900     2.6630 H     1 <1>   0.0800 
 32 H        3.4500     9.5120    -0.3620 H     1 <1>   0.0800 
 33 H        4.2300     8.5320    -1.5850 H     1 <1>   0.0800 
 34 H        4.8490     7.4120     2.4960 H     1 <1>   0.0800 
 35 H        3.8400     8.8110     2.1950 H     1 <1>   0.0800 
 36 H        5.1120     7.0280     0.1010 H     1 <1>   0.0800 
 37 H        6.3210     9.0540    -0.5110 H     1 <1>   0.4500 
 38 H        7.3900     7.3210     0.6930 H     1 <1>   0.0800 
 39 H        6.9820     8.1390     2.1740 H     1 <1>   0.0800 
 40 H        5.5130    10.2680     2.0120 H     1 <1>   0.0800 
 41 H        4.9460    10.7550     0.4420 H     1 <1>   0.0800 
 42 H        9.2100     8.6120     0.4900 H     1 <1>   0.0800 
 43 H        8.7960     9.4600     1.9470 H     1 <1>   0.0800 
 44 H        7.3290    11.5710     1.7260 H     1 <1>   0.0800 
 45 H        6.7780    11.9970     0.1360 H     1 <1>   0.0800 
 46 H       10.2130    10.5710    -0.2100 H     1 <1>   0.0800 
 47 H        9.5980    11.7420     0.9340 H     1 <1>   0.0800 
 48 H        8.4860    12.9460    -0.9610 H     1 <1>   0.0800 
 49 H        9.0570    11.6950    -2.0600 H     1 <1>   0.0800 
 50 H       10.6200    13.5110    -0.5570 H     1 <1>   0.4000 
@<TRIPOS>BOND
  1   1   2  ar  
  2   2   3  ar  
  3   2   4  1   
  4   4   5  1   
  5   4   6  2   
  6   5   7  2   
  7   6   8  1   
  8   6  25  1   
  9   7   8  1   
 10   7   9  1   
 11   9  10  1   
 12   9  26  1   
 13   9  27  1   
 14  10  11  1   
 15  10  12  1   
 16  11  13  1   
 17  11  28  1   
 18  11  29  1   
 19  12  14  1   
 20  12  30  1   
 21  12  31  1   
 22  13  15  1   
 23  13  32  1   
 24  13  33  1   
 25  14  15  1   
 26  14  34  1   
 27  14  35  1   
 28  15  16  1   
 29  15  36  1   
 30  16  17  1   
 31  16  18  1   
 32  16  37  1   
 33  17  19  1   
 34  17  38  1   
 35  17  39  1   
 36  18  20  1   
 37  18  40  1   
 38  18  41  1   
 39  19  21  1   
 40  19  42  1   
 41  19  43  1   
 42  20  21  1   
 43  20  44  1   
 44  20  45  1   
 45  21  22  1   
 46  22  23  1   
 47  22  46  1   
 48  22  47  1   
 49  23  24  1   
 50  23  48  1   
 51  23  49  1   
 52  24  50  1   
@<TRIPOS>SUBSTRUCTURE
  1 ****  15 GROUP 4 **** **** 0

# MOE 2024.06 (io_trps.svl 2023.06)
