@<TRIPOS>MOLECULE
NONAME
50 52 1 0 0 
SMALL
USER_CHARGES


@<TRIPOS>ATOM
  1 O        1.8990     0.4700     0.0180 O.2   1 <1>  -0.5700 
  2 C        2.4120    -0.5850     0.3350 C.2   1 <1>   0.5440 
  3 N        3.4020    -0.5690     1.2920 N.am  1 <1>  -0.6600 
  4 C        2.0300    -1.8050    -0.3460 C.ar  1 <1>   0.0860 
  5 C        4.6740    -1.3320     1.0970 C.3   1 <1>   0.1400 
  6 C        3.4770     0.5280     2.2950 C.3   1 <1>   0.1400 
  7 C        1.7350    -1.7830    -1.7070 C.ar  1 <1>   0.1600 
  8 C        1.9440    -3.0320     0.2990 C.ar  1 <1>  -0.1500 
  9 C        5.4810    -0.7640    -0.0860 C.3   1 <1>   0.3430 
 10 C        4.6190     1.5090     2.0010 C.3   1 <1>  -0.1600 
 11 N        1.4180    -2.8330    -2.4490 N.ar  1 <1>  -0.6200 
 12 C        1.6010    -4.1370    -0.4500 C.ar  1 <1>  -0.1500 
 13 N        5.9440     0.6470     0.1080 N.4   1 <1>  -0.9590 
 14 C        4.9380     1.6650     0.5130 C.3   1 <1>   0.3430 
 15 C        1.3550    -3.9870    -1.8040 C.ar  1 <1>   0.1600 
 16 C        6.7940     1.0490    -1.0440 C.3   1 <1>   0.4860 
 17 C        7.4080     2.4320    -0.8780 C.ar  1 <1>  -0.1430 
 18 C        8.1650     2.8170     0.2310 C.ar  1 <1>   0.0820 
 19 C        7.2040     3.3540    -1.8970 C.ar  1 <1>  -0.1500 
 20 O        8.3820     2.0100     1.2910 O.3   1 <1>  -0.3620 
 21 C        8.6880     4.0970     0.3090 C.ar  1 <1>  -0.1500 
 22 C        7.7330     4.6300    -1.8170 C.ar  1 <1>  -0.1500 
 23 C        9.2980     0.9170     1.1760 C.3   1 <1>   0.0140 
 24 C        8.4770     5.0040    -0.7120 C.ar  1 <1>  -0.1500 
 25 C        8.5490    -0.3980     1.0700 C.2   1 <1>   0.9060 
 26 O        8.6550    -1.0810     0.0490 O.co2 1 <1>  -0.9000 
 27 O        7.6480    -0.6380     1.8840 O.co2 1 <1>  -0.9000 
 28 H        4.4570    -2.3650     0.9010 H     1 <1>   0.0800 
 29 H        5.2720    -1.3010     1.9930 H     1 <1>   0.0800 
 30 H        3.6080     0.1040     3.2770 H     1 <1>   0.0800 
 31 H        2.5430     1.0650     2.3010 H     1 <1>   0.0800 
 32 H        1.7700    -0.8320    -2.2120 H     1 <1>   0.1500 
 33 H        2.1360    -3.1130     1.3560 H     1 <1>   0.1500 
 34 H        4.8860    -0.8350    -0.9790 H     1 <1>   0.0800 
 35 H        6.3500    -1.3910    -0.2170 H     1 <1>   0.0800 
 36 H        5.5050     1.2190     2.5390 H     1 <1>   0.0800 
 37 H        4.3260     2.4680     2.3860 H     1 <1>   0.0800 
 38 H        1.5220    -5.1080     0.0050 H     1 <1>   0.1500 
 39 H        6.6100     0.5480     0.9100 H     1 <1>   0.4500 
 40 H        5.3510     2.6480     0.3650 H     1 <1>   0.0800 
 41 H        4.0430     1.5790    -0.0810 H     1 <1>   0.0800 
 42 H        1.0910    -4.8560    -2.3850 H     1 <1>   0.1500 
 43 H        6.1940     1.0420    -1.9370 H     1 <1>   0.0800 
 44 H        7.5840     0.3320    -1.1870 H     1 <1>   0.0800 
 45 H        6.6300     3.0890    -2.7690 H     1 <1>   0.1500 
 46 H        9.2590     4.3780     1.1760 H     1 <1>   0.1500 
 47 H        7.5690     5.3360    -2.6140 H     1 <1>   0.1500 
 48 H        9.9030     0.8990     2.0610 H     1 <1>   0.0800 
 49 H        9.9200     1.0590     0.3130 H     1 <1>   0.0800 
 50 H        8.8890     5.9960    -0.6470 H     1 <1>   0.1500 
@<TRIPOS>BOND
  1   1   2  2   
  2   2   3  am  
  3   2   4  1   
  4   3   5  1   
  5   3   6  1   
  6   4   7  ar  
  7   4   8  ar  
  8   5   9  1   
  9   5  28  1   
 10   5  29  1   
 11   6  10  1   
 12   6  30  1   
 13   6  31  1   
 14   7  11  ar  
 15   7  32  1   
 16   8  12  ar  
 17   8  33  1   
 18   9  13  1   
 19   9  34  1   
 20   9  35  1   
 21  10  14  1   
 22  10  36  1   
 23  10  37  1   
 24  11  15  ar  
 25  12  15  ar  
 26  12  38  1   
 27  13  14  1   
 28  13  16  1   
 29  13  39  1   
 30  14  40  1   
 31  14  41  1   
 32  15  42  1   
 33  16  17  1   
 34  16  43  1   
 35  16  44  1   
 36  17  18  ar  
 37  17  19  ar  
 38  18  20  1   
 39  18  21  ar  
 40  19  22  ar  
 41  19  45  1   
 42  20  23  1   
 43  21  24  ar  
 44  21  46  1   
 45  22  24  ar  
 46  22  47  1   
 47  23  25  1   
 48  23  48  1   
 49  23  49  1   
 50  24  50  1   
 51  25  26  ar  
 52  25  27  ar  
@<TRIPOS>SUBSTRUCTURE
  1 ****  13 GROUP 4 **** **** 0

# MOE 2024.06 (io_trps.svl 2023.06)
