@<TRIPOS>MOLECULE
NONAME
43 44 1 0 0 
SMALL
USER_CHARGES


@<TRIPOS>ATOM
  1 S        0.0470     0.1320    -0.6280 S.3   1 <1>  -0.0800 
  2 C        1.3370    -1.0560    -0.3880 C.2   1 <1>  -0.0450 
  3 C        1.0740     1.4580    -0.1380 C.2   1 <1>  -0.1100 
  4 C        2.4560    -0.4020     0.0290 C.2   1 <1>  -0.1810 
  5 C        1.0570    -2.4430    -0.6810 C.2   1 <1>   0.7150 
  6 C        2.3020     1.0100     0.1720 C.2   1 <1>  -0.1500 
  7 C        3.7990    -1.0440     0.3320 C.3   1 <1>  -0.0590 
  8 O        1.8600    -3.0940    -1.3240 O.2   1 <1>  -0.5700 
  9 N       -0.0900    -3.0760    -0.2420 N.am  1 <1>  -0.6600 
 10 C       -0.5890    -4.3140    -0.9150 C.3   1 <1>   0.1400 
 11 C       -0.8300    -2.6670     0.9820 C.3   1 <1>   0.1400 
 12 C       -2.0990    -4.2070    -1.1930 C.3   1 <1>   0.2000 
 13 C       -2.3240    -2.5340     0.6590 C.3   1 <1>  -0.1600 
 14 O       -2.5430    -5.4010    -1.7540 O.3   1 <1>  -0.6800 
 15 C       -2.9370    -3.8320     0.0660 C.3   1 <1>   0.0000 
 16 C       -2.8620    -4.9890     1.1030 C.3   1 <1>   0.1200 
 17 C       -4.4350    -3.6020    -0.2940 C.3   1 <1>  -0.1600 
 18 O       -3.5250    -4.6730     2.2810 O.3   1 <1>  -0.6800 
 19 C       -4.7360    -2.5760    -1.4040 C.3   1 <1>  -0.1600 
 20 C       -6.2460    -2.4340    -1.6130 C.3   1 <1>  -0.2400 
 21 H        0.6470     2.4460    -0.1370 H     1 <1>   0.1500 
 22 H        3.1200     1.6290     0.4990 H     1 <1>   0.1500 
 23 H        4.5460    -0.6600    -0.3390 H     1 <1>   0.0800 
 24 H        3.7540    -2.1110     0.2130 H     1 <1>   0.0800 
 25 H        4.0930    -0.8240     1.3430 H     1 <1>   0.0800 
 26 H       -0.0790    -4.4510    -1.8540 H     1 <1>   0.0800 
 27 H       -0.3740    -5.1600    -0.2880 H     1 <1>   0.0800 
 28 H       -0.6740    -3.4070     1.7480 H     1 <1>   0.0800 
 29 H       -0.4550    -1.7330     1.3620 H     1 <1>   0.0800 
 30 H       -2.2230    -3.4500    -1.9460 H     1 <1>   0.0800 
 31 H       -2.8540    -2.2370     1.5460 H     1 <1>   0.0800 
 32 H       -2.4230    -1.7260    -0.0430 H     1 <1>   0.0800 
 33 H       -2.4750    -6.1370    -1.1190 H     1 <1>   0.4000 
 34 H       -1.8470    -5.2320     1.3610 H     1 <1>   0.0800 
 35 H       -3.3300    -5.8760     0.7110 H     1 <1>   0.0800 
 36 H       -4.8600    -4.5440    -0.5950 H     1 <1>   0.0800 
 37 H       -4.9620    -3.2970     0.5940 H     1 <1>   0.0800 
 38 H       -3.2030    -3.8280     2.6470 H     1 <1>   0.4000 
 39 H       -4.3360    -1.6110    -1.1510 H     1 <1>   0.0800 
 40 H       -4.2960    -2.8940    -2.3330 H     1 <1>   0.0800 
 41 H       -6.7220    -2.0930    -0.7100 H     1 <1>   0.0800 
 42 H       -6.6760    -3.3780    -1.8970 H     1 <1>   0.0800 
 43 H       -6.4440    -1.7210    -2.3940 H     1 <1>   0.0800 
@<TRIPOS>BOND
  1   1   2  1   
  2   1   3  1   
  3   2   4  2   
  4   2   5  1   
  5   3   6  2   
  6   3  21  1   
  7   4   6  1   
  8   4   7  1   
  9   5   8  2   
 10   5   9  am  
 11   6  22  1   
 12   7  23  1   
 13   7  24  1   
 14   7  25  1   
 15   9  10  1   
 16   9  11  1   
 17  10  12  1   
 18  10  26  1   
 19  10  27  1   
 20  11  13  1   
 21  11  28  1   
 22  11  29  1   
 23  12  14  1   
 24  12  15  1   
 25  12  30  1   
 26  13  15  1   
 27  13  31  1   
 28  13  32  1   
 29  14  33  1   
 30  15  16  1   
 31  15  17  1   
 32  16  18  1   
 33  16  34  1   
 34  16  35  1   
 35  17  19  1   
 36  17  36  1   
 37  17  37  1   
 38  18  38  1   
 39  19  20  1   
 40  19  39  1   
 41  19  40  1   
 42  20  41  1   
 43  20  42  1   
 44  20  43  1   
@<TRIPOS>SUBSTRUCTURE
  1 ****   9 GROUP 4 **** **** 0

# MOE 2024.06 (io_trps.svl 2023.06)
