@<TRIPOS>MOLECULE
NONAME
52 55 1 0 0 
SMALL
USER_CHARGES


@<TRIPOS>ATOM
  1 O        0.9160    -1.7100    -1.9660 O.3   1 <1>  -0.6800 
  2 C        0.3490    -2.0270    -0.7390 C.3   1 <1>   0.1200 
  3 C        1.3780    -1.9030     0.4220 C.3   1 <1>   0.0000 
  4 C        2.7380    -2.6050     0.1360 C.3   1 <1>   0.4230 
  5 C        1.6400    -0.4000     0.7160 C.3   1 <1>  -0.1600 
  6 C        0.7530    -2.5440     1.6940 C.3   1 <1>  -0.1600 
  7 N        2.6010    -4.1050    -0.1310 N.4   1 <1>  -0.9590 
  8 C        3.6150    -1.8150    -0.8890 C.3   1 <1>   0.3430 
  9 C        2.4360     0.3210    -0.3750 C.3   1 <1>   0.3430 
 10 C        1.1970    -4.0010     1.9410 C.3   1 <1>  -0.1600 
 11 C        1.4920    -4.7610     0.6470 C.3   1 <1>   0.3430 
 12 C        2.4620    -4.4850    -1.5790 C.3   1 <1>   0.2630 
 13 N        3.7590    -0.3490    -0.5650 N.4   1 <1>  -0.9590 
 14 C        4.5500     0.3680    -1.6080 C.3   1 <1>   0.4860 
 15 C        4.9000     1.7360    -1.0630 C.ar  1 <1>  -0.1440 
 16 C        5.8830     1.8740    -0.1050 C.ar  1 <1>  -0.1500 
 17 C        4.2080     2.8660    -1.5280 C.ar  1 <1>  -0.1500 
 18 C        6.1680     3.1380     0.4150 C.ar  1 <1>   0.0000 
 19 C        4.4840     4.1160    -1.0250 C.ar  1 <1>  -0.1500 
 20 C        5.4670     4.2470    -0.0440 C.ar  1 <1>  -0.1520 
 21 C        7.0790     3.6120     1.3830 C.2   1 <1>  -0.1500 
 22 N        5.9320     5.3550     0.6190 N.pl3 1 <1>   0.0330 
 23 C        6.9100     4.9520     1.4830 C.2   1 <1>  -0.3020 
 24 H        0.2130    -1.6330    -2.6540 H     1 <1>   0.4000 
 25 H       -0.4830    -1.3600    -0.5750 H     1 <1>   0.0800 
 26 H       -0.0440    -3.0260    -0.8130 H     1 <1>   0.0800 
 27 H        3.2780    -2.5290     1.0650 H     1 <1>   0.0800 
 28 H        2.1760    -0.2840     1.6430 H     1 <1>   0.0800 
 29 H        0.7000     0.1110     0.8420 H     1 <1>   0.0800 
 30 H        1.0110    -1.9820     2.5770 H     1 <1>   0.0800 
 31 H       -0.3230    -2.5080     1.6290 H     1 <1>   0.0800 
 32 H        3.4660    -4.5510     0.2130 H     1 <1>   0.4500 
 33 H        3.1710    -1.9070    -1.8650 H     1 <1>   0.0800 
 34 H        4.5940    -2.2640    -0.9250 H     1 <1>   0.0800 
 35 H        2.5830     1.3510    -0.0840 H     1 <1>   0.0800 
 36 H        1.8810     0.3140    -1.2990 H     1 <1>   0.0800 
 37 H        0.4210    -4.5170     2.4820 H     1 <1>   0.0800 
 38 H        2.0740    -4.0210     2.5650 H     1 <1>   0.0800 
 39 H        0.5920    -4.7840     0.0530 H     1 <1>   0.0800 
 40 H        1.7570    -5.7820     0.8760 H     1 <1>   0.0800 
 41 H        1.5720    -4.0490    -2.0020 H     1 <1>   0.0800 
 42 H        2.3930    -5.5570    -1.6780 H     1 <1>   0.0800 
 43 H        3.3130    -4.1510    -2.1470 H     1 <1>   0.0800 
 44 H        4.2890    -0.2070     0.3070 H     1 <1>   0.4500 
 45 H        5.4610    -0.1660    -1.8230 H     1 <1>   0.0800 
 46 H        3.9820     0.4630    -2.5200 H     1 <1>   0.0800 
 47 H        6.4550     1.0430     0.2670 H     1 <1>   0.1500 
 48 H        3.4530     2.7670    -2.2900 H     1 <1>   0.1500 
 49 H        3.9600     4.9890    -1.3760 H     1 <1>   0.1500 
 50 H        7.7720     2.9920     1.9240 H     1 <1>   0.1500 
 51 H        5.6050     6.3170     0.4780 H     1 <1>   0.2700 
 52 H        7.4310     5.6470     2.1190 H     1 <1>   0.1500 
@<TRIPOS>BOND
  1   1   2  1   
  2   1  24  1   
  3   2   3  1   
  4   2  25  1   
  5   2  26  1   
  6   3   4  1   
  7   3   5  1   
  8   3   6  1   
  9   4   7  1   
 10   4   8  1   
 11   4  27  1   
 12   5   9  1   
 13   5  28  1   
 14   5  29  1   
 15   6  10  1   
 16   6  30  1   
 17   6  31  1   
 18   7  11  1   
 19   7  12  1   
 20   7  32  1   
 21   8  13  1   
 22   8  33  1   
 23   8  34  1   
 24   9  13  1   
 25   9  35  1   
 26   9  36  1   
 27  10  11  1   
 28  10  37  1   
 29  10  38  1   
 30  11  39  1   
 31  11  40  1   
 32  12  41  1   
 33  12  42  1   
 34  12  43  1   
 35  13  14  1   
 36  13  44  1   
 37  14  15  1   
 38  14  45  1   
 39  14  46  1   
 40  15  16  ar  
 41  15  17  ar  
 42  16  18  ar  
 43  16  47  1   
 44  17  19  ar  
 45  17  48  1   
 46  18  20  ar  
 47  18  21  1   
 48  19  20  ar  
 49  19  49  1   
 50  20  22  1   
 51  21  23  2   
 52  21  50  1   
 53  22  23  1   
 54  22  51  1   
 55  23  52  1   
@<TRIPOS>SUBSTRUCTURE
  1 ****  13 GROUP 4 **** **** 0

# MOE 2024.06 (io_trps.svl 2023.06)
