@<TRIPOS>MOLECULE
NONAME
55 57 1 0 0 
SMALL
USER_CHARGES


@<TRIPOS>ATOM
  1 O        5.1490    -2.8850     0.9040 O.2   1 <1>  -0.5700 
  2 C        4.0340    -2.4310     1.0820 C.2   1 <1>   0.5440 
  3 N        3.9530    -1.1990     1.7010 N.am  1 <1>  -0.6600 
  4 C        2.8700    -3.1490     0.6140 C.ar  1 <1>   0.0860 
  5 C        5.0290    -0.7710     2.6420 C.3   1 <1>   0.1400 
  6 C        2.9800    -0.1610     1.2730 C.3   1 <1>   0.1400 
  7 C        2.9310    -3.9240    -0.5420 C.ar  1 <1>   0.1600 
  8 C        1.6430    -3.1080     1.2710 C.ar  1 <1>  -0.1500 
  9 C        6.3060    -0.3540     1.8860 C.3   1 <1>   0.3430 
 10 C        3.6980     1.0900     0.7500 C.3   1 <1>  -0.1600 
 11 N        1.9300    -4.5900    -1.0860 N.ar  1 <1>  -0.6200 
 12 C        0.5930    -3.8020     0.7230 C.ar  1 <1>  -0.1500 
 13 N        6.1710     0.8790     1.0240 N.4   1 <1>  -0.9590 
 14 C        5.0310     0.7940     0.0520 C.3   1 <1>   0.3430 
 15 C        0.7630    -4.5310    -0.4530 C.ar  1 <1>   0.4100 
 16 C        7.4670     1.1070     0.3240 C.3   1 <1>   0.3430 
 17 N       -0.2950    -5.2270    -1.0010 N.pl3 1 <1>  -0.8380 
 18 C        7.5630     2.5480    -0.1790 C.3   1 <1>  -0.1600 
 19 C       -1.1020    -6.1540    -0.1640 C.3   1 <1>   0.1290 
 20 C       -0.3150    -5.5270    -2.4590 C.3   1 <1>   0.1290 
 21 C        8.9340     2.8230    -0.8150 C.3   1 <1>   0.0960 
 22 N        8.9780     4.2100    -1.3110 N.pl3 1 <1>   0.0480 
 23 C        8.7040     4.6530    -2.5580 C.2   1 <1>   0.0360 
 24 C        9.2530     5.3220    -0.6060 C.2   1 <1>  -0.3020 
 25 N        8.7800     5.9360    -2.6870 N.2   1 <1>  -0.5650 
 26 C        9.1290     6.3610    -1.4590 C.2   1 <1>   0.0770 
 27 H        5.2710    -1.6070     3.2770 H     1 <1>   0.0800 
 28 H        4.6820     0.0260     3.2750 H     1 <1>   0.0800 
 29 H        2.3360     0.0950     2.0970 H     1 <1>   0.0800 
 30 H        2.3600    -0.5560     0.4840 H     1 <1>   0.0800 
 31 H        3.8790    -3.9900    -1.0490 H     1 <1>   0.1500 
 32 H        1.5240    -2.5510     2.1830 H     1 <1>   0.1500 
 33 H        6.6170    -1.1860     1.2750 H     1 <1>   0.0800 
 34 H        7.0830    -0.1890     2.6140 H     1 <1>   0.0800 
 35 H        3.8330     1.8000     1.5450 H     1 <1>   0.0800 
 36 H        3.0400     1.5540     0.0370 H     1 <1>   0.0800 
 37 H       -0.3750    -3.7900     1.1850 H     1 <1>   0.1500 
 38 H        5.9950     1.6810     1.6430 H     1 <1>   0.4500 
 39 H        5.1660     1.5260    -0.7260 H     1 <1>   0.0800 
 40 H        5.0030    -0.1810    -0.4110 H     1 <1>   0.0800 
 41 H        7.5660     0.4160    -0.5000 H     1 <1>   0.0800 
 42 H        8.2810     0.9260     1.0090 H     1 <1>   0.0800 
 43 H        7.4270     3.2260     0.6470 H     1 <1>   0.0800 
 44 H        6.8060     2.7360    -0.9180 H     1 <1>   0.0800 
 45 H       -0.7720    -6.1280     0.8590 H     1 <1>   0.0800 
 46 H       -0.9960    -7.1610    -0.5280 H     1 <1>   0.0800 
 47 H       -2.1390    -5.8700    -0.2080 H     1 <1>   0.0800 
 48 H        0.1390    -4.7200    -3.0080 H     1 <1>   0.0800 
 49 H       -1.3290    -5.6460    -2.7980 H     1 <1>   0.0800 
 50 H        0.2380    -6.4310    -2.6510 H     1 <1>   0.0800 
 51 H        9.1120     2.1590    -1.6430 H     1 <1>   0.0800 
 52 H        9.7240     2.6950    -0.0950 H     1 <1>   0.0800 
 53 H        8.4450     3.9870    -3.3620 H     1 <1>   0.1500 
 54 H        9.5170     5.3250     0.4360 H     1 <1>   0.1500 
 55 H        9.2740     7.4090    -1.2530 H     1 <1>   0.1500 
@<TRIPOS>BOND
  1   1   2  2   
  2   2   3  am  
  3   2   4  1   
  4   3   5  1   
  5   3   6  1   
  6   4   7  ar  
  7   4   8  ar  
  8   5   9  1   
  9   5  27  1   
 10   5  28  1   
 11   6  10  1   
 12   6  29  1   
 13   6  30  1   
 14   7  11  ar  
 15   7  31  1   
 16   8  12  ar  
 17   8  32  1   
 18   9  13  1   
 19   9  33  1   
 20   9  34  1   
 21  10  14  1   
 22  10  35  1   
 23  10  36  1   
 24  11  15  ar  
 25  12  15  ar  
 26  12  37  1   
 27  13  14  1   
 28  13  16  1   
 29  13  38  1   
 30  14  39  1   
 31  14  40  1   
 32  15  17  1   
 33  16  18  1   
 34  16  41  1   
 35  16  42  1   
 36  17  19  1   
 37  17  20  1   
 38  18  21  1   
 39  18  43  1   
 40  18  44  1   
 41  19  45  1   
 42  19  46  1   
 43  19  47  1   
 44  20  48  1   
 45  20  49  1   
 46  20  50  1   
 47  21  22  1   
 48  21  51  1   
 49  21  52  1   
 50  22  23  1   
 51  22  24  1   
 52  23  25  2   
 53  23  53  1   
 54  24  26  2   
 55  24  54  1   
 56  25  26  1   
 57  26  55  1   
@<TRIPOS>SUBSTRUCTURE
  1 ****  14 GROUP 4 **** **** 0

# MOE 2024.06 (io_trps.svl 2023.06)
