@<TRIPOS>MOLECULE
NONAME
48 50 1 0 0 
SMALL
USER_CHARGES


@<TRIPOS>ATOM
  1 F       -4.4760     0.2370     2.0610 F     1 <1>  -0.1900 
  2 C       -3.9670     0.6680     0.9340 C.ar  1 <1>   0.1900 
  3 C       -3.5380    -0.2500    -0.0250 C.ar  1 <1>   0.0830 
  4 C       -3.8840     2.0340     0.7490 C.ar  1 <1>  -0.1500 
  5 O       -3.6670    -1.5780     0.2420 O.3   1 <1>  -0.3630 
  6 C       -2.9970     0.2370    -1.2160 C.ar  1 <1>  -0.1500 
  7 C       -3.3480     2.4740    -0.4440 C.ar  1 <1>   0.1900 
  8 C       -3.5690    -2.5470    -0.7910 C.3   1 <1>   0.1810 
  9 C       -2.9030     1.6060    -1.4270 C.ar  1 <1>  -0.1500 
 10 F       -3.2560     3.7600    -0.6550 F     1 <1>  -0.1900 
 11 C       -3.9790    -3.9340    -0.3000 C.2   1 <1>   0.5690 
 12 O       -3.1940    -4.8380    -0.4830 O.2   1 <1>  -0.5700 
 13 N       -5.2050    -4.1750     0.2730 N.am  1 <1>  -0.6600 
 14 C       -5.5580    -5.5170     0.8210 C.3   1 <1>   0.1400 
 15 C       -6.3460    -3.2150     0.3070 C.3   1 <1>   0.1400 
 16 C       -6.6760    -6.1230    -0.0550 C.3   1 <1>   0.4230 
 17 C       -7.5060    -3.7990    -0.5170 C.3   1 <1>  -0.1600 
 18 N       -7.0560    -7.5340     0.2940 N.4   1 <1>  -0.9590 
 19 C       -7.9310    -5.2180    -0.0310 C.3   1 <1>  -0.1060 
 20 C       -8.1050    -8.1260    -0.5890 C.3   1 <1>   0.3430 
 21 C       -5.9270    -8.4660     0.5590 C.3   1 <1>   0.2630 
 22 C       -8.4570    -5.1650     1.4170 C.2   1 <1>   0.9060 
 23 C       -9.0420    -5.7800    -0.9660 C.3   1 <1>  -0.1600 
 24 C       -8.6580    -7.1230    -1.6110 C.3   1 <1>  -0.1600 
 25 O       -8.4020    -6.1960     2.1060 O.co2 1 <1>  -0.9000 
 26 O       -8.9200    -4.1170     1.8620 O.co2 1 <1>  -0.9000 
 27 H       -4.2220     2.7220     1.5000 H     1 <1>   0.1500 
 28 H       -2.6400    -0.4250    -1.9830 H     1 <1>   0.1500 
 29 H       -4.2110    -2.2530    -1.6000 H     1 <1>   0.0800 
 30 H       -2.5480    -2.5760    -1.1240 H     1 <1>   0.0800 
 31 H       -2.4890     2.0000    -2.3380 H     1 <1>   0.1500 
 32 H       -4.6900    -6.1500     0.8110 H     1 <1>   0.0800 
 33 H       -5.8850    -5.4070     1.8410 H     1 <1>   0.0800 
 34 H       -6.6530    -3.0620     1.3300 H     1 <1>   0.0800 
 35 H       -6.0700    -2.2560    -0.0930 H     1 <1>   0.0800 
 36 H       -6.2940    -6.1300    -1.0610 H     1 <1>   0.0800 
 37 H       -8.3460    -3.1290    -0.4410 H     1 <1>   0.0800 
 38 H       -7.2110    -3.8320    -1.5500 H     1 <1>   0.0800 
 39 H       -7.5600    -7.3570     1.2060 H     1 <1>   0.4500 
 40 H       -7.7050    -8.9760    -1.1150 H     1 <1>   0.0800 
 41 H       -8.9170    -8.4700     0.0320 H     1 <1>   0.0800 
 42 H       -5.3260    -8.5840    -0.3280 H     1 <1>   0.0800 
 43 H       -6.3050    -9.4290     0.8590 H     1 <1>   0.0800 
 44 H       -5.3070    -8.0840     1.3530 H     1 <1>   0.0800 
 45 H       -9.9440    -5.9200    -0.3910 H     1 <1>   0.0800 
 46 H       -9.2850    -5.0750    -1.7420 H     1 <1>   0.0800 
 47 H       -7.9240    -6.9620    -2.3800 H     1 <1>   0.0800 
 48 H       -9.5240    -7.5500    -2.0850 H     1 <1>   0.0800 
@<TRIPOS>BOND
  1   1   2  1   
  2   2   3  ar  
  3   2   4  ar  
  4   3   5  1   
  5   3   6  ar  
  6   4   7  ar  
  7   4  27  1   
  8   5   8  1   
  9   6   9  ar  
 10   6  28  1   
 11   7   9  ar  
 12   7  10  1   
 13   8  11  1   
 14   8  29  1   
 15   8  30  1   
 16   9  31  1   
 17  11  12  2   
 18  11  13  am  
 19  13  14  1   
 20  13  15  1   
 21  14  16  1   
 22  14  32  1   
 23  14  33  1   
 24  15  17  1   
 25  15  34  1   
 26  15  35  1   
 27  16  18  1   
 28  16  19  1   
 29  16  36  1   
 30  17  19  1   
 31  17  37  1   
 32  17  38  1   
 33  18  20  1   
 34  18  21  1   
 35  18  39  1   
 36  19  22  1   
 37  19  23  1   
 38  20  24  1   
 39  20  40  1   
 40  20  41  1   
 41  21  42  1   
 42  21  43  1   
 43  21  44  1   
 44  22  25  ar  
 45  22  26  ar  
 46  23  24  1   
 47  23  45  1   
 48  23  46  1   
 49  24  47  1   
 50  24  48  1   
@<TRIPOS>SUBSTRUCTURE
  1 ****  15 GROUP 4 **** **** 0

# MOE 2024.06 (io_trps.svl 2023.06)
