@<TRIPOS>MOLECULE
NONAME
47 49 1 0 0 
SMALL
USER_CHARGES


@<TRIPOS>ATOM
  1 S       -0.3220     0.0590    -0.5980 S.o2  1 <1>   1.0900 
  2 O        0.6040    -1.0240    -0.8310 O.2   1 <1>  -0.6500 
  3 O       -1.5750     0.1610    -1.3080 O.2   1 <1>  -0.6500 
  4 C        0.5320     1.6140    -0.7280 C.3   1 <1>  -0.0550 
  5 C       -0.6310     0.1720     1.1580 C.3   1 <1>  -0.0550 
  6 C        0.8680     2.0430     0.6950 C.3   1 <1>   0.2200 
  7 C       -0.2810     1.5960     1.6010 C.3   1 <1>  -0.1600 
  8 N        1.0250     3.5010     0.7690 N.am  1 <1>  -0.7300 
  9 C        2.1710     4.2010     0.5560 C.2   1 <1>   0.7160 
 10 O        3.1820     3.5700     0.3150 O.2   1 <1>  -0.5700 
 11 C        2.1580     5.6320     0.6020 C.2   1 <1>  -0.0860 
 12 C        1.0180     6.4430     0.7040 C.2   1 <1>   0.3720 
 13 C        3.1730     6.5380     0.5390 C.2   1 <1>   0.0870 
 14 N        1.3280     7.6910     0.6920 N.2   1 <1>  -0.4100 
 15 N       -0.3110     5.9940     0.7940 N.pl3 1 <1>  -0.8210 
 16 O        2.6280     7.7270     0.5890 O.3   1 <1>  -0.0190 
 17 C        4.6070     6.4260     0.4380 C.ar  1 <1>   0.0530 
 18 C       -1.0200     6.5300     1.9910 C.3   1 <1>   0.1290 
 19 C       -1.0840     6.2740    -0.4480 C.3   1 <1>   0.1290 
 20 C        5.3230     7.2690    -0.4130 C.ar  1 <1>  -0.1500 
 21 C        5.3260     5.4940     1.1890 C.ar  1 <1>  -0.1500 
 22 C        6.7010     7.2030    -0.5380 C.ar  1 <1>   0.0830 
 23 C        6.7020     5.4000     1.0880 C.ar  1 <1>  -0.1500 
 24 O        7.2520     8.0920    -1.4140 O.3   1 <1>  -0.3630 
 25 C        7.3770     6.2490     0.2310 C.ar  1 <1>   0.1900 
 26 C        8.6320     8.1360    -1.6990 C.3   1 <1>   0.0400 
 27 F        8.6770     6.1120     0.1830 F     1 <1>  -0.1900 
 28 H       -0.1200     2.3390    -1.1760 H     1 <1>   0.0800 
 29 H        1.4250     1.5220    -1.3170 H     1 <1>   0.0800 
 30 H        0.0090    -0.5220     1.6710 H     1 <1>   0.0800 
 31 H       -1.6510    -0.0690     1.3910 H     1 <1>   0.0800 
 32 H        1.7810     1.5580     1.0060 H     1 <1>   0.0800 
 33 H        0.0030     1.6230     2.6390 H     1 <1>   0.0800 
 34 H       -1.1370     2.2310     1.4440 H     1 <1>   0.0800 
 35 H        0.1820     4.0850     0.8840 H     1 <1>   0.3700 
 36 H       -0.4200     6.3760     2.8720 H     1 <1>   0.0800 
 37 H       -1.9610     6.0250     2.1200 H     1 <1>   0.0800 
 38 H       -1.1990     7.5870     1.8770 H     1 <1>   0.0800 
 39 H       -0.5550     5.8900    -1.3040 H     1 <1>   0.0800 
 40 H       -1.2160     7.3360    -0.5720 H     1 <1>   0.0800 
 41 H       -2.0500     5.8020    -0.3980 H     1 <1>   0.0800 
 42 H        4.7920     7.9990    -0.9970 H     1 <1>   0.1500 
 43 H        4.8020     4.8350     1.8580 H     1 <1>   0.1500 
 44 H        7.2480     4.6760     1.6660 H     1 <1>   0.1500 
 45 H        8.7970     8.9030    -2.4340 H     1 <1>   0.0800 
 46 H        8.9390     7.1830    -2.0930 H     1 <1>   0.0800 
 47 H        9.1690     8.3730    -0.7980 H     1 <1>   0.0800 
@<TRIPOS>BOND
  1   1   2  2   
  2   1   3  2   
  3   1   4  1   
  4   1   5  1   
  5   4   6  1   
  6   4  28  1   
  7   4  29  1   
  8   5   7  1   
  9   5  30  1   
 10   5  31  1   
 11   6   7  1   
 12   6   8  1   
 13   6  32  1   
 14   7  33  1   
 15   7  34  1   
 16   8   9  am  
 17   8  35  1   
 18   9  10  2   
 19   9  11  1   
 20  11  12  1   
 21  11  13  2   
 22  12  14  2   
 23  12  15  1   
 24  13  16  1   
 25  13  17  1   
 26  14  16  1   
 27  15  18  1   
 28  15  19  1   
 29  17  20  ar  
 30  17  21  ar  
 31  18  36  1   
 32  18  37  1   
 33  18  38  1   
 34  19  39  1   
 35  19  40  1   
 36  19  41  1   
 37  20  22  ar  
 38  20  42  1   
 39  21  23  ar  
 40  21  43  1   
 41  22  24  1   
 42  22  25  ar  
 43  23  25  ar  
 44  23  44  1   
 45  24  26  1   
 46  25  27  1   
 47  26  45  1   
 48  26  46  1   
 49  26  47  1   
@<TRIPOS>SUBSTRUCTURE
  1 ****   9 GROUP 4 **** **** 0

# MOE 2024.06 (io_trps.svl 2023.06)
