@<TRIPOS>MOLECULE
NONAME
59 63 1 0 0 
SMALL
USER_CHARGES


@<TRIPOS>ATOM
  1 N       -0.1390     0.5240     0.1990 N.ar  1 <1>  -0.6200 
  2 C        1.0640     0.1880    -0.2360 C.ar  1 <1>   0.7710 
  3 C       -0.3650     1.7800     0.5320 C.ar  1 <1>   0.4100 
  4 N        2.0530     1.0880    -0.3220 N.ar  1 <1>  -0.1790 
  5 N        1.3140    -1.1020    -0.6000 N.pl3 1 <1>  -0.8380 
  6 N       -1.6170     2.0590     0.9780 N.pl3 1 <1>  -0.8380 
  7 C        0.6470     2.7690     0.4430 C.ar  1 <1>  -0.1430 
  8 C        1.8810     2.3850     0.0210 C.ar  1 <1>   0.2180 
  9 C        0.2850    -2.1760    -0.3920 C.3   1 <1>   0.1290 
 10 C        2.5340    -1.6260    -1.2930 C.3   1 <1>   0.1290 
 11 C       -2.6120     2.6880     0.0440 C.3   1 <1>   0.2090 
 12 C       -2.2540     1.1200     1.9510 C.3   1 <1>   0.2090 
 13 C        0.3680     4.2160     0.8540 C.3   1 <1>  -0.0170 
 14 C        3.0810     3.3220    -0.0810 C.3   1 <1>  -0.0170 
 15 C       -3.7660     3.3950     0.7900 C.3   1 <1>   0.1440 
 16 C       -3.3890     1.8020     2.7220 C.3   1 <1>  -0.1600 
 17 C        1.4810     5.1920     0.4450 C.3   1 <1>  -0.1600 
 18 C        2.8670     4.6080     0.7270 C.3   1 <1>  -0.1600 
 19 C       -4.7300     3.9400    -0.2470 C.ar  1 <1>   0.1670 
 20 C       -4.4320     2.4090     1.7690 C.3   1 <1>  -0.1600 
 21 C       -3.3110     4.6890     1.5170 C.3   1 <1>  -0.1600 
 22 N       -5.5660     3.2230    -0.9660 N.ar  1 <1>  -0.6200 
 23 C       -4.6200     5.2930    -0.3720 C.ar  1 <1>  -0.1430 
 24 C       -3.5760     5.8610     0.5560 C.3   1 <1>  -0.0170 
 25 C       -6.3040     3.9270    -1.8130 C.ar  1 <1>   0.4770 
 26 C       -5.4300     5.9210    -1.2850 C.ar  1 <1>   0.1600 
 27 N       -6.2850     5.2380    -2.0180 N.ar  1 <1>  -0.6200 
 28 C       -7.2810     3.1420    -2.6530 C.3   1 <1>  -0.0970 
 29 H        2.9410     0.7220    -0.6310 H     1 <1>   0.4570 
 30 H       -0.3940    -1.9230     0.4060 H     1 <1>   0.0800 
 31 H        0.7620    -3.1060    -0.1330 H     1 <1>   0.0800 
 32 H       -0.2850    -2.3150    -1.2950 H     1 <1>   0.0800 
 33 H        3.1040    -0.8400    -1.7550 H     1 <1>   0.0800 
 34 H        2.2430    -2.3160    -2.0690 H     1 <1>   0.0800 
 35 H        3.1570    -2.1520    -0.5880 H     1 <1>   0.0800 
 36 H       -3.0330     1.9110    -0.5720 H     1 <1>   0.0800 
 37 H       -2.1220     3.3830    -0.6130 H     1 <1>   0.0800 
 38 H       -1.5110     0.7610     2.6440 H     1 <1>   0.0800 
 39 H       -2.6450     0.2730     1.4130 H     1 <1>   0.0800 
 40 H        0.2380     4.2460     1.9230 H     1 <1>   0.0800 
 41 H       -0.5430     4.5570     0.4020 H     1 <1>   0.0800 
 42 H        3.2360     3.5770    -1.1160 H     1 <1>   0.0800 
 43 H        3.9690     2.8350     0.2820 H     1 <1>   0.0800 
 44 H       -2.9720     2.5630     3.3570 H     1 <1>   0.0800 
 45 H       -3.8650     1.0760     3.3560 H     1 <1>   0.0800 
 46 H        1.3580     6.1180     0.9810 H     1 <1>   0.0800 
 47 H        1.3940     5.4120    -0.6060 H     1 <1>   0.0800 
 48 H        3.6270     5.3280     0.4710 H     1 <1>   0.0800 
 49 H        2.9560     4.3960     1.7790 H     1 <1>   0.0800 
 50 H       -4.8940     1.6160     1.2060 H     1 <1>   0.0800 
 51 H       -5.2090     2.9010     2.3270 H     1 <1>   0.0800 
 52 H       -2.2910     4.6450     1.8480 H     1 <1>   0.0800 
 53 H       -3.9280     4.8400     2.3860 H     1 <1>   0.0800 
 54 H       -2.6900     6.1090    -0.0010 H     1 <1>   0.0800 
 55 H       -3.9370     6.7290     1.0800 H     1 <1>   0.0800 
 56 H       -5.3810     6.9870    -1.4190 H     1 <1>   0.1500 
 57 H       -7.5470     2.2270    -2.1570 H     1 <1>   0.0800 
 58 H       -6.8290     2.9130    -3.5990 H     1 <1>   0.0800 
 59 H       -8.1710     3.7200    -2.8170 H     1 <1>   0.0800 
@<TRIPOS>BOND
  1   1   2  ar  
  2   1   3  ar  
  3   2   4  ar  
  4   2   5  1   
  5   3   6  1   
  6   3   7  ar  
  7   4   8  ar  
  8   4  29  1   
  9   5   9  1   
 10   5  10  1   
 11   6  11  1   
 12   6  12  1   
 13   7   8  ar  
 14   7  13  1   
 15   8  14  1   
 16   9  30  1   
 17   9  31  1   
 18   9  32  1   
 19  10  33  1   
 20  10  34  1   
 21  10  35  1   
 22  11  15  1   
 23  11  36  1   
 24  11  37  1   
 25  12  16  1   
 26  12  38  1   
 27  12  39  1   
 28  13  17  1   
 29  13  40  1   
 30  13  41  1   
 31  14  18  1   
 32  14  42  1   
 33  14  43  1   
 34  15  19  1   
 35  15  20  1   
 36  15  21  1   
 37  16  20  1   
 38  16  44  1   
 39  16  45  1   
 40  17  18  1   
 41  17  46  1   
 42  17  47  1   
 43  18  48  1   
 44  18  49  1   
 45  19  22  ar  
 46  19  23  ar  
 47  20  50  1   
 48  20  51  1   
 49  21  24  1   
 50  21  52  1   
 51  21  53  1   
 52  22  25  ar  
 53  23  24  1   
 54  23  26  ar  
 55  24  54  1   
 56  24  55  1   
 57  25  27  ar  
 58  25  28  1   
 59  26  27  ar  
 60  26  56  1   
 61  28  57  1   
 62  28  58  1   
 63  28  59  1   
@<TRIPOS>SUBSTRUCTURE
  1 ****  11 GROUP 4 **** **** 0

# MOE 2024.06 (io_trps.svl 2023.06)
