@<TRIPOS>MOLECULE
NONAME
56 60 1 0 0 
SMALL
USER_CHARGES


@<TRIPOS>ATOM
  1 S        0.0820    -0.2710     0.8970 S.o2  1 <1>   1.4470 
  2 O       -1.0570    -1.1590     0.9010 O.2   1 <1>  -0.6500 
  3 O        0.9610    -0.2170     2.0440 O.2   1 <1>  -0.6500 
  4 N        1.0080    -0.8730    -0.3700 N.am  1 <1>  -0.9140 
  5 C       -0.3770     1.3950     0.3470 C.ar  1 <1>  -0.0090 
  6 C        2.0200    -1.8580    -0.0040 C.3   1 <1>   0.1960 
  7 C       -1.6650     1.6810    -0.0940 C.ar  1 <1>  -0.1500 
  8 C        0.5550     2.4270     0.3380 C.ar  1 <1>  -0.1500 
  9 C        1.4300    -3.1470     0.6050 C.3   1 <1>  -0.0800 
 10 C       -2.0120     2.9500    -0.5260 C.ar  1 <1>  -0.1500 
 11 C        0.2180     3.6980    -0.0920 C.ar  1 <1>  -0.1500 
 12 C        0.5680    -3.9210    -0.4030 C.3   1 <1>   0.2000 
 13 C        2.4680    -4.2330     0.9790 C.3   1 <1>  -0.0800 
 14 C       -1.0690     3.9610    -0.5260 C.ar  1 <1>  -0.1500 
 15 O        1.5360    -4.6970    -1.0020 O.3   1 <1>  -0.5600 
 16 C       -0.2880    -4.9920     0.2900 C.3   1 <1>  -0.1600 
 17 C        2.0170    -5.3900     0.0930 C.3   1 <1>   0.2800 
 18 C        3.9550    -4.0450     0.6180 C.3   1 <1>   0.3430 
 19 C        0.7530    -6.0700     0.6140 C.3   1 <1>  -0.1600 
 20 C        3.2810    -6.1550    -0.2720 C.3   1 <1>   0.3430 
 21 N        4.2840    -5.0610    -0.4380 N.4   1 <1>  -0.9590 
 22 C        5.7020    -5.5080    -0.5480 C.3   1 <1>   0.4230 
 23 C        6.2020    -6.1950     0.7290 C.3   1 <1>  -0.1600 
 24 C        6.5950    -4.3240    -0.9230 C.3   1 <1>  -0.1600 
 25 C        7.6930    -6.5100     0.5930 C.3   1 <1>   0.1200 
 26 C        8.0590    -4.7660    -0.9460 C.3   1 <1>   0.1200 
 27 O        8.3660    -5.3320     0.2870 O.3   1 <1>  -0.5600 
 28 H        0.3240    -1.2980    -0.9930 H     1 <1>   0.4200 
 29 H        2.5750    -2.1050    -0.8930 H     1 <1>   0.0800 
 30 H        2.7050    -1.4060     0.6970 H     1 <1>   0.0800 
 31 H       -2.4100     0.9020    -0.0980 H     1 <1>   0.1500 
 32 H        1.5600     2.2320     0.6750 H     1 <1>   0.1500 
 33 H        0.8530    -2.9030     1.4790 H     1 <1>   0.0800 
 34 H       -3.0150     3.1500    -0.8620 H     1 <1>   0.1500 
 35 H        0.9550     4.4830    -0.0890 H     1 <1>   0.1500 
 36 H        0.0340    -3.3250    -1.1240 H     1 <1>   0.0800 
 37 H        2.3920    -4.4900     2.0210 H     1 <1>   0.0800 
 38 H       -1.3350     4.9490    -0.8610 H     1 <1>   0.1500 
 39 H       -0.7790    -4.6030     1.1660 H     1 <1>   0.0800 
 40 H       -1.0320    -5.3660    -0.3910 H     1 <1>   0.0800 
 41 H        4.5500    -4.2200     1.4990 H     1 <1>   0.0800 
 42 H        4.1620    -3.0500     0.2630 H     1 <1>   0.0800 
 43 H        0.5520    -6.9730     0.0640 H     1 <1>   0.0800 
 44 H        0.8060    -6.2900     1.6660 H     1 <1>   0.0800 
 45 H        3.1430    -6.7280    -1.1740 H     1 <1>   0.0800 
 46 H        3.5570    -6.8040     0.5420 H     1 <1>   0.0800 
 47 H        4.0180    -4.6230    -1.3330 H     1 <1>   0.4500 
 48 H        5.7720    -6.2280    -1.3490 H     1 <1>   0.0800 
 49 H        5.6760    -7.1150     0.8980 H     1 <1>   0.0800 
 50 H        6.0830    -5.5620     1.5890 H     1 <1>   0.0800 
 51 H        6.5070    -3.5270    -0.2070 H     1 <1>   0.0800 
 52 H        6.3290    -3.9490    -1.8950 H     1 <1>   0.0800 
 53 H        7.8870    -7.2320    -0.1830 H     1 <1>   0.0800 
 54 H        8.0920    -6.8820     1.5220 H     1 <1>   0.0800 
 55 H        8.7110    -3.9200    -1.0900 H     1 <1>   0.0800 
 56 H        8.2530    -5.4900    -1.7200 H     1 <1>   0.0800 
@<TRIPOS>BOND
  1   1   2  2   
  2   1   3  2   
  3   1   4  am  
  4   1   5  1   
  5   4   6  1   
  6   4  28  1   
  7   5   7  ar  
  8   5   8  ar  
  9   6   9  1   
 10   6  29  1   
 11   6  30  1   
 12   7  10  ar  
 13   7  31  1   
 14   8  11  ar  
 15   8  32  1   
 16   9  12  1   
 17   9  13  1   
 18   9  33  1   
 19  10  14  ar  
 20  10  34  1   
 21  11  14  ar  
 22  11  35  1   
 23  12  15  1   
 24  12  16  1   
 25  12  36  1   
 26  13  17  1   
 27  13  18  1   
 28  13  37  1   
 29  14  38  1   
 30  15  17  1   
 31  16  19  1   
 32  16  39  1   
 33  16  40  1   
 34  17  19  1   
 35  17  20  1   
 36  18  21  1   
 37  18  41  1   
 38  18  42  1   
 39  19  43  1   
 40  19  44  1   
 41  20  21  1   
 42  20  45  1   
 43  20  46  1   
 44  21  22  1   
 45  21  47  1   
 46  22  23  1   
 47  22  24  1   
 48  22  48  1   
 49  23  25  1   
 50  23  49  1   
 51  23  50  1   
 52  24  26  1   
 53  24  51  1   
 54  24  52  1   
 55  25  27  1   
 56  25  53  1   
 57  25  54  1   
 58  26  27  1   
 59  26  55  1   
 60  26  56  1   
@<TRIPOS>SUBSTRUCTURE
  1 ****   6 GROUP 4 **** **** 0

# MOE 2024.06 (io_trps.svl 2023.06)
