@<TRIPOS>MOLECULE
NONAME
42 44 1 0 0 
SMALL
USER_CHARGES


@<TRIPOS>ATOM
  1 S       -0.3250    -1.8050    -0.1440 S.3   1 <1>  -0.0800 
  2 C       -1.5740    -1.7490    -1.3420 C.2   1 <1>   0.4420 
  3 C       -0.0250    -0.1320    -0.4740 C.2   1 <1>   0.1980 
  4 N       -1.6840    -0.5870    -1.8740 N.2   1 <1>  -0.3380 
  5 N       -2.2660    -2.9190    -1.5620 N.am  1 <1>  -0.4940 
  6 N       -0.7970     0.3280    -1.3770 N.2   1 <1>  -0.3380 
  7 C        1.0910     0.5360     0.3360 C.3   1 <1>   0.3800 
  8 C       -3.3350    -3.1660    -2.3700 C.2   1 <1>   0.5690 
  9 O        0.9220     1.9190     0.4550 O.3   1 <1>  -0.5600 
 10 C        2.4530     0.3210    -0.3200 C.3   1 <1>  -0.2400 
 11 O       -3.9000    -2.3280    -3.0220 O.2   1 <1>  -0.5700 
 12 C       -3.8570    -4.5840    -2.4270 C.3   1 <1>  -0.0990 
 13 C       -0.1910     2.3310     1.1870 C.3   1 <1>   0.0400 
 14 C       -4.5480    -4.9630    -1.1090 C.3   1 <1>   0.1400 
 15 N       -3.9700    -6.2100    -0.5400 N.am  1 <1>  -0.4200 
 16 C       -2.7290    -6.2130     0.0590 C.2   1 <1>   0.5440 
 17 C       -4.7000    -7.3750    -0.5810 C.2   1 <1>   0.4500 
 18 O       -2.0580    -5.1900     0.0610 O.2   1 <1>  -0.5700 
 19 C       -2.2580    -7.4380     0.6430 C.ar  1 <1>   0.0860 
 20 N       -4.3180    -8.4900    -0.0880 N.2   1 <1>  -0.6290 
 21 C       -3.0910    -8.5590     0.5420 C.ar  1 <1>   0.1790 
 22 C       -1.0280    -7.5660     1.2960 C.ar  1 <1>  -0.1500 
 23 C       -2.6780    -9.7690     1.0880 C.ar  1 <1>  -0.1500 
 24 C       -0.6320    -8.7730     1.8330 C.ar  1 <1>  -0.1500 
 25 C       -1.4610    -9.8800     1.7290 C.ar  1 <1>  -0.1500 
 26 H       -1.9580    -3.7120    -0.9850 H     1 <1>   0.3700 
 27 H        1.1080     0.1240     1.3300 H     1 <1>   0.0800 
 28 H        2.4510     0.7470    -1.3080 H     1 <1>   0.0800 
 29 H        2.6660    -0.7290    -0.3980 H     1 <1>   0.0800 
 30 H        3.2220     0.7880     0.2680 H     1 <1>   0.0800 
 31 H       -3.0400    -5.2450    -2.6500 H     1 <1>   0.0800 
 32 H       -4.5670    -4.6540    -3.2320 H     1 <1>   0.0800 
 33 H       -0.1610     3.4040     1.2620 H     1 <1>   0.0800 
 34 H       -0.1560     1.8990     2.1710 H     1 <1>   0.0800 
 35 H       -1.0910     2.0390     0.6740 H     1 <1>   0.0800 
 36 H       -5.6030    -5.0920    -1.2820 H     1 <1>   0.0800 
 37 H       -4.4410    -4.1730    -0.3830 H     1 <1>   0.0800 
 38 H       -5.6590    -7.3210    -1.0680 H     1 <1>   0.0600 
 39 H       -0.3850    -6.7060     1.3760 H     1 <1>   0.1500 
 40 H       -3.3290   -10.6210     1.0020 H     1 <1>   0.1500 
 41 H        0.3180    -8.8630     2.3340 H     1 <1>   0.1500 
 42 H       -1.1530   -10.8230     2.1470 H     1 <1>   0.1500 
@<TRIPOS>BOND
  1   1   2  1   
  2   1   3  1   
  3   2   4  2   
  4   2   5  1   
  5   3   6  2   
  6   3   7  1   
  7   4   6  1   
  8   5   8  am  
  9   5  26  1   
 10   7   9  1   
 11   7  10  1   
 12   7  27  1   
 13   8  11  2   
 14   8  12  1   
 15   9  13  1   
 16  10  28  1   
 17  10  29  1   
 18  10  30  1   
 19  12  14  1   
 20  12  31  1   
 21  12  32  1   
 22  13  33  1   
 23  13  34  1   
 24  13  35  1   
 25  14  15  1   
 26  14  36  1   
 27  14  37  1   
 28  15  16  am  
 29  15  17  1   
 30  16  18  2   
 31  16  19  1   
 32  17  20  2   
 33  17  38  1   
 34  19  21  ar  
 35  19  22  ar  
 36  20  21  1   
 37  21  23  ar  
 38  22  24  ar  
 39  22  39  1   
 40  23  25  ar  
 41  23  40  1   
 42  24  25  ar  
 43  24  41  1   
 44  25  42  1   
@<TRIPOS>SUBSTRUCTURE
  1 ****  18 GROUP 4 **** **** 0

# MOE 2024.06 (io_trps.svl 2023.06)
