@<TRIPOS>MOLECULE
NONAME
57 59 1 0 0 
SMALL
USER_CHARGES


@<TRIPOS>ATOM
  1 O        1.1650     1.1650     1.9600 O.3   1 <1>  -0.0190 
  2 N        1.6380     0.5220     0.9350 N.2   1 <1>  -0.4100 
  3 C        0.8400     2.3910     1.6580 C.2   1 <1>  -0.0400 
  4 C        1.6120     1.3370    -0.0520 C.2   1 <1>   0.1080 
  5 C        1.1280     2.5820     0.3590 C.2   1 <1>  -0.1810 
  6 C        0.2570     3.2680     2.7490 C.3   1 <1>  -0.0600 
  7 C        2.0540     0.9290    -1.4450 C.3   1 <1>  -0.0590 
  8 C        1.0000     3.8290    -0.4820 C.3   1 <1>   0.5240 
  9 N        2.0700     4.7870    -0.0500 N.4   1 <1>  -0.9590 
 10 C        1.9800     6.1720    -0.6270 C.3   1 <1>   0.4230 
 11 C        3.4190     4.1650    -0.3050 C.3   1 <1>   0.3430 
 12 C        3.0220     7.0890     0.0360 C.3   1 <1>  -0.1600 
 13 C        0.5800     6.7750    -0.4290 C.3   1 <1>  -0.1600 
 14 C        4.1710     3.9050     1.0010 C.3   1 <1>  -0.0170 
 15 C        2.9260     8.5260    -0.4720 C.3   1 <1>   0.3430 
 16 C        0.5110     8.2210    -0.9280 C.3   1 <1>   0.3430 
 17 C        5.6530     3.9140     0.7050 C.ar  1 <1>   0.1660 
 18 N        1.5470     9.0530    -0.2570 N.4   1 <1>  -0.9590 
 19 N        6.1040     5.0190     0.1290 N.ar  1 <1>  -0.6200 
 20 C        6.4390     2.8190     1.0300 C.ar  1 <1>  -0.1500 
 21 C        1.4320    10.4710    -0.7110 C.3   1 <1>   0.3430 
 22 C        7.4070     5.0310    -0.1270 C.ar  1 <1>   0.1600 
 23 C        7.7880     2.8480     0.7510 C.ar  1 <1>  -0.1500 
 24 C        2.1660    11.3850     0.2630 C.3   1 <1>  -0.2400 
 25 C        8.2750     3.9910     0.1570 C.ar  1 <1>  -0.1500 
 26 H       -0.6300     2.8040     3.1430 H     1 <1>   0.0800 
 27 H       -0.0020     4.2390     2.3750 H     1 <1>   0.0800 
 28 H        0.9660     3.3720     3.5520 H     1 <1>   0.0800 
 29 H        1.9440    -0.1360    -1.5560 H     1 <1>   0.0800 
 30 H        3.0890     1.1750    -1.5960 H     1 <1>   0.0800 
 31 H        1.4530     1.4060    -2.1960 H     1 <1>   0.0800 
 32 H        0.0220     4.2500    -0.3170 H     1 <1>   0.0800 
 33 H        1.1020     3.5870    -1.5270 H     1 <1>   0.0800 
 34 H        1.9750     4.8450     0.9710 H     1 <1>   0.4500 
 35 H        2.1870     6.1240    -1.6850 H     1 <1>   0.0800 
 36 H        4.0080     4.8220    -0.9240 H     1 <1>   0.0800 
 37 H        3.3240     3.2360    -0.8410 H     1 <1>   0.0800 
 38 H        4.0180     6.7540    -0.1840 H     1 <1>   0.0800 
 39 H        2.9020     7.0910     1.1050 H     1 <1>   0.0800 
 40 H        0.3010     6.7520     0.6100 H     1 <1>   0.0800 
 41 H       -0.1490     6.2190    -0.9900 H     1 <1>   0.0800 
 42 H        3.8740     2.9600     1.4210 H     1 <1>   0.0800 
 43 H        3.9820     4.6830     1.7180 H     1 <1>   0.0800 
 44 H        3.1710     8.5600    -1.5230 H     1 <1>   0.0800 
 45 H        3.6430     9.1360     0.0550 H     1 <1>   0.0800 
 46 H       -0.4690     8.6250    -0.7250 H     1 <1>   0.0800 
 47 H        0.6640     8.2460    -1.9960 H     1 <1>   0.0800 
 48 H        1.3570     9.0700     0.7570 H     1 <1>   0.4500 
 49 H        6.0130     1.9490     1.4990 H     1 <1>   0.1500 
 50 H        0.3930    10.7620    -0.7370 H     1 <1>   0.0800 
 51 H        1.8370    10.5840    -1.7040 H     1 <1>   0.0800 
 52 H        7.8100     5.9170    -0.5890 H     1 <1>   0.1500 
 53 H        8.4330     2.0180     0.9890 H     1 <1>   0.1500 
 54 H        1.7820    11.2760     1.2610 H     1 <1>   0.0800 
 55 H        2.0130    12.4070    -0.0360 H     1 <1>   0.0800 
 56 H        3.2260    11.2060     0.2580 H     1 <1>   0.0800 
 57 H        9.3200     4.0790    -0.0830 H     1 <1>   0.1500 
@<TRIPOS>BOND
  1   1   2  1   
  2   1   3  1   
  3   2   4  2   
  4   3   5  2   
  5   3   6  1   
  6   4   5  1   
  7   4   7  1   
  8   5   8  1   
  9   6  26  1   
 10   6  27  1   
 11   6  28  1   
 12   7  29  1   
 13   7  30  1   
 14   7  31  1   
 15   8   9  1   
 16   8  32  1   
 17   8  33  1   
 18   9  10  1   
 19   9  11  1   
 20   9  34  1   
 21  10  12  1   
 22  10  13  1   
 23  10  35  1   
 24  11  14  1   
 25  11  36  1   
 26  11  37  1   
 27  12  15  1   
 28  12  38  1   
 29  12  39  1   
 30  13  16  1   
 31  13  40  1   
 32  13  41  1   
 33  14  17  1   
 34  14  42  1   
 35  14  43  1   
 36  15  18  1   
 37  15  44  1   
 38  15  45  1   
 39  16  18  1   
 40  16  46  1   
 41  16  47  1   
 42  17  19  ar  
 43  17  20  ar  
 44  18  21  1   
 45  18  48  1   
 46  19  22  ar  
 47  20  23  ar  
 48  20  49  1   
 49  21  24  1   
 50  21  50  1   
 51  21  51  1   
 52  22  25  ar  
 53  22  52  1   
 54  23  25  ar  
 55  23  53  1   
 56  24  54  1   
 57  24  55  1   
 58  24  56  1   
 59  25  57  1   
@<TRIPOS>SUBSTRUCTURE
  1 ****  11 GROUP 4 **** **** 0

# MOE 2024.06 (io_trps.svl 2023.06)
