@<TRIPOS>MOLECULE
NONAME
43 44 1 0 0 
SMALL
USER_CHARGES


@<TRIPOS>ATOM
  1 S       -0.6670     0.6350     1.4140 S.o2  1 <1>   1.4470 
  2 O       -1.2370     1.9010     1.8310 O.2   1 <1>  -0.6500 
  3 O       -0.5890    -0.4340     2.3860 O.2   1 <1>  -0.6500 
  4 N       -1.5710     0.1160     0.0720 N.am  1 <1>  -0.8490 
  5 C        0.9840     0.9570     0.7290 C.ar  1 <1>  -0.0090 
  6 C       -1.1180    -1.1260    -0.5890 C.3   1 <1>   0.1960 
  7 C       -3.0250     0.1660     0.2540 C.3   1 <1>   0.1960 
  8 C        1.9610    -0.0320     0.7190 C.ar  1 <1>  -0.1500 
  9 C        1.3010     2.1890     0.1720 C.ar  1 <1>  -0.1500 
 10 C       -1.6190    -2.4000     0.1020 C.3   1 <1>  -0.1860 
 11 C       -3.5530    -1.0610     1.0010 C.3   1 <1>  -0.1600 
 12 C        3.2180     0.1910     0.1840 C.ar  1 <1>  -0.1440 
 13 C        2.5520     2.4460    -0.3640 C.ar  1 <1>  -0.1440 
 14 C       -1.2280    -3.6210    -0.7020 C.2   1 <1>   0.9060 
 15 C       -3.1350    -2.3310     0.2700 C.3   1 <1>   0.2000 
 16 C        3.5180     1.4450    -0.3390 C.ar  1 <1>   0.0820 
 17 C        4.2300    -0.9460     0.1720 C.3   1 <1>  -0.0970 
 18 C        2.8430     3.8110    -0.9720 C.3   1 <1>  -0.0970 
 19 O       -0.4450    -3.5000    -1.6490 O.co2 1 <1>  -0.9000 
 20 O       -1.7180    -4.7140    -0.3900 O.co2 1 <1>  -0.9000 
 21 O       -3.5550    -3.4180     1.0000 O.3   1 <1>  -0.6800 
 22 O        4.7480     1.6910    -0.8400 O.3   1 <1>  -0.3630 
 23 C        5.7100     2.1500     0.0810 C.3   1 <1>   0.0400 
 24 H       -1.4890    -1.1240    -1.6010 H     1 <1>   0.0800 
 25 H       -0.0450    -1.1500    -0.6580 H     1 <1>   0.0800 
 26 H       -3.3050     1.0640     0.7780 H     1 <1>   0.0800 
 27 H       -3.4870     0.2040    -0.7180 H     1 <1>   0.0800 
 28 H        1.7220    -0.9980     1.1330 H     1 <1>   0.1500 
 29 H        0.5450     2.9570     0.1610 H     1 <1>   0.1500 
 30 H       -1.1510    -2.4950     1.0610 H     1 <1>   0.0800 
 31 H       -4.6260    -1.0150     1.0480 H     1 <1>   0.0800 
 32 H       -3.1680    -1.0700     2.0050 H     1 <1>   0.0800 
 33 H       -3.6100    -2.3850    -0.6960 H     1 <1>   0.0800 
 34 H        3.7300    -1.8980     0.2150 H     1 <1>   0.0800 
 35 H        4.8890    -0.8620     1.0150 H     1 <1>   0.0800 
 36 H        4.8110    -0.9190    -0.7330 H     1 <1>   0.0800 
 37 H        1.9320     4.3460    -1.1710 H     1 <1>   0.0800 
 38 H        3.3740     3.6950    -1.9000 H     1 <1>   0.0800 
 39 H        3.4440     4.3920    -0.2970 H     1 <1>   0.0800 
 40 H       -3.0330    -4.1950     0.6420 H     1 <1>   0.4000 
 41 H        6.6300     2.3180    -0.4480 H     1 <1>   0.0800 
 42 H        5.8500     1.4030     0.8410 H     1 <1>   0.0800 
 43 H        5.3610     3.0680     0.5200 H     1 <1>   0.0800 
@<TRIPOS>BOND
  1   1   2  2   
  2   1   3  2   
  3   1   4  am  
  4   1   5  1   
  5   4   6  1   
  6   4   7  1   
  7   5   8  ar  
  8   5   9  ar  
  9   6  10  1   
 10   6  24  1   
 11   6  25  1   
 12   7  11  1   
 13   7  26  1   
 14   7  27  1   
 15   8  12  ar  
 16   8  28  1   
 17   9  13  ar  
 18   9  29  1   
 19  10  14  1   
 20  10  15  1   
 21  10  30  1   
 22  11  15  1   
 23  11  31  1   
 24  11  32  1   
 25  12  16  ar  
 26  12  17  1   
 27  13  16  ar  
 28  13  18  1   
 29  14  19  ar  
 30  14  20  ar  
 31  15  21  1   
 32  15  33  1   
 33  16  22  1   
 34  17  34  1   
 35  17  35  1   
 36  17  36  1   
 37  18  37  1   
 38  18  38  1   
 39  18  39  1   
 40  21  40  1   
 41  22  23  1   
 42  23  41  1   
 43  23  42  1   
 44  23  43  1   
@<TRIPOS>SUBSTRUCTURE
  1 ****   5 GROUP 4 **** **** 0

# MOE 2024.06 (io_trps.svl 2023.06)
