@<TRIPOS>MOLECULE
NONAME
69 72 1 0 0 
SMALL
USER_CHARGES


@<TRIPOS>ATOM
  1 O       -1.0740    -2.2100     2.0320 O.3   1 <1>  -0.5600 
  2 C       -1.7000    -0.9810     1.7750 C.3   1 <1>   0.1200 
  3 C       -0.7580    -2.9450     0.8810 C.3   1 <1>   0.1200 
  4 C       -2.9920    -1.1710     0.9470 C.3   1 <1>   0.3430 
  5 C       -2.0260    -3.2560     0.0520 C.3   1 <1>   0.3430 
  6 N       -3.2520    -2.6220     0.6560 N.4   1 <1>  -0.9590 
  7 C       -4.5040    -2.8380    -0.1180 C.3   1 <1>   0.3430 
  8 C       -4.8910    -4.3160    -0.1070 C.3   1 <1>  -0.1600 
  9 C       -6.2350    -4.5330    -0.8020 C.3   1 <1>   0.1200 
 10 O       -6.5000    -5.9150    -0.7800 O.3   1 <1>  -0.3630 
 11 C       -7.5990    -6.4330    -1.3820 C.ar  1 <1>   0.0820 
 12 C       -7.7040    -7.8140    -1.3970 C.ar  1 <1>  -0.1500 
 13 C       -8.5980    -5.6630    -1.9710 C.ar  1 <1>  -0.1500 
 14 C       -8.7920    -8.4370    -1.9900 C.ar  1 <1>  -0.1440 
 15 C       -9.6810    -6.2810    -2.5690 C.ar  1 <1>  -0.1500 
 16 C       -9.7790    -7.6610    -2.5820 C.ar  1 <1>  -0.1500 
 17 C       -8.9000    -9.9490    -1.9850 C.3   1 <1>   0.4860 
 18 N       -9.3860   -10.3710    -0.6480 N.4   1 <1>  -0.9590 
 19 C      -10.7780    -9.9280    -0.3850 C.3   1 <1>   0.3430 
 20 C       -9.3630   -11.8400    -0.4340 C.3   1 <1>   0.3430 
 21 C      -11.2560   -10.8190     0.7540 C.3   1 <1>  -0.0800 
 22 C      -10.5170   -12.1560     0.5240 C.3   1 <1>  -0.0800 
 23 C      -12.8000   -10.9150     0.8640 C.3   1 <1>   0.2800 
 24 C      -11.4230   -13.2490    -0.0680 C.3   1 <1>  -0.1600 
 25 O      -13.3360   -10.9020    -0.4090 O.3   1 <1>  -0.6800 
 26 C      -13.1910   -12.2490     1.5240 C.3   1 <1>  -0.1600 
 27 C      -13.4350    -9.7410     1.6430 C.3   1 <1>  -0.1600 
 28 C      -12.6690   -13.5050     0.7950 C.3   1 <1>  -0.1600 
 29 C      -13.2020    -8.3310     1.0720 C.3   1 <1>  -0.2400 
 30 H       -1.9300    -0.5270     2.7230 H     1 <1>   0.0800 
 31 H       -1.0050    -0.3410     1.2580 H     1 <1>   0.0800 
 32 H       -0.0470    -2.3840     0.2980 H     1 <1>   0.0800 
 33 H       -0.2860    -3.8600     1.1950 H     1 <1>   0.0800 
 34 H       -2.8980    -0.6220     0.0240 H     1 <1>   0.0800 
 35 H       -3.8210    -0.7490     1.4920 H     1 <1>   0.0800 
 36 H       -2.1500    -4.3250     0.0020 H     1 <1>   0.0800 
 37 H       -1.8820    -2.8990    -0.9540 H     1 <1>   0.0800 
 38 H       -3.3430    -3.0620     1.5860 H     1 <1>   0.4500 
 39 H       -5.3030    -2.2670     0.3280 H     1 <1>   0.0800 
 40 H       -4.3740    -2.4990    -1.1340 H     1 <1>   0.0800 
 41 H       -4.9730    -4.6620     0.9090 H     1 <1>   0.0800 
 42 H       -4.1500    -4.8970    -0.6270 H     1 <1>   0.0800 
 43 H       -6.1990    -4.2150    -1.8300 H     1 <1>   0.0800 
 44 H       -7.0310    -4.0290    -0.2800 H     1 <1>   0.0800 
 45 H       -6.9150    -8.3850    -0.9410 H     1 <1>   0.1500 
 46 H       -8.5540    -4.5910    -1.9770 H     1 <1>   0.1500 
 47 H      -10.4510    -5.6830    -3.0280 H     1 <1>   0.1500 
 48 H      -10.6320    -8.1170    -3.0580 H     1 <1>   0.1500 
 49 H       -7.9310   -10.3760    -2.1820 H     1 <1>   0.0800 
 50 H       -9.5830   -10.2750    -2.7530 H     1 <1>   0.0800 
 51 H       -8.7900    -9.9170     0.0540 H     1 <1>   0.4500 
 52 H      -10.8200    -8.8820    -0.1290 H     1 <1>   0.0800 
 53 H      -11.3840   -10.1020    -1.2580 H     1 <1>   0.0800 
 54 H       -9.5300   -12.3510    -1.3690 H     1 <1>   0.0800 
 55 H       -8.4190   -12.1580    -0.0230 H     1 <1>   0.0800 
 56 H      -10.8840   -10.4040     1.6740 H     1 <1>   0.0800 
 57 H      -10.1200   -12.5140     1.4580 H     1 <1>   0.0800 
 58 H      -11.7490   -12.9450    -1.0490 H     1 <1>   0.0800 
 59 H      -10.8770   -14.1700    -0.1820 H     1 <1>   0.0800 
 60 H      -14.3000   -11.0540    -0.3520 H     1 <1>   0.4000 
 61 H      -12.7840   -12.2530     2.5200 H     1 <1>   0.0800 
 62 H      -14.2600   -12.3170     1.6320 H     1 <1>   0.0800 
 63 H      -14.4970    -9.9060     1.7050 H     1 <1>   0.0800 
 64 H      -13.0670    -9.7570     2.6550 H     1 <1>   0.0800 
 65 H      -12.4510   -14.2620     1.5290 H     1 <1>   0.0800 
 66 H      -13.4460   -13.8950     0.1600 H     1 <1>   0.0800 
 67 H      -13.4820    -8.2830     0.0330 H     1 <1>   0.0800 
 68 H      -12.1770    -8.0300     1.1810 H     1 <1>   0.0800 
 69 H      -13.8070    -7.6220     1.6110 H     1 <1>   0.0800 
@<TRIPOS>BOND
  1   1   2  1   
  2   1   3  1   
  3   2   4  1   
  4   2  30  1   
  5   2  31  1   
  6   3   5  1   
  7   3  32  1   
  8   3  33  1   
  9   4   6  1   
 10   4  34  1   
 11   4  35  1   
 12   5   6  1   
 13   5  36  1   
 14   5  37  1   
 15   6   7  1   
 16   6  38  1   
 17   7   8  1   
 18   7  39  1   
 19   7  40  1   
 20   8   9  1   
 21   8  41  1   
 22   8  42  1   
 23   9  10  1   
 24   9  43  1   
 25   9  44  1   
 26  10  11  1   
 27  11  12  ar  
 28  11  13  ar  
 29  12  14  ar  
 30  12  45  1   
 31  13  15  ar  
 32  13  46  1   
 33  14  16  ar  
 34  14  17  1   
 35  15  16  ar  
 36  15  47  1   
 37  16  48  1   
 38  17  18  1   
 39  17  49  1   
 40  17  50  1   
 41  18  19  1   
 42  18  20  1   
 43  18  51  1   
 44  19  21  1   
 45  19  52  1   
 46  19  53  1   
 47  20  22  1   
 48  20  54  1   
 49  20  55  1   
 50  21  22  1   
 51  21  23  1   
 52  21  56  1   
 53  22  24  1   
 54  22  57  1   
 55  23  25  1   
 56  23  26  1   
 57  23  27  1   
 58  24  28  1   
 59  24  58  1   
 60  24  59  1   
 61  25  60  1   
 62  26  28  1   
 63  26  61  1   
 64  26  62  1   
 65  27  29  1   
 66  27  63  1   
 67  27  64  1   
 68  28  65  1   
 69  28  66  1   
 70  29  67  1   
 71  29  68  1   
 72  29  69  1   
@<TRIPOS>SUBSTRUCTURE
  1 ****  12 GROUP 4 **** **** 0

# MOE 2024.06 (io_trps.svl 2023.06)
