@<TRIPOS>MOLECULE
NONAME
48 51 1 0 0 
SMALL
USER_CHARGES


@<TRIPOS>ATOM
  1 CL       0.4020     0.1770    -0.2420 Cl    1 <1>  -0.1770 
  2 C        0.0940    -1.5200    -0.4920 C.ar  1 <1>   0.1770 
  3 C        0.7670    -2.4510     0.2690 C.ar  1 <1>  -0.1500 
  4 C       -0.8210    -1.9080    -1.4500 C.ar  1 <1>  -0.1500 
  5 C        0.5240    -3.8090     0.0750 C.ar  1 <1>   0.0830 
  6 C       -1.0640    -3.2540    -1.6400 C.ar  1 <1>  -0.1500 
  7 O        1.1830    -4.7480     0.7970 O.3   1 <1>  -0.3630 
  8 C       -0.4130    -4.2360    -0.8840 C.ar  1 <1>   0.0860 
  9 C        2.3490    -4.4530     1.5390 C.3   1 <1>   0.0400 
 10 C       -0.7240    -5.6330    -1.1340 C.2   1 <1>   0.5440 
 11 O       -0.9490    -6.0090    -2.2690 O.2   1 <1>  -0.5700 
 12 N       -0.8870    -6.5710    -0.1360 N.am  1 <1>  -0.6600 
 13 C       -1.5430    -6.2490     1.1610 C.3   1 <1>   0.1400 
 14 C       -0.8400    -8.0290    -0.4420 C.3   1 <1>   0.1400 
 15 C       -2.9740    -6.8370     1.2060 C.3   1 <1>   0.4230 
 16 C       -2.2660    -8.6020    -0.4420 C.3   1 <1>   0.3430 
 17 N       -3.0000    -8.3170     0.8530 N.4   1 <1>  -0.9590 
 18 C       -3.9160    -6.0350     0.2780 C.3   1 <1>   0.1200 
 19 C       -4.4220    -8.8030     0.8310 C.3   1 <1>   0.5180 
 20 O       -5.2100    -6.5640     0.3260 O.3   1 <1>  -0.5600 
 21 C       -4.4470   -10.3010     0.4660 C.3   1 <1>  -0.1950 
 22 C       -5.3090    -7.9060    -0.0680 C.3   1 <1>   0.1200 
 23 C       -4.5060   -10.8420    -0.9340 C.3   1 <1>  -0.2000 
 24 C       -5.6830   -11.0010    -0.0140 C.3   1 <1>  -0.2000 
 25 H        1.4680    -2.0920     0.9980 H     1 <1>   0.1500 
 26 H       -1.3280    -1.1620    -2.0380 H     1 <1>   0.1500 
 27 H       -1.7690    -3.5590    -2.3960 H     1 <1>   0.1500 
 28 H        2.7570    -5.3780     1.9050 H     1 <1>   0.0800 
 29 H        2.0900    -3.8170     2.3660 H     1 <1>   0.0800 
 30 H        3.0640    -3.9730     0.8930 H     1 <1>   0.0800 
 31 H       -0.9540    -6.6560     1.9640 H     1 <1>   0.0800 
 32 H       -1.5880    -5.1840     1.3060 H     1 <1>   0.0800 
 33 H       -0.3860    -8.1950    -1.4050 H     1 <1>   0.0800 
 34 H       -0.2350    -8.5320     0.2910 H     1 <1>   0.0800 
 35 H       -3.3450    -6.7100     2.2090 H     1 <1>   0.0800 
 36 H       -2.2110    -9.6650    -0.6090 H     1 <1>   0.0800 
 37 H       -2.8000    -8.1660    -1.2700 H     1 <1>   0.0800 
 38 H       -2.5160    -8.8280     1.5980 H     1 <1>   0.4500 
 39 H       -3.5730    -6.0480    -0.7430 H     1 <1>   0.0800 
 40 H       -3.9740    -5.0100     0.6020 H     1 <1>   0.0800 
 41 H       -4.8230    -8.7180     1.8280 H     1 <1>   0.0800 
 42 H       -3.8780   -10.8690     1.1820 H     1 <1>   0.1000 
 43 H       -6.3410    -8.1890     0.0300 H     1 <1>   0.0800 
 44 H       -5.0300    -7.9820    -1.1040 H     1 <1>   0.0800 
 45 H       -4.6350   -10.1970    -1.7870 H     1 <1>   0.1000 
 46 H       -3.9440   -11.7280    -1.1820 H     1 <1>   0.1000 
 47 H       -5.9030   -11.9870     0.3620 H     1 <1>   0.1000 
 48 H       -6.5830   -10.4600    -0.2570 H     1 <1>   0.1000 
@<TRIPOS>BOND
  1   1   2  1   
  2   2   3  ar  
  3   2   4  ar  
  4   3   5  ar  
  5   3  25  1   
  6   4   6  ar  
  7   4  26  1   
  8   5   7  1   
  9   5   8  ar  
 10   6   8  ar  
 11   6  27  1   
 12   7   9  1   
 13   8  10  1   
 14   9  28  1   
 15   9  29  1   
 16   9  30  1   
 17  10  11  2   
 18  10  12  am  
 19  12  13  1   
 20  12  14  1   
 21  13  15  1   
 22  13  31  1   
 23  13  32  1   
 24  14  16  1   
 25  14  33  1   
 26  14  34  1   
 27  15  17  1   
 28  15  18  1   
 29  15  35  1   
 30  16  17  1   
 31  16  36  1   
 32  16  37  1   
 33  17  19  1   
 34  17  38  1   
 35  18  20  1   
 36  18  39  1   
 37  18  40  1   
 38  19  21  1   
 39  19  22  1   
 40  19  41  1   
 41  20  22  1   
 42  21  23  1   
 43  21  24  1   
 44  21  42  1   
 45  22  43  1   
 46  22  44  1   
 47  23  24  1   
 48  23  45  1   
 49  23  46  1   
 50  24  47  1   
 51  24  48  1   
@<TRIPOS>SUBSTRUCTURE
  1 ****  12 GROUP 4 **** **** 0

# MOE 2024.06 (io_trps.svl 2023.06)
