@<TRIPOS>MOLECULE
NONAME
48 49 1 0 0 
SMALL
USER_CHARGES


@<TRIPOS>ATOM
  1 S       -0.1290     0.0680     0.0290 S.o2  1 <1>   1.3330 
  2 O        0.8620     1.0530     0.3830 O.2   1 <1>  -0.6500 
  3 O       -0.2530    -0.3790    -1.3370 O.2   1 <1>  -0.6500 
  4 N       -1.5930     0.7540     0.4680 N.am  1 <1>  -0.9140 
  5 C        0.0120    -1.3270     1.1240 C.3   1 <1>  -0.1350 
  6 C       -2.7580     0.1660    -0.1820 C.3   1 <1>   0.1960 
  7 C       -4.0220     0.8350     0.3580 C.3   1 <1>  -0.0990 
  8 C       -5.2880     0.2450    -0.2400 C.2   1 <1>   0.5690 
  9 O       -5.2010    -0.7950    -0.8500 O.2   1 <1>  -0.5700 
 10 N       -6.4920     0.8840    -0.0820 N.am  1 <1>  -0.6600 
 11 C       -6.6860     2.1050     0.7620 C.3   1 <1>   0.1400 
 12 C       -7.7100     0.3410    -0.7580 C.3   1 <1>   0.1400 
 13 C       -8.1080     2.1260     1.3210 C.3   1 <1>  -0.1600 
 14 C       -8.6920     1.4730    -1.0720 C.3   1 <1>  -0.1600 
 15 C       -9.1610     2.2270     0.2000 C.3   1 <1>   0.2800 
 16 O       -9.2390     3.5930    -0.1120 O.3   1 <1>  -0.5600 
 17 C      -10.5340     1.7310     0.7320 C.3   1 <1>  -0.1600 
 18 C      -10.1680     4.0070    -1.0820 C.3   1 <1>   0.1200 
 19 C      -11.6830     2.7180     0.5030 C.3   1 <1>   0.2800 
 20 C      -11.5460     3.3560    -0.8770 C.3   1 <1>  -0.1600 
 21 O      -11.5530     3.7200     1.4300 O.3   1 <1>  -0.6800 
 22 C      -13.0530     2.0840     0.7250 C.3   1 <1>  -0.2400 
 23 H       -1.5010     1.7180     0.1510 H     1 <1>   0.4200 
 24 H        0.9440    -1.8300     0.9580 H     1 <1>   0.0800 
 25 H       -0.7890    -2.0190     0.9510 H     1 <1>   0.0800 
 26 H       -0.0260    -0.9990     2.1440 H     1 <1>   0.0800 
 27 H       -2.7950    -0.8920     0.0240 H     1 <1>   0.0800 
 28 H       -2.7010     0.3000    -1.2510 H     1 <1>   0.0800 
 29 H       -3.9870     1.8830     0.1290 H     1 <1>   0.0800 
 30 H       -4.0610     0.7030     1.4230 H     1 <1>   0.0800 
 31 H       -6.5190     2.9840     0.1630 H     1 <1>   0.0800 
 32 H       -5.9880     2.1080     1.5810 H     1 <1>   0.0800 
 33 H       -8.1740    -0.3880    -0.1160 H     1 <1>   0.0800 
 34 H       -7.4290    -0.1500    -1.6750 H     1 <1>   0.0800 
 35 H       -8.2270     2.9490     2.0020 H     1 <1>   0.0800 
 36 H       -8.2450     1.2210     1.8850 H     1 <1>   0.0800 
 37 H       -9.5310     1.0710    -1.6080 H     1 <1>   0.0800 
 38 H       -8.1800     2.1500    -1.7320 H     1 <1>   0.0800 
 39 H      -10.4880     1.5080     1.7830 H     1 <1>   0.0800 
 40 H      -10.7750     0.8000     0.2530 H     1 <1>   0.0800 
 41 H       -9.7780     3.7840    -2.0600 H     1 <1>   0.0800 
 42 H      -10.2550     5.0760    -0.9910 H     1 <1>   0.0800 
 43 H      -11.6790     2.5970    -1.6260 H     1 <1>   0.0800 
 44 H      -12.3210     4.0850    -1.0300 H     1 <1>   0.0800 
 45 H      -10.6650     4.1140     1.2890 H     1 <1>   0.4000 
 46 H      -13.2180     1.2950     0.0150 H     1 <1>   0.0800 
 47 H      -13.8270     2.8200     0.6040 H     1 <1>   0.0800 
 48 H      -13.1140     1.6720     1.7160 H     1 <1>   0.0800 
@<TRIPOS>BOND
  1   1   2  2   
  2   1   3  2   
  3   1   4  am  
  4   1   5  1   
  5   4   6  1   
  6   4  23  1   
  7   5  24  1   
  8   5  25  1   
  9   5  26  1   
 10   6   7  1   
 11   6  27  1   
 12   6  28  1   
 13   7   8  1   
 14   7  29  1   
 15   7  30  1   
 16   8   9  2   
 17   8  10  am  
 18  10  11  1   
 19  10  12  1   
 20  11  13  1   
 21  11  31  1   
 22  11  32  1   
 23  12  14  1   
 24  12  33  1   
 25  12  34  1   
 26  13  15  1   
 27  13  35  1   
 28  13  36  1   
 29  14  15  1   
 30  14  37  1   
 31  14  38  1   
 32  15  16  1   
 33  15  17  1   
 34  16  18  1   
 35  17  19  1   
 36  17  39  1   
 37  17  40  1   
 38  18  20  1   
 39  18  41  1   
 40  18  42  1   
 41  19  20  1   
 42  19  21  1   
 43  19  22  1   
 44  20  43  1   
 45  20  44  1   
 46  21  45  1   
 47  22  46  1   
 48  22  47  1   
 49  22  48  1   
@<TRIPOS>SUBSTRUCTURE
  1 ****  10 GROUP 4 **** **** 0

# MOE 2024.06 (io_trps.svl 2023.06)
