@<TRIPOS>MOLECULE
NONAME
47 48 1 0 0 
SMALL
USER_CHARGES


@<TRIPOS>ATOM
  1 O       -0.0240    -0.1610    -0.5950 O.2   1 <1>  -0.5700 
  2 C        1.0540    -0.7150    -0.6610 C.2   1 <1>   0.5440 
  3 N        2.2010    -0.0470    -0.3080 N.am  1 <1>  -0.4940 
  4 C        1.1360    -2.1030    -1.0740 C.ar  1 <1>   0.0860 
  5 C        2.4010     1.3110    -0.0360 C.2   1 <1>   0.2040 
  6 C        0.1070    -2.9930    -0.7730 C.ar  1 <1>  -0.1500 
  7 C        2.2330    -2.6020    -1.7790 C.ar  1 <1>  -0.1500 
  8 O        1.5010     2.2260    -0.3100 O.3   1 <1>  -0.0190 
  9 C        3.4710     1.9380     0.4930 C.2   1 <1>  -0.1810 
 10 C        0.1540    -4.3320    -1.1300 C.ar  1 <1>   0.1170 
 11 C        2.3000    -3.9330    -2.1460 C.ar  1 <1>  -0.1500 
 12 N        1.9170     3.4280     0.0020 N.2   1 <1>  -0.4100 
 13 C        3.0960     3.2810     0.4880 C.2   1 <1>   0.1080 
 14 C        4.7820     1.3500     0.9850 C.3   1 <1>   0.0210 
 15 N       -0.9300    -5.1570    -0.7940 N.am  1 <1>  -0.5470 
 16 C        1.2680    -4.7930    -1.8220 C.ar  1 <1>  -0.1500 
 17 C        3.9370     4.4390     0.9820 C.3   1 <1>  -0.0590 
 18 C        5.8390     1.3900    -0.1190 C.3   1 <1>  -0.2400 
 19 C       -0.9980    -6.5120    -0.6110 C.2   1 <1>   0.5690 
 20 O       -0.0370    -7.2390    -0.6890 O.2   1 <1>  -0.5700 
 21 C       -2.3660    -7.1170    -0.2790 C.3   1 <1>  -0.0190 
 22 C       -2.3340    -7.7960     1.1070 C.3   1 <1>  -0.1600 
 23 C       -2.8140    -8.0900    -1.3870 C.3   1 <1>  -0.2400 
 24 C       -3.7140    -8.2480     1.6050 C.3   1 <1>  -0.2400 
 25 H        3.0270    -0.6280    -0.2030 H     1 <1>   0.3700 
 26 H       -0.7490    -2.6190    -0.2400 H     1 <1>   0.1500 
 27 H        3.0390    -1.9460    -2.0570 H     1 <1>   0.1500 
 28 H        3.1530    -4.3060    -2.6880 H     1 <1>   0.1500 
 29 H        4.6250     0.3310     1.2950 H     1 <1>   0.0800 
 30 H        5.1270     1.9010     1.8430 H     1 <1>   0.0800 
 31 H       -1.8010    -4.6590    -0.6220 H     1 <1>   0.3700 
 32 H        1.3310    -5.8250    -2.1180 H     1 <1>   0.1500 
 33 H        4.8550     4.4890     0.4280 H     1 <1>   0.0800 
 34 H        4.1540     4.3140     2.0260 H     1 <1>   0.0800 
 35 H        3.4020     5.3620     0.8480 H     1 <1>   0.0800 
 36 H        5.5060     0.8310    -0.9760 H     1 <1>   0.0800 
 37 H        6.7620     0.9640     0.2340 H     1 <1>   0.0800 
 38 H        6.0230     2.4050    -0.4240 H     1 <1>   0.0800 
 39 H       -3.0830    -6.3170    -0.2390 H     1 <1>   0.0800 
 40 H       -1.9270    -7.1000     1.8210 H     1 <1>   0.0800 
 41 H       -1.6700    -8.6440     1.0750 H     1 <1>   0.0800 
 42 H       -2.1640    -8.9470    -1.4140 H     1 <1>   0.0800 
 43 H       -2.7680    -7.6030    -2.3460 H     1 <1>   0.0800 
 44 H       -3.8230    -8.4220    -1.2280 H     1 <1>   0.0800 
 45 H       -4.4060    -7.4240     1.6090 H     1 <1>   0.0800 
 46 H       -3.6310    -8.6270     2.6080 H     1 <1>   0.0800 
 47 H       -4.1090    -9.0340     0.9860 H     1 <1>   0.0800 
@<TRIPOS>BOND
  1   1   2  2   
  2   2   3  am  
  3   2   4  1   
  4   3   5  1   
  5   3  25  1   
  6   4   6  ar  
  7   4   7  ar  
  8   5   8  1   
  9   5   9  2   
 10   6  10  ar  
 11   6  26  1   
 12   7  11  ar  
 13   7  27  1   
 14   8  12  1   
 15   9  13  1   
 16   9  14  1   
 17  10  15  1   
 18  10  16  ar  
 19  11  16  ar  
 20  11  28  1   
 21  12  13  2   
 22  13  17  1   
 23  14  18  1   
 24  14  29  1   
 25  14  30  1   
 26  15  19  am  
 27  15  31  1   
 28  16  32  1   
 29  17  33  1   
 30  17  34  1   
 31  17  35  1   
 32  18  36  1   
 33  18  37  1   
 34  18  38  1   
 35  19  20  2   
 36  19  21  1   
 37  21  22  1   
 38  21  23  1   
 39  21  39  1   
 40  22  24  1   
 41  22  40  1   
 42  22  41  1   
 43  23  42  1   
 44  23  43  1   
 45  23  44  1   
 46  24  45  1   
 47  24  46  1   
 48  24  47  1   
@<TRIPOS>SUBSTRUCTURE
  1 ****   4 GROUP 4 **** **** 0

# MOE 2024.06 (io_trps.svl 2023.06)
