@<TRIPOS>MOLECULE
NONAME
58 62 1 0 0 
SMALL
USER_CHARGES


@<TRIPOS>ATOM
  1 N        0.8790     0.4550     0.4790 N.ar  1 <1>  -0.6200 
  2 C        0.0040     1.3760     0.8940 C.ar  1 <1>   0.7200 
  3 C        1.6190     0.8200    -0.5360 C.ar  1 <1>   0.1660 
  4 N       -0.1590     2.5980     0.3770 N.ar  1 <1>  -0.6200 
  5 N       -0.7990     1.0330     1.9620 N.pl3 1 <1>  -0.8380 
  6 C        1.5310     2.0370    -1.1360 C.ar  1 <1>  -0.1440 
  7 C        2.6820    -0.0450    -1.1660 C.3   1 <1>   0.1430 
  8 C        0.6060     2.9200    -0.6390 C.ar  1 <1>   0.1600 
  9 C       -1.5610     2.0600     2.7260 C.3   1 <1>   0.1290 
 10 C       -1.1460    -0.3800     2.2780 C.3   1 <1>   0.1290 
 11 C        2.5150     2.1730    -2.2710 C.3   1 <1>  -0.0160 
 12 C        3.5590    -0.6150    -0.0390 C.3   1 <1>   0.3430 
 13 C        2.0320    -1.1890    -1.9740 C.3   1 <1>  -0.1600 
 14 C        3.4450     0.9590    -2.0720 C.3   1 <1>  -0.1600 
 15 N        4.5630    -1.6080    -0.5580 N.4   1 <1>  -0.9590 
 16 C        3.0600    -2.2500    -2.4060 C.3   1 <1>  -0.1600 
 17 C        3.8960    -2.7580    -1.2270 C.3   1 <1>   0.3430 
 18 C        5.4890    -2.0410     0.5190 C.3   1 <1>   0.4860 
 19 C        6.3870    -0.8650     0.8370 C.ar  1 <1>  -0.1440 
 20 C        7.4440    -0.5560     0.0080 C.ar  1 <1>  -0.1500 
 21 C        6.1320    -0.0780     1.9720 C.ar  1 <1>  -0.1500 
 22 C        8.2450     0.5530     0.2920 C.ar  1 <1>   0.0000 
 23 C        6.9160     1.0140     2.2610 C.ar  1 <1>  -0.1500 
 24 C        7.9780     1.3330     1.4110 C.ar  1 <1>  -0.1520 
 25 C        9.3650     1.1300    -0.3400 C.2   1 <1>  -0.1500 
 26 N        8.9010     2.3510     1.4610 N.pl3 1 <1>   0.0480 
 27 C        9.7350     2.2090     0.3890 C.2   1 <1>  -0.3020 
 28 C        8.9940     3.3940     2.4960 C.3   1 <1>   0.0160 
 29 H        0.4910     3.8970    -1.0760 H     1 <1>   0.1500 
 30 H       -1.0200     2.9910     2.7460 H     1 <1>   0.0800 
 31 H       -1.7100     1.7330     3.7390 H     1 <1>   0.0800 
 32 H       -2.5160     2.2220     2.2580 H     1 <1>   0.0800 
 33 H       -0.9130    -1.0260     1.4500 H     1 <1>   0.0800 
 34 H       -2.2000    -0.4620     2.4810 H     1 <1>   0.0800 
 35 H       -0.5930    -0.7010     3.1420 H     1 <1>   0.0800 
 36 H        3.0560     3.1030    -2.2190 H     1 <1>   0.0800 
 37 H        1.9930     2.1080    -3.2100 H     1 <1>   0.0800 
 38 H        2.9180    -1.0910     0.6840 H     1 <1>   0.0800 
 39 H        4.0600     0.2030     0.4530 H     1 <1>   0.0800 
 40 H        1.5230    -0.7900    -2.8350 H     1 <1>   0.0800 
 41 H        1.2850    -1.6650    -1.3590 H     1 <1>   0.0800 
 42 H        3.7320     0.5370    -3.0190 H     1 <1>   0.0800 
 43 H        4.3320     1.3030    -1.5690 H     1 <1>   0.0800 
 44 H        5.1440    -1.1140    -1.2450 H     1 <1>   0.4500 
 45 H        3.7140    -1.8520    -3.1620 H     1 <1>   0.0800 
 46 H        2.5400    -3.0830    -2.8470 H     1 <1>   0.0800 
 47 H        3.2530    -3.2660    -0.5260 H     1 <1>   0.0800 
 48 H        4.6330    -3.4600    -1.5850 H     1 <1>   0.0800 
 49 H        6.0960    -2.8650     0.1820 H     1 <1>   0.0800 
 50 H        4.9420    -2.3480     1.3950 H     1 <1>   0.0800 
 51 H        7.6880    -1.1390    -0.8620 H     1 <1>   0.1500 
 52 H        5.3160    -0.3240     2.6310 H     1 <1>   0.1500 
 53 H        6.7250     1.6210     3.1290 H     1 <1>   0.1500 
 54 H        9.8210     0.7520    -1.2380 H     1 <1>   0.1500 
 55 H       10.5490     2.8880     0.2070 H     1 <1>   0.1500 
 56 H        8.0750     3.9490     2.5230 H     1 <1>   0.0800 
 57 H        9.8080     4.0570     2.2680 H     1 <1>   0.0800 
 58 H        9.1660     2.9300     3.4500 H     1 <1>   0.0800 
@<TRIPOS>BOND
  1   1   2  ar  
  2   1   3  ar  
  3   2   4  ar  
  4   2   5  1   
  5   3   6  ar  
  6   3   7  1   
  7   4   8  ar  
  8   5   9  1   
  9   5  10  1   
 10   6   8  ar  
 11   6  11  1   
 12   7  12  1   
 13   7  13  1   
 14   7  14  1   
 15   8  29  1   
 16   9  30  1   
 17   9  31  1   
 18   9  32  1   
 19  10  33  1   
 20  10  34  1   
 21  10  35  1   
 22  11  14  1   
 23  11  36  1   
 24  11  37  1   
 25  12  15  1   
 26  12  38  1   
 27  12  39  1   
 28  13  16  1   
 29  13  40  1   
 30  13  41  1   
 31  14  42  1   
 32  14  43  1   
 33  15  17  1   
 34  15  18  1   
 35  15  44  1   
 36  16  17  1   
 37  16  45  1   
 38  16  46  1   
 39  17  47  1   
 40  17  48  1   
 41  18  19  1   
 42  18  49  1   
 43  18  50  1   
 44  19  20  ar  
 45  19  21  ar  
 46  20  22  ar  
 47  20  51  1   
 48  21  23  ar  
 49  21  52  1   
 50  22  24  ar  
 51  22  25  1   
 52  23  24  ar  
 53  23  53  1   
 54  24  26  1   
 55  25  27  2   
 56  25  54  1   
 57  26  27  1   
 58  26  28  1   
 59  27  55  1   
 60  28  56  1   
 61  28  57  1   
 62  28  58  1   
@<TRIPOS>SUBSTRUCTURE
  1 ****  12 GROUP 4 **** **** 0

# MOE 2024.06 (io_trps.svl 2023.06)
