@<TRIPOS>MOLECULE
NONAME
57 60 1 0 0 
SMALL
USER_CHARGES


@<TRIPOS>ATOM
  1 F        0.7460     1.0470    -1.1960 F     1 <1>  -0.1900 
  2 C        0.7020     2.3120    -1.5180 C.ar  1 <1>   0.1900 
  3 C        0.7200     3.2550    -0.5110 C.ar  1 <1>  -0.1500 
  4 C        0.6390     2.6530    -2.8540 C.ar  1 <1>  -0.1500 
  5 C        0.6730     4.6140    -0.8270 C.ar  1 <1>   0.0530 
  6 C        0.5920     3.9960    -3.1840 C.ar  1 <1>  -0.1500 
  7 C        0.6910     5.6220     0.2140 C.2   1 <1>   0.4250 
  8 C        0.6090     4.9550    -2.1840 C.ar  1 <1>  -0.1500 
  9 O        0.6740     6.8960    -0.1050 O.3   1 <1>  -0.2800 
 10 N        0.7260     5.4170     1.4870 N.2   1 <1>  -0.3380 
 11 C        0.7050     7.4320     1.0800 C.2   1 <1>   0.2980 
 12 N        0.7330     6.6030     2.0480 N.2   1 <1>  -0.3380 
 13 C        0.7130     8.9520     1.2170 C.3   1 <1>   0.2900 
 14 N        1.9810     9.5810     0.7540 N.3   1 <1>  -0.8100 
 15 C        3.1250     9.1270     1.5500 C.3   1 <1>   0.1100 
 16 C        1.8690    11.0370     0.7520 C.3   1 <1>   0.1100 
 17 C        4.4090     9.6290     0.8950 C.3   1 <1>  -0.1600 
 18 C        3.1000    11.6220     0.0610 C.3   1 <1>  -0.1600 
 19 C        4.4020    11.1570     0.7330 C.3   1 <1>   0.4230 
 20 N        5.5840    11.5920    -0.0780 N.4   1 <1>  -0.9590 
 21 C        6.9000    11.1450     0.5100 C.3   1 <1>   0.3430 
 22 C        5.6290    13.0820    -0.3090 C.3   1 <1>   0.3430 
 23 C        8.1040    11.5930    -0.3430 C.3   1 <1>   0.1100 
 24 C        6.8490    13.5110    -1.1490 C.3   1 <1>   0.1100 
 25 N        8.1160    13.0540    -0.5400 N.3   1 <1>  -0.8100 
 26 C        9.2960    13.4630    -1.3340 C.3   1 <1>   0.1100 
 27 C        9.5800    14.9650    -1.2080 C.3   1 <1>   0.1200 
 28 O       10.7140    15.2740    -1.9420 O.3   1 <1>  -0.6800 
 29 H        0.7690     2.9330     0.5140 H     1 <1>   0.1500 
 30 H        0.6270     1.8880    -3.6090 H     1 <1>   0.1500 
 31 H        0.5420     4.2930    -4.2180 H     1 <1>   0.1500 
 32 H        0.5710     5.9930    -2.4660 H     1 <1>   0.1500 
 33 H        0.5380     9.2070     2.2480 H     1 <1>   0.0800 
 34 H       -0.1070     9.3350     0.6360 H     1 <1>   0.0800 
 35 H        3.1550     8.0500     1.5800 H     1 <1>   0.0800 
 36 H        3.0420     9.4890     2.5630 H     1 <1>   0.0800 
 37 H        1.7850    11.4060     1.7620 H     1 <1>   0.0800 
 38 H        0.9870    11.3320     0.2070 H     1 <1>   0.0800 
 39 H        4.4990     9.1510    -0.0640 H     1 <1>   0.0800 
 40 H        5.2250     9.3150     1.5180 H     1 <1>   0.0800 
 41 H        3.0110    12.6910     0.1050 H     1 <1>   0.0800 
 42 H        3.0810    11.3120    -0.9690 H     1 <1>   0.0800 
 43 H        4.4550    11.6020     1.7140 H     1 <1>   0.0800 
 44 H        5.4940    11.1430    -0.9980 H     1 <1>   0.4500 
 45 H        6.9240    10.0720     0.5920 H     1 <1>   0.0800 
 46 H        7.0130    11.5570     1.4990 H     1 <1>   0.0800 
 47 H        5.6750    13.5930     0.6390 H     1 <1>   0.0800 
 48 H        4.7370    13.4050    -0.8180 H     1 <1>   0.0800 
 49 H        8.0810    11.0900    -1.2950 H     1 <1>   0.0800 
 50 H        9.0080    11.2980     0.1640 H     1 <1>   0.0800 
 51 H        6.8480    14.5850    -1.2160 H     1 <1>   0.0800 
 52 H        6.7560    13.1190    -2.1480 H     1 <1>   0.0800 
 53 H        9.1490    13.2090    -2.3710 H     1 <1>   0.0800 
 54 H       10.1620    12.9340    -0.9730 H     1 <1>   0.0800 
 55 H        9.7520    15.2420    -0.1820 H     1 <1>   0.0800 
 56 H        8.7720    15.5470    -1.6130 H     1 <1>   0.0800 
 57 H       11.5220    14.9490    -1.4970 H     1 <1>   0.4000 
@<TRIPOS>BOND
  1   1   2  1   
  2   2   3  ar  
  3   2   4  ar  
  4   3   5  ar  
  5   3  29  1   
  6   4   6  ar  
  7   4  30  1   
  8   5   7  1   
  9   5   8  ar  
 10   6   8  ar  
 11   6  31  1   
 12   7   9  1   
 13   7  10  2   
 14   8  32  1   
 15   9  11  1   
 16  10  12  1   
 17  11  12  2   
 18  11  13  1   
 19  13  14  1   
 20  13  33  1   
 21  13  34  1   
 22  14  15  1   
 23  14  16  1   
 24  15  17  1   
 25  15  35  1   
 26  15  36  1   
 27  16  18  1   
 28  16  37  1   
 29  16  38  1   
 30  17  19  1   
 31  17  39  1   
 32  17  40  1   
 33  18  19  1   
 34  18  41  1   
 35  18  42  1   
 36  19  20  1   
 37  19  43  1   
 38  20  21  1   
 39  20  22  1   
 40  20  44  1   
 41  21  23  1   
 42  21  45  1   
 43  21  46  1   
 44  22  24  1   
 45  22  47  1   
 46  22  48  1   
 47  23  25  1   
 48  23  49  1   
 49  23  50  1   
 50  24  25  1   
 51  24  51  1   
 52  24  52  1   
 53  25  26  1   
 54  26  27  1   
 55  26  53  1   
 56  26  54  1   
 57  27  28  1   
 58  27  55  1   
 59  27  56  1   
 60  28  57  1   
@<TRIPOS>SUBSTRUCTURE
  1 ****  17 GROUP 4 **** **** 0

# MOE 2024.06 (io_trps.svl 2023.06)
