@<TRIPOS>MOLECULE
NONAME
53 55 1 0 0 
SMALL
USER_CHARGES


@<TRIPOS>ATOM
  1 O       -1.2120     3.1280     3.6070 O.2   1 <1>  -0.5700 
  2 C       -0.9780     4.0030     2.8140 C.2   1 <1>   0.5690 
  3 N       -1.8860     4.3350     1.8690 N.am  1 <1>  -0.7300 
  4 C        0.3700     4.7310     2.8500 C.3   1 <1>   0.1810 
  5 C       -1.6950     5.4570     0.9190 C.3   1 <1>   0.3640 
  6 O        0.3600     5.9570     2.1490 O.3   1 <1>  -0.5600 
  7 C       -2.1840     5.0400    -0.4620 C.ar  1 <1>  -0.1440 
  8 C       -0.2110     5.8940     0.8510 C.3   1 <1>   0.2610 
  9 C       -1.8920     3.7860    -0.9850 C.ar  1 <1>   0.1600 
 10 C       -2.9150     5.9220    -1.2340 C.ar  1 <1>  -0.1500 
 11 C       -0.0730     7.2410     0.1190 C.2   1 <1>   0.5690 
 12 N       -2.2530     3.3610    -2.1840 N.ar  1 <1>  -0.6200 
 13 C       -3.3070     5.4910    -2.4830 C.ar  1 <1>  -0.1500 
 14 O       -0.9470     8.0640     0.2890 O.2   1 <1>  -0.5700 
 15 N        0.9920     7.5060    -0.7140 N.am  1 <1>  -0.6600 
 16 C       -2.9550     4.2210    -2.9030 C.ar  1 <1>   0.1600 
 17 C        1.2040     8.9010    -1.2240 C.3   1 <1>   0.2840 
 18 C        1.9050     6.4670    -1.2680 C.3   1 <1>   0.1400 
 19 C        2.6280     9.3830    -0.9740 C.ar  1 <1>  -0.1430 
 20 C        3.0250     6.1400    -0.2790 C.3   1 <1>  -0.2400 
 21 C        2.9920     9.9000     0.2650 C.ar  1 <1>   0.0820 
 22 C        3.5820     9.3160    -1.9800 C.ar  1 <1>  -0.1500 
 23 O        2.0790    10.0070     1.2520 O.3   1 <1>  -0.3620 
 24 C        4.2900    10.3330     0.4950 C.ar  1 <1>  -0.1500 
 25 C        4.8790     9.7420    -1.7490 C.ar  1 <1>  -0.1500 
 26 C        2.1460     9.0400     2.2720 C.3   1 <1>   0.1200 
 27 C        5.2350    10.2500    -0.5110 C.ar  1 <1>  -0.1500 
 28 C        0.9540     9.2470     3.2000 C.3   1 <1>  -0.2400 
 29 H       -2.8020     3.8820     1.8910 H     1 <1>   0.3700 
 30 H        1.1280     4.1010     2.4200 H     1 <1>   0.0800 
 31 H        0.6330     4.9410     3.8710 H     1 <1>   0.0800 
 32 H       -2.2890     6.2840     1.2690 H     1 <1>   0.0800 
 33 H        0.3270     5.1420     0.3090 H     1 <1>   0.0800 
 34 H       -1.3270     3.0890    -0.3880 H     1 <1>   0.1500 
 35 H       -3.1660     6.9110    -0.8850 H     1 <1>   0.1500 
 36 H       -3.8790     6.1340    -3.1280 H     1 <1>   0.1500 
 37 H       -3.2660     3.8950    -3.8820 H     1 <1>   0.1500 
 38 H        0.9920     8.9220    -2.2780 H     1 <1>   0.0800 
 39 H        0.5250     9.5880    -0.7490 H     1 <1>   0.0800 
 40 H        1.3450     5.5770    -1.5010 H     1 <1>   0.0800 
 41 H        2.3330     6.8170    -2.1910 H     1 <1>   0.0800 
 42 H        2.6310     5.7810     0.6520 H     1 <1>   0.0800 
 43 H        3.6280     7.0090    -0.0910 H     1 <1>   0.0800 
 44 H        3.6600     5.3790    -0.6950 H     1 <1>   0.0800 
 45 H        3.3210     8.9290    -2.9490 H     1 <1>   0.1500 
 46 H        4.5500    10.7380     1.4560 H     1 <1>   0.1500 
 47 H        5.6130     9.6830    -2.5340 H     1 <1>   0.1500 
 48 H        2.1120     8.0650     1.8200 H     1 <1>   0.0800 
 49 H        3.0750     9.1640     2.8010 H     1 <1>   0.0800 
 50 H        6.2420    10.5840    -0.3330 H     1 <1>   0.1500 
 51 H        0.0380     9.1440     2.6470 H     1 <1>   0.0800 
 52 H        0.9970    10.2220     3.6490 H     1 <1>   0.0800 
 53 H        0.9670     8.5040     3.9770 H     1 <1>   0.0800 
@<TRIPOS>BOND
  1   1   2  2   
  2   2   3  am  
  3   2   4  1   
  4   3   5  1   
  5   3  29  1   
  6   4   6  1   
  7   4  30  1   
  8   4  31  1   
  9   5   7  1   
 10   5   8  1   
 11   5  32  1   
 12   6   8  1   
 13   7   9  ar  
 14   7  10  ar  
 15   8  11  1   
 16   8  33  1   
 17   9  12  ar  
 18   9  34  1   
 19  10  13  ar  
 20  10  35  1   
 21  11  14  2   
 22  11  15  am  
 23  12  16  ar  
 24  13  16  ar  
 25  13  36  1   
 26  15  17  1   
 27  15  18  1   
 28  16  37  1   
 29  17  19  1   
 30  17  38  1   
 31  17  39  1   
 32  18  20  1   
 33  18  40  1   
 34  18  41  1   
 35  19  21  ar  
 36  19  22  ar  
 37  20  42  1   
 38  20  43  1   
 39  20  44  1   
 40  21  23  1   
 41  21  24  ar  
 42  22  25  ar  
 43  22  45  1   
 44  23  26  1   
 45  24  27  ar  
 46  24  46  1   
 47  25  27  ar  
 48  25  47  1   
 49  26  28  1   
 50  26  48  1   
 51  26  49  1   
 52  27  50  1   
 53  28  51  1   
 54  28  52  1   
 55  28  53  1   
@<TRIPOS>SUBSTRUCTURE
  1 ****  11 GROUP 4 **** **** 0

# MOE 2024.06 (io_trps.svl 2023.06)
