@<TRIPOS>MOLECULE
NONAME
48 51 1 0 0 
SMALL
USER_CHARGES


@<TRIPOS>ATOM
  1 O       -0.3040     0.0010    -0.9130 O.2   1 <1>  -0.5700 
  2 C       -1.2190     0.5720    -0.3530 C.2   1 <1>   0.7160 
  3 N       -2.3200    -0.1420     0.0090 N.am  1 <1>  -0.6550 
  4 C       -1.1710     1.9780    -0.0800 C.2   1 <1>  -0.0860 
  5 C       -2.6020    -1.5670    -0.2210 C.3   1 <1>   0.2250 
  6 C       -2.2760     2.7890     0.2180 C.2   1 <1>   0.3720 
  7 C       -0.1280     2.8550    -0.0470 C.2   1 <1>   0.0870 
  8 C       -1.5520    -2.5210     0.4190 C.3   1 <1>   0.0000 
  9 C       -3.6350    -2.1120     0.8050 C.3   1 <1>   0.0000 
 10 C       -2.9520    -1.8420    -1.6860 C.3   1 <1>  -0.2400 
 11 N       -1.9240     4.0110     0.4010 N.2   1 <1>  -0.4100 
 12 N       -3.6070     2.3540     0.2900 N.pl3 1 <1>  -0.8210 
 13 O       -0.6310     4.0310     0.2340 O.3   1 <1>  -0.0190 
 14 C        1.2960     2.7280    -0.2340 C.ar  1 <1>   0.0530 
 15 C       -2.7350    -3.3650     0.9620 C.3   1 <1>   0.0000 
 16 C       -4.4310     3.0290     1.3430 C.3   1 <1>   0.2090 
 17 C       -4.3140     2.4330    -1.0240 C.3   1 <1>   0.2090 
 18 C        2.0090     1.6170     0.2170 C.ar  1 <1>  -0.1500 
 19 C        2.0200     3.7400    -0.8660 C.ar  1 <1>  -0.1500 
 20 C       -5.8570     2.4490     1.3710 C.3   1 <1>   0.1200 
 21 C       -5.7450     1.8750    -0.9080 C.3   1 <1>   0.1200 
 22 C        3.3770     1.5160     0.0390 C.ar  1 <1>  -0.1500 
 23 C        3.3880     3.6470    -1.0460 C.ar  1 <1>  -0.1500 
 24 O       -6.4560     2.5300     0.1060 O.3   1 <1>  -0.5600 
 25 C        4.0700     2.5320    -0.5940 C.ar  1 <1>  -0.1500 
 26 H       -3.1020     0.4270     0.3580 H     1 <1>   0.3700 
 27 H       -0.9880    -2.0630     1.2140 H     1 <1>   0.0000 
 28 H       -0.9450    -3.0530    -0.2910 H     1 <1>   0.0000 
 29 H       -4.6010    -2.3360     0.3880 H     1 <1>   0.0000 
 30 H       -3.6800    -1.5340     1.7130 H     1 <1>   0.0000 
 31 H       -2.1140    -1.5980    -2.3140 H     1 <1>   0.0800 
 32 H       -3.8020    -1.2550    -1.9820 H     1 <1>   0.0800 
 33 H       -3.1870    -2.8810    -1.8320 H     1 <1>   0.0800 
 34 H       -2.6080    -3.6820     1.9820 H     1 <1>   0.0000 
 35 H       -3.0140    -4.1630     0.2960 H     1 <1>   0.0000 
 36 H       -4.4860     4.0870     1.1470 H     1 <1>   0.0800 
 37 H       -3.9670     2.8920     2.3040 H     1 <1>   0.0800 
 38 H       -3.7710     1.8690    -1.7620 H     1 <1>   0.0800 
 39 H       -4.3580     3.4580    -1.3530 H     1 <1>   0.0800 
 40 H        1.4880     0.8190     0.7140 H     1 <1>   0.1500 
 41 H        1.5010     4.6120    -1.2230 H     1 <1>   0.1500 
 42 H       -6.4690     3.0040     2.0590 H     1 <1>   0.0800 
 43 H       -5.8380     1.4180     1.6770 H     1 <1>   0.0800 
 44 H       -5.7220     0.8220    -0.6870 H     1 <1>   0.0800 
 45 H       -6.2770     2.0250    -1.8300 H     1 <1>   0.0800 
 46 H        3.9010     0.6450     0.3910 H     1 <1>   0.1500 
 47 H        3.9230     4.4400    -1.5380 H     1 <1>   0.1500 
 48 H        5.1350     2.4540    -0.7330 H     1 <1>   0.1500 
@<TRIPOS>BOND
  1   1   2  2   
  2   2   3  am  
  3   2   4  1   
  4   3   5  1   
  5   3  26  1   
  6   4   6  1   
  7   4   7  2   
  8   5   8  1   
  9   5   9  1   
 10   5  10  1   
 11   6  11  2   
 12   6  12  1   
 13   7  13  1   
 14   7  14  1   
 15   8  15  1   
 16   8  27  1   
 17   8  28  1   
 18   9  15  1   
 19   9  29  1   
 20   9  30  1   
 21  10  31  1   
 22  10  32  1   
 23  10  33  1   
 24  11  13  1   
 25  12  16  1   
 26  12  17  1   
 27  14  18  ar  
 28  14  19  ar  
 29  15  34  1   
 30  15  35  1   
 31  16  20  1   
 32  16  36  1   
 33  16  37  1   
 34  17  21  1   
 35  17  38  1   
 36  17  39  1   
 37  18  22  ar  
 38  18  40  1   
 39  19  23  ar  
 40  19  41  1   
 41  20  24  1   
 42  20  42  1   
 43  20  43  1   
 44  21  24  1   
 45  21  44  1   
 46  21  45  1   
 47  22  25  ar  
 48  22  46  1   
 49  23  25  ar  
 50  23  47  1   
 51  25  48  1   
@<TRIPOS>SUBSTRUCTURE
  1 ****   4 GROUP 4 **** **** 0

# MOE 2024.06 (io_trps.svl 2023.06)
