@<TRIPOS>MOLECULE
NONAME
51 54 1 0 0 
SMALL
USER_CHARGES


@<TRIPOS>ATOM
  1 O        1.5930    -0.6650     0.0140 O.2   1 <1>  -0.5700 
  2 C        1.0970    -1.7600     0.1390 C.2   1 <1>   0.5690 
  3 N        1.7030    -2.7620     0.8550 N.am  1 <1>  -0.6600 
  4 C       -0.2350    -1.9970    -0.5540 C.3   1 <1>  -0.0990 
  5 C        1.0580    -4.0810     1.1220 C.3   1 <1>   0.1400 
  6 C        3.0160    -2.5660     1.5250 C.3   1 <1>   0.0600 
  7 C       -0.9610    -3.2770    -0.1110 C.3   1 <1>  -0.1600 
  8 C        0.0060    -4.4680     0.0630 C.3   1 <1>   0.0000 
  9 C       -0.7590    -5.6950     0.6000 C.3   1 <1>   0.2090 
 10 C        0.7100    -4.8690    -1.2600 C.3   1 <1>  -0.1600 
 11 N       -1.7130    -6.2500    -0.4100 N.pl3 1 <1>  -0.8380 
 12 C       -0.2640    -5.5070    -2.2670 C.3   1 <1>  -0.1600 
 13 C       -2.6800    -7.1270     0.0650 C.ar  1 <1>   0.1000 
 14 C       -1.0180    -6.6880    -1.6470 C.3   1 <1>   0.2090 
 15 C       -2.3810    -8.2950     0.7630 C.ar  1 <1>  -0.1790 
 16 C       -4.0500    -6.8850    -0.1510 C.ar  1 <1>   0.0000 
 17 C       -1.0530    -8.7380     1.0660 C.2   1 <1>   0.9790 
 18 C       -3.4260    -9.1150     1.2100 C.ar  1 <1>   0.1600 
 19 C       -4.9750    -7.7800     0.3380 C.ar  1 <1>   0.1050 
 20 C       -4.8420    -5.9020    -0.7790 C.2   1 <1>   0.1080 
 21 O       -0.5550    -8.5070     2.1840 O.co2 1 <1>  -0.9000 
 22 O       -0.3790    -9.3720     0.2340 O.co2 1 <1>  -0.9000 
 23 N       -4.7080    -8.9080     1.0280 N.ar  1 <1>  -0.5670 
 24 N       -6.1970    -7.2990    -0.0140 N.pl3 1 <1>   0.3140 
 25 N       -6.1110    -6.1380    -0.7030 N.2   1 <1>  -0.7070 
 26 C       -4.3020    -4.6760    -1.4740 C.3   1 <1>  -0.0590 
 27 C       -7.4840    -7.9280     0.2980 C.3   1 <1>   0.0160 
 28 H       -0.0460    -2.0400    -1.6100 H     1 <1>   0.0800 
 29 H       -0.8690    -1.1480    -0.3770 H     1 <1>   0.0800 
 30 H        0.5880    -4.0310     2.0900 H     1 <1>   0.0800 
 31 H        1.8120    -4.8480     1.1670 H     1 <1>   0.0800 
 32 H        3.4160    -1.5900     1.3070 H     1 <1>   0.0800 
 33 H        3.7140    -3.3070     1.1790 H     1 <1>   0.0800 
 34 H        2.8970    -2.6580     2.5900 H     1 <1>   0.0800 
 35 H       -1.7260    -3.5160    -0.8240 H     1 <1>   0.0800 
 36 H       -1.4480    -3.0880     0.8300 H     1 <1>   0.0800 
 37 H       -1.3000    -5.4460     1.4970 H     1 <1>   0.0800 
 38 H       -0.0360    -6.4510     0.8530 H     1 <1>   0.0800 
 39 H        1.4700    -5.5980    -1.0360 H     1 <1>   0.0800 
 40 H        1.2030    -4.0280    -1.7110 H     1 <1>   0.0800 
 41 H        0.2860    -5.8600    -3.1210 H     1 <1>   0.0800 
 42 H       -0.9750    -4.7810    -2.6160 H     1 <1>   0.0800 
 43 H       -1.7390    -7.0790    -2.3440 H     1 <1>   0.0800 
 44 H       -0.3250    -7.4780    -1.4060 H     1 <1>   0.0800 
 45 H       -3.1400    -9.9990     1.7560 H     1 <1>   0.1500 
 46 H       -3.4640    -4.9440    -2.0880 H     1 <1>   0.0800 
 47 H       -3.9940    -3.9620    -0.7360 H     1 <1>   0.0800 
 48 H       -5.0640    -4.2380    -2.0920 H     1 <1>   0.0800 
 49 H       -7.5040    -8.9110    -0.1340 H     1 <1>   0.0800 
 50 H       -8.2780    -7.3310    -0.1100 H     1 <1>   0.0800 
 51 H       -7.5860    -7.9980     1.3640 H     1 <1>   0.0800 
@<TRIPOS>BOND
  1   1   2  2   
  2   2   3  am  
  3   2   4  1   
  4   3   5  1   
  5   3   6  1   
  6   4   7  1   
  7   4  28  1   
  8   4  29  1   
  9   5   8  1   
 10   5  30  1   
 11   5  31  1   
 12   6  32  1   
 13   6  33  1   
 14   6  34  1   
 15   7   8  1   
 16   7  35  1   
 17   7  36  1   
 18   8   9  1   
 19   8  10  1   
 20   9  11  1   
 21   9  37  1   
 22   9  38  1   
 23  10  12  1   
 24  10  39  1   
 25  10  40  1   
 26  11  13  1   
 27  11  14  1   
 28  12  14  1   
 29  12  41  1   
 30  12  42  1   
 31  13  15  ar  
 32  13  16  ar  
 33  14  43  1   
 34  14  44  1   
 35  15  17  1   
 36  15  18  ar  
 37  16  19  ar  
 38  16  20  1   
 39  17  21  ar  
 40  17  22  ar  
 41  18  23  ar  
 42  18  45  1   
 43  19  23  ar  
 44  19  24  1   
 45  20  25  2   
 46  20  26  1   
 47  24  25  1   
 48  24  27  1   
 49  26  46  1   
 50  26  47  1   
 51  26  48  1   
 52  27  49  1   
 53  27  50  1   
 54  27  51  1   
@<TRIPOS>SUBSTRUCTURE
  1 ****  11 GROUP 4 **** **** 0

# MOE 2024.06 (io_trps.svl 2023.06)
