@<TRIPOS>MOLECULE
NONAME
51 53 1 0 0 
SMALL
USER_CHARGES


@<TRIPOS>ATOM
  1 F        0.7900     0.7450    -0.9440 F     1 <1>  -0.1900 
  2 C        1.3260    -0.2060    -0.2240 C.ar  1 <1>   0.1900 
  3 C        1.0410    -1.5210    -0.5400 C.ar  1 <1>  -0.1440 
  4 C        2.1490     0.1470     0.8270 C.ar  1 <1>  -0.1500 
  5 C        1.6020    -2.5250     0.2380 C.ar  1 <1>   0.0830 
  6 C        0.1440    -1.8510    -1.7110 C.3   1 <1>   0.4860 
  7 C        2.7080    -0.8600     1.5950 C.ar  1 <1>  -0.1500 
  8 O        1.2880    -3.8060    -0.0900 O.3   1 <1>  -0.3630 
  9 C        2.4370    -2.1880     1.3040 C.ar  1 <1>  -0.1500 
 10 N       -1.2750    -1.7080    -1.2990 N.4   1 <1>  -0.9590 
 11 C        1.9220    -4.9000     0.5430 C.3   1 <1>   0.0400 
 12 C       -1.6580    -2.6630    -0.2190 C.3   1 <1>   0.3430 
 13 C       -2.2310    -1.7300    -2.4270 C.3   1 <1>   0.3430 
 14 C       -3.1640    -2.6040     0.0640 C.3   1 <1>  -0.1600 
 15 C       -3.5830    -1.1800    -1.9590 C.3   1 <1>  -0.1600 
 16 C       -3.8260    -1.3090    -0.4360 C.3   1 <1>   0.2800 
 17 O       -3.1050    -0.2450     0.1580 O.3   1 <1>  -0.5600 
 18 C       -5.3350    -1.2820    -0.0460 C.3   1 <1>   0.2000 
 19 C       -3.7900     0.6990     0.9370 C.3   1 <1>   0.1200 
 20 O       -6.0580    -2.2660    -0.7280 O.3   1 <1>  -0.6800 
 21 C       -5.9900     0.1240    -0.1820 C.3   1 <1>   0.2800 
 22 C       -4.9800     1.2400     0.1410 C.3   1 <1>  -0.1600 
 23 O       -6.9870     0.1810     0.7710 O.3   1 <1>  -0.6800 
 24 C       -6.6920     0.4040    -1.5190 C.3   1 <1>  -0.2400 
 25 H        2.3480     1.1840     1.0390 H     1 <1>   0.1500 
 26 H        0.3340    -2.8580    -2.0470 H     1 <1>   0.0800 
 27 H        0.3610    -1.1750    -2.5220 H     1 <1>   0.0800 
 28 H        3.3550    -0.6090     2.4200 H     1 <1>   0.1500 
 29 H        2.8860    -2.9430     1.9220 H     1 <1>   0.1500 
 30 H       -1.3870    -0.7750    -0.8600 H     1 <1>   0.4500 
 31 H        1.5680    -5.8060     0.0850 H     1 <1>   0.0800 
 32 H        1.6690    -4.8980     1.5880 H     1 <1>   0.0800 
 33 H        2.9870    -4.8160     0.4070 H     1 <1>   0.0800 
 34 H       -1.3780    -3.6680    -0.4900 H     1 <1>   0.0800 
 35 H       -1.1230    -2.4020     0.6810 H     1 <1>   0.0800 
 36 H       -1.8650    -1.1320    -3.2460 H     1 <1>   0.0800 
 37 H       -2.3530    -2.7440    -2.7710 H     1 <1>   0.0800 
 38 H       -3.3280    -2.7200     1.1200 H     1 <1>   0.0800 
 39 H       -3.6340    -3.4450    -0.4140 H     1 <1>   0.0800 
 40 H       -4.3400    -1.7150    -2.5020 H     1 <1>   0.0800 
 41 H       -3.6650    -0.1490    -2.2500 H     1 <1>   0.0800 
 42 H       -5.3840    -1.5570     0.9940 H     1 <1>   0.0800 
 43 H       -4.1090     0.2340     1.8550 H     1 <1>   0.0800 
 44 H       -3.1010     1.4930     1.1720 H     1 <1>   0.0800 
 45 H       -6.9900    -2.2260    -0.4270 H     1 <1>   0.4000 
 46 H       -4.5900     1.6640    -0.7670 H     1 <1>   0.0800 
 47 H       -5.4520     2.0380     0.6860 H     1 <1>   0.0800 
 48 H       -7.5010     1.0040     0.6650 H     1 <1>   0.4000 
 49 H       -5.9990     0.3150    -2.3340 H     1 <1>   0.0800 
 50 H       -7.0960     1.4000    -1.5350 H     1 <1>   0.0800 
 51 H       -7.4910    -0.2960    -1.6880 H     1 <1>   0.0800 
@<TRIPOS>BOND
  1   1   2  1   
  2   2   3  ar  
  3   2   4  ar  
  4   3   5  ar  
  5   3   6  1   
  6   4   7  ar  
  7   4  25  1   
  8   5   8  1   
  9   5   9  ar  
 10   6  10  1   
 11   6  26  1   
 12   6  27  1   
 13   7   9  ar  
 14   7  28  1   
 15   8  11  1   
 16   9  29  1   
 17  10  12  1   
 18  10  13  1   
 19  10  30  1   
 20  11  31  1   
 21  11  32  1   
 22  11  33  1   
 23  12  14  1   
 24  12  34  1   
 25  12  35  1   
 26  13  15  1   
 27  13  36  1   
 28  13  37  1   
 29  14  16  1   
 30  14  38  1   
 31  14  39  1   
 32  15  16  1   
 33  15  40  1   
 34  15  41  1   
 35  16  17  1   
 36  16  18  1   
 37  17  19  1   
 38  18  20  1   
 39  18  21  1   
 40  18  42  1   
 41  19  22  1   
 42  19  43  1   
 43  19  44  1   
 44  20  45  1   
 45  21  22  1   
 46  21  23  1   
 47  21  24  1   
 48  22  46  1   
 49  22  47  1   
 50  23  48  1   
 51  24  49  1   
 52  24  50  1   
 53  24  51  1   
@<TRIPOS>SUBSTRUCTURE
  1 ****  10 GROUP 4 **** **** 0

# MOE 2024.06 (io_trps.svl 2023.06)
