@<TRIPOS>MOLECULE
NONAME
42 43 1 0 0 
SMALL
USER_CHARGES


@<TRIPOS>ATOM
  1 O       -0.6410    -0.4660    -0.4120 O.3   1 <1>  -0.3570 
  2 C       -0.4200    -1.8190    -0.3070 C.2   1 <1>   0.0910 
  3 C        0.4570     0.3810    -0.6810 C.3   1 <1>   0.0400 
  4 C        0.7130    -2.3840     0.3800 C.2   1 <1>   0.5410 
  5 C       -1.3410    -2.6450    -0.8750 C.2   1 <1>  -0.0500 
  6 O        1.5890    -1.7220     0.9410 O.2   1 <1>  -0.5700 
  7 C        0.8110    -3.8000     0.4070 C.2   1 <1>  -0.1360 
  8 N       -1.1920    -4.0140    -0.8150 N.pl3 1 <1>  -0.6000 
  9 C       -0.1240    -4.5930    -0.1830 C.2   1 <1>  -0.0380 
 10 C       -0.0620    -6.1180    -0.1900 C.3   1 <1>   0.2480 
 11 N       -1.4050    -6.7080    -0.0150 N.3   1 <1>  -0.8100 
 12 C       -1.4030    -8.1490    -0.3700 C.3   1 <1>   0.2530 
 13 C       -1.9420    -6.4610     1.3330 C.3   1 <1>   0.0300 
 14 C       -2.7980    -8.7780    -0.4320 C.ar  1 <1>   0.1670 
 15 N       -3.4600    -8.6760    -1.5770 N.ar  1 <1>  -0.6200 
 16 C       -3.2930    -9.4390     0.6840 C.ar  1 <1>  -0.1500 
 17 C       -4.6580    -9.2380    -1.6020 C.ar  1 <1>   0.1600 
 18 C       -4.5410   -10.0220     0.6400 C.ar  1 <1>  -0.1500 
 19 C       -5.2430    -9.9170    -0.5430 C.ar  1 <1>  -0.1430 
 20 C       -6.6270   -10.5300    -0.6790 C.3   1 <1>  -0.0170 
 21 C       -7.7020    -9.5370    -0.2320 C.3   1 <1>  -0.2400 
 22 H        0.0770     1.3130    -1.0580 H     1 <1>   0.0800 
 23 H        1.0920    -0.0820    -1.4160 H     1 <1>   0.0800 
 24 H        0.9970     0.5550     0.2320 H     1 <1>   0.0800 
 25 H       -2.2090    -2.2550    -1.3800 H     1 <1>   0.1500 
 26 H        1.6620    -4.2060     0.9170 H     1 <1>   0.1500 
 27 H       -1.9180    -4.6640    -1.1660 H     1 <1>   0.4000 
 28 H        0.6030    -6.4720     0.5790 H     1 <1>   0.0800 
 29 H        0.3320    -6.4210    -1.1450 H     1 <1>   0.0800 
 30 H       -0.8000    -8.6910     0.3360 H     1 <1>   0.0800 
 31 H       -0.9570    -8.2710    -1.3420 H     1 <1>   0.0800 
 32 H       -1.9320    -5.4060     1.5510 H     1 <1>   0.0800 
 33 H       -1.3580    -6.9760     2.0750 H     1 <1>   0.0800 
 34 H       -2.9640    -6.7940     1.3890 H     1 <1>   0.0800 
 35 H       -2.7090    -9.4950     1.5830 H     1 <1>   0.1500 
 36 H       -5.2060    -9.1520    -2.5240 H     1 <1>   0.1500 
 37 H       -4.9480   -10.5360     1.4930 H     1 <1>   0.1500 
 38 H       -6.6890   -11.4220    -0.0790 H     1 <1>   0.0800 
 39 H       -6.8010   -10.8140    -1.7020 H     1 <1>   0.0800 
 40 H       -7.5490    -9.2600     0.7960 H     1 <1>   0.0800 
 41 H       -8.6780    -9.9780    -0.3300 H     1 <1>   0.0800 
 42 H       -7.6620    -8.6480    -0.8370 H     1 <1>   0.0800 
@<TRIPOS>BOND
  1   1   2  1   
  2   1   3  1   
  3   2   4  1   
  4   2   5  2   
  5   3  22  1   
  6   3  23  1   
  7   3  24  1   
  8   4   6  2   
  9   4   7  1   
 10   5   8  1   
 11   5  25  1   
 12   7   9  2   
 13   7  26  1   
 14   8   9  1   
 15   8  27  1   
 16   9  10  1   
 17  10  11  1   
 18  10  28  1   
 19  10  29  1   
 20  11  12  1   
 21  11  13  1   
 22  12  14  1   
 23  12  30  1   
 24  12  31  1   
 25  13  32  1   
 26  13  33  1   
 27  13  34  1   
 28  14  15  ar  
 29  14  16  ar  
 30  15  17  ar  
 31  16  18  ar  
 32  16  35  1   
 33  17  19  ar  
 34  17  36  1   
 35  18  19  ar  
 36  18  37  1   
 37  19  20  1   
 38  20  21  1   
 39  20  38  1   
 40  20  39  1   
 41  21  40  1   
 42  21  41  1   
 43  21  42  1   
@<TRIPOS>SUBSTRUCTURE
  1 ****  11 GROUP 4 **** **** 0

# MOE 2024.06 (io_trps.svl 2023.06)
