@<TRIPOS>MOLECULE
NONAME
52 55 1 0 0 
SMALL
USER_CHARGES


@<TRIPOS>ATOM
  1 F       -0.8590    -0.5790    -1.1370 F     1 <1>  -0.1900 
  2 C       -1.3200    -1.7620    -0.8150 C.ar  1 <1>   0.1900 
  3 C       -0.6110    -2.6330     0.0200 C.ar  1 <1>   0.0820 
  4 C       -2.5460    -2.1090    -1.3470 C.ar  1 <1>  -0.1500 
  5 O        0.6030    -2.4050     0.6030 O.3   1 <1>  -0.3630 
  6 C       -1.1830    -3.8630     0.2990 C.ar  1 <1>  -0.1500 
  7 C       -3.0870    -3.3460    -1.0500 C.ar  1 <1>  -0.1500 
  8 C        1.2990    -1.1850     0.4770 C.3   1 <1>   0.0400 
  9 C       -2.4220    -4.2510    -0.2190 C.ar  1 <1>   0.0530 
 10 C       -2.9820    -5.5450     0.0960 C.2   1 <1>   0.0870 
 11 O       -2.2030    -6.5350     0.4630 O.3   1 <1>  -0.0190 
 12 C       -4.2490    -6.0290     0.0950 C.2   1 <1>  -0.2330 
 13 N       -2.8620    -7.6420     0.6920 N.2   1 <1>  -0.4100 
 14 C       -4.1000    -7.3600     0.4840 C.2   1 <1>   0.3720 
 15 C       -5.4720    -5.3830    -0.2330 C.2   1 <1>   1.0330 
 16 N       -5.1010    -8.3320     0.6100 N.pl3 1 <1>  -0.8210 
 17 O       -5.9010    -5.3890    -1.4020 O.co2 1 <1>  -0.9000 
 18 O       -6.1460    -4.8150     0.6440 O.co2 1 <1>  -0.9000 
 19 C       -6.3280    -7.9890     1.3790 C.3   1 <1>   0.2090 
 20 C       -5.1850    -9.2810    -0.5190 C.3   1 <1>   0.2090 
 21 C       -7.5680    -7.8130     0.4880 C.3   1 <1>  -0.1600 
 22 C       -6.3630    -8.9260    -1.4250 C.3   1 <1>  -0.1600 
 23 C       -7.6890    -8.8430    -0.6520 C.3   1 <1>   0.0000 
 24 C       -8.1280   -10.1940    -0.0790 C.3   1 <1>   0.3430 
 25 C       -8.8390    -8.4600    -1.5830 C.3   1 <1>  -0.1600 
 26 N       -9.6170   -10.2770    -0.2580 N.4   1 <1>  -0.9590 
 27 C      -10.0670    -8.9960    -0.8780 C.3   1 <1>   0.3430 
 28 C      -10.3290   -10.5630     1.0210 C.3   1 <1>   0.2630 
 29 H       -3.0730    -1.4240    -1.9860 H     1 <1>   0.1500 
 30 H       -0.6510    -4.5400     0.9420 H     1 <1>   0.1500 
 31 H       -4.0400    -3.6110    -1.4750 H     1 <1>   0.1500 
 32 H        2.2030    -1.2560     1.0540 H     1 <1>   0.0800 
 33 H        0.6830    -0.3900     0.8590 H     1 <1>   0.0800 
 34 H        1.5390    -1.0250    -0.5590 H     1 <1>   0.0800 
 35 H       -6.1610    -7.0840     1.9410 H     1 <1>   0.0800 
 36 H       -6.5010    -8.7760     2.0910 H     1 <1>   0.0800 
 37 H       -5.2850   -10.2780    -0.1290 H     1 <1>   0.0800 
 38 H       -4.2710    -9.2430    -1.0900 H     1 <1>   0.0800 
 39 H       -7.5390    -6.8320     0.0580 H     1 <1>   0.0800 
 40 H       -8.4370    -7.8230     1.1200 H     1 <1>   0.0800 
 41 H       -6.4260    -9.6520    -2.2150 H     1 <1>   0.0800 
 42 H       -6.1550    -7.9720    -1.8830 H     1 <1>   0.0800 
 43 H       -7.8470   -10.2680     0.9580 H     1 <1>   0.0800 
 44 H       -7.6520   -10.9900    -0.6260 H     1 <1>   0.0800 
 45 H       -8.7400    -8.9430    -2.5380 H     1 <1>   0.0800 
 46 H       -8.9000    -7.3960    -1.7470 H     1 <1>   0.0800 
 47 H       -9.8030   -11.0300    -0.9350 H     1 <1>   0.4500 
 48 H      -10.8880    -9.1450    -1.5610 H     1 <1>   0.0800 
 49 H      -10.3620    -8.2980    -0.1100 H     1 <1>   0.0800 
 50 H      -10.1380    -9.7790     1.7370 H     1 <1>   0.0800 
 51 H       -9.9920   -11.4990     1.4360 H     1 <1>   0.0800 
 52 H      -11.3920   -10.6240     0.8520 H     1 <1>   0.0800 
@<TRIPOS>BOND
  1   1   2  1   
  2   2   3  ar  
  3   2   4  ar  
  4   3   5  1   
  5   3   6  ar  
  6   4   7  ar  
  7   4  29  1   
  8   5   8  1   
  9   6   9  ar  
 10   6  30  1   
 11   7   9  ar  
 12   7  31  1   
 13   8  32  1   
 14   8  33  1   
 15   8  34  1   
 16   9  10  1   
 17  10  11  1   
 18  10  12  2   
 19  11  13  1   
 20  12  14  1   
 21  12  15  1   
 22  13  14  2   
 23  14  16  1   
 24  15  17  ar  
 25  15  18  ar  
 26  16  19  1   
 27  16  20  1   
 28  19  21  1   
 29  19  35  1   
 30  19  36  1   
 31  20  22  1   
 32  20  37  1   
 33  20  38  1   
 34  21  23  1   
 35  21  39  1   
 36  21  40  1   
 37  22  23  1   
 38  22  41  1   
 39  22  42  1   
 40  23  24  1   
 41  23  25  1   
 42  24  26  1   
 43  24  43  1   
 44  24  44  1   
 45  25  27  1   
 46  25  45  1   
 47  25  46  1   
 48  26  27  1   
 49  26  28  1   
 50  26  47  1   
 51  27  48  1   
 52  27  49  1   
 53  28  50  1   
 54  28  51  1   
 55  28  52  1   
@<TRIPOS>SUBSTRUCTURE
  1 ****  12 GROUP 4 **** **** 0

# MOE 2024.06 (io_trps.svl 2023.06)
