@<TRIPOS>MOLECULE
NONAME
51 54 1 0 0 
SMALL
USER_CHARGES


@<TRIPOS>ATOM
  1 O       -0.3430    -0.0160     1.2390 O.3   1 <1>  -0.5600 
  2 C        0.0540     0.4050    -0.0280 C.3   1 <1>   0.1200 
  3 C       -1.5050     0.6540     1.6300 C.3   1 <1>   0.1200 
  4 C       -0.4170     1.8500    -0.1330 C.3   1 <1>   0.2890 
  5 C       -1.7340     1.7990     0.6300 C.3   1 <1>  -0.0800 
  6 N        0.5350     2.7210     0.6050 N.pl3 1 <1>  -0.8690 
  7 C       -2.9200     1.5070    -0.3140 C.3   1 <1>  -0.0170 
  8 C        1.0310     3.9020     0.2220 C.ar  1 <1>   0.4100 
  9 C       -4.3070     1.4320     0.3380 C.ar  1 <1>  -0.1430 
 10 N        0.6180     4.4160    -0.9420 N.ar  1 <1>  -0.6200 
 11 C        1.9560     4.5800     1.0180 C.ar  1 <1>  -0.1500 
 12 C       -5.4120     0.9430    -0.4040 C.ar  1 <1>   0.0000 
 13 C       -4.5540     1.8250     1.6250 C.ar  1 <1>  -0.1500 
 14 C        1.1060     5.5640    -1.3090 C.ar  1 <1>   0.5280 
 15 C        2.4480     5.7820     0.6030 C.ar  1 <1>   0.2180 
 16 C       -6.6690     0.8660     0.2450 C.ar  1 <1>   0.3100 
 17 C       -5.3450     0.5290    -1.7560 C.ar  1 <1>  -0.1500 
 18 C       -5.8400     1.7160     2.1680 C.ar  1 <1>   0.1600 
 19 N        2.0030     6.2590    -0.5790 N.ar  1 <1>  -0.1790 
 20 C        0.6410     6.1520    -2.6260 C.3   1 <1>  -0.0970 
 21 C        3.4600     6.5900     1.4060 C.3   1 <1>  -0.0170 
 22 N       -6.8660     1.2550     1.5280 N.ar  1 <1>  -0.6200 
 23 C       -7.7750     0.3710    -0.4650 C.ar  1 <1>  -0.1500 
 24 C       -6.4430     0.0540    -2.4210 C.ar  1 <1>  -0.1500 
 25 C        2.8890     7.9370     1.8680 C.3   1 <1>  -0.2400 
 26 C       -7.6750    -0.0300    -1.7690 C.ar  1 <1>  -0.1500 
 27 H        1.1200     0.3070    -0.1270 H     1 <1>   0.0800 
 28 H       -0.4410    -0.2160    -0.7540 H     1 <1>   0.0800 
 29 H       -2.3180    -0.0540     1.6400 H     1 <1>   0.0800 
 30 H       -1.3460     1.0300     2.6260 H     1 <1>   0.0800 
 31 H       -0.5250     2.1680    -1.1560 H     1 <1>   0.0800 
 32 H       -1.9090     2.7340     1.1310 H     1 <1>   0.0800 
 33 H        0.8280     2.2760     1.4820 H     1 <1>   0.4000 
 34 H       -2.7290     0.5690    -0.8050 H     1 <1>   0.0800 
 35 H       -2.9550     2.2720    -1.0710 H     1 <1>   0.0800 
 36 H        2.2610     4.1330     1.9460 H     1 <1>   0.1500 
 37 H       -3.7950     2.2260     2.2670 H     1 <1>   0.1500 
 38 H       -4.4140     0.5880    -2.2860 H     1 <1>   0.1500 
 39 H       -5.9840     2.0360     3.1860 H     1 <1>   0.1500 
 40 H        2.3400     7.1560    -0.9280 H     1 <1>   0.4570 
 41 H       -0.0590     5.4860    -3.1000 H     1 <1>   0.0800 
 42 H        1.4750     6.2890    -3.2900 H     1 <1>   0.0800 
 43 H        0.1510     7.0940    -2.4630 H     1 <1>   0.0800 
 44 H        3.7580     6.0270     2.2750 H     1 <1>   0.0800 
 45 H        4.3450     6.7540     0.8150 H     1 <1>   0.0800 
 46 H       -8.7130     0.3190     0.0570 H     1 <1>   0.1500 
 47 H       -6.3740    -0.2590    -3.4480 H     1 <1>   0.1500 
 48 H        2.0030     7.7880     2.4620 H     1 <1>   0.0800 
 49 H        2.6480     8.5740     1.0360 H     1 <1>   0.0800 
 50 H        3.6150     8.4490     2.4790 H     1 <1>   0.0800 
 51 H       -8.5320    -0.4080    -2.3000 H     1 <1>   0.1500 
@<TRIPOS>BOND
  1   1   2  1   
  2   1   3  1   
  3   2   4  1   
  4   2  27  1   
  5   2  28  1   
  6   3   5  1   
  7   3  29  1   
  8   3  30  1   
  9   4   5  1   
 10   4   6  1   
 11   4  31  1   
 12   5   7  1   
 13   5  32  1   
 14   6   8  1   
 15   6  33  1   
 16   7   9  1   
 17   7  34  1   
 18   7  35  1   
 19   8  10  ar  
 20   8  11  ar  
 21   9  12  ar  
 22   9  13  ar  
 23  10  14  ar  
 24  11  15  ar  
 25  11  36  1   
 26  12  16  ar  
 27  12  17  ar  
 28  13  18  ar  
 29  13  37  1   
 30  14  19  ar  
 31  14  20  1   
 32  15  19  ar  
 33  15  21  1   
 34  16  22  ar  
 35  16  23  ar  
 36  17  24  ar  
 37  17  38  1   
 38  18  22  ar  
 39  18  39  1   
 40  19  40  1   
 41  20  41  1   
 42  20  42  1   
 43  20  43  1   
 44  21  25  1   
 45  21  44  1   
 46  21  45  1   
 47  23  26  ar  
 48  23  46  1   
 49  24  26  ar  
 50  24  47  1   
 51  25  48  1   
 52  25  49  1   
 53  25  50  1   
 54  26  51  1   
@<TRIPOS>SUBSTRUCTURE
  1 ****   5 GROUP 4 **** **** 0

# MOE 2024.06 (io_trps.svl 2023.06)
