@<TRIPOS>MOLECULE
NONAME
56 58 1 0 0 
SMALL
USER_CHARGES


@<TRIPOS>ATOM
  1 O        1.8830    -0.4580     2.5780 O.2   1 <1>  -0.5700 
  2 C        2.1980    -0.6750     1.4280 C.2   1 <1>   0.5690 
  3 N        2.6170     0.3520     0.6060 N.am  1 <1>  -0.6600 
  4 C        2.1310    -2.1230     0.9360 C.3   1 <1>   0.2370 
  5 C        2.8970     0.1910    -0.8590 C.3   1 <1>   0.1400 
  6 C        2.7180     1.7470     1.1320 C.3   1 <1>   0.1400 
  7 N        0.8460    -2.3190     0.2310 N.pl3 1 <1>   0.3140 
  8 C        2.3280    -3.1750     2.0560 C.3   1 <1>  -0.1600 
  9 C        4.3770    -0.1270    -1.1200 C.3   1 <1>   0.1400 
 10 C        4.0060     2.4750     0.7190 C.3   1 <1>  -0.1600 
 11 N        0.8000    -2.7050    -1.0640 N.2   1 <1>  -0.7070 
 12 C       -0.3980    -2.1540     0.7280 C.2   1 <1>  -0.3020 
 13 C        2.3810    -4.6180     1.5300 C.3   1 <1>  -0.2400 
 14 N        5.2700     1.0410    -0.8440 N.am  1 <1>  -0.6600 
 15 C        5.2280     1.5670     0.5520 C.3   1 <1>   0.1400 
 16 C       -0.4640    -2.7780    -1.3470 C.2   1 <1>   0.1390 
 17 C       -1.2660    -2.4430    -0.2640 C.2   1 <1>  -0.1500 
 18 C        6.0690     1.5640    -1.8390 C.2   1 <1>   0.5690 
 19 O        6.0470     1.1180    -2.9640 O.2   1 <1>  -0.5700 
 20 C        6.9780     2.7680    -1.5960 C.3   1 <1>   0.1810 
 21 O        8.0270     2.4560    -0.6920 O.3   1 <1>  -0.3630 
 22 C        8.8590     3.4210    -0.2280 C.ar  1 <1>   0.0820 
 23 C        8.8790     4.7260    -0.7110 C.ar  1 <1>  -0.1500 
 24 C        9.7280     3.0600     0.7890 C.ar  1 <1>  -0.1500 
 25 C        9.7540     5.6520    -0.1680 C.ar  1 <1>  -0.1500 
 26 C       10.6010     3.9870     1.3280 C.ar  1 <1>  -0.1500 
 27 C       10.6170     5.2890     0.8540 C.ar  1 <1>  -0.1440 
 28 C       11.5760     6.3070     1.4450 C.3   1 <1>  -0.0970 
 29 H        2.9140    -2.2690     0.2190 H     1 <1>   0.0800 
 30 H        2.6270     1.0890    -1.3870 H     1 <1>   0.0800 
 31 H        2.2940    -0.5980    -1.2660 H     1 <1>   0.0800 
 32 H        2.6850     1.7260     2.2090 H     1 <1>   0.0800 
 33 H        1.8620     2.3090     0.8000 H     1 <1>   0.0800 
 34 H        1.5370    -3.0830     2.7800 H     1 <1>   0.0800 
 35 H        3.2520    -2.9600     2.5650 H     1 <1>   0.0800 
 36 H        4.4740    -0.4320    -2.1470 H     1 <1>   0.0800 
 37 H        4.6860    -0.9590    -0.5130 H     1 <1>   0.0800 
 38 H        4.2210     3.1990     1.4840 H     1 <1>   0.0800 
 39 H        3.8360     3.0280    -0.1880 H     1 <1>   0.0800 
 40 H       -0.5870    -1.8440     1.7410 H     1 <1>   0.1500 
 41 H        1.4500    -4.8880     1.0620 H     1 <1>   0.0800 
 42 H        2.5600    -5.3000     2.3430 H     1 <1>   0.0800 
 43 H        3.1720    -4.7310     0.8090 H     1 <1>   0.0800 
 44 H        5.1940     0.7500     1.2540 H     1 <1>   0.0800 
 45 H        6.1170     2.1290     0.7700 H     1 <1>   0.0800 
 46 H       -0.8400    -3.0660    -2.3150 H     1 <1>   0.1500 
 47 H       -2.3410    -2.4260    -0.2490 H     1 <1>   0.1500 
 48 H        6.4000     3.5740    -1.1870 H     1 <1>   0.0800 
 49 H        7.4220     3.0730    -2.5260 H     1 <1>   0.0800 
 50 H        8.2310     5.0420    -1.5060 H     1 <1>   0.1500 
 51 H        9.7160     2.0490     1.1540 H     1 <1>   0.1500 
 52 H        9.7640     6.6590    -0.5470 H     1 <1>   0.1500 
 53 H       11.2700     3.6900     2.1170 H     1 <1>   0.1500 
 54 H       11.1580     7.2960     1.3880 H     1 <1>   0.0800 
 55 H       12.5040     6.2900     0.9020 H     1 <1>   0.0800 
 56 H       11.7740     6.0830     2.4780 H     1 <1>   0.0800 
@<TRIPOS>BOND
  1   1   2  2   
  2   2   3  am  
  3   2   4  1   
  4   3   5  1   
  5   3   6  1   
  6   4   7  1   
  7   4   8  1   
  8   4  29  1   
  9   5   9  1   
 10   5  30  1   
 11   5  31  1   
 12   6  10  1   
 13   6  32  1   
 14   6  33  1   
 15   7  11  1   
 16   7  12  1   
 17   8  13  1   
 18   8  34  1   
 19   8  35  1   
 20   9  14  1   
 21   9  36  1   
 22   9  37  1   
 23  10  15  1   
 24  10  38  1   
 25  10  39  1   
 26  11  16  2   
 27  12  17  2   
 28  12  40  1   
 29  13  41  1   
 30  13  42  1   
 31  13  43  1   
 32  14  15  1   
 33  14  18  am  
 34  15  44  1   
 35  15  45  1   
 36  16  17  1   
 37  16  46  1   
 38  17  47  1   
 39  18  19  2   
 40  18  20  1   
 41  20  21  1   
 42  20  48  1   
 43  20  49  1   
 44  21  22  1   
 45  22  23  ar  
 46  22  24  ar  
 47  23  25  ar  
 48  23  50  1   
 49  24  26  ar  
 50  24  51  1   
 51  25  27  ar  
 52  25  52  1   
 53  26  27  ar  
 54  26  53  1   
 55  27  28  1   
 56  28  54  1   
 57  28  55  1   
 58  28  56  1   
@<TRIPOS>SUBSTRUCTURE
  1 ****  15 GROUP 4 **** **** 0

# MOE 2024.06 (io_trps.svl 2023.06)
