@<TRIPOS>MOLECULE
NONAME
44 46 1 0 0 
SMALL
USER_CHARGES


@<TRIPOS>ATOM
  1 S       -0.7900     0.1100    -1.2020 S.o2  1 <1>   1.2040 
  2 O       -0.6950    -0.5950    -2.4600 O.2   1 <1>  -0.6500 
  3 O       -1.1710     1.5040    -1.1820 O.2   1 <1>  -0.6500 
  4 C       -1.8560    -0.8210    -0.0740 C.ar  1 <1>  -0.0090 
  5 C        0.7980    -0.0170    -0.4030 C.3   1 <1>  -0.1350 
  6 C       -1.8850    -2.2070    -0.1070 C.ar  1 <1>  -0.1500 
  7 C       -2.6490    -0.1750     0.8670 C.ar  1 <1>  -0.1500 
  8 C       -2.6750    -2.9600     0.7590 C.ar  1 <1>   0.0860 
  9 C       -3.4390    -0.8940     1.7460 C.ar  1 <1>  -0.1500 
 10 C       -2.6780    -4.4070     0.6790 C.2   1 <1>   0.5440 
 11 C       -3.4470    -2.2740     1.6930 C.ar  1 <1>  -0.1500 
 12 O       -1.6270    -5.0130     0.7530 O.2   1 <1>  -0.5700 
 13 N       -3.8450    -5.1130     0.5020 N.am  1 <1>  -0.6600 
 14 C       -5.1260    -4.5230     0.0400 C.3   1 <1>   0.1400 
 15 C       -3.8620    -6.5890     0.3480 C.3   1 <1>   0.1400 
 16 C       -5.9050    -5.6940    -0.5560 C.3   1 <1>   0.2000 
 17 C       -5.3280    -6.9470     0.0990 C.3   1 <1>  -0.0800 
 18 O       -7.2610    -5.5970    -0.2830 O.3   1 <1>  -0.6800 
 19 C       -5.5330    -8.2090    -0.7570 C.3   1 <1>  -0.0170 
 20 C       -5.0050    -9.4530    -0.0610 C.ar  1 <1>   0.1670 
 21 N       -3.7100    -9.6950    -0.1840 N.ar  1 <1>  -0.6200 
 22 C       -5.8740   -10.2690     0.6620 C.ar  1 <1>   0.1600 
 23 C       -3.3440   -10.7910     0.4600 C.ar  1 <1>   0.1600 
 24 N       -5.5110   -11.3640     1.3080 N.ar  1 <1>  -0.6200 
 25 C       -4.2150   -11.5980     1.1820 C.ar  1 <1>   0.1600 
 26 H        1.0930    -1.0450    -0.3160 H     1 <1>   0.0800 
 27 H        0.7610     0.4180     0.5760 H     1 <1>   0.0800 
 28 H        1.5390     0.5020    -0.9790 H     1 <1>   0.0800 
 29 H       -1.2800    -2.7330    -0.8280 H     1 <1>   0.1500 
 30 H       -2.6500     0.9020     0.9120 H     1 <1>   0.1500 
 31 H       -4.0440    -0.3760     2.4720 H     1 <1>   0.1500 
 32 H       -4.0540    -2.8340     2.3830 H     1 <1>   0.1500 
 33 H       -5.6480    -4.1060     0.8830 H     1 <1>   0.0800 
 34 H       -4.9500    -3.7650    -0.7040 H     1 <1>   0.0800 
 35 H       -3.2470    -6.8620    -0.4940 H     1 <1>   0.0800 
 36 H       -3.4780    -7.0710     1.2320 H     1 <1>   0.0800 
 37 H       -5.7730    -5.7130    -1.6250 H     1 <1>   0.0800 
 38 H       -5.7860    -7.0910     1.0620 H     1 <1>   0.0800 
 39 H       -7.4180    -5.6040     0.6810 H     1 <1>   0.4000 
 40 H       -5.0320    -8.0970    -1.7030 H     1 <1>   0.0800 
 41 H       -6.5820    -8.3310    -0.9610 H     1 <1>   0.0800 
 42 H       -6.9140   -10.0020     0.7110 H     1 <1>   0.1500 
 43 H       -2.3050   -11.0630     0.4150 H     1 <1>   0.1500 
 44 H       -3.8230   -12.4700     1.6730 H     1 <1>   0.1500 
@<TRIPOS>BOND
  1   1   2  2   
  2   1   3  2   
  3   1   4  1   
  4   1   5  1   
  5   4   6  ar  
  6   4   7  ar  
  7   5  26  1   
  8   5  27  1   
  9   5  28  1   
 10   6   8  ar  
 11   6  29  1   
 12   7   9  ar  
 13   7  30  1   
 14   8  10  1   
 15   8  11  ar  
 16   9  11  ar  
 17   9  31  1   
 18  10  12  2   
 19  10  13  am  
 20  11  32  1   
 21  13  14  1   
 22  13  15  1   
 23  14  16  1   
 24  14  33  1   
 25  14  34  1   
 26  15  17  1   
 27  15  35  1   
 28  15  36  1   
 29  16  17  1   
 30  16  18  1   
 31  16  37  1   
 32  17  19  1   
 33  17  38  1   
 34  18  39  1   
 35  19  20  1   
 36  19  40  1   
 37  19  41  1   
 38  20  21  ar  
 39  20  22  ar  
 40  21  23  ar  
 41  22  24  ar  
 42  22  42  1   
 43  23  25  ar  
 44  23  43  1   
 45  24  25  ar  
 46  25  44  1   
@<TRIPOS>SUBSTRUCTURE
  1 ****  13 GROUP 4 **** **** 0

# MOE 2024.06 (io_trps.svl 2023.06)
