@<TRIPOS>MOLECULE
NONAME
54 57 1 0 0 
SMALL
USER_CHARGES


@<TRIPOS>ATOM
  1 O        0.7390     1.2500     2.2990 O.2   1 <1>  -0.5700 
  2 C        0.5350     2.0740     1.4220 C.2   1 <1>   0.5440 
  3 N       -0.7440     2.5840     1.2690 N.am  1 <1>  -0.6600 
  4 C        1.6340     2.5370     0.6100 C.ar  1 <1>   0.0860 
  5 C       -1.8690     2.1590     2.1490 C.3   1 <1>   0.1400 
  6 C       -1.0610     3.7530     0.4000 C.3   1 <1>   0.1400 
  7 C        2.0600     1.8600    -0.5490 C.ar  1 <1>   0.1000 
  8 C        2.2850     3.7190     0.9660 C.ar  1 <1>  -0.1500 
  9 C       -3.0990     1.8410     1.2980 C.3   1 <1>  -0.1600 
 10 C       -2.2940     3.4560    -0.4540 C.3   1 <1>  -0.1600 
 11 N        1.5190     0.6530    -0.9820 N.pl3 1 <1>  -0.8380 
 12 C        3.0830     2.4100    -1.3140 C.ar  1 <1>  -0.1500 
 13 C        3.3050     4.2460     0.1990 C.ar  1 <1>  -0.1500 
 14 C       -3.4910     3.0170     0.4000 C.3   1 <1>   0.4180 
 15 C        1.5780    -0.5800    -0.1360 C.3   1 <1>   0.2090 
 16 C        0.5450     0.5990    -2.1070 C.3   1 <1>   0.2090 
 17 C        3.7020     3.5880    -0.9530 C.ar  1 <1>  -0.1500 
 18 O       -3.8560     4.0670     1.2630 O.3   1 <1>  -0.5600 
 19 C       -4.6710     2.6150    -0.4810 C.2   1 <1>  -0.2880 
 20 C        0.1750    -1.1530     0.1460 C.3   1 <1>   0.1200 
 21 C       -0.7860    -0.0340    -1.6600 C.3   1 <1>   0.1200 
 22 C       -4.6580     5.0880     0.7390 C.3   1 <1>   0.1200 
 23 C       -5.8280     3.2790    -0.5330 C.2   1 <1>  -0.2760 
 24 O       -0.5760    -1.2670    -1.0330 O.3   1 <1>  -0.5600 
 25 C       -6.0190     4.5360     0.2950 C.3   1 <1>  -0.0220 
 26 C       -7.0220     2.8640    -1.3750 C.3   1 <1>  -0.1020 
 27 H       -2.0950     2.9560     2.8370 H     1 <1>   0.0800 
 28 H       -1.5990     1.2900     2.7240 H     1 <1>   0.0800 
 29 H       -0.2350     3.9910    -0.2460 H     1 <1>   0.0800 
 30 H       -1.2540     4.6060     1.0280 H     1 <1>   0.0800 
 31 H        1.9750     4.2270     1.8620 H     1 <1>   0.1500 
 32 H       -3.9280     1.5960     1.9370 H     1 <1>   0.0800 
 33 H       -2.8880     0.9760     0.6980 H     1 <1>   0.0800 
 34 H       -2.0510     2.6770    -1.1490 H     1 <1>   0.0800 
 35 H       -2.5530     4.3190    -1.0350 H     1 <1>   0.0800 
 36 H        3.3950     1.8880    -2.2000 H     1 <1>   0.1500 
 37 H        3.7920     5.1600     0.4920 H     1 <1>   0.1500 
 38 H        2.0740    -0.3640     0.7950 H     1 <1>   0.0800 
 39 H        2.1590    -1.3240    -0.6500 H     1 <1>   0.0800 
 40 H        0.9640     0.0120    -2.9050 H     1 <1>   0.0800 
 41 H        0.3650     1.5920    -2.4780 H     1 <1>   0.0800 
 42 H        4.4950     3.9920    -1.5580 H     1 <1>   0.1500 
 43 H       -4.4790     1.7260    -1.0540 H     1 <1>   0.1500 
 44 H       -0.3590    -0.5220     0.8340 H     1 <1>   0.0800 
 45 H        0.2600    -2.1320     0.5810 H     1 <1>   0.0800 
 46 H       -1.4220    -0.2000    -2.5100 H     1 <1>   0.0800 
 47 H       -1.2880     0.6140    -0.9680 H     1 <1>   0.0800 
 48 H       -4.1450     5.5370    -0.0920 H     1 <1>   0.0800 
 49 H       -4.7880     5.8300     1.5060 H     1 <1>   0.0800 
 50 H       -6.5230     5.2910    -0.2810 H     1 <1>   0.0800 
 51 H       -6.6200     4.3140     1.1590 H     1 <1>   0.0800 
 52 H       -7.2650     3.6350    -2.0840 H     1 <1>   0.0800 
 53 H       -7.8760     2.6890    -0.7440 H     1 <1>   0.0800 
 54 H       -6.8060     1.9590    -1.9140 H     1 <1>   0.0800 
@<TRIPOS>BOND
  1   1   2  2   
  2   2   3  am  
  3   2   4  1   
  4   3   5  1   
  5   3   6  1   
  6   4   7  ar  
  7   4   8  ar  
  8   5   9  1   
  9   5  27  1   
 10   5  28  1   
 11   6  10  1   
 12   6  29  1   
 13   6  30  1   
 14   7  11  1   
 15   7  12  ar  
 16   8  13  ar  
 17   8  31  1   
 18   9  14  1   
 19   9  32  1   
 20   9  33  1   
 21  10  14  1   
 22  10  34  1   
 23  10  35  1   
 24  11  15  1   
 25  11  16  1   
 26  12  17  ar  
 27  12  36  1   
 28  13  17  ar  
 29  13  37  1   
 30  14  18  1   
 31  14  19  1   
 32  15  20  1   
 33  15  38  1   
 34  15  39  1   
 35  16  21  1   
 36  16  40  1   
 37  16  41  1   
 38  17  42  1   
 39  18  22  1   
 40  19  23  2   
 41  19  43  1   
 42  20  24  1   
 43  20  44  1   
 44  20  45  1   
 45  21  24  1   
 46  21  46  1   
 47  21  47  1   
 48  22  25  1   
 49  22  48  1   
 50  22  49  1   
 51  23  25  1   
 52  23  26  1   
 53  25  50  1   
 54  25  51  1   
 55  26  52  1   
 56  26  53  1   
 57  26  54  1   
@<TRIPOS>SUBSTRUCTURE
  1 ****   3 GROUP 4 **** **** 0

# MOE 2024.06 (io_trps.svl 2023.06)
