@<TRIPOS>MOLECULE
NONAME
59 62 1 0 0 
SMALL
USER_CHARGES


@<TRIPOS>ATOM
  1 O       -2.5610    -0.1240     2.2600 O.2   1 <1>  -0.5700 
  2 C       -2.3500     0.4790     1.2240 C.2   1 <1>   0.7030 
  3 N       -2.7350    -0.0850     0.0310 N.am  1 <1>  -0.6600 
  4 C       -1.6810     1.7620     1.2790 C.2   1 <1>   0.2770 
  5 C       -2.7280    -1.5740    -0.1230 C.3   1 <1>   0.3640 
  6 C       -3.1170     0.7340    -1.1630 C.3   1 <1>   0.1400 
  7 N       -0.5090     2.1010     0.5920 N.pl3 1 <1>  -0.6290 
  8 C       -2.0240     2.8560     2.0100 C.2   1 <1>   0.1820 
  9 C       -1.2920    -1.9360    -0.5140 C.ar  1 <1>  -0.1440 
 10 C       -3.8260    -2.1170    -1.0880 C.3   1 <1>   0.2000 
 11 C       -3.8980    -0.0550    -2.2290 C.3   1 <1>   0.1200 
 12 C       -0.1920     3.3710     0.9190 C.cat 1 <1>   0.7910 
 13 C        0.3360     1.3600    -0.2050 C.2   1 <1>   0.2290 
 14 N       -1.1170     3.8430     1.7710 N.pl3 1 <1>  -0.7000 
 15 C       -3.1870     3.0670     2.9630 C.3   1 <1>  -0.0720 
 16 C       -0.3980    -2.2430     0.5030 C.ar  1 <1>  -0.1500 
 17 C       -0.8310    -1.9060    -1.8230 C.ar  1 <1>  -0.1500 
 18 O       -4.6170    -1.0960    -1.6470 O.3   1 <1>  -0.5600 
 19 C       -4.7850    -3.0740    -0.3690 C.3   1 <1>   0.1200 
 20 C        0.9600     3.9800     0.3990 C.2   1 <1>  -0.1410 
 21 C        1.4680     1.9280    -0.7130 C.2   1 <1>  -0.1500 
 22 C        0.9470    -2.4920     0.2400 C.ar  1 <1>   0.0830 
 23 C        0.4990    -2.1590    -2.1010 C.ar  1 <1>  -0.1500 
 24 O       -4.0890    -4.1800     0.1130 O.3   1 <1>  -0.6800 
 25 C        1.7960     3.2680    -0.4210 C.2   1 <1>  -0.1380 
 26 O        1.8300    -2.7400     1.2500 O.3   1 <1>  -0.3620 
 27 C        1.3970    -2.4480    -1.0880 C.ar  1 <1>   0.0830 
 28 C        3.0610     3.8660    -1.0130 C.3   1 <1>  -0.1020 
 29 C        1.4030    -3.0460     2.5610 C.3   1 <1>   0.0400 
 30 O        2.6790    -2.6560    -1.4970 O.3   1 <1>  -0.3630 
 31 C        3.4900    -3.6210    -0.8620 C.3   1 <1>   0.0400 
 32 H       -2.9130    -2.0200     0.8400 H     1 <1>   0.0800 
 33 H       -3.7360     1.5520    -0.8360 H     1 <1>   0.0800 
 34 H       -2.2360     1.1520    -1.6170 H     1 <1>   0.0800 
 35 H       -3.3790    -2.6540    -1.9040 H     1 <1>   0.0800 
 36 H       -3.2420    -0.4630    -2.9770 H     1 <1>   0.0800 
 37 H       -4.6000     0.5930    -2.7240 H     1 <1>   0.0800 
 38 H        0.0870     0.3320    -0.4110 H     1 <1>   0.1500 
 39 H       -1.0990     4.7770     2.1860 H     1 <1>   0.4500 
 40 H       -3.8000     2.1850     3.0210 H     1 <1>   0.0800 
 41 H       -3.7990     3.8860     2.6290 H     1 <1>   0.0800 
 42 H       -2.8190     3.2860     3.9490 H     1 <1>   0.0800 
 43 H       -0.7670    -2.2640     1.5120 H     1 <1>   0.1500 
 44 H       -1.4850    -1.6810    -2.6430 H     1 <1>   0.1500 
 45 H       -5.5530    -3.4230    -1.0380 H     1 <1>   0.0800 
 46 H       -5.2390    -2.5800     0.4730 H     1 <1>   0.0800 
 47 H        1.1650     5.0000     0.6640 H     1 <1>   0.1500 
 48 H        2.1280     1.3500    -1.3390 H     1 <1>   0.1500 
 49 H        0.8550    -2.1350    -3.1160 H     1 <1>   0.1500 
 50 H       -3.9200    -4.8290    -0.6000 H     1 <1>   0.4000 
 51 H        3.9210     3.3060    -0.6890 H     1 <1>   0.0800 
 52 H        3.1880     4.8890    -0.7080 H     1 <1>   0.0800 
 53 H        3.0180     3.8350    -2.0880 H     1 <1>   0.0800 
 54 H        2.2670    -3.3210     3.1380 H     1 <1>   0.0800 
 55 H        0.7130    -3.8710     2.5210 H     1 <1>   0.0800 
 56 H        0.9400    -2.1760     2.9920 H     1 <1>   0.0800 
 57 H        4.2730    -3.9010    -1.5430 H     1 <1>   0.0800 
 58 H        2.8900    -4.4790    -0.6150 H     1 <1>   0.0800 
 59 H        3.9180    -3.1870     0.0230 H     1 <1>   0.0800 
@<TRIPOS>BOND
  1   1   2  2   
  2   2   3  am  
  3   2   4  1   
  4   3   5  1   
  5   3   6  1   
  6   4   7  1   
  7   4   8  2   
  8   5   9  1   
  9   5  10  1   
 10   5  32  1   
 11   6  11  1   
 12   6  33  1   
 13   6  34  1   
 14   7  12  ar  
 15   7  13  1   
 16   8  14  1   
 17   8  15  1   
 18   9  16  ar  
 19   9  17  ar  
 20  10  18  1   
 21  10  19  1   
 22  10  35  1   
 23  11  18  1   
 24  11  36  1   
 25  11  37  1   
 26  12  14  ar  
 27  12  20  1   
 28  13  21  2   
 29  13  38  1   
 30  14  39  1   
 31  15  40  1   
 32  15  41  1   
 33  15  42  1   
 34  16  22  ar  
 35  16  43  1   
 36  17  23  ar  
 37  17  44  1   
 38  19  24  1   
 39  19  45  1   
 40  19  46  1   
 41  20  25  2   
 42  20  47  1   
 43  21  25  1   
 44  21  48  1   
 45  22  26  1   
 46  22  27  ar  
 47  23  27  ar  
 48  23  49  1   
 49  24  50  1   
 50  25  28  1   
 51  26  29  1   
 52  27  30  1   
 53  28  51  1   
 54  28  52  1   
 55  28  53  1   
 56  29  54  1   
 57  29  55  1   
 58  29  56  1   
 59  30  31  1   
 60  31  57  1   
 61  31  58  1   
 62  31  59  1   
@<TRIPOS>SUBSTRUCTURE
  1 ****   3 GROUP 4 **** **** 0

# MOE 2024.06 (io_trps.svl 2023.06)
