@<TRIPOS>MOLECULE
NONAME
45 47 1 0 0 
SMALL
USER_CHARGES


@<TRIPOS>ATOM
  1 F        0.3730    -5.3300     1.2400 F     1 <1>  -0.3400 
  2 C       -0.7800    -5.6430     1.8200 C.3   1 <1>   1.1640 
  3 F       -0.6360    -5.3550     3.1080 F     1 <1>  -0.3400 
  4 F       -0.8900    -6.9630     1.7440 F     1 <1>  -0.3400 
  5 C       -1.9870    -4.9320     1.1860 C.ar  1 <1>  -0.1440 
  6 C       -1.9450    -4.4710    -0.1260 C.ar  1 <1>  -0.1500 
  7 C       -3.1570    -4.7430     1.9150 C.ar  1 <1>  -0.1500 
  8 C       -3.0390    -3.8380    -0.6910 C.ar  1 <1>  -0.1500 
  9 C       -4.2500    -4.1110     1.3500 C.ar  1 <1>  -0.1500 
 10 C       -4.1990    -3.6560     0.0430 C.ar  1 <1>  -0.1430 
 11 C       -5.4200    -2.9870    -0.5850 C.3   1 <1>   0.0440 
 12 C       -6.4100    -3.9930    -1.1500 C.2   1 <1>   0.5690 
 13 O       -7.5400    -3.6380    -1.3810 O.2   1 <1>  -0.5700 
 14 N       -6.0010    -5.2650    -1.3790 N.am  1 <1>  -0.7300 
 15 C       -6.8410    -6.3720    -1.8800 C.3   1 <1>   0.2200 
 16 C       -7.0340    -7.3860    -0.7660 C.3   1 <1>  -0.0800 
 17 C       -6.0580    -7.1820    -2.9100 C.3   1 <1>   0.1200 
 18 C       -5.7460    -8.2080    -0.8660 C.3   1 <1>   0.1200 
 19 C       -8.2930    -8.2440    -0.9930 C.3   1 <1>  -0.0170 
 20 O       -5.3200    -8.1310    -2.1950 O.3   1 <1>  -0.5600 
 21 C       -8.5000    -9.2400     0.1380 C.ar  1 <1>  -0.1430 
 22 C       -9.0050    -8.8520     1.3630 C.ar  1 <1>  -0.1500 
 23 C       -8.1980   -10.5800     0.0010 C.ar  1 <1>  -0.1500 
 24 C       -9.1740    -9.7950     2.3640 C.ar  1 <1>   0.1600 
 25 C       -8.4050   -11.4410     1.0660 C.ar  1 <1>   0.1600 
 26 N       -8.8850   -11.0810     2.2450 N.ar  1 <1>  -0.6200 
 27 H       -1.0570    -4.6020    -0.7230 H     1 <1>   0.1500 
 28 H       -3.2240    -5.0900     2.9340 H     1 <1>   0.1500 
 29 H       -2.9800    -3.4920    -1.7090 H     1 <1>   0.1500 
 30 H       -5.1460    -3.9790     1.9350 H     1 <1>   0.1500 
 31 H       -5.1150    -2.3310    -1.3790 H     1 <1>   0.0800 
 32 H       -5.9240    -2.3900     0.1520 H     1 <1>   0.0800 
 33 H       -5.0400    -5.5250    -1.1340 H     1 <1>   0.3700 
 34 H       -7.7670    -5.9900    -2.2770 H     1 <1>   0.0800 
 35 H       -7.1120    -6.9030     0.1930 H     1 <1>   0.0800 
 36 H       -5.3930    -6.5720    -3.4960 H     1 <1>   0.0800 
 37 H       -6.7280    -7.7160    -3.5610 H     1 <1>   0.0800 
 38 H       -5.8750    -9.2410    -0.5970 H     1 <1>   0.0800 
 39 H       -4.9730    -7.7750    -0.2540 H     1 <1>   0.0800 
 40 H       -8.2230    -8.7720    -1.9280 H     1 <1>   0.0800 
 41 H       -9.1560    -7.6030    -1.0480 H     1 <1>   0.0800 
 42 H       -9.2680    -7.8270     1.5490 H     1 <1>   0.1500 
 43 H       -7.8020   -10.9620    -0.9220 H     1 <1>   0.1500 
 44 H       -9.5680    -9.4740     3.3120 H     1 <1>   0.1500 
 45 H       -8.1620   -12.4830     0.9400 H     1 <1>   0.1500 
@<TRIPOS>BOND
  1   1   2  1   
  2   2   3  1   
  3   2   4  1   
  4   2   5  1   
  5   5   6  ar  
  6   5   7  ar  
  7   6   8  ar  
  8   6  27  1   
  9   7   9  ar  
 10   7  28  1   
 11   8  10  ar  
 12   8  29  1   
 13   9  10  ar  
 14   9  30  1   
 15  10  11  1   
 16  11  12  1   
 17  11  31  1   
 18  11  32  1   
 19  12  13  2   
 20  12  14  am  
 21  14  15  1   
 22  14  33  1   
 23  15  16  1   
 24  15  17  1   
 25  15  34  1   
 26  16  18  1   
 27  16  19  1   
 28  16  35  1   
 29  17  20  1   
 30  17  36  1   
 31  17  37  1   
 32  18  20  1   
 33  18  38  1   
 34  18  39  1   
 35  19  21  1   
 36  19  40  1   
 37  19  41  1   
 38  21  22  ar  
 39  21  23  ar  
 40  22  24  ar  
 41  22  42  1   
 42  23  25  ar  
 43  23  43  1   
 44  24  26  ar  
 45  24  44  1   
 46  25  26  ar  
 47  25  45  1   
@<TRIPOS>SUBSTRUCTURE
  1 ****  18 GROUP 4 **** **** 0

# MOE 2024.06 (io_trps.svl 2023.06)
