@<TRIPOS>MOLECULE
NONAME
45 47 1 0 0 
SMALL
USER_CHARGES


@<TRIPOS>ATOM
  1 O        2.7480     2.0120     1.5390 O.co2 1 <1>  -0.9000 
  2 C        2.4890     0.8270     1.3200 C.2   1 <1>   0.9060 
  3 O        2.6460    -0.0260     2.1980 O.co2 1 <1>  -0.9000 
  4 C        2.3670     0.3540    -0.1440 C.3   1 <1>  -0.1060 
  5 C        3.5670    -0.5940    -0.3480 C.3   1 <1>   0.4230 
  6 C        2.5270     1.5360    -1.1570 C.3   1 <1>  -0.1600 
  7 C        1.0190    -0.3580    -0.4300 C.3   1 <1>  -0.1600 
  8 N        3.3630    -1.8630     0.4440 N.4   1 <1>  -0.9590 
  9 C        4.8930     0.1750    -0.0040 C.3   1 <1>   0.3430 
 10 C        3.9500     2.1130    -1.3010 C.3   1 <1>   0.3430 
 11 C        0.9050    -1.7140     0.2800 C.3   1 <1>  -0.1600 
 12 C        2.1300    -2.5970     0.0460 C.3   1 <1>   0.3430 
 13 C        4.5300    -2.7850     0.5620 C.3   1 <1>   0.2630 
 14 N        4.7950     1.6760    -0.1570 N.4   1 <1>  -0.9590 
 15 C        6.0740     2.4130     0.0100 C.3   1 <1>   0.4860 
 16 C        5.8040     3.9070     0.0230 C.ar  1 <1>  -0.1430 
 17 C        6.3990     4.7610    -0.8860 C.ar  1 <1>  -0.1500 
 18 C        4.9440     4.4900     0.9360 C.ar  1 <1>  -0.1500 
 19 C        6.1090     6.1150    -0.8440 C.ar  1 <1>   0.1600 
 20 C        4.7190     5.8550     0.8900 C.ar  1 <1>   0.1600 
 21 N        5.2810     6.6770     0.0190 N.ar  1 <1>  -0.6200 
 22 H        3.6040    -0.8570    -1.3910 H     1 <1>   0.0800 
 23 H        1.8690     2.3370    -0.8600 H     1 <1>   0.0800 
 24 H        2.2050     1.2390    -2.1400 H     1 <1>   0.0800 
 25 H        0.2050     0.2760    -0.1170 H     1 <1>   0.0800 
 26 H        0.9090    -0.5260    -1.4870 H     1 <1>   0.0800 
 27 H        3.1310    -1.4820     1.4040 H     1 <1>   0.4500 
 28 H        5.6830    -0.2000    -0.6310 H     1 <1>   0.0800 
 29 H        5.1400    -0.0350     1.0240 H     1 <1>   0.0800 
 30 H        3.8860     3.1910    -1.3260 H     1 <1>   0.0800 
 31 H        4.3910     1.7810    -2.2260 H     1 <1>   0.0800 
 32 H        0.0280    -2.2280    -0.0740 H     1 <1>   0.0800 
 33 H        0.7730    -1.5670     1.3390 H     1 <1>   0.0800 
 34 H        2.1860    -2.8760    -0.9940 H     1 <1>   0.0800 
 35 H        2.0310    -3.4950     0.6350 H     1 <1>   0.0800 
 36 H        4.8100    -3.1650    -0.4070 H     1 <1>   0.0800 
 37 H        4.2760    -3.6180     1.1990 H     1 <1>   0.0800 
 38 H        5.3710    -2.2750     1.0010 H     1 <1>   0.0800 
 39 H        4.2110     2.0010     0.6630 H     1 <1>   0.4500 
 40 H        6.5370     2.1340     0.9430 H     1 <1>   0.0800 
 41 H        6.7480     2.1720    -0.7950 H     1 <1>   0.0800 
 42 H        7.0880     4.4010    -1.6290 H     1 <1>   0.1500 
 43 H        4.4340     3.9090     1.6880 H     1 <1>   0.1500 
 44 H        6.5810     6.7710    -1.5560 H     1 <1>   0.1500 
 45 H        4.0410     6.2900     1.6060 H     1 <1>   0.1500 
@<TRIPOS>BOND
  1   1   2  ar  
  2   2   3  ar  
  3   2   4  1   
  4   4   5  1   
  5   4   6  1   
  6   4   7  1   
  7   5   8  1   
  8   5   9  1   
  9   5  22  1   
 10   6  10  1   
 11   6  23  1   
 12   6  24  1   
 13   7  11  1   
 14   7  25  1   
 15   7  26  1   
 16   8  12  1   
 17   8  13  1   
 18   8  27  1   
 19   9  14  1   
 20   9  28  1   
 21   9  29  1   
 22  10  14  1   
 23  10  30  1   
 24  10  31  1   
 25  11  12  1   
 26  11  32  1   
 27  11  33  1   
 28  12  34  1   
 29  12  35  1   
 30  13  36  1   
 31  13  37  1   
 32  13  38  1   
 33  14  15  1   
 34  14  39  1   
 35  15  16  1   
 36  15  40  1   
 37  15  41  1   
 38  16  17  ar  
 39  16  18  ar  
 40  17  19  ar  
 41  17  42  1   
 42  18  20  ar  
 43  18  43  1   
 44  19  21  ar  
 45  19  44  1   
 46  20  21  ar  
 47  20  45  1   
@<TRIPOS>SUBSTRUCTURE
  1 ****  14 GROUP 4 **** **** 0

# MOE 2024.06 (io_trps.svl 2023.06)
