@<TRIPOS>MOLECULE
NONAME
43 46 1 0 0 
SMALL
USER_CHARGES


@<TRIPOS>ATOM
  1 S        0.2520     0.5820     1.7830 S.3   1 <1>  -0.0800 
  2 C       -0.9100     1.2580     0.6520 C.2   1 <1>  -0.1400 
  3 C       -0.8920    -0.6640     2.2630 C.2   1 <1>  -0.1100 
  4 C       -2.0580     0.5690     0.6840 C.2   1 <1>  -0.1810 
  5 C       -0.6030     2.4690    -0.2220 C.3   1 <1>   0.4600 
  6 C       -2.0550    -0.5340     1.5960 C.2   1 <1>  -0.1500 
  7 C       -3.2070     0.9930    -0.2030 C.3   1 <1>   0.0210 
  8 O       -1.6810     2.6610    -1.1200 O.3   1 <1>  -0.5600 
  9 C       -0.4230     3.7400     0.6190 C.3   1 <1>  -0.1600 
 10 C        0.6380     2.2210    -1.0840 C.3   1 <1>  -0.1600 
 11 C       -2.9900     2.4550    -0.6420 C.3   1 <1>   0.1200 
 12 C       -0.0750     4.9490    -0.2520 C.3   1 <1>   0.1400 
 13 C        0.9810     3.4410    -1.9410 C.3   1 <1>   0.1400 
 14 N        1.1370     4.6360    -1.0610 N.am  1 <1>  -0.6600 
 15 C        2.3520     5.2760    -0.9170 C.2   1 <1>   0.5440 
 16 O        3.3570     4.7460    -1.3490 O.2   1 <1>  -0.5700 
 17 C        2.4650     6.5580    -0.2590 C.ar  1 <1>   0.0860 
 18 C        1.7000     7.6440    -0.6750 C.ar  1 <1>   0.1600 
 19 C        3.3340     6.7660     0.8020 C.ar  1 <1>  -0.1500 
 20 N        1.7050     8.8510    -0.1320 N.ar  1 <1>  -0.6200 
 21 C        3.3680     8.0150     1.3860 C.ar  1 <1>  -0.1430 
 22 C        2.5400     9.0080     0.8840 C.ar  1 <1>   0.1600 
 23 C        4.3040     8.2910     2.5510 C.3   1 <1>  -0.0970 
 24 H       -0.5680    -1.3730     3.0040 H     1 <1>   0.1500 
 25 H       -2.9160    -1.1700     1.7060 H     1 <1>   0.1500 
 26 H       -4.1360     0.9160     0.3320 H     1 <1>   0.0800 
 27 H       -3.2550     0.3540    -1.0660 H     1 <1>   0.0800 
 28 H        0.3750     3.5850     1.3210 H     1 <1>   0.0800 
 29 H       -1.3110     3.9370     1.1880 H     1 <1>   0.0800 
 30 H        0.4700     1.3670    -1.7130 H     1 <1>   0.0800 
 31 H        1.4820     2.0020    -0.4560 H     1 <1>   0.0800 
 32 H       -3.1600     3.1220     0.1840 H     1 <1>   0.0800 
 33 H       -3.6710     2.7080    -1.4340 H     1 <1>   0.0800 
 34 H        0.0890     5.8010     0.3820 H     1 <1>   0.0800 
 35 H       -0.8930     5.1720    -0.9150 H     1 <1>   0.0800 
 36 H        0.1910     3.6260    -2.6480 H     1 <1>   0.0800 
 37 H        1.8840     3.2530    -2.4960 H     1 <1>   0.0800 
 38 H        1.0400     7.4950    -1.5130 H     1 <1>   0.1500 
 39 H        3.9600     5.9600     1.1450 H     1 <1>   0.1500 
 40 H        2.5660     9.9840     1.3380 H     1 <1>   0.1500 
 41 H        4.4280     7.4080     3.1510 H     1 <1>   0.0800 
 42 H        3.9110     9.0730     3.1760 H     1 <1>   0.0800 
 43 H        5.2670     8.5950     2.1800 H     1 <1>   0.0800 
@<TRIPOS>BOND
  1   1   2  1   
  2   1   3  1   
  3   2   4  2   
  4   2   5  1   
  5   3   6  2   
  6   3  24  1   
  7   4   6  1   
  8   4   7  1   
  9   5   8  1   
 10   5   9  1   
 11   5  10  1   
 12   6  25  1   
 13   7  11  1   
 14   7  26  1   
 15   7  27  1   
 16   8  11  1   
 17   9  12  1   
 18   9  28  1   
 19   9  29  1   
 20  10  13  1   
 21  10  30  1   
 22  10  31  1   
 23  11  32  1   
 24  11  33  1   
 25  12  14  1   
 26  12  34  1   
 27  12  35  1   
 28  13  14  1   
 29  13  36  1   
 30  13  37  1   
 31  14  15  am  
 32  15  16  2   
 33  15  17  1   
 34  17  18  ar  
 35  17  19  ar  
 36  18  20  ar  
 37  18  38  1   
 38  19  21  ar  
 39  19  39  1   
 40  20  22  ar  
 41  21  22  ar  
 42  21  23  1   
 43  22  40  1   
 44  23  41  1   
 45  23  42  1   
 46  23  43  1   
@<TRIPOS>SUBSTRUCTURE
  1 ****  12 GROUP 4 **** **** 0

# MOE 2024.06 (io_trps.svl 2023.06)
