@<TRIPOS>MOLECULE
NONAME
44 45 1 0 0 
SMALL
USER_CHARGES


@<TRIPOS>ATOM
  1 O        1.1260     5.2900    -1.6590 O.co2 1 <1>  -0.9000 
  2 C        0.6470     4.3860    -0.9560 C.2   1 <1>   0.9790 
  3 O        1.4350     3.8060    -0.1900 O.co2 1 <1>  -0.9000 
  4 C       -0.7810     4.3370    -0.8130 C.ar  1 <1>  -0.1790 
  5 C       -1.3390     4.4840     0.4590 C.ar  1 <1>   0.4100 
  6 C       -1.6410     4.2880    -1.8970 C.ar  1 <1>  -0.1500 
  7 N       -2.6240     4.6990     0.6960 N.ar  1 <1>  -0.6200 
  8 N       -0.5270     4.4370     1.5550 N.pl3 1 <1>  -0.8690 
  9 C       -2.9880     4.4360    -1.6510 C.ar  1 <1>  -0.1500 
 10 C       -3.4220     4.6480    -0.3520 C.ar  1 <1>   0.1670 
 11 C       -0.2630     5.6420     2.3640 C.3   1 <1>   0.2090 
 12 C       -4.8970     4.8350    -0.0670 C.3   1 <1>  -0.0970 
 13 C        0.9330     6.4610     1.8140 C.3   1 <1>   0.3430 
 14 N        0.7700     7.0760     0.4440 N.4   1 <1>  -0.9590 
 15 C        1.9580     7.8970     0.0390 C.3   1 <1>   0.4230 
 16 C       -0.5590     7.7330     0.2810 C.3   1 <1>   0.3430 
 17 C        1.7320     8.5640    -1.3310 C.3   1 <1>  -0.1600 
 18 C        3.2480     7.0410    -0.0230 C.3   1 <1>   0.1200 
 19 C       -0.7310     8.2980    -1.1230 C.3   1 <1>  -0.1600 
 20 C        0.3880     9.2850    -1.4520 C.3   1 <1>  -0.1600 
 21 O        4.3650     7.8710    -0.0670 O.3   1 <1>  -0.6800 
 22 H       -1.2550     4.1610    -2.8950 H     1 <1>   0.1500 
 23 H        0.3530     3.9380     1.2970 H     1 <1>   0.4000 
 24 H       -3.6880     4.3970    -2.4650 H     1 <1>   0.1500 
 25 H       -0.0280     5.3200     3.3630 H     1 <1>   0.0800 
 26 H       -1.1520     6.2450     2.4250 H     1 <1>   0.0800 
 27 H       -5.2270     4.0680     0.6100 H     1 <1>   0.0800 
 28 H       -5.4780     4.7780    -0.9680 H     1 <1>   0.0800 
 29 H       -5.0560     5.7920     0.3930 H     1 <1>   0.0800 
 30 H        1.7840     5.8010     1.8030 H     1 <1>   0.0800 
 31 H        1.1420     7.2480     2.5180 H     1 <1>   0.0800 
 32 H        0.7980     6.3050    -0.2670 H     1 <1>   0.4500 
 33 H        2.1010     8.6670     0.7770 H     1 <1>   0.0800 
 34 H       -0.6570     8.5300     0.9990 H     1 <1>   0.0800 
 35 H       -1.3440     7.0150     0.4600 H     1 <1>   0.0800 
 36 H        1.7930     7.8120    -2.1000 H     1 <1>   0.0800 
 37 H        2.5270     9.2650    -1.5130 H     1 <1>   0.0800 
 38 H        3.2480     6.4240    -0.9060 H     1 <1>   0.0800 
 39 H        3.3590     6.4110     0.8390 H     1 <1>   0.0800 
 40 H       -1.6840     8.7930    -1.1900 H     1 <1>   0.0800 
 41 H       -0.7340     7.4860    -1.8310 H     1 <1>   0.0800 
 42 H        0.2650     9.6540    -2.4570 H     1 <1>   0.0800 
 43 H        0.3560    10.1230    -0.7780 H     1 <1>   0.0800 
 44 H        5.1620     7.3480    -0.2880 H     1 <1>   0.4000 
@<TRIPOS>BOND
  1   1   2  ar  
  2   2   3  ar  
  3   2   4  1   
  4   4   5  ar  
  5   4   6  ar  
  6   5   7  ar  
  7   5   8  1   
  8   6   9  ar  
  9   6  22  1   
 10   7  10  ar  
 11   8  11  1   
 12   8  23  1   
 13   9  10  ar  
 14   9  24  1   
 15  10  12  1   
 16  11  13  1   
 17  11  25  1   
 18  11  26  1   
 19  12  27  1   
 20  12  28  1   
 21  12  29  1   
 22  13  14  1   
 23  13  30  1   
 24  13  31  1   
 25  14  15  1   
 26  14  16  1   
 27  14  32  1   
 28  15  17  1   
 29  15  18  1   
 30  15  33  1   
 31  16  19  1   
 32  16  34  1   
 33  16  35  1   
 34  17  20  1   
 35  17  36  1   
 36  17  37  1   
 37  18  21  1   
 38  18  38  1   
 39  18  39  1   
 40  19  20  1   
 41  19  40  1   
 42  19  41  1   
 43  20  42  1   
 44  20  43  1   
 45  21  44  1   
@<TRIPOS>SUBSTRUCTURE
  1 ****  14 GROUP 4 **** **** 0

# MOE 2024.06 (io_trps.svl 2023.06)
