@<TRIPOS>MOLECULE
NONAME
49 52 1 0 0 
SMALL
USER_CHARGES


@<TRIPOS>ATOM
  1 O       -0.3890     0.3860    -0.4730 O.3   1 <1>  -0.3630 
  2 C        0.6880     1.1600    -0.7640 C.ar  1 <1>   0.0830 
  3 C       -1.6480     1.0260    -0.4270 C.3   1 <1>   0.2000 
  4 C        0.6100     2.5530    -0.7020 C.ar  1 <1>   0.0820 
  5 C        1.8740     0.5490    -1.1310 C.ar  1 <1>  -0.1500 
  6 C       -1.5160     2.3740     0.3050 C.3   1 <1>   0.1200 
  7 C       -2.6180     0.0390     0.2410 C.3   1 <1>   0.3430 
  8 O       -0.5360     3.1730    -0.3220 O.3   1 <1>  -0.3630 
  9 C        1.7140     3.3220    -1.0260 C.ar  1 <1>  -0.1500 
 10 C        2.9790     1.3230    -1.4480 C.ar  1 <1>  -0.1500 
 11 N       -4.0220     0.5590     0.3550 N.4   1 <1>  -0.9590 
 12 C        2.8980     2.7060    -1.3990 C.ar  1 <1>  -0.1500 
 13 C       -4.3370     1.1810     1.6800 C.3   1 <1>   0.3430 
 14 C       -5.0430    -0.4560    -0.0180 C.3   1 <1>   0.3430 
 15 C       -5.8000     1.6380     1.7470 C.3   1 <1>  -0.1600 
 16 C       -6.4000     0.2270    -0.2250 C.3   1 <1>  -0.1600 
 17 C       -6.4820     1.6380     0.3750 C.3   1 <1>   0.4180 
 18 O       -5.7430     2.4730    -0.4920 O.3   1 <1>  -0.5600 
 19 C       -7.9350     2.0830     0.4570 C.2   1 <1>  -0.2880 
 20 C       -6.0300     3.8490    -0.4630 C.3   1 <1>   0.1200 
 21 C       -8.4120     3.1890    -0.1170 C.2   1 <1>  -0.2760 
 22 C       -7.4820     4.1120    -0.8810 C.3   1 <1>  -0.0220 
 23 C       -9.8680     3.6200    -0.0790 C.3   1 <1>  -0.1020 
 24 H       -1.9520     1.1970    -1.4450 H     1 <1>   0.0800 
 25 H        1.9330    -0.5230    -1.1710 H     1 <1>   0.1500 
 26 H       -1.2150     2.2260     1.3270 H     1 <1>   0.0800 
 27 H       -2.4380     2.9250     0.2780 H     1 <1>   0.0800 
 28 H       -2.2440    -0.2140     1.2190 H     1 <1>   0.0800 
 29 H       -2.6210    -0.8580    -0.3560 H     1 <1>   0.0800 
 30 H        1.6460     4.3950    -0.9830 H     1 <1>   0.1500 
 31 H        3.9020     0.8500    -1.7360 H     1 <1>   0.1500 
 32 H       -4.1830     1.3190    -0.3390 H     1 <1>   0.4500 
 33 H        3.7580     3.3040    -1.6490 H     1 <1>   0.1500 
 34 H       -3.7010     2.0370     1.8320 H     1 <1>   0.0800 
 35 H       -4.1450     0.4780     2.4750 H     1 <1>   0.0800 
 36 H       -5.1230    -1.1920     0.7660 H     1 <1>   0.0800 
 37 H       -4.7580    -0.9600    -0.9280 H     1 <1>   0.0800 
 38 H       -5.8620     2.6130     2.1940 H     1 <1>   0.0800 
 39 H       -6.3370     0.9720     2.3980 H     1 <1>   0.0800 
 40 H       -7.1520    -0.3980     0.2210 H     1 <1>   0.0800 
 41 H       -6.6290     0.2810    -1.2750 H     1 <1>   0.0800 
 42 H       -8.5570     1.4090     1.0210 H     1 <1>   0.1500 
 43 H       -5.3560     4.3460    -1.1390 H     1 <1>   0.0800 
 44 H       -5.8580     4.2180     0.5330 H     1 <1>   0.0800 
 45 H       -7.5970     3.9560    -1.9390 H     1 <1>   0.0800 
 46 H       -7.7190     5.1390    -0.6660 H     1 <1>   0.0800 
 47 H      -10.2580     3.6930    -1.0780 H     1 <1>   0.0800 
 48 H       -9.9620     4.5770     0.4020 H     1 <1>   0.0800 
 49 H      -10.4610     2.9060     0.4650 H     1 <1>   0.0800 
@<TRIPOS>BOND
  1   1   2  1   
  2   1   3  1   
  3   2   4  ar  
  4   2   5  ar  
  5   3   6  1   
  6   3   7  1   
  7   3  24  1   
  8   4   8  1   
  9   4   9  ar  
 10   5  10  ar  
 11   5  25  1   
 12   6   8  1   
 13   6  26  1   
 14   6  27  1   
 15   7  11  1   
 16   7  28  1   
 17   7  29  1   
 18   9  12  ar  
 19   9  30  1   
 20  10  12  ar  
 21  10  31  1   
 22  11  13  1   
 23  11  14  1   
 24  11  32  1   
 25  12  33  1   
 26  13  15  1   
 27  13  34  1   
 28  13  35  1   
 29  14  16  1   
 30  14  36  1   
 31  14  37  1   
 32  15  17  1   
 33  15  38  1   
 34  15  39  1   
 35  16  17  1   
 36  16  40  1   
 37  16  41  1   
 38  17  18  1   
 39  17  19  1   
 40  18  20  1   
 41  19  21  2   
 42  19  42  1   
 43  20  22  1   
 44  20  43  1   
 45  20  44  1   
 46  21  22  1   
 47  21  23  1   
 48  22  45  1   
 49  22  46  1   
 50  23  47  1   
 51  23  48  1   
 52  23  49  1   
@<TRIPOS>SUBSTRUCTURE
  1 ****  11 GROUP 4 **** **** 0

# MOE 2024.06 (io_trps.svl 2023.06)
