@<TRIPOS>MOLECULE
NONAME
59 62 1 0 0 
SMALL
USER_CHARGES


@<TRIPOS>ATOM
  1 O        1.5650    -1.3620     1.7760 O.2   1 <1>  -0.5700 
  2 C        2.1900    -1.6440     0.7690 C.2   1 <1>   0.7150 
  3 N        3.0780    -0.6980     0.2760 N.am  1 <1>  -0.6600 
  4 C        1.9630    -2.9330     0.1400 C.2   1 <1>   0.0550 
  5 C        3.4490     0.4680     1.1780 C.3   1 <1>   0.2200 
  6 C        3.2500    -0.5650    -1.2100 C.3   1 <1>   0.1400 
  7 O        0.8430    -3.5970     0.4130 O.3   1 <1>  -0.2800 
  8 C        2.6950    -3.7020    -0.7180 C.2   1 <1>  -0.1500 
  9 C        2.6400     1.7340     0.8590 C.3   1 <1>   0.1200 
 10 C        4.9650     0.7690     1.2060 C.3   1 <1>   0.3430 
 11 C        3.9040     0.7390    -1.7030 C.3   1 <1>  -0.0800 
 12 C        0.8340    -4.7430    -0.2260 C.2   1 <1>  -0.0400 
 13 C        1.9610    -4.8650    -0.9600 C.2   1 <1>  -0.1500 
 14 O        3.2430     2.4640    -0.1660 O.3   1 <1>  -0.5600 
 15 N        5.7110     0.2280     0.0180 N.4   1 <1>  -0.9590 
 16 C        3.0340     1.9780    -1.4480 C.3   1 <1>   0.1200 
 17 C        5.3620     0.9470    -1.2480 C.3   1 <1>   0.3430 
 18 C       -0.3460    -5.6850    -0.0450 C.3   1 <1>   0.5230 
 19 C        7.1830     0.2520     0.2620 C.3   1 <1>   0.2630 
 20 N       -1.6200    -4.9420    -0.2600 N.4   1 <1>  -0.9590 
 21 C       -2.0370    -4.2120     0.9760 C.3   1 <1>   0.3430 
 22 C       -2.7020    -5.8230    -0.7810 C.3   1 <1>   0.3430 
 23 C       -3.2570    -3.3430     0.6710 C.3   1 <1>  -0.1600 
 24 C       -3.9330    -4.9810    -1.1160 C.3   1 <1>  -0.1600 
 25 C       -4.4150    -4.1720     0.0960 C.3   1 <1>  -0.0800 
 26 C       -5.5880    -3.2640    -0.2910 C.3   1 <1>  -0.2400 
 27 H        3.1930     0.2170     2.1930 H     1 <1>   0.0800 
 28 H        3.8470    -1.3850    -1.5650 H     1 <1>   0.0800 
 29 H        2.2800    -0.6550    -1.6730 H     1 <1>   0.0800 
 30 H        3.6650    -3.5100    -1.1390 H     1 <1>   0.1500 
 31 H        2.6280     2.3740     1.7240 H     1 <1>   0.0800 
 32 H        1.6190     1.5020     0.6030 H     1 <1>   0.0800 
 33 H        5.3670     0.3270     2.1020 H     1 <1>   0.0800 
 34 H        5.1130     1.8340     1.2810 H     1 <1>   0.0800 
 35 H        3.9420     0.6530    -2.7750 H     1 <1>   0.0800 
 36 H        2.2750    -5.6740    -1.5990 H     1 <1>   0.1500 
 37 H        5.3890    -0.7460    -0.0760 H     1 <1>   0.4500 
 38 H        1.9850     1.7770    -1.5910 H     1 <1>   0.0800 
 39 H        3.3170     2.7670    -2.1250 H     1 <1>   0.0800 
 40 H        5.5470     2.0040    -1.1300 H     1 <1>   0.0800 
 41 H        6.0090     0.5910    -2.0330 H     1 <1>   0.0800 
 42 H       -0.3270    -6.1080     0.9460 H     1 <1>   0.0800 
 43 H       -0.2590    -6.4870    -0.7600 H     1 <1>   0.0800 
 44 H        7.5260     1.2670     0.3840 H     1 <1>   0.0800 
 45 H        7.7080    -0.1910    -0.5700 H     1 <1>   0.0800 
 46 H        7.4250    -0.3040     1.1530 H     1 <1>   0.0800 
 47 H       -1.4150    -4.2230    -0.9650 H     1 <1>   0.4500 
 48 H       -2.2850    -4.9170     1.7530 H     1 <1>   0.0800 
 49 H       -1.2370    -3.5840     1.3340 H     1 <1>   0.0800 
 50 H       -2.3680    -6.3360    -1.6690 H     1 <1>   0.0800 
 51 H       -2.9630    -6.5590    -0.0380 H     1 <1>   0.0800 
 52 H       -3.5760    -2.8640     1.5810 H     1 <1>   0.0800 
 53 H       -2.9740    -2.5660    -0.0170 H     1 <1>   0.0800 
 54 H       -3.7010    -4.3230    -1.9350 H     1 <1>   0.0800 
 55 H       -4.7230    -5.6360    -1.4440 H     1 <1>   0.0800 
 56 H       -4.7590    -4.8570     0.8560 H     1 <1>   0.0800 
 57 H       -5.2950    -2.5570    -1.0480 H     1 <1>   0.0800 
 58 H       -5.9390    -2.7180     0.5670 H     1 <1>   0.0800 
 59 H       -6.4070    -3.8500    -0.6710 H     1 <1>   0.0800 
@<TRIPOS>BOND
  1   1   2  2   
  2   2   3  am  
  3   2   4  1   
  4   3   5  1   
  5   3   6  1   
  6   4   7  1   
  7   4   8  2   
  8   5   9  1   
  9   5  10  1   
 10   5  27  1   
 11   6  11  1   
 12   6  28  1   
 13   6  29  1   
 14   7  12  1   
 15   8  13  1   
 16   8  30  1   
 17   9  14  1   
 18   9  31  1   
 19   9  32  1   
 20  10  15  1   
 21  10  33  1   
 22  10  34  1   
 23  11  16  1   
 24  11  17  1   
 25  11  35  1   
 26  12  13  2   
 27  12  18  1   
 28  13  36  1   
 29  14  16  1   
 30  15  17  1   
 31  15  19  1   
 32  15  37  1   
 33  16  38  1   
 34  16  39  1   
 35  17  40  1   
 36  17  41  1   
 37  18  20  1   
 38  18  42  1   
 39  18  43  1   
 40  19  44  1   
 41  19  45  1   
 42  19  46  1   
 43  20  21  1   
 44  20  22  1   
 45  20  47  1   
 46  21  23  1   
 47  21  48  1   
 48  21  49  1   
 49  22  24  1   
 50  22  50  1   
 51  22  51  1   
 52  23  25  1   
 53  23  52  1   
 54  23  53  1   
 55  24  25  1   
 56  24  54  1   
 57  24  55  1   
 58  25  26  1   
 59  25  56  1   
 60  26  57  1   
 61  26  58  1   
 62  26  59  1   
@<TRIPOS>SUBSTRUCTURE
  1 ****   4 GROUP 4 **** **** 0

# MOE 2024.06 (io_trps.svl 2023.06)
