@<TRIPOS>MOLECULE
NONAME
56 59 1 0 0 
SMALL
USER_CHARGES


@<TRIPOS>ATOM
  1 CL      -1.7300    -0.6310    -2.9400 Cl    1 <1>  -0.1770 
  2 C       -2.7630    -1.5300    -1.8620 C.ar  1 <1>   0.1770 
  3 C       -2.3920    -1.6900    -0.5410 C.ar  1 <1>  -0.1500 
  4 C       -3.9410    -2.0710    -2.3410 C.ar  1 <1>  -0.1500 
  5 C       -3.2140    -2.4080     0.3110 C.ar  1 <1>  -0.1500 
  6 C       -4.7550    -2.7870    -1.4800 C.ar  1 <1>  -0.1500 
  7 C       -4.4080    -2.9780    -0.1410 C.ar  1 <1>   0.0860 
  8 C       -5.2720    -3.7340     0.7480 C.2   1 <1>   0.5440 
  9 O       -6.4650    -3.4930     0.7590 O.2   1 <1>  -0.5700 
 10 N       -4.7870    -4.7300     1.5720 N.am  1 <1>  -0.6600 
 11 C       -5.6060    -5.2780     2.6880 C.3   1 <1>   0.1400 
 12 C       -3.5590    -5.5160     1.2750 C.3   1 <1>   0.1400 
 13 C       -6.0570    -6.6940     2.3270 C.3   1 <1>  -0.1600 
 14 C       -3.9550    -6.9500     0.9080 C.3   1 <1>  -0.1600 
 15 C       -4.8480    -7.5900     1.9900 C.3   1 <1>  -0.0190 
 16 C       -5.1940    -9.0550     1.6890 C.2   1 <1>   0.5690 
 17 O       -4.6460    -9.8820     2.3790 O.2   1 <1>  -0.5700 
 18 N       -6.0550    -9.4490     0.6930 N.am  1 <1>  -0.6600 
 19 C       -6.8590    -8.6140    -0.2380 C.3   1 <1>   0.1400 
 20 C       -6.2690   -10.8910     0.3940 C.3   1 <1>   0.1400 
 21 C       -7.4030    -9.5920    -1.2770 C.3   1 <1>   0.2000 
 22 C       -7.4560   -10.9410    -0.5700 C.3   1 <1>  -0.0800 
 23 O       -8.6680    -9.2280    -1.7120 O.3   1 <1>  -0.6800 
 24 C       -7.4240   -12.1270    -1.5500 C.3   1 <1>  -0.0170 
 25 C       -7.5070   -13.4590    -0.8240 C.ar  1 <1>   0.1670 
 26 N       -6.3690   -13.9430    -0.3510 N.ar  1 <1>  -0.6200 
 27 C       -8.7340   -14.0910    -0.6870 C.ar  1 <1>  -0.1500 
 28 C       -6.4570   -15.0990     0.2850 C.ar  1 <1>   0.1600 
 29 C       -8.8110   -15.2960    -0.0230 C.ar  1 <1>  -0.1500 
 30 C       -7.6320   -15.8060     0.4750 C.ar  1 <1>  -0.1500 
 31 H       -1.4740    -1.2530    -0.1890 H     1 <1>   0.1500 
 32 H       -4.2140    -1.9290    -3.3710 H     1 <1>   0.1500 
 33 H       -2.9380    -2.5280     1.3440 H     1 <1>   0.1500 
 34 H       -5.6800    -3.2050    -1.8390 H     1 <1>   0.1500 
 35 H       -5.0120    -5.2950     3.5870 H     1 <1>   0.0800 
 36 H       -6.4650    -4.6550     2.8710 H     1 <1>   0.0800 
 37 H       -3.0090    -5.0820     0.4590 H     1 <1>   0.0800 
 38 H       -2.9250    -5.5200     2.1450 H     1 <1>   0.0800 
 39 H       -6.6020    -7.1160     3.1520 H     1 <1>   0.0800 
 40 H       -6.7260    -6.6110     1.4940 H     1 <1>   0.0800 
 41 H       -4.4590    -6.9310    -0.0380 H     1 <1>   0.0800 
 42 H       -3.0640    -7.5420     0.7880 H     1 <1>   0.0800 
 43 H       -4.2500    -7.6200     2.8860 H     1 <1>   0.0800 
 44 H       -7.6730    -8.1680     0.3050 H     1 <1>   0.0800 
 45 H       -6.2600    -7.8590    -0.7100 H     1 <1>   0.0800 
 46 H       -5.3800   -11.2860    -0.0700 H     1 <1>   0.0800 
 47 H       -6.4680   -11.4480     1.2940 H     1 <1>   0.0800 
 48 H       -6.7440    -9.6230    -2.1290 H     1 <1>   0.0800 
 49 H       -8.3480   -10.9990     0.0300 H     1 <1>   0.0800 
 50 H       -9.2920    -9.2020    -0.9610 H     1 <1>   0.4000 
 51 H       -6.5170   -12.1010    -2.1290 H     1 <1>   0.0800 
 52 H       -8.2470   -12.0410    -2.2360 H     1 <1>   0.0800 
 53 H       -9.6240   -13.6460    -1.0950 H     1 <1>   0.1500 
 54 H       -5.5400   -15.5060     0.6780 H     1 <1>   0.1500 
 55 H       -9.7470   -15.8140     0.1010 H     1 <1>   0.1500 
 56 H       -7.6190   -16.7410     1.0040 H     1 <1>   0.1500 
@<TRIPOS>BOND
  1   1   2  1   
  2   2   3  ar  
  3   2   4  ar  
  4   3   5  ar  
  5   3  31  1   
  6   4   6  ar  
  7   4  32  1   
  8   5   7  ar  
  9   5  33  1   
 10   6   7  ar  
 11   6  34  1   
 12   7   8  1   
 13   8   9  2   
 14   8  10  am  
 15  10  11  1   
 16  10  12  1   
 17  11  13  1   
 18  11  35  1   
 19  11  36  1   
 20  12  14  1   
 21  12  37  1   
 22  12  38  1   
 23  13  15  1   
 24  13  39  1   
 25  13  40  1   
 26  14  15  1   
 27  14  41  1   
 28  14  42  1   
 29  15  16  1   
 30  15  43  1   
 31  16  17  2   
 32  16  18  am  
 33  18  19  1   
 34  18  20  1   
 35  19  21  1   
 36  19  44  1   
 37  19  45  1   
 38  20  22  1   
 39  20  46  1   
 40  20  47  1   
 41  21  22  1   
 42  21  23  1   
 43  21  48  1   
 44  22  24  1   
 45  22  49  1   
 46  23  50  1   
 47  24  25  1   
 48  24  51  1   
 49  24  52  1   
 50  25  26  ar  
 51  25  27  ar  
 52  26  28  ar  
 53  27  29  ar  
 54  27  53  1   
 55  28  30  ar  
 56  28  54  1   
 57  29  30  ar  
 58  29  55  1   
 59  30  56  1   
@<TRIPOS>SUBSTRUCTURE
  1 ****  19 GROUP 4 **** **** 0

# MOE 2024.06 (io_trps.svl 2023.06)
