@<TRIPOS>MOLECULE
NONAME
53 55 1 0 0 
SMALL
USER_CHARGES


@<TRIPOS>ATOM
  1 O       -3.1370     2.3300    -1.2040 O.2   1 <1>  -0.5700 
  2 C       -2.9980     1.4310    -0.3960 C.2   1 <1>   0.5440 
  3 N       -2.2180     1.6590     0.7180 N.am  1 <1>  -0.6600 
  4 C       -3.6460     0.1660    -0.6440 C.ar  1 <1>   0.0860 
  5 C       -1.7560     3.0320     1.0840 C.3   1 <1>   0.1400 
  6 C       -1.5860     0.5950     1.5540 C.3   1 <1>   0.1400 
  7 C       -3.5200    -0.4570    -1.8820 C.ar  1 <1>   0.1600 
  8 C       -4.4280    -0.4820     0.3080 C.ar  1 <1>  -0.1500 
  9 C       -1.8510     3.2470     2.6040 C.3   1 <1>   0.1200 
 10 C       -1.7050     0.9440     3.0470 C.3   1 <1>   0.1200 
 11 N       -4.0530    -1.6170    -2.2260 N.ar  1 <1>  -0.6200 
 12 C       -4.9940    -1.6860    -0.0350 C.ar  1 <1>  -0.1500 
 13 O       -1.1940     2.2220     3.2970 O.3   1 <1>  -0.5600 
 14 C       -4.7870    -2.2230    -1.3030 C.ar  1 <1>   0.4100 
 15 N       -5.3710    -3.4170    -1.6210 N.pl3 1 <1>  -0.8690 
 16 C       -5.4580    -3.9330    -3.0060 C.3   1 <1>   0.4690 
 17 C       -6.6400    -4.8950    -3.1150 C.2   1 <1>   0.0070 
 18 C       -4.1520    -4.6290    -3.3890 C.3   1 <1>  -0.2400 
 19 N       -7.5150    -4.8290    -4.0620 N.2   1 <1>  -0.3380 
 20 N       -6.9170    -5.9030    -2.2700 N.pl3 1 <1>   0.0480 
 21 N       -8.3970    -5.8060    -3.8580 N.2   1 <1>  -0.3380 
 22 C       -8.0260    -6.4260    -2.7950 C.2   1 <1>   0.0360 
 23 C       -6.2330    -6.3630    -1.0390 C.3   1 <1>   0.0960 
 24 C       -6.9410    -5.8210     0.2080 C.3   1 <1>  -0.1600 
 25 C       -6.1100    -6.0790     1.4610 C.3   1 <1>   0.1200 
 26 O       -6.7360    -5.4230     2.5100 O.3   1 <1>  -0.5600 
 27 C       -6.1310    -5.6240     3.7470 C.3   1 <1>   0.0400 
 28 H       -2.3530     3.7750     0.5840 H     1 <1>   0.0800 
 29 H       -0.7350     3.1590     0.7680 H     1 <1>   0.0800 
 30 H       -0.5430     0.5240     1.2980 H     1 <1>   0.0800 
 31 H       -2.0330    -0.3640     1.3700 H     1 <1>   0.0800 
 32 H       -2.9350     0.0490    -2.6320 H     1 <1>   0.1500 
 33 H       -4.5820    -0.0420     1.2770 H     1 <1>   0.1500 
 34 H       -2.8810     3.2700     2.9160 H     1 <1>   0.0800 
 35 H       -1.3870     4.1780     2.8760 H     1 <1>   0.0800 
 36 H       -1.1410     0.2450     3.6380 H     1 <1>   0.0800 
 37 H       -2.7330     0.9150     3.3640 H     1 <1>   0.0800 
 38 H       -5.6020    -2.2240     0.6680 H     1 <1>   0.1500 
 39 H       -6.2660    -3.5580    -1.1530 H     1 <1>   0.4000 
 40 H       -5.6290    -3.1100    -3.6810 H     1 <1>   0.0800 
 41 H       -3.9180    -5.4270    -2.7130 H     1 <1>   0.0800 
 42 H       -3.3440    -3.9220    -3.3920 H     1 <1>   0.0800 
 43 H       -4.2450    -5.0330    -4.3810 H     1 <1>   0.0800 
 44 H       -8.5400    -7.2670    -2.3670 H     1 <1>   0.1500 
 45 H       -5.2150    -6.0220    -1.0550 H     1 <1>   0.0800 
 46 H       -6.2260    -7.4380    -1.0260 H     1 <1>   0.0800 
 47 H       -7.9000    -6.2960     0.3170 H     1 <1>   0.0800 
 48 H       -7.0870    -4.7610     0.1120 H     1 <1>   0.0800 
 49 H       -5.1160    -5.6770     1.3550 H     1 <1>   0.0800 
 50 H       -6.0640    -7.1330     1.6830 H     1 <1>   0.0800 
 51 H       -6.6870    -5.0720     4.4840 H     1 <1>   0.0800 
 52 H       -5.1180    -5.2640     3.7120 H     1 <1>   0.0800 
 53 H       -6.1540    -6.6730     3.9880 H     1 <1>   0.0800 
@<TRIPOS>BOND
  1   1   2  2   
  2   2   3  am  
  3   2   4  1   
  4   3   5  1   
  5   3   6  1   
  6   4   7  ar  
  7   4   8  ar  
  8   5   9  1   
  9   5  28  1   
 10   5  29  1   
 11   6  10  1   
 12   6  30  1   
 13   6  31  1   
 14   7  11  ar  
 15   7  32  1   
 16   8  12  ar  
 17   8  33  1   
 18   9  13  1   
 19   9  34  1   
 20   9  35  1   
 21  10  13  1   
 22  10  36  1   
 23  10  37  1   
 24  11  14  ar  
 25  12  14  ar  
 26  12  38  1   
 27  14  15  1   
 28  15  16  1   
 29  15  39  1   
 30  16  17  1   
 31  16  18  1   
 32  16  40  1   
 33  17  19  2   
 34  17  20  1   
 35  18  41  1   
 36  18  42  1   
 37  18  43  1   
 38  19  21  1   
 39  20  22  1   
 40  20  23  1   
 41  21  22  2   
 42  22  44  1   
 43  23  24  1   
 44  23  45  1   
 45  23  46  1   
 46  24  25  1   
 47  24  47  1   
 48  24  48  1   
 49  25  26  1   
 50  25  49  1   
 51  25  50  1   
 52  26  27  1   
 53  27  51  1   
 54  27  52  1   
 55  27  53  1   
@<TRIPOS>SUBSTRUCTURE
  1 ****  12 GROUP 4 **** **** 0

# MOE 2024.06 (io_trps.svl 2023.06)
