@<TRIPOS>MOLECULE
NONAME
47 50 1 0 0 
SMALL
USER_CHARGES


@<TRIPOS>ATOM
  1 CL       0.8560    -0.3630    -0.2380 Cl    1 <1>  -0.1770 
  2 C        1.1210    -2.0650    -0.5760 C.ar  1 <1>   0.1770 
  3 C        0.0430    -2.9490    -0.7510 C.ar  1 <1>   0.4100 
  4 C        2.4180    -2.5080    -0.6680 C.ar  1 <1>  -0.1500 
  5 N        0.2220    -4.2450    -1.0100 N.ar  1 <1>  -0.6200 
  6 N       -1.2770    -2.5240    -0.6510 N.pl3 1 <1>  -0.8380 
  7 C        2.5920    -3.8510    -0.9380 C.ar  1 <1>  -0.1500 
  8 C        1.4780    -4.6570    -1.0980 C.ar  1 <1>   0.1600 
  9 C       -2.3260    -3.1530    -1.5210 C.3   1 <1>   0.2090 
 10 C       -1.7900    -2.1490     0.7040 C.3   1 <1>   0.2090 
 11 C       -3.0690    -4.3030    -0.8120 C.3   1 <1>   0.2090 
 12 C       -2.5220    -3.3190     1.3910 C.3   1 <1>   0.2090 
 13 N       -3.6050    -3.8810     0.5250 N.pl3 1 <1>  -0.8380 
 14 C       -4.6090    -4.6250     1.1250 C.ar  1 <1>   0.4100 
 15 N       -4.6870    -5.9010     0.7900 N.ar  1 <1>  -0.6200 
 16 C       -5.4840    -4.0370     2.0510 C.ar  1 <1>   0.1600 
 17 C       -5.6590    -6.5800     1.4220 C.ar  1 <1>   0.3960 
 18 N       -6.4470    -4.6670     2.6910 N.ar  1 <1>  -0.6200 
 19 C       -5.8770    -8.0090     1.1710 C.2   1 <1>   0.5440 
 20 C       -6.5020    -5.9450     2.3410 C.ar  1 <1>   0.1600 
 21 O       -6.9860    -8.4820     1.3680 O.2   1 <1>  -0.5700 
 22 N       -4.8940    -8.8850     0.7400 N.am  1 <1>  -0.6600 
 23 C       -5.1630   -10.3120     0.4590 C.3   1 <1>   0.1400 
 24 C       -3.4580    -8.5740     0.5580 C.3   1 <1>   0.1400 
 25 C       -3.8670   -10.8460    -0.1410 C.3   1 <1>  -0.1600 
 26 C       -2.7800    -9.9310     0.4150 C.3   1 <1>  -0.1600 
 27 H        3.2480    -1.8380    -0.5360 H     1 <1>   0.1500 
 28 H        3.5790    -4.2670    -1.0260 H     1 <1>   0.1500 
 29 H        1.6280    -5.7020    -1.3100 H     1 <1>   0.1500 
 30 H       -1.8740    -3.5260    -2.4230 H     1 <1>   0.0800 
 31 H       -3.0400    -2.4000    -1.8020 H     1 <1>   0.0800 
 32 H       -2.4670    -1.3200     0.6030 H     1 <1>   0.0800 
 33 H       -0.9740    -1.8320     1.3290 H     1 <1>   0.0800 
 34 H       -2.3900    -5.1280    -0.6780 H     1 <1>   0.0800 
 35 H       -3.8790    -4.6380    -1.4360 H     1 <1>   0.0800 
 36 H       -2.9330    -2.9800     2.3250 H     1 <1>   0.0800 
 37 H       -1.8070    -4.0960     1.6040 H     1 <1>   0.0800 
 38 H       -5.3580    -2.9890     2.2480 H     1 <1>   0.1500 
 39 H       -7.2670    -6.5360     2.8140 H     1 <1>   0.1500 
 40 H       -5.9920   -10.4180    -0.2210 H     1 <1>   0.0800 
 41 H       -5.3900   -10.8140     1.3850 H     1 <1>   0.0800 
 42 H       -3.0680    -8.0230     1.3980 H     1 <1>   0.0800 
 43 H       -3.3350    -7.9960    -0.3430 H     1 <1>   0.0800 
 44 H       -3.9140   -10.7500    -1.2110 H     1 <1>   0.0800 
 45 H       -3.7060   -11.8790     0.1120 H     1 <1>   0.0800 
 46 H       -2.4750   -10.2730     1.3880 H     1 <1>   0.0800 
 47 H       -1.9170    -9.8800    -0.2260 H     1 <1>   0.0800 
@<TRIPOS>BOND
  1   1   2  1   
  2   2   3  ar  
  3   2   4  ar  
  4   3   5  ar  
  5   3   6  1   
  6   4   7  ar  
  7   4  27  1   
  8   5   8  ar  
  9   6   9  1   
 10   6  10  1   
 11   7   8  ar  
 12   7  28  1   
 13   8  29  1   
 14   9  11  1   
 15   9  30  1   
 16   9  31  1   
 17  10  12  1   
 18  10  32  1   
 19  10  33  1   
 20  11  13  1   
 21  11  34  1   
 22  11  35  1   
 23  12  13  1   
 24  12  36  1   
 25  12  37  1   
 26  13  14  1   
 27  14  15  ar  
 28  14  16  ar  
 29  15  17  ar  
 30  16  18  ar  
 31  16  38  1   
 32  17  19  1   
 33  17  20  ar  
 34  18  20  ar  
 35  19  21  2   
 36  19  22  am  
 37  20  39  1   
 38  22  23  1   
 39  22  24  1   
 40  23  25  1   
 41  23  40  1   
 42  23  41  1   
 43  24  26  1   
 44  24  42  1   
 45  24  43  1   
 46  25  26  1   
 47  25  44  1   
 48  25  45  1   
 49  26  46  1   
 50  26  47  1   
@<TRIPOS>SUBSTRUCTURE
  1 ****  11 GROUP 4 **** **** 0

# MOE 2024.06 (io_trps.svl 2023.06)
