@<TRIPOS>MOLECULE
NONAME
55 58 1 0 0 
SMALL
USER_CHARGES


@<TRIPOS>ATOM
  1 O       -3.6550     2.6590    -2.8460 O.2   1 <1>  -0.5700 
  2 C       -3.5180     2.3260    -1.6820 C.2   1 <1>   0.5440 
  3 N       -4.4240     1.4410    -1.1280 N.am  1 <1>  -0.6600 
  4 C       -2.4420     2.9080    -0.9100 C.ar  1 <1>   0.0860 
  5 C       -5.4410     0.7300    -1.9470 C.3   1 <1>   0.1400 
  6 C       -4.4390     1.0520     0.3080 C.3   1 <1>   0.1400 
  7 C       -1.3230     2.1680    -0.5080 C.ar  1 <1>   0.0830 
  8 C       -2.5090     4.2530    -0.5460 C.ar  1 <1>  -0.1500 
  9 C       -5.1680    -0.7720    -1.8710 C.3   1 <1>  -0.1600 
 10 C       -4.1700    -0.4490     0.4250 C.3   1 <1>  -0.1600 
 11 O       -1.2540     0.8670    -0.8820 O.3   1 <1>  -0.3620 
 12 C       -0.3240     2.7740     0.2510 C.ar  1 <1>  -0.1500 
 13 C       -1.5170     4.8550     0.2060 C.ar  1 <1>  -0.1430 
 14 C       -5.1480    -1.2810    -0.4180 C.3   1 <1>   0.4240 
 15 C       -0.1370     0.0520    -0.6080 C.3   1 <1>   0.0400 
 16 C       -0.4230     4.1070     0.6050 C.ar  1 <1>  -0.1500 
 17 C       -1.6110     6.3200     0.5920 C.3   1 <1>  -0.0970 
 18 O       -6.4160    -1.0410     0.1490 O.3   1 <1>  -0.5600 
 19 C       -4.7660    -2.7770    -0.3570 C.ar  1 <1>  -0.1430 
 20 C       -7.4140    -1.9850    -0.0850 C.3   1 <1>   0.1200 
 21 C       -5.6540    -3.7290     0.1330 C.ar  1 <1>  -0.1430 
 22 C       -3.5180    -3.2010    -0.8010 C.ar  1 <1>  -0.1500 
 23 C       -7.0270    -3.2910     0.6020 C.3   1 <1>  -0.0170 
 24 C       -5.2970    -5.0670     0.1900 C.ar  1 <1>  -0.1500 
 25 C       -3.1610    -4.5360    -0.7470 C.ar  1 <1>  -0.1500 
 26 C       -4.0440    -5.4780    -0.2510 C.ar  1 <1>   0.0830 
 27 O       -3.6160    -6.7650    -0.2290 O.3   1 <1>  -0.3630 
 28 C       -4.4320    -7.8000     0.2730 C.3   1 <1>   0.0400 
 29 H       -5.4030     1.0540    -2.9730 H     1 <1>   0.0800 
 30 H       -6.4220     0.9510    -1.5620 H     1 <1>   0.0800 
 31 H       -5.4070     1.2820     0.7220 H     1 <1>   0.0800 
 32 H       -3.7010     1.5990     0.8670 H     1 <1>   0.0800 
 33 H       -3.3620     4.8210    -0.8710 H     1 <1>   0.1500 
 34 H       -4.2140    -0.9540    -2.3290 H     1 <1>   0.0800 
 35 H       -5.8990    -1.3090    -2.4430 H     1 <1>   0.0800 
 36 H       -4.2430    -0.7550     1.4520 H     1 <1>   0.0800 
 37 H       -3.1630    -0.6330     0.1070 H     1 <1>   0.0800 
 38 H        0.5400     2.2270     0.5750 H     1 <1>   0.1500 
 39 H       -0.3160    -0.9160    -1.0410 H     1 <1>   0.0800 
 40 H       -0.0230    -0.0400     0.4580 H     1 <1>   0.0800 
 41 H        0.7360     0.4950    -1.0540 H     1 <1>   0.0800 
 42 H        0.3560     4.5640     1.1900 H     1 <1>   0.1500 
 43 H       -2.5350     6.7500     0.2470 H     1 <1>   0.0800 
 44 H       -0.7960     6.8660     0.1530 H     1 <1>   0.0800 
 45 H       -1.5640     6.4220     1.6610 H     1 <1>   0.0800 
 46 H       -7.5300    -2.1240    -1.1450 H     1 <1>   0.0800 
 47 H       -8.3320    -1.6020     0.3230 H     1 <1>   0.0800 
 48 H       -2.8100    -2.4930    -1.1950 H     1 <1>   0.1500 
 49 H       -7.7580    -4.0430     0.3690 H     1 <1>   0.0800 
 50 H       -7.0160    -3.1450     1.6680 H     1 <1>   0.0800 
 51 H       -6.0020    -5.7760     0.5790 H     1 <1>   0.1500 
 52 H       -2.1950    -4.8570    -1.0910 H     1 <1>   0.1500 
 53 H       -3.8850    -8.7220     0.1970 H     1 <1>   0.0800 
 54 H       -5.3280    -7.8570    -0.3190 H     1 <1>   0.0800 
 55 H       -4.6610    -7.5950     1.3040 H     1 <1>   0.0800 
@<TRIPOS>BOND
  1   1   2  2   
  2   2   3  am  
  3   2   4  1   
  4   3   5  1   
  5   3   6  1   
  6   4   7  ar  
  7   4   8  ar  
  8   5   9  1   
  9   5  29  1   
 10   5  30  1   
 11   6  10  1   
 12   6  31  1   
 13   6  32  1   
 14   7  11  1   
 15   7  12  ar  
 16   8  13  ar  
 17   8  33  1   
 18   9  14  1   
 19   9  34  1   
 20   9  35  1   
 21  10  14  1   
 22  10  36  1   
 23  10  37  1   
 24  11  15  1   
 25  12  16  ar  
 26  12  38  1   
 27  13  16  ar  
 28  13  17  1   
 29  14  18  1   
 30  14  19  1   
 31  15  39  1   
 32  15  40  1   
 33  15  41  1   
 34  16  42  1   
 35  17  43  1   
 36  17  44  1   
 37  17  45  1   
 38  18  20  1   
 39  19  21  ar  
 40  19  22  ar  
 41  20  23  1   
 42  20  46  1   
 43  20  47  1   
 44  21  23  1   
 45  21  24  ar  
 46  22  25  ar  
 47  22  48  1   
 48  23  49  1   
 49  23  50  1   
 50  24  26  ar  
 51  24  51  1   
 52  25  26  ar  
 53  25  52  1   
 54  26  27  1   
 55  27  28  1   
 56  28  53  1   
 57  28  54  1   
 58  28  55  1   
@<TRIPOS>SUBSTRUCTURE
  1 ****  10 GROUP 4 **** **** 0

# MOE 2024.06 (io_trps.svl 2023.06)
