@<TRIPOS>MOLECULE
NONAME
41 43 1 0 0 
SMALL
USER_CHARGES


@<TRIPOS>ATOM
  1 O       -0.9880     0.5050     1.7880 O.2   1 <1>  -0.5700 
  2 C       -1.5660     0.6870     0.7420 C.2   1 <1>   0.5770 
  3 N       -2.1720    -0.3440     0.0720 N.am  1 <1>  -0.6600 
  4 C       -1.6090     2.1020     0.1630 C.3   1 <1>   0.0530 
  5 C       -2.1370    -1.7400     0.6360 C.3   1 <1>   0.3640 
  6 C       -2.9600    -0.1590    -1.1880 C.3   1 <1>   0.1400 
  7 C       -0.8600     3.2170     0.9510 C.3   1 <1>   0.0000 
  8 C       -2.9160     2.8810     0.4750 C.3   1 <1>   0.0000 
  9 C       -1.0100    -2.5890     0.0220 C.ar  1 <1>  -0.1440 
 10 C       -3.5160    -2.4630     0.4960 C.3   1 <1>   0.2000 
 11 C       -3.6470    -1.4530    -1.6460 C.3   1 <1>   0.1200 
 12 C       -2.0380     4.1550     0.5830 C.3   1 <1>   0.0000 
 13 C       -0.6890    -3.7870     0.6480 C.ar  1 <1>  -0.1500 
 14 C       -0.2880    -2.2240    -1.1110 C.ar  1 <1>  -0.1500 
 15 O       -4.3260    -2.0120    -0.5680 O.3   1 <1>  -0.5600 
 16 C       -4.3510    -2.3160     1.7740 C.3   1 <1>   0.1200 
 17 C        0.3050    -4.6100     0.1480 C.ar  1 <1>  -0.1500 
 18 C        0.7060    -3.0440    -1.6140 C.ar  1 <1>  -0.1500 
 19 O       -3.8130    -3.1000     2.7910 O.3   1 <1>  -0.6800 
 20 C        1.0020    -4.2410    -0.9870 C.ar  1 <1>  -0.1500 
 21 H       -1.3610     2.1380    -0.8840 H     1 <1>   0.0000 
 22 H       -1.9140    -1.6820     1.6880 H     1 <1>   0.0800 
 23 H       -3.7210     0.5830    -1.0220 H     1 <1>   0.0800 
 24 H       -2.3120     0.1940    -1.9710 H     1 <1>   0.0800 
 25 H       -0.8010     3.0470     2.0120 H     1 <1>   0.0000 
 26 H        0.0780     3.5060     0.5100 H     1 <1>   0.0000 
 27 H       -3.6160     2.9070    -0.3400 H     1 <1>   0.0000 
 28 H       -3.3590     2.6030     1.4160 H     1 <1>   0.0000 
 29 H       -3.3530    -3.5110     0.3230 H     1 <1>   0.0800 
 30 H       -2.9380    -2.1690    -2.0250 H     1 <1>   0.0800 
 31 H       -4.3670    -1.2400    -2.4170 H     1 <1>   0.0800 
 32 H       -1.8990     4.6460    -0.3650 H     1 <1>   0.0000 
 33 H       -2.3300     4.8200     1.3760 H     1 <1>   0.0000 
 34 H       -1.2120    -4.0870     1.5400 H     1 <1>   0.1500 
 35 H       -0.4820    -1.2950    -1.6130 H     1 <1>   0.1500 
 36 H       -5.3640    -2.6360     1.6060 H     1 <1>   0.0800 
 37 H       -4.3460    -1.2910     2.1050 H     1 <1>   0.0800 
 38 H        0.5390    -5.5350     0.6440 H     1 <1>   0.1500 
 39 H        1.2540    -2.7490    -2.4920 H     1 <1>   0.1500 
 40 H       -4.0790    -4.0350     2.6840 H     1 <1>   0.4000 
 41 H        1.7760    -4.8780    -1.3780 H     1 <1>   0.1500 
@<TRIPOS>BOND
  1   1   2  2   
  2   2   3  am  
  3   2   4  1   
  4   3   5  1   
  5   3   6  1   
  6   4   7  1   
  7   4   8  1   
  8   4  21  1   
  9   5   9  1   
 10   5  10  1   
 11   5  22  1   
 12   6  11  1   
 13   6  23  1   
 14   6  24  1   
 15   7  12  1   
 16   7  25  1   
 17   7  26  1   
 18   8  12  1   
 19   8  27  1   
 20   8  28  1   
 21   9  13  ar  
 22   9  14  ar  
 23  10  15  1   
 24  10  16  1   
 25  10  29  1   
 26  11  15  1   
 27  11  30  1   
 28  11  31  1   
 29  12  32  1   
 30  12  33  1   
 31  13  17  ar  
 32  13  34  1   
 33  14  18  ar  
 34  14  35  1   
 35  16  19  1   
 36  16  36  1   
 37  16  37  1   
 38  17  20  ar  
 39  17  38  1   
 40  18  20  ar  
 41  18  39  1   
 42  19  40  1   
 43  20  41  1   
@<TRIPOS>SUBSTRUCTURE
  1 ****   3 GROUP 4 **** **** 0

# MOE 2024.06 (io_trps.svl 2023.06)
