@<TRIPOS>MOLECULE
NONAME
54 57 1 0 0 
SMALL
USER_CHARGES


@<TRIPOS>ATOM
  1 O       -0.7460     0.7640    -0.2760 O.2   1 <1>  -0.5700 
  2 C       -1.8540     0.6940     0.2220 C.2   1 <1>   0.5440 
  3 N       -2.3040     1.7500     0.9880 N.am  1 <1>  -0.6600 
  4 C       -2.6620    -0.4790    -0.0160 C.ar  1 <1>   0.0860 
  5 C       -1.3830     2.8260     1.4680 C.3   1 <1>   0.1400 
  6 C       -3.7480     2.1020     1.1580 C.3   1 <1>   0.1400 
  7 C       -3.3850    -1.0820     1.0110 C.ar  1 <1>   0.1600 
  8 C       -2.7510    -1.0690    -1.2730 C.ar  1 <1>  -0.1500 
  9 C       -1.8020     4.1910     0.9010 C.3   1 <1>   0.1200 
 10 C       -4.0310     3.5160     0.6220 C.3   1 <1>   0.1200 
 11 N       -4.1780    -2.1310     0.8950 N.ar  1 <1>  -0.6200 
 12 C       -3.5610    -2.1700    -1.4130 C.ar  1 <1>  -0.1500 
 13 O       -3.1500     4.4460     1.1840 O.3   1 <1>  -0.5600 
 14 C       -4.2630    -2.6600    -0.3140 C.ar  1 <1>   0.4100 
 15 N       -5.0950    -3.7280    -0.3900 N.pl3 1 <1>  -0.8690 
 16 C       -6.1020    -3.8650    -1.4440 C.3   1 <1>   0.4330 
 17 C       -7.4600    -4.0900    -0.7890 C.ar  1 <1>  -0.1430 
 18 C       -5.7100    -5.0360    -2.3390 C.3   1 <1>  -0.2400 
 19 C       -7.6680    -5.1410     0.0940 C.ar  1 <1>  -0.1500 
 20 C       -8.5140    -3.2350    -1.0690 C.ar  1 <1>  -0.1500 
 21 C       -8.9020    -5.3440     0.6900 C.ar  1 <1>  -0.1430 
 22 C       -9.7490    -3.4310    -0.4780 C.ar  1 <1>  -0.1500 
 23 C       -9.9540    -4.4820     0.4010 C.ar  1 <1>  -0.1430 
 24 C       -9.0670    -6.5260     1.6380 C.3   1 <1>  -0.0170 
 25 C      -11.3280    -4.6450     1.0390 C.3   1 <1>  -0.0170 
 26 C      -10.3210    -6.4160     2.5140 C.3   1 <1>  -0.1600 
 27 C      -11.5340    -6.0310     1.6620 C.3   1 <1>  -0.1600 
 28 H       -0.3670     2.6170     1.1810 H     1 <1>   0.0800 
 29 H       -1.4170     2.8650     2.5430 H     1 <1>   0.0800 
 30 H       -4.0020     2.0640     2.2030 H     1 <1>   0.0800 
 31 H       -4.3780     1.4040     0.6350 H     1 <1>   0.0800 
 32 H       -3.2960    -0.6570     1.9960 H     1 <1>   0.1500 
 33 H       -2.1920    -0.6660    -2.1000 H     1 <1>   0.1500 
 34 H       -1.6590     4.2160    -0.1650 H     1 <1>   0.0800 
 35 H       -1.2170     4.9740     1.3480 H     1 <1>   0.0800 
 36 H       -5.0310     3.8170     0.8760 H     1 <1>   0.0800 
 37 H       -3.9230     3.5440    -0.4480 H     1 <1>   0.0800 
 38 H       -3.6530    -2.6650    -2.3600 H     1 <1>   0.1500 
 39 H       -5.5240    -3.9100     0.5210 H     1 <1>   0.4000 
 40 H       -6.1340    -2.9630    -2.0320 H     1 <1>   0.0800 
 41 H       -5.6280    -5.9390    -1.7630 H     1 <1>   0.0800 
 42 H       -4.7700    -4.8370    -2.8170 H     1 <1>   0.0800 
 43 H       -6.4600    -5.1770    -3.0950 H     1 <1>   0.0800 
 44 H       -6.8580    -5.8130     0.3190 H     1 <1>   0.1500 
 45 H       -8.3820    -2.4100    -1.7450 H     1 <1>   0.1500 
 46 H      -10.5560    -2.7570    -0.7050 H     1 <1>   0.1500 
 47 H       -8.2010    -6.6090     2.2710 H     1 <1>   0.0800 
 48 H       -9.1300    -7.4230     1.0460 H     1 <1>   0.0800 
 49 H      -12.0930    -4.4710     0.3040 H     1 <1>   0.0800 
 50 H      -11.4310    -3.8970     1.8060 H     1 <1>   0.0800 
 51 H      -10.1620    -5.6650     3.2690 H     1 <1>   0.0800 
 52 H      -10.4990    -7.3550     3.0070 H     1 <1>   0.0800 
 53 H      -11.6650    -6.7570     0.8780 H     1 <1>   0.0800 
 54 H      -12.4230    -6.0260     2.2670 H     1 <1>   0.0800 
@<TRIPOS>BOND
  1   1   2  2   
  2   2   3  am  
  3   2   4  1   
  4   3   5  1   
  5   3   6  1   
  6   4   7  ar  
  7   4   8  ar  
  8   5   9  1   
  9   5  28  1   
 10   5  29  1   
 11   6  10  1   
 12   6  30  1   
 13   6  31  1   
 14   7  11  ar  
 15   7  32  1   
 16   8  12  ar  
 17   8  33  1   
 18   9  13  1   
 19   9  34  1   
 20   9  35  1   
 21  10  13  1   
 22  10  36  1   
 23  10  37  1   
 24  11  14  ar  
 25  12  14  ar  
 26  12  38  1   
 27  14  15  1   
 28  15  16  1   
 29  15  39  1   
 30  16  17  1   
 31  16  18  1   
 32  16  40  1   
 33  17  19  ar  
 34  17  20  ar  
 35  18  41  1   
 36  18  42  1   
 37  18  43  1   
 38  19  21  ar  
 39  19  44  1   
 40  20  22  ar  
 41  20  45  1   
 42  21  23  ar  
 43  21  24  1   
 44  22  23  ar  
 45  22  46  1   
 46  23  25  1   
 47  24  26  1   
 48  24  47  1   
 49  24  48  1   
 50  25  27  1   
 51  25  49  1   
 52  25  50  1   
 53  26  27  1   
 54  26  51  1   
 55  26  52  1   
 56  27  53  1   
 57  27  54  1   
@<TRIPOS>SUBSTRUCTURE
  1 ****  11 GROUP 4 **** **** 0

# MOE 2024.06 (io_trps.svl 2023.06)
