@<TRIPOS>MOLECULE
NONAME
47 49 1 0 0 
SMALL
USER_CHARGES


@<TRIPOS>ATOM
  1 O        0.5780     1.8160     2.5230 O.co2 1 <1>  -0.9000 
  2 C        1.8160     1.7900     2.5610 C.2   1 <1>   0.9470 
  3 O        2.4330     2.2430     3.5350 O.co2 1 <1>  -0.9000 
  4 C        2.6030     1.4170     1.3020 C.3   1 <1>  -0.2420 
  5 C        3.2020     0.1180     0.8150 C.3   1 <1>  -0.2420 
  6 C        3.5650     2.5310     0.9420 C.3   1 <1>   0.2350 
  7 C        1.9090     0.6190     0.2260 C.3   1 <1>  -0.2000 
  8 C        3.2440    -1.2660     1.4700 C.2   1 <1>   0.9470 
  9 C        4.5240     0.4340     0.1340 C.3   1 <1>   0.2350 
 10 N        4.5670     1.9190     0.0250 N.am  1 <1>  -0.6600 
 11 O        2.4400    -2.1370     1.1090 O.co2 1 <1>  -0.9000 
 12 O        4.1820    -1.5350     2.2320 O.co2 1 <1>  -0.9000 
 13 C        5.4440     2.5900    -0.7670 C.2   1 <1>   0.5690 
 14 O        6.2170     2.0200    -1.5040 O.2   1 <1>  -0.5700 
 15 C        5.4690     4.1110    -0.7140 C.3   1 <1>  -0.0990 
 16 C        6.6860     4.7360    -1.4200 C.3   1 <1>  -0.0990 
 17 C        6.7370     6.2340    -1.2110 C.2   1 <1>   0.5690 
 18 O        6.2530     6.9460    -2.0540 O.2   1 <1>  -0.5700 
 19 N        7.3300     6.6830    -0.0620 N.am  1 <1>  -0.5470 
 20 C        7.5310     7.9750     0.4520 C.ar  1 <1>   0.1170 
 21 C        6.9170     9.1140    -0.0600 C.ar  1 <1>  -0.1500 
 22 C        8.3840     8.1230     1.5410 C.ar  1 <1>  -0.1500 
 23 C        7.1430    10.3650     0.4910 C.ar  1 <1>  -0.1430 
 24 C        8.6180     9.3660     2.0980 C.ar  1 <1>  -0.1500 
 25 C        7.9990    10.4870     1.5740 C.ar  1 <1>  -0.1500 
 26 C        6.4620    11.5930    -0.0910 C.3   1 <1>  -0.0170 
 27 C        7.3280    12.2170    -1.1870 C.3   1 <1>  -0.2400 
 28 H        4.0660     2.8860     1.8270 H     1 <1>   0.0800 
 29 H        3.0370     3.3390     0.4700 H     1 <1>   0.0800 
 30 H        1.8930     0.9870    -0.7820 H     1 <1>   0.1000 
 31 H        1.0050     0.0950     0.4900 H     1 <1>   0.1000 
 32 H        4.5780    -0.0270    -0.8360 H     1 <1>   0.0800 
 33 H        5.3480     0.1000     0.7410 H     1 <1>   0.0800 
 34 H        4.5680     4.4810    -1.1680 H     1 <1>   0.0800 
 35 H        5.4720     4.4110     0.3180 H     1 <1>   0.0800 
 36 H        6.6300     4.5320    -2.4750 H     1 <1>   0.0800 
 37 H        7.5930     4.2930    -1.0500 H     1 <1>   0.0800 
 38 H        7.7040     5.9440     0.5280 H     1 <1>   0.3700 
 39 H        6.2510     9.0310    -0.8980 H     1 <1>   0.1500 
 40 H        8.8720     7.2620     1.9580 H     1 <1>   0.1500 
 41 H        9.2820     9.4670     2.9390 H     1 <1>   0.1500 
 42 H        8.1860    11.4530     2.0090 H     1 <1>   0.1500 
 43 H        5.5060    11.3170    -0.5010 H     1 <1>   0.0800 
 44 H        6.2870    12.3150     0.6870 H     1 <1>   0.0800 
 45 H        7.4910    11.5050    -1.9770 H     1 <1>   0.0800 
 46 H        8.2810    12.5100    -0.7860 H     1 <1>   0.0800 
 47 H        6.8410    13.0830    -1.5970 H     1 <1>   0.0800 
@<TRIPOS>BOND
  1   1   2  ar  
  2   2   3  ar  
  3   2   4  1   
  4   4   5  1   
  5   4   6  1   
  6   4   7  1   
  7   5   7  1   
  8   5   8  1   
  9   5   9  1   
 10   6  10  1   
 11   6  28  1   
 12   6  29  1   
 13   7  30  1   
 14   7  31  1   
 15   8  11  ar  
 16   8  12  ar  
 17   9  10  1   
 18   9  32  1   
 19   9  33  1   
 20  10  13  am  
 21  13  14  2   
 22  13  15  1   
 23  15  16  1   
 24  15  34  1   
 25  15  35  1   
 26  16  17  1   
 27  16  36  1   
 28  16  37  1   
 29  17  18  2   
 30  17  19  am  
 31  19  20  1   
 32  19  38  1   
 33  20  21  ar  
 34  20  22  ar  
 35  21  23  ar  
 36  21  39  1   
 37  22  24  ar  
 38  22  40  1   
 39  23  25  ar  
 40  23  26  1   
 41  24  25  ar  
 42  24  41  1   
 43  25  42  1   
 44  26  27  1   
 45  26  43  1   
 46  26  44  1   
 47  27  45  1   
 48  27  46  1   
 49  27  47  1   
@<TRIPOS>SUBSTRUCTURE
  1 ****  15 GROUP 4 **** **** 0

# MOE 2024.06 (io_trps.svl 2023.06)
