@<TRIPOS>MOLECULE
NONAME
34 35 1 0 0 
SMALL
USER_CHARGES


@<TRIPOS>ATOM
  1 S       -0.8600    -0.3160    -0.4720 S.3   1 <1>  -0.0800 
  2 C       -1.1800    -1.2340     0.9610 C.2   1 <1>   0.4420 
  3 C       -0.3630     0.9850     0.5590 C.2   1 <1>   0.1980 
  4 N       -0.9170    -0.5740     2.0300 N.2   1 <1>  -0.3380 
  5 N       -1.6570    -2.5140     0.7760 N.am  1 <1>  -0.4940 
  6 N       -0.4520     0.6900     1.7940 N.2   1 <1>  -0.3380 
  7 C        0.1030     2.2960    -0.0720 C.3   1 <1>   0.3800 
  8 C       -2.0350    -3.4460     1.7000 C.2   1 <1>   0.5690 
  9 O       -0.8740     2.8160    -0.9270 O.3   1 <1>  -0.5600 
 10 C        1.3740     2.1220    -0.9000 C.3   1 <1>  -0.2400 
 11 O       -2.0090    -3.2590     2.8890 O.2   1 <1>  -0.5700 
 12 C       -2.5060    -4.7990     1.1950 C.3   1 <1>   0.0440 
 13 C       -2.0160     3.3010    -0.2900 C.3   1 <1>   0.0400 
 14 C       -3.7030    -4.6840     0.2520 C.ar  1 <1>  -0.1430 
 15 C       -3.5510    -4.4030    -1.1020 C.ar  1 <1>   0.1900 
 16 C       -4.9930    -4.8610     0.7350 C.ar  1 <1>  -0.1500 
 17 F       -2.3490    -4.2100    -1.5800 F     1 <1>  -0.1900 
 18 C       -4.6190    -4.3020    -1.9790 C.ar  1 <1>  -0.1500 
 19 C       -6.0610    -4.7590    -0.1420 C.ar  1 <1>   0.1900 
 20 C       -5.9020    -4.4850    -1.4890 C.ar  1 <1>  -0.1500 
 21 F       -7.2690    -4.9290     0.3230 F     1 <1>  -0.1900 
 22 H       -1.7620    -2.7950    -0.1980 H     1 <1>   0.3700 
 23 H        0.2870     3.0170     0.7060 H     1 <1>   0.0800 
 24 H        1.1990     1.4520    -1.7220 H     1 <1>   0.0800 
 25 H        2.1570     1.7180    -0.2840 H     1 <1>   0.0800 
 26 H        1.6930     3.0750    -1.2810 H     1 <1>   0.0800 
 27 H       -2.7710    -5.4060     2.0420 H     1 <1>   0.0800 
 28 H       -1.6870    -5.2880     0.7010 H     1 <1>   0.0800 
 29 H       -2.6750     3.6980    -1.0430 H     1 <1>   0.0800 
 30 H       -1.7390     4.0830     0.3960 H     1 <1>   0.0800 
 31 H       -2.5110     2.4990     0.2310 H     1 <1>   0.0800 
 32 H       -5.1810    -5.0730     1.7730 H     1 <1>   0.1500 
 33 H       -4.4490    -4.0840    -3.0190 H     1 <1>   0.1500 
 34 H       -6.7630    -4.4170    -2.1310 H     1 <1>   0.1500 
@<TRIPOS>BOND
  1   1   2  1   
  2   1   3  1   
  3   2   4  2   
  4   2   5  1   
  5   3   6  2   
  6   3   7  1   
  7   4   6  1   
  8   5   8  am  
  9   5  22  1   
 10   7   9  1   
 11   7  10  1   
 12   7  23  1   
 13   8  11  2   
 14   8  12  1   
 15   9  13  1   
 16  10  24  1   
 17  10  25  1   
 18  10  26  1   
 19  12  14  1   
 20  12  27  1   
 21  12  28  1   
 22  13  29  1   
 23  13  30  1   
 24  13  31  1   
 25  14  15  ar  
 26  14  16  ar  
 27  15  17  1   
 28  15  18  ar  
 29  16  19  ar  
 30  16  32  1   
 31  18  20  ar  
 32  18  33  1   
 33  19  20  ar  
 34  19  21  1   
 35  20  34  1   
@<TRIPOS>SUBSTRUCTURE
  1 ****   5 GROUP 4 **** **** 0

# MOE 2024.06 (io_trps.svl 2023.06)
