@<TRIPOS>MOLECULE
NONAME
48 50 1 0 0 
SMALL
USER_CHARGES


@<TRIPOS>ATOM
  1 F        1.0960     0.1830    -1.8830 F     1 <1>  -0.1900 
  2 C        1.7870    -0.7190    -1.2410 C.ar  1 <1>   0.1900 
  3 C        1.5700    -2.0510    -1.5340 C.ar  1 <1>  -0.1500 
  4 C        2.7030    -0.3090    -0.2930 C.ar  1 <1>  -0.1500 
  5 C        2.2960    -3.0130    -0.8460 C.ar  1 <1>  -0.1440 
  6 C        3.4350    -1.2690     0.3870 C.ar  1 <1>  -0.1440 
  7 C        3.2270    -2.6130     0.1070 C.ar  1 <1>  -0.1500 
  8 C        2.0710    -4.4860    -1.1250 C.3   1 <1>   0.4870 
  9 C        4.4570    -0.8530     1.4320 C.3   1 <1>  -0.0970 
 10 N        1.1840    -5.0260    -0.0650 N.4   1 <1>  -0.9590 
 11 C       -0.1840    -4.4520    -0.1230 C.3   1 <1>   0.3430 
 12 C        1.0220    -6.5030    -0.1100 C.3   1 <1>   0.3430 
 13 C       -1.0460    -5.4280     0.6670 C.3   1 <1>  -0.0800 
 14 C       -0.3850    -6.8010     0.4200 C.3   1 <1>  -0.0800 
 15 C       -2.5560    -5.3380     0.3280 C.3   1 <1>   0.2800 
 16 C       -1.1630    -7.6710    -0.5820 C.3   1 <1>  -0.1600 
 17 O       -2.6900    -5.0710    -1.0210 O.3   1 <1>  -0.6800 
 18 C       -3.2330    -6.6920     0.6070 C.3   1 <1>  -0.1600 
 19 C       -3.2930    -4.2170     1.0940 C.3   1 <1>  -0.1600 
 20 C       -2.6240    -7.8860    -0.1570 C.3   1 <1>  -0.1600 
 21 C       -2.7870    -2.7810     0.8680 C.3   1 <1>  -0.2400 
 22 H        0.8440    -2.3060    -2.2870 H     1 <1>   0.1500 
 23 H        2.8360     0.7410    -0.1010 H     1 <1>   0.1500 
 24 H        3.8070    -3.3460     0.6420 H     1 <1>   0.1500 
 25 H        3.0190    -5.0000    -1.1160 H     1 <1>   0.0800 
 26 H        1.6180    -4.6160    -2.0950 H     1 <1>   0.0800 
 27 H        5.3350    -1.4700     1.3640 H     1 <1>   0.0800 
 28 H        4.0360    -0.9520     2.4160 H     1 <1>   0.0800 
 29 H        4.7540     0.1700     1.2870 H     1 <1>   0.0800 
 30 H        1.5830    -4.7570     0.8420 H     1 <1>   0.4500 
 31 H       -0.2160    -3.4570     0.2880 H     1 <1>   0.0800 
 32 H       -0.5200    -4.4220    -1.1470 H     1 <1>   0.0800 
 33 H        1.0970    -6.8500    -1.1280 H     1 <1>   0.0800 
 34 H        1.7740    -6.9950     0.4860 H     1 <1>   0.0800 
 35 H       -0.9280    -5.2010     1.7120 H     1 <1>   0.0800 
 36 H       -0.3120    -7.3390     1.3500 H     1 <1>   0.0800 
 37 H       -1.1590    -7.1890    -1.5460 H     1 <1>   0.0800 
 38 H       -0.6850    -8.6290    -0.7010 H     1 <1>   0.0800 
 39 H       -3.6380    -5.0920    -1.2590 H     1 <1>   0.4000 
 40 H       -3.1400    -6.8930     1.6600 H     1 <1>   0.0800 
 41 H       -4.2880    -6.6360     0.4000 H     1 <1>   0.0800 
 42 H       -4.3360    -4.2500     0.8280 H     1 <1>   0.0800 
 43 H       -3.2440    -4.4270     2.1490 H     1 <1>   0.0800 
 44 H       -2.6940    -8.7630     0.4640 H     1 <1>   0.0800 
 45 H       -3.2090    -8.0780    -1.0410 H     1 <1>   0.0800 
 46 H       -2.7420    -2.5470    -0.1820 H     1 <1>   0.0800 
 47 H       -1.8180    -2.6350     1.3080 H     1 <1>   0.0800 
 48 H       -3.4630    -2.0860     1.3340 H     1 <1>   0.0800 
@<TRIPOS>BOND
  1   1   2  1   
  2   2   3  ar  
  3   2   4  ar  
  4   3   5  ar  
  5   3  22  1   
  6   4   6  ar  
  7   4  23  1   
  8   5   7  ar  
  9   5   8  1   
 10   6   7  ar  
 11   6   9  1   
 12   7  24  1   
 13   8  10  1   
 14   8  25  1   
 15   8  26  1   
 16   9  27  1   
 17   9  28  1   
 18   9  29  1   
 19  10  11  1   
 20  10  12  1   
 21  10  30  1   
 22  11  13  1   
 23  11  31  1   
 24  11  32  1   
 25  12  14  1   
 26  12  33  1   
 27  12  34  1   
 28  13  14  1   
 29  13  15  1   
 30  13  35  1   
 31  14  16  1   
 32  14  36  1   
 33  15  17  1   
 34  15  18  1   
 35  15  19  1   
 36  16  20  1   
 37  16  37  1   
 38  16  38  1   
 39  17  39  1   
 40  18  20  1   
 41  18  40  1   
 42  18  41  1   
 43  19  21  1   
 44  19  42  1   
 45  19  43  1   
 46  20  44  1   
 47  20  45  1   
 48  21  46  1   
 49  21  47  1   
 50  21  48  1   
@<TRIPOS>SUBSTRUCTURE
  1 ****  11 GROUP 4 **** **** 0

# MOE 2024.06 (io_trps.svl 2023.06)
