@<TRIPOS>MOLECULE
NONAME
53 56 1 0 0 
SMALL
USER_CHARGES


@<TRIPOS>ATOM
  1 CL      -1.1800    -2.2400     1.8580 Cl    1 <1>  -0.1770 
  2 C       -2.7770    -1.6510     1.4690 C.ar  1 <1>   0.1770 
  3 C       -3.5590    -2.3630     0.5800 C.ar  1 <1>  -0.1500 
  4 C       -3.2290    -0.4840     2.0590 C.ar  1 <1>  -0.1500 
  5 C       -4.8330    -1.9050     0.2620 C.ar  1 <1>   0.0280 
  6 C       -4.4950    -0.0210     1.7490 C.ar  1 <1>  -0.1500 
  7 C       -5.2890    -0.7230     0.8550 C.ar  1 <1>   0.0830 
  8 C       -5.7140    -2.6000    -0.6350 C.2   1 <1>  -0.1780 
  9 O       -6.5290    -0.2450     0.5840 O.3   1 <1>  -0.3630 
 10 C       -6.8600    -2.0340    -1.0420 C.2   1 <1>  -0.2760 
 11 C       -7.2150    -0.6130    -0.6010 C.3   1 <1>   0.2580 
 12 C       -7.8550    -2.7050    -1.9630 C.3   1 <1>   0.4810 
 13 N       -9.0080    -3.1780    -1.1540 N.4   1 <1>  -0.9590 
 14 C       -8.5310    -4.2100    -0.1540 C.3   1 <1>   0.3430 
 15 C      -10.1060    -3.6520    -2.0540 C.3   1 <1>   0.3430 
 16 C       -9.6450    -4.8340     0.6980 C.3   1 <1>   0.1400 
 17 C      -11.4520    -3.6850    -1.3190 C.3   1 <1>  -0.1600 
 18 N      -10.5290    -5.6810    -0.1510 N.am  1 <1>  -0.6600 
 19 C      -11.7650    -5.0380    -0.6650 C.3   1 <1>   0.1400 
 20 C      -10.1590    -6.9840    -0.3900 C.2   1 <1>   0.5690 
 21 O       -8.9900    -7.2850    -0.3250 O.2   1 <1>  -0.5700 
 22 C      -11.1460    -8.0840    -0.7670 C.3   1 <1>   0.0810 
 23 C      -12.4930    -7.9650    -0.0740 C.2   1 <1>  -0.0400 
 24 O      -12.5480    -7.7060     1.2050 O.3   1 <1>  -0.0190 
 25 C      -13.7510    -8.0600    -0.5310 C.2   1 <1>  -0.1500 
 26 N      -13.7750    -7.6070     1.6250 N.2   1 <1>  -0.4100 
 27 C      -14.5230    -7.8240     0.6040 C.2   1 <1>   0.1080 
 28 C      -16.0350    -7.8220     0.6430 C.3   1 <1>  -0.0590 
 29 H       -3.1740    -3.2650     0.1440 H     1 <1>   0.1500 
 30 H       -2.5970     0.0470     2.7490 H     1 <1>   0.1500 
 31 H       -4.8710     0.8820     2.1960 H     1 <1>   0.1500 
 32 H       -5.3930    -3.5820    -0.9420 H     1 <1>   0.1500 
 33 H       -6.9450     0.0950    -1.3660 H     1 <1>   0.0800 
 34 H       -8.2650    -0.5140    -0.3910 H     1 <1>   0.0800 
 35 H       -7.3870    -3.5460    -2.4490 H     1 <1>   0.0800 
 36 H       -8.1780    -2.0100    -2.7220 H     1 <1>   0.0800 
 37 H       -9.3600    -2.3800    -0.6170 H     1 <1>   0.4500 
 38 H       -7.8190    -3.7520     0.5130 H     1 <1>   0.0800 
 39 H       -8.0220    -5.0100    -0.6680 H     1 <1>   0.0800 
 40 H       -9.8740    -4.6300    -2.4470 H     1 <1>   0.0800 
 41 H      -10.1970    -2.9710    -2.8850 H     1 <1>   0.0800 
 42 H      -10.2140    -4.0770     1.2090 H     1 <1>   0.0800 
 43 H       -9.1910    -5.4570     1.4510 H     1 <1>   0.0800 
 44 H      -12.2330    -3.4930    -2.0330 H     1 <1>   0.0800 
 45 H      -11.5080    -2.8980    -0.5880 H     1 <1>   0.0800 
 46 H      -12.2180    -5.6770    -1.4040 H     1 <1>   0.0800 
 47 H      -12.4710    -4.9160     0.1410 H     1 <1>   0.0800 
 48 H      -10.7130    -9.0280    -0.4890 H     1 <1>   0.0800 
 49 H      -11.2810    -8.0860    -1.8310 H     1 <1>   0.0800 
 50 H      -14.1200    -8.2670    -1.5190 H     1 <1>   0.1500 
 51 H      -16.4190    -7.0900    -0.0440 H     1 <1>   0.0800 
 52 H      -16.3770    -7.5830     1.6340 H     1 <1>   0.0800 
 53 H      -16.4080    -8.7930     0.3730 H     1 <1>   0.0800 
@<TRIPOS>BOND
  1   1   2  1   
  2   2   3  ar  
  3   2   4  ar  
  4   3   5  ar  
  5   3  29  1   
  6   4   6  ar  
  7   4  30  1   
  8   5   7  ar  
  9   5   8  1   
 10   6   7  ar  
 11   6  31  1   
 12   7   9  1   
 13   8  10  2   
 14   8  32  1   
 15   9  11  1   
 16  10  11  1   
 17  10  12  1   
 18  11  33  1   
 19  11  34  1   
 20  12  13  1   
 21  12  35  1   
 22  12  36  1   
 23  13  14  1   
 24  13  15  1   
 25  13  37  1   
 26  14  16  1   
 27  14  38  1   
 28  14  39  1   
 29  15  17  1   
 30  15  40  1   
 31  15  41  1   
 32  16  18  1   
 33  16  42  1   
 34  16  43  1   
 35  17  19  1   
 36  17  44  1   
 37  17  45  1   
 38  18  19  1   
 39  18  20  am  
 40  19  46  1   
 41  19  47  1   
 42  20  21  2   
 43  20  22  1   
 44  22  23  1   
 45  22  48  1   
 46  22  49  1   
 47  23  24  1   
 48  23  25  2   
 49  24  26  1   
 50  25  27  1   
 51  25  50  1   
 52  26  27  2   
 53  27  28  1   
 54  28  51  1   
 55  28  52  1   
 56  28  53  1   
@<TRIPOS>SUBSTRUCTURE
  1 ****  14 GROUP 4 **** **** 0

# MOE 2024.06 (io_trps.svl 2023.06)
