@<TRIPOS>MOLECULE
NONAME
43 45 1 0 0 
SMALL
USER_CHARGES


@<TRIPOS>ATOM
  1 S       -2.0680    -0.7640     1.3540 S.3   1 <1>  -0.4600 
  2 C       -2.1930    -2.5700     1.5740 C.3   1 <1>   0.2510 
  3 C       -0.5900    -0.3210     2.3070 C.3   1 <1>  -0.0100 
  4 C       -3.3860    -3.1170     0.8020 C.2   1 <1>   0.3350 
  5 N       -4.4970    -3.4570     1.3270 N.2   1 <1>  -0.4100 
  6 N       -3.3450    -3.3020    -0.5120 N.2   1 <1>  -0.5650 
  7 O       -5.2660    -3.8650     0.3650 O.3   1 <1>  -0.0190 
  8 C       -4.5220    -3.7480    -0.7080 C.2   1 <1>   0.2980 
  9 C       -5.1150    -4.1590    -2.0460 C.3   1 <1>   0.3200 
 10 N       -5.4410    -5.6090    -2.0500 N.am  1 <1>  -0.7300 
 11 C       -6.6880    -6.1130    -1.8650 C.2   1 <1>   0.5690 
 12 O       -7.6570    -5.3940    -1.8780 O.2   1 <1>  -0.5700 
 13 C       -6.8570    -7.6100    -1.6050 C.3   1 <1>   0.2610 
 14 O       -5.8400    -8.3490    -2.2710 O.3   1 <1>  -0.5600 
 15 C       -6.8080    -7.8710    -0.0790 C.3   1 <1>   0.3640 
 16 C       -5.9760    -9.7500    -2.1530 C.3   1 <1>   0.1810 
 17 N       -6.5600    -9.3020     0.2230 N.am  1 <1>  -0.7300 
 18 C       -8.0930    -7.4400     0.6200 C.ar  1 <1>  -0.1430 
 19 C       -6.1830   -10.2080    -0.7050 C.2   1 <1>   0.5690 
 20 C       -8.1160    -6.2590     1.3500 C.ar  1 <1>  -0.1500 
 21 C       -9.2490    -8.2050     0.5400 C.ar  1 <1>  -0.1500 
 22 O       -6.0340   -11.3670    -0.4100 O.2   1 <1>  -0.5700 
 23 C       -9.2730    -5.8510     1.9890 C.ar  1 <1>  -0.1500 
 24 C      -10.4070    -7.7980     1.1800 C.ar  1 <1>  -0.1500 
 25 C      -10.4190    -6.6200     1.9050 C.ar  1 <1>  -0.1500 
 26 H       -1.2790    -3.0040     1.2140 H     1 <1>   0.0800 
 27 H       -2.3070    -2.7560     2.6260 H     1 <1>   0.0800 
 28 H       -0.4550     0.7430     2.2220 H     1 <1>   0.0800 
 29 H        0.2490    -0.8470     1.8870 H     1 <1>   0.0800 
 30 H       -0.7550    -0.6040     3.3310 H     1 <1>   0.0800 
 31 H       -4.4080    -3.9510    -2.8300 H     1 <1>   0.0800 
 32 H       -6.0020    -3.5780    -2.2290 H     1 <1>   0.0800 
 33 H       -4.6530    -6.2610    -2.1110 H     1 <1>   0.3700 
 34 H       -7.8090    -7.9160    -2.0010 H     1 <1>   0.0800 
 35 H       -5.9890    -7.3050     0.3320 H     1 <1>   0.0800 
 36 H       -6.8140   -10.0620    -2.7500 H     1 <1>   0.0800 
 37 H       -5.0840   -10.2020    -2.5450 H     1 <1>   0.0800 
 38 H       -6.7360    -9.6130     1.1800 H     1 <1>   0.3700 
 39 H       -7.2370    -5.6410     1.4240 H     1 <1>   0.1500 
 40 H       -9.2590    -9.1250    -0.0190 H     1 <1>   0.1500 
 41 H       -9.2810    -4.9320     2.5490 H     1 <1>   0.1500 
 42 H      -11.2990    -8.3960     1.1140 H     1 <1>   0.1500 
 43 H      -11.3190    -6.3010     2.4020 H     1 <1>   0.1500 
@<TRIPOS>BOND
  1   1   2  1   
  2   1   3  1   
  3   2   4  1   
  4   2  26  1   
  5   2  27  1   
  6   3  28  1   
  7   3  29  1   
  8   3  30  1   
  9   4   5  2   
 10   4   6  1   
 11   5   7  1   
 12   6   8  2   
 13   7   8  1   
 14   8   9  1   
 15   9  10  1   
 16   9  31  1   
 17   9  32  1   
 18  10  11  am  
 19  10  33  1   
 20  11  12  2   
 21  11  13  1   
 22  13  14  1   
 23  13  15  1   
 24  13  34  1   
 25  14  16  1   
 26  15  17  1   
 27  15  18  1   
 28  15  35  1   
 29  16  19  1   
 30  16  36  1   
 31  16  37  1   
 32  17  19  am  
 33  17  38  1   
 34  18  20  ar  
 35  18  21  ar  
 36  19  22  2   
 37  20  23  ar  
 38  20  39  1   
 39  21  24  ar  
 40  21  40  1   
 41  23  25  ar  
 42  23  41  1   
 43  24  25  ar  
 44  24  42  1   
 45  25  43  1   
@<TRIPOS>SUBSTRUCTURE
  1 ****  11 GROUP 4 **** **** 0

# MOE 2024.06 (io_trps.svl 2023.06)
