@<TRIPOS>MOLECULE
NONAME
37 39 1 0 0 
SMALL
USER_CHARGES


@<TRIPOS>ATOM
  1 O        0.3880     0.4890     0.9570 O.3   1 <1>  -0.0190 
  2 N        1.2530    -0.4730     0.8080 N.2   1 <1>  -0.4100 
  3 C        0.7530     1.5770     0.3320 C.2   1 <1>  -0.0400 
  4 C        2.1910     0.0030     0.0710 C.2   1 <1>   0.1080 
  5 C        1.9260     1.3250    -0.2720 C.2   1 <1>  -0.1500 
  6 C       -0.1490     2.7980     0.4070 C.3   1 <1>   0.0200 
  7 C        3.4130    -0.7780    -0.3580 C.3   1 <1>  -0.0590 
  8 C        0.4900     4.0570    -0.2090 C.3   1 <1>  -0.0800 
  9 C       -0.4270     5.2790    -0.2840 C.3   1 <1>   0.2000 
 10 C        1.7220     4.5600     0.5530 C.3   1 <1>   0.2090 
 11 O       -1.0850     5.4350     0.9270 O.3   1 <1>  -0.6800 
 12 C        0.5510     6.4430    -0.4410 C.3   1 <1>   0.2090 
 13 N        1.7380     6.0400     0.3610 N.pl3 1 <1>  -0.8380 
 14 C        2.9210     6.7630     0.3570 C.ar  1 <1>   0.4100 
 15 N        4.0350     6.1110     0.6470 N.ar  1 <1>  -0.6200 
 16 C        2.9560     8.1100     0.0770 C.ar  1 <1>  -0.1500 
 17 C        5.1410     6.8280     0.6340 C.ar  1 <1>   0.4700 
 18 C        4.1720     8.7440     0.0950 C.ar  1 <1>   0.4100 
 19 N        5.2860     8.1120     0.3730 N.ar  1 <1>  -0.6200 
 20 N        4.3150    10.0670    -0.1610 N.pl3 1 <1>  -0.9000 
 21 H        2.5470     1.9530    -0.8820 H     1 <1>   0.1500 
 22 H       -1.0670     2.5750    -0.1070 H     1 <1>   0.0800 
 23 H       -0.3920     2.9770     1.4400 H     1 <1>   0.0800 
 24 H        4.3030    -0.2670    -0.0410 H     1 <1>   0.0800 
 25 H        3.4220    -0.8810    -1.4270 H     1 <1>   0.0800 
 26 H        3.3960    -1.7580     0.0850 H     1 <1>   0.0800 
 27 H        0.8010     3.8260    -1.2120 H     1 <1>   0.0800 
 28 H       -1.1580     5.2250    -1.0710 H     1 <1>   0.0800 
 29 H        2.6190     4.1020     0.1730 H     1 <1>   0.0800 
 30 H        1.6390     4.3480     1.6060 H     1 <1>   0.0800 
 31 H       -0.4160     5.6830     1.6010 H     1 <1>   0.4000 
 32 H        0.1220     7.3640    -0.0860 H     1 <1>   0.0800 
 33 H        0.8390     6.5470    -1.4730 H     1 <1>   0.0800 
 34 H        2.0690     8.6600    -0.1480 H     1 <1>   0.1500 
 35 H        6.0460     6.2940     0.8680 H     1 <1>   0.1500 
 36 H        5.2620    10.4110     0.0080 H     1 <1>   0.4000 
 37 H        3.5880    10.7040     0.1620 H     1 <1>   0.4000 
@<TRIPOS>BOND
  1   1   2  1   
  2   1   3  1   
  3   2   4  2   
  4   3   5  2   
  5   3   6  1   
  6   4   5  1   
  7   4   7  1   
  8   5  21  1   
  9   6   8  1   
 10   6  22  1   
 11   6  23  1   
 12   7  24  1   
 13   7  25  1   
 14   7  26  1   
 15   8   9  1   
 16   8  10  1   
 17   8  27  1   
 18   9  11  1   
 19   9  12  1   
 20   9  28  1   
 21  10  13  1   
 22  10  29  1   
 23  10  30  1   
 24  11  31  1   
 25  12  13  1   
 26  12  32  1   
 27  12  33  1   
 28  13  14  1   
 29  14  15  ar  
 30  14  16  ar  
 31  15  17  ar  
 32  16  18  ar  
 33  16  34  1   
 34  17  19  ar  
 35  17  35  1   
 36  18  19  ar  
 37  18  20  1   
 38  20  36  1   
 39  20  37  1   
@<TRIPOS>SUBSTRUCTURE
  1 ****  10 GROUP 4 **** **** 0

# MOE 2024.06 (io_trps.svl 2023.06)
