@<TRIPOS>MOLECULE
NONAME
45 47 1 0 0 
SMALL
USER_CHARGES


@<TRIPOS>ATOM
  1 O       -0.9410     1.1780     2.3510 O.3   1 <1>  -0.5600 
  2 C        0.1030     1.1880     1.4240 C.3   1 <1>   0.1200 
  3 C       -2.1380     1.5890     1.7540 C.3   1 <1>   0.1200 
  4 C       -0.3090     2.1860     0.3470 C.3   1 <1>   0.2890 
  5 C       -1.8140     1.9780     0.3050 C.3   1 <1>  -0.0800 
  6 N       -0.0260     3.5610     0.8320 N.pl3 1 <1>  -0.8690 
  7 C       -2.2090     0.8740    -0.6960 C.3   1 <1>  -0.0170 
  8 C        0.5840     4.5650     0.1880 C.ar  1 <1>   0.4100 
  9 C       -3.7140     0.6530    -0.7230 C.ar  1 <1>  -0.1430 
 10 N        0.9770     4.3290    -1.0680 N.ar  1 <1>  -0.6200 
 11 C        0.8090     5.8100     0.8070 C.ar  1 <1>  -0.1430 
 12 C       -4.5730     1.5570    -1.3150 C.ar  1 <1>  -0.1500 
 13 C       -4.3000    -0.4630    -0.1600 C.ar  1 <1>  -0.1500 
 14 C        1.5890     5.2770    -1.7040 C.ar  1 <1>   0.5280 
 15 C        1.4740     6.7770     0.0970 C.ar  1 <1>   0.2180 
 16 C        0.2980     6.0250     2.2380 C.3   1 <1>  -0.0970 
 17 C       -5.9360     1.3120    -1.3090 C.ar  1 <1>   0.1600 
 18 C       -5.6760    -0.6130    -0.2080 C.ar  1 <1>   0.1600 
 19 N        1.8490     6.4830    -1.1650 N.ar  1 <1>  -0.1790 
 20 C        2.0370     5.0140    -3.1280 C.3   1 <1>  -0.0970 
 21 C        1.8230     8.1640     0.6230 C.3   1 <1>  -0.0970 
 22 N       -6.5090     0.2490    -0.7680 N.ar  1 <1>  -0.6200 
 23 H        1.0200     1.4620     1.9130 H     1 <1>   0.0800 
 24 H        0.1890     0.1970     1.0160 H     1 <1>   0.0800 
 25 H       -2.8530     0.7890     1.8280 H     1 <1>   0.0800 
 26 H       -2.5000     2.4390     2.3070 H     1 <1>   0.0800 
 27 H        0.1770     1.9920    -0.5940 H     1 <1>   0.0800 
 28 H       -2.3210     2.8870     0.0310 H     1 <1>   0.0800 
 29 H       -0.3150     3.6700     1.8090 H     1 <1>   0.4000 
 30 H       -1.7160    -0.0490    -0.4460 H     1 <1>   0.0800 
 31 H       -1.8860     1.1550    -1.6840 H     1 <1>   0.0800 
 32 H       -4.1970     2.4500    -1.7800 H     1 <1>   0.1500 
 33 H       -3.7030    -1.2180     0.3190 H     1 <1>   0.1500 
 34 H        0.3340     7.0530     2.5450 H     1 <1>   0.0800 
 35 H        0.8840     5.4430     2.9280 H     1 <1>   0.0800 
 36 H       -0.7290     5.7110     2.3140 H     1 <1>   0.0800 
 37 H       -6.5900     2.0300    -1.7740 H     1 <1>   0.1500 
 38 H       -6.1150    -1.4890     0.2380 H     1 <1>   0.1500 
 39 H        2.3390     7.1760    -1.7300 H     1 <1>   0.4570 
 40 H        1.7650     4.0140    -3.4210 H     1 <1>   0.0800 
 41 H        3.1050     5.1060    -3.2080 H     1 <1>   0.0800 
 42 H        1.5640     5.7020    -3.8040 H     1 <1>   0.0800 
 43 H        2.0990     8.1200     1.6620 H     1 <1>   0.0800 
 44 H        0.9780     8.8220     0.5190 H     1 <1>   0.0800 
 45 H        2.6570     8.5870     0.0920 H     1 <1>   0.0800 
@<TRIPOS>BOND
  1   1   2  1   
  2   1   3  1   
  3   2   4  1   
  4   2  23  1   
  5   2  24  1   
  6   3   5  1   
  7   3  25  1   
  8   3  26  1   
  9   4   5  1   
 10   4   6  1   
 11   4  27  1   
 12   5   7  1   
 13   5  28  1   
 14   6   8  1   
 15   6  29  1   
 16   7   9  1   
 17   7  30  1   
 18   7  31  1   
 19   8  10  ar  
 20   8  11  ar  
 21   9  12  ar  
 22   9  13  ar  
 23  10  14  ar  
 24  11  15  ar  
 25  11  16  1   
 26  12  17  ar  
 27  12  32  1   
 28  13  18  ar  
 29  13  33  1   
 30  14  19  ar  
 31  14  20  1   
 32  15  19  ar  
 33  15  21  1   
 34  16  34  1   
 35  16  35  1   
 36  16  36  1   
 37  17  22  ar  
 38  17  37  1   
 39  18  22  ar  
 40  18  38  1   
 41  19  39  1   
 42  20  40  1   
 43  20  41  1   
 44  20  42  1   
 45  21  43  1   
 46  21  44  1   
 47  21  45  1   
@<TRIPOS>SUBSTRUCTURE
  1 ****   5 GROUP 4 **** **** 0

# MOE 2024.06 (io_trps.svl 2023.06)
