@<TRIPOS>MOLECULE
NONAME
53 55 1 0 0 
SMALL
USER_CHARGES


@<TRIPOS>ATOM
  1 CL      -0.7540    -1.1510     0.8900 Cl    1 <1>  -0.1770 
  2 C        0.8800    -1.5390     0.3940 C.ar  1 <1>   0.1770 
  3 C        1.1260    -2.6730    -0.3730 C.ar  1 <1>  -0.1440 
  4 C        1.8970    -0.6860     0.7810 C.ar  1 <1>  -0.1500 
  5 C        2.4350    -2.9500    -0.7470 C.ar  1 <1>  -0.1500 
  6 C       -0.0040    -3.6090    -0.7970 C.3   1 <1>   0.0450 
  7 C        3.1950    -0.9650     0.3950 C.ar  1 <1>   0.0830 
  8 C        3.4650    -2.1070    -0.3640 C.ar  1 <1>   0.0830 
  9 C       -0.4830    -4.5510     0.3090 C.2   1 <1>   0.5690 
 10 O        4.1860    -0.1140     0.7630 O.3   1 <1>  -0.3630 
 11 O        4.7320    -2.4170    -0.7350 O.3   1 <1>  -0.3630 
 12 O        0.1200    -4.5800     1.3530 O.2   1 <1>  -0.5700 
 13 N       -1.5820    -5.3580     0.1430 N.am  1 <1>  -0.6600 
 14 C        5.4340    -0.2610     0.1110 C.3   1 <1>   0.1200 
 15 C        5.7770    -1.7480    -0.0550 C.3   1 <1>   0.1200 
 16 C       -1.7210    -6.5140     1.1050 C.3   1 <1>   0.3210 
 17 C       -2.5990    -5.2190    -0.9630 C.3   1 <1>   0.1400 
 18 C       -2.8150    -7.5220     0.7540 C.2   1 <1>   0.0460 
 19 C       -3.9630    -4.7040    -0.4500 C.3   1 <1>   0.3430 
 20 N       -4.0960    -7.3280     1.1390 N.2   1 <1>  -0.5650 
 21 C       -2.6880    -8.6900     0.0800 C.2   1 <1>  -0.3320 
 22 N       -3.8010    -3.8510     0.7710 N.4   1 <1>  -0.9590 
 23 C       -4.7110    -8.3830     0.7120 C.2   1 <1>   0.0360 
 24 N       -3.9120    -9.2500     0.0570 N.pl3 1 <1>   0.0330 
 25 C       -1.4740    -9.3540    -0.5490 C.3   1 <1>  -0.0600 
 26 C       -4.8550    -4.1620     1.7820 C.3   1 <1>   0.2630 
 27 C       -3.7300    -2.3930     0.4680 C.3   1 <1>   0.2630 
 28 H        1.6870     0.1860     1.3720 H     1 <1>   0.1500 
 29 H        2.6760    -3.8200    -1.3300 H     1 <1>   0.1500 
 30 H        0.3260    -4.2110    -1.6230 H     1 <1>   0.0800 
 31 H       -0.8230    -3.0090    -1.1400 H     1 <1>   0.0800 
 32 H        6.1780     0.2390     0.7040 H     1 <1>   0.0800 
 33 H        5.3670     0.2170    -0.8500 H     1 <1>   0.0800 
 34 H        6.6780    -1.8710    -0.6280 H     1 <1>   0.0800 
 35 H        5.9030    -2.2130     0.9070 H     1 <1>   0.0800 
 36 H       -1.9130    -6.1320     2.0930 H     1 <1>   0.0800 
 37 H       -0.7800    -7.0350     1.1500 H     1 <1>   0.0800 
 38 H       -2.7400    -6.1670    -1.4530 H     1 <1>   0.0800 
 39 H       -2.2470    -4.5420    -1.7180 H     1 <1>   0.0800 
 40 H       -4.5740    -5.5570    -0.2120 H     1 <1>   0.0800 
 41 H       -4.4730    -4.1620    -1.2290 H     1 <1>   0.0800 
 42 H       -2.8920    -4.1550     1.1720 H     1 <1>   0.4500 
 43 H       -5.7600    -8.5790     0.8570 H     1 <1>   0.1500 
 44 H       -4.1810   -10.1510    -0.3510 H     1 <1>   0.2700 
 45 H       -0.6040    -8.7300    -0.4570 H     1 <1>   0.0800 
 46 H       -1.6500    -9.5390    -1.5940 H     1 <1>   0.0800 
 47 H       -1.2710   -10.2920    -0.0610 H     1 <1>   0.0800 
 48 H       -5.8310    -3.9150     1.3970 H     1 <1>   0.0800 
 49 H       -4.6850    -3.6000     2.6850 H     1 <1>   0.0800 
 50 H       -4.8380    -5.2120     2.0270 H     1 <1>   0.0800 
 51 H       -4.6670    -2.0470     0.0640 H     1 <1>   0.0800 
 52 H       -2.9490    -2.1970    -0.2470 H     1 <1>   0.0800 
 53 H       -3.5130    -1.8370     1.3670 H     1 <1>   0.0800 
@<TRIPOS>BOND
  1   1   2  1   
  2   2   3  ar  
  3   2   4  ar  
  4   3   5  ar  
  5   3   6  1   
  6   4   7  ar  
  7   4  28  1   
  8   5   8  ar  
  9   5  29  1   
 10   6   9  1   
 11   6  30  1   
 12   6  31  1   
 13   7   8  ar  
 14   7  10  1   
 15   8  11  1   
 16   9  12  2   
 17   9  13  am  
 18  10  14  1   
 19  11  15  1   
 20  13  16  1   
 21  13  17  1   
 22  14  15  1   
 23  14  32  1   
 24  14  33  1   
 25  15  34  1   
 26  15  35  1   
 27  16  18  1   
 28  16  36  1   
 29  16  37  1   
 30  17  19  1   
 31  17  38  1   
 32  17  39  1   
 33  18  20  1   
 34  18  21  2   
 35  19  22  1   
 36  19  40  1   
 37  19  41  1   
 38  20  23  2   
 39  21  24  1   
 40  21  25  1   
 41  22  26  1   
 42  22  27  1   
 43  22  42  1   
 44  23  24  1   
 45  23  43  1   
 46  24  44  1   
 47  25  45  1   
 48  25  46  1   
 49  25  47  1   
 50  26  48  1   
 51  26  49  1   
 52  26  50  1   
 53  27  51  1   
 54  27  52  1   
 55  27  53  1   
@<TRIPOS>SUBSTRUCTURE
  1 ****   9 GROUP 4 **** **** 0

# MOE 2024.06 (io_trps.svl 2023.06)
