@<TRIPOS>MOLECULE
C5H10O5
20 20 1 0 0 
SMALL
USER_CHARGES


@<TRIPOS>ATOM
  1 O        0.2550     0.0700     0.0430 O.3   1 <1>  -0.5600 
  2 C        1.4310    -0.5770     0.3910 C.3   1 <1>   0.4800 
  3 C        0.2140     1.4240     0.3900 C.3   1 <1>   0.1200 
  4 O        1.1770    -1.8840     0.0820 O.3   1 <1>  -0.6800 
  5 C        2.6210     0.0100    -0.4100 C.3   1 <1>   0.2000 
  6 C        1.3130     2.1980    -0.3580 C.3   1 <1>   0.2000 
  7 O        3.8440    -0.5530    -0.0340 O.3   1 <1>  -0.6800 
  8 C        2.7000     1.5360    -0.2080 C.3   1 <1>   0.2000 
  9 O        1.3680     3.4880     0.1500 O.3   1 <1>  -0.6800 
 10 O        3.2510     1.8370     1.0530 O.3   1 <1>  -0.6800 
 11 H        1.5860    -0.4960     1.4540 H     1 <1>   0.0800 
 12 H       -0.7540     1.8030     0.1120 H     1 <1>   0.0800 
 13 H        0.3330     1.5070     1.4560 H     1 <1>   0.0800 
 14 H        0.6730    -1.8880    -0.7500 H     1 <1>   0.4000 
 15 H        2.4700    -0.2120    -1.4510 H     1 <1>   0.0800 
 16 H        1.0440     2.2670    -1.3980 H     1 <1>   0.0800 
 17 H        4.2430     0.0050     0.6690 H     1 <1>   0.4000 
 18 H        3.3620     1.9440    -0.9520 H     1 <1>   0.0800 
 19 H        2.2180     3.5980     0.6300 H     1 <1>   0.4000 
 20 H        2.6280     1.6160     1.7750 H     1 <1>   0.4000 
@<TRIPOS>BOND
  1   1   2  1   
  2   1   3  1   
  3   2   4  1   
  4   2   5  1   
  5   2  11  1   
  6   3   6  1   
  7   3  12  1   
  8   3  13  1   
  9   4  14  1   
 10   5   7  1   
 11   5   8  1   
 12   5  15  1   
 13   6   8  1   
 14   6   9  1   
 15   6  16  1   
 16   7  17  1   
 17   8  10  1   
 18   8  18  1   
 19   9  19  1   
 20  10  20  1   
@<TRIPOS>SUBSTRUCTURE
  1 ****   5 GROUP 4 **** **** 0

# MOE 2024.06 (io_trps.svl 2023.06)
