@<TRIPOS>MOLECULE
NONAME
43 44 1 0 0 
SMALL
USER_CHARGES


@<TRIPOS>ATOM
  1 F       -1.5980    -3.4890     0.7710 F     1 <1>  -0.3400 
  2 C       -2.0390    -2.9170     1.8870 C.3   1 <1>   0.9600 
  3 F       -2.1600    -3.9260     2.7440 F     1 <1>  -0.3400 
  4 O       -3.3650    -2.4500     1.6490 O.3   1 <1>  -0.3630 
  5 C       -0.9970    -1.8960     2.4370 C.3   1 <1>   0.6000 
  6 C       -3.5910    -1.3940     0.8370 C.ar  1 <1>   0.0830 
  7 F       -1.4450    -1.2460     3.5150 F     1 <1>  -0.3400 
  8 F       -0.7000    -0.9290     1.5660 F     1 <1>  -0.3400 
  9 C       -3.7560    -1.5540    -0.5460 C.ar  1 <1>   0.0860 
 10 C       -3.7010    -0.1410     1.4250 C.ar  1 <1>  -0.1500 
 11 C       -3.7230    -2.8440    -1.2000 C.2   1 <1>   0.5440 
 12 C       -3.9680    -0.4050    -1.3070 C.ar  1 <1>  -0.1500 
 13 C       -3.9280     0.9780     0.6470 C.ar  1 <1>  -0.1500 
 14 O       -2.8930    -3.0420    -2.0670 O.2   1 <1>  -0.5700 
 15 N       -4.6340    -3.8360    -0.9090 N.am  1 <1>  -0.6600 
 16 C       -4.0540     0.8460    -0.7240 C.ar  1 <1>  -0.1500 
 17 C       -4.3750    -5.2370    -1.3470 C.3   1 <1>   0.3200 
 18 C       -6.0340    -3.5120    -0.5050 C.3   1 <1>   0.1400 
 19 C       -4.4690    -6.1930    -0.1730 C.2   1 <1>  -0.3320 
 20 C       -6.2680    -3.6590     1.0050 C.3   1 <1>   0.1200 
 21 N       -5.5520    -6.9130     0.1950 N.pl3 1 <1>   0.0480 
 22 C       -3.4890    -6.5050     0.7030 C.2   1 <1>   0.0770 
 23 O       -7.6370    -3.7030     1.2410 O.3   1 <1>  -0.6800 
 24 C       -5.1440    -7.6090     1.2800 C.2   1 <1>   0.0360 
 25 C       -6.9000    -6.9510    -0.3990 C.3   1 <1>   0.0160 
 26 N       -3.9140    -7.3970     1.6160 N.2   1 <1>  -0.5650 
 27 H       -0.0780    -2.3800     2.7070 H     1 <1>   0.0800 
 28 H       -3.6050    -0.0380     2.4920 H     1 <1>   0.1500 
 29 H       -4.0640    -0.5030    -2.3750 H     1 <1>   0.1500 
 30 H       -4.0020     1.9500     1.1050 H     1 <1>   0.1500 
 31 H       -4.2190     1.7180    -1.3350 H     1 <1>   0.1500 
 32 H       -3.3820    -5.3190    -1.7570 H     1 <1>   0.0800 
 33 H       -5.0650    -5.5110    -2.1250 H     1 <1>   0.0800 
 34 H       -6.7030    -4.1700    -1.0310 H     1 <1>   0.0800 
 35 H       -6.2680    -2.5040    -0.7980 H     1 <1>   0.0800 
 36 H       -5.8590    -2.8280     1.5500 H     1 <1>   0.0800 
 37 H       -5.8420    -4.5710     1.3810 H     1 <1>   0.0800 
 38 H       -2.4810    -6.1240     0.7240 H     1 <1>   0.1500 
 39 H       -8.0180    -2.8020     1.2350 H     1 <1>   0.4000 
 40 H       -5.8020    -8.2770     1.8070 H     1 <1>   0.1500 
 41 H       -6.8380    -6.7900    -1.4590 H     1 <1>   0.0800 
 42 H       -7.5080    -6.1870     0.0500 H     1 <1>   0.0800 
 43 H       -7.3450    -7.9120    -0.2130 H     1 <1>   0.0800 
@<TRIPOS>BOND
  1   1   2  1   
  2   2   3  1   
  3   2   4  1   
  4   2   5  1   
  5   4   6  1   
  6   5   7  1   
  7   5   8  1   
  8   5  27  1   
  9   6   9  ar  
 10   6  10  ar  
 11   9  11  1   
 12   9  12  ar  
 13  10  13  ar  
 14  10  28  1   
 15  11  14  2   
 16  11  15  am  
 17  12  16  ar  
 18  12  29  1   
 19  13  16  ar  
 20  13  30  1   
 21  15  17  1   
 22  15  18  1   
 23  16  31  1   
 24  17  19  1   
 25  17  32  1   
 26  17  33  1   
 27  18  20  1   
 28  18  34  1   
 29  18  35  1   
 30  19  21  1   
 31  19  22  2   
 32  20  23  1   
 33  20  36  1   
 34  20  37  1   
 35  21  24  1   
 36  21  25  1   
 37  22  26  1   
 38  22  38  1   
 39  23  39  1   
 40  24  26  2   
 41  24  40  1   
 42  25  41  1   
 43  25  42  1   
 44  25  43  1   
@<TRIPOS>SUBSTRUCTURE
  1 ****   4 GROUP 4 **** **** 0

# MOE 2024.06 (io_trps.svl 2023.06)
