@<TRIPOS>MOLECULE
NONAME
46 47 1 0 0 
SMALL
USER_CHARGES


@<TRIPOS>ATOM
  1 CL      -1.1260     2.2380     3.7630 Cl    1 <1>  -0.1770 
  2 C       -0.2650     3.1310     2.5400 C.ar  1 <1>   0.1770 
  3 C       -0.9130     3.4880     1.3770 C.ar  1 <1>  -0.1500 
  4 C        1.0570     3.4680     2.7530 C.ar  1 <1>  -0.1500 
  5 C       -0.2300     4.2030     0.3960 C.ar  1 <1>   0.0830 
  6 C        1.7330     4.1810     1.7820 C.ar  1 <1>  -0.1500 
  7 O       -0.8300     4.5500    -0.7700 O.3   1 <1>  -0.3630 
  8 C        1.1120     4.5750     0.5910 C.ar  1 <1>   0.0860 
  9 C       -2.1220     4.1060    -1.1280 C.3   1 <1>   0.0400 
 10 C        1.8740     5.3360    -0.3830 C.2   1 <1>   0.5440 
 11 O        3.0580     5.1060    -0.5630 O.2   1 <1>  -0.5700 
 12 N        1.3690     6.4230    -1.0580 N.am  1 <1>  -0.6600 
 13 C        1.8210     6.7470    -2.4480 C.3   1 <1>   0.1400 
 14 C        0.6690     7.5100    -0.3370 C.3   1 <1>   0.1400 
 15 C        3.2040     7.4340    -2.4840 C.3   1 <1>   0.3430 
 16 C        1.7000     8.4180     0.3500 C.3   1 <1>  -0.1600 
 17 N        3.6350     7.8910    -1.1280 N.4   1 <1>  -0.9590 
 18 C        2.7890     8.9860    -0.5690 C.3   1 <1>   0.3430 
 19 C        5.0840     8.1630    -1.0540 C.3   1 <1>   0.4810 
 20 C        5.4540     8.2890     0.4050 C.2   1 <1>  -0.2880 
 21 C        5.8840     9.4060     1.0010 C.2   1 <1>  -0.2880 
 22 C        6.2530     9.5060     2.4700 C.3   1 <1>  -0.1020 
 23 H       -1.9390     3.1950     1.2650 H     1 <1>   0.1500 
 24 H        1.5430     3.1700     3.6660 H     1 <1>   0.1500 
 25 H        2.7670     4.4360     1.9430 H     1 <1>   0.1500 
 26 H       -2.3380     4.4680    -2.1170 H     1 <1>   0.0800 
 27 H       -2.8370     4.5050    -0.4300 H     1 <1>   0.0800 
 28 H       -2.1370     3.0300    -1.1240 H     1 <1>   0.0800 
 29 H        1.8730     5.8350    -3.0190 H     1 <1>   0.0800 
 30 H        1.0920     7.3770    -2.9270 H     1 <1>   0.0800 
 31 H        0.0680     8.0760    -1.0280 H     1 <1>   0.0800 
 32 H        0.0060     7.0890     0.4000 H     1 <1>   0.0800 
 33 H        3.1880     8.2580    -3.1770 H     1 <1>   0.0800 
 34 H        3.9140     6.7100    -2.8500 H     1 <1>   0.0800 
 35 H        2.1620     7.8870     1.1630 H     1 <1>   0.0800 
 36 H        1.1690     9.2450     0.7870 H     1 <1>   0.0800 
 37 H        3.4620     7.0480    -0.5440 H     1 <1>   0.4500 
 38 H        3.4040     9.6570     0.0100 H     1 <1>   0.0800 
 39 H        2.3410     9.5530    -1.3680 H     1 <1>   0.0800 
 40 H        5.6410     7.3520    -1.4980 H     1 <1>   0.0800 
 41 H        5.3190     9.0750    -1.5780 H     1 <1>   0.0800 
 42 H        5.3370     7.3590     0.9360 H     1 <1>   0.1500 
 43 H        6.0140    10.3450     0.4840 H     1 <1>   0.1500 
 44 H        5.6380    10.2400     2.9590 H     1 <1>   0.0800 
 45 H        7.2840     9.8000     2.5710 H     1 <1>   0.0800 
 46 H        6.1190     8.5600     2.9650 H     1 <1>   0.0800 
@<TRIPOS>BOND
  1   1   2  1   
  2   2   3  ar  
  3   2   4  ar  
  4   3   5  ar  
  5   3  23  1   
  6   4   6  ar  
  7   4  24  1   
  8   5   7  1   
  9   5   8  ar  
 10   6   8  ar  
 11   6  25  1   
 12   7   9  1   
 13   8  10  1   
 14   9  26  1   
 15   9  27  1   
 16   9  28  1   
 17  10  11  2   
 18  10  12  am  
 19  12  13  1   
 20  12  14  1   
 21  13  15  1   
 22  13  29  1   
 23  13  30  1   
 24  14  16  1   
 25  14  31  1   
 26  14  32  1   
 27  15  17  1   
 28  15  33  1   
 29  15  34  1   
 30  16  18  1   
 31  16  35  1   
 32  16  36  1   
 33  17  18  1   
 34  17  19  1   
 35  17  37  1   
 36  18  38  1   
 37  18  39  1   
 38  19  20  1   
 39  19  40  1   
 40  19  41  1   
 41  20  21  2   
 42  20  42  1   
 43  21  22  1   
 44  21  43  1   
 45  22  44  1   
 46  22  45  1   
 47  22  46  1   
@<TRIPOS>SUBSTRUCTURE
  1 ****  10 GROUP 4 **** **** 0

# MOE 2024.06 (io_trps.svl 2023.06)
