@<TRIPOS>MOLECULE
NONAME
51 53 1 0 0 
SMALL
USER_CHARGES


@<TRIPOS>ATOM
  1 S        1.4810    -0.2810    -1.6080 S.o2  1 <1>   1.3330 
  2 O        2.3970     0.6240    -2.2620 O.2   1 <1>  -0.6500 
  3 O        0.7240    -1.2230    -2.3940 O.2   1 <1>  -0.6500 
  4 N        2.4000    -1.1650    -0.4370 N.am  1 <1>  -0.6930 
  5 C        0.3570     0.6570    -0.5960 C.3   1 <1>  -0.1350 
  6 C        1.8640    -2.2380     0.2720 C.ar  1 <1>   0.1990 
  7 C        3.7120    -0.5790    -0.0220 C.3   1 <1>   0.2570 
  8 C        1.4760    -3.3990    -0.3870 C.ar  1 <1>  -0.1500 
  9 C        1.7090    -2.1790     1.6530 C.ar  1 <1>  -0.1500 
 10 C        3.6230     0.8240     0.6020 C.2   1 <1>   0.5690 
 11 C        0.9460    -4.4750     0.3040 C.ar  1 <1>  -0.1440 
 12 C        1.1850    -3.2500     2.3530 C.ar  1 <1>  -0.1500 
 13 O        2.9000     0.9760     1.5610 O.2   1 <1>  -0.5700 
 14 N        4.3450     1.8760     0.1020 N.am  1 <1>  -0.6600 
 15 C        0.8050    -4.3970     1.6790 C.ar  1 <1>  -0.1500 
 16 C        0.5250    -5.7320    -0.4370 C.3   1 <1>  -0.0970 
 17 C        4.2310     3.2520     0.6490 C.3   1 <1>   0.1400 
 18 C        5.1930     1.8860    -1.1210 C.3   1 <1>   0.1400 
 19 C        4.7680     4.1400    -0.4710 C.3   1 <1>  -0.0800 
 20 C        5.8510     3.2670    -1.1140 C.3   1 <1>  -0.0800 
 21 C        5.2290     5.5390    -0.0260 C.3   1 <1>  -0.0220 
 22 C        7.1610     3.2190    -0.2950 C.3   1 <1>  -0.0220 
 23 C        6.6630     5.5720     0.4790 C.2   1 <1>  -0.2760 
 24 C        7.5060     4.5450     0.3540 C.2   1 <1>  -0.2880 
 25 C        7.0560     6.8870     1.1300 C.3   1 <1>  -0.1020 
 26 H        0.8930     1.3350     0.0370 H     1 <1>   0.0800 
 27 H       -0.2230    -0.0030     0.0180 H     1 <1>   0.0800 
 28 H       -0.3080     1.2240    -1.2160 H     1 <1>   0.0800 
 29 H        4.1720    -1.2290     0.7000 H     1 <1>   0.0800 
 30 H        4.3520    -0.5570    -0.8830 H     1 <1>   0.0800 
 31 H        1.5940    -3.4500    -1.4540 H     1 <1>   0.1500 
 32 H        1.9940    -1.2900     2.1850 H     1 <1>   0.1500 
 33 H        1.0710    -3.1910     3.4220 H     1 <1>   0.1500 
 34 H        0.3970    -5.2280     2.2290 H     1 <1>   0.1500 
 35 H       -0.3850    -6.1220    -0.0200 H     1 <1>   0.0800 
 36 H        1.2950    -6.4780    -0.3550 H     1 <1>   0.0800 
 37 H        0.3570    -5.5190    -1.4770 H     1 <1>   0.0800 
 38 H        3.2090     3.4900     0.8920 H     1 <1>   0.0800 
 39 H        4.8440     3.3360     1.5300 H     1 <1>   0.0800 
 40 H        5.9210     1.0940    -1.1070 H     1 <1>   0.0800 
 41 H        4.5660     1.7870    -1.9910 H     1 <1>   0.0800 
 42 H        3.9650     4.2690    -1.1770 H     1 <1>   0.0800 
 43 H        6.0660     3.6060    -2.1120 H     1 <1>   0.0800 
 44 H        4.5620     5.9040     0.7350 H     1 <1>   0.0800 
 45 H        5.1610     6.2070    -0.8660 H     1 <1>   0.0800 
 46 H        7.0880     2.4870     0.4920 H     1 <1>   0.0800 
 47 H        7.9650     2.9200    -0.9440 H     1 <1>   0.0800 
 48 H        8.5180     4.5750     0.7230 H     1 <1>   0.1500 
 49 H        6.4330     7.0780     1.9850 H     1 <1>   0.0800 
 50 H        6.9440     7.6950     0.4290 H     1 <1>   0.0800 
 51 H        8.0800     6.8570     1.4550 H     1 <1>   0.0800 
@<TRIPOS>BOND
  1   1   2  2   
  2   1   3  2   
  3   1   4  am  
  4   1   5  1   
  5   4   6  1   
  6   4   7  1   
  7   5  26  1   
  8   5  27  1   
  9   5  28  1   
 10   6   8  ar  
 11   6   9  ar  
 12   7  10  1   
 13   7  29  1   
 14   7  30  1   
 15   8  11  ar  
 16   8  31  1   
 17   9  12  ar  
 18   9  32  1   
 19  10  13  2   
 20  10  14  am  
 21  11  15  ar  
 22  11  16  1   
 23  12  15  ar  
 24  12  33  1   
 25  14  17  1   
 26  14  18  1   
 27  15  34  1   
 28  16  35  1   
 29  16  36  1   
 30  16  37  1   
 31  17  19  1   
 32  17  38  1   
 33  17  39  1   
 34  18  20  1   
 35  18  40  1   
 36  18  41  1   
 37  19  20  1   
 38  19  21  1   
 39  19  42  1   
 40  20  22  1   
 41  20  43  1   
 42  21  23  1   
 43  21  44  1   
 44  21  45  1   
 45  22  24  1   
 46  22  46  1   
 47  22  47  1   
 48  23  24  2   
 49  23  25  1   
 50  24  48  1   
 51  25  49  1   
 52  25  50  1   
 53  25  51  1   
@<TRIPOS>SUBSTRUCTURE
  1 ****  10 GROUP 4 **** **** 0

# MOE 2024.06 (io_trps.svl 2023.06)
