@<TRIPOS>MOLECULE
NONAME
39 40 1 0 0 
SMALL
USER_CHARGES


@<TRIPOS>ATOM
  1 N       -0.8240    -0.4700    -1.2120 N.ar  1 <1>  -0.6200 
  2 C       -1.6560     0.4020    -0.6440 C.ar  1 <1>   0.1660 
  3 C        0.3470     0.0190    -1.5950 C.ar  1 <1>   0.1600 
  4 C       -1.3620     1.7470    -0.4330 C.ar  1 <1>  -0.1440 
  5 C       -3.0030    -0.1820    -0.2130 C.3   1 <1>   0.4870 
  6 C        0.7350     1.3350    -1.4300 C.ar  1 <1>  -0.1500 
  7 C       -0.1310     2.2250    -0.8360 C.ar  1 <1>  -0.1500 
  8 C       -2.3440     2.7140     0.2200 C.3   1 <1>  -0.0960 
  9 N       -2.7900    -1.5790     0.2800 N.4   1 <1>  -0.9590 
 10 C       -4.0150    -2.4200     0.0920 C.3   1 <1>   0.3430 
 11 C       -2.2490    -1.5800     1.6740 C.3   1 <1>   0.2630 
 12 C       -3.7400    -3.9200     0.2370 C.3   1 <1>   0.0960 
 13 N       -5.0010    -4.6530     0.0420 N.pl3 1 <1>   0.3140 
 14 N       -6.1910    -4.0500     0.2270 N.2   1 <1>  -0.7070 
 15 C       -5.1550    -5.9470    -0.3140 C.2   1 <1>  -0.3320 
 16 C       -7.0730    -4.9720    -0.0150 C.2   1 <1>   0.1390 
 17 C       -6.4830    -6.1810    -0.3590 C.2   1 <1>  -0.1500 
 18 C       -4.0270    -6.9270    -0.5970 C.3   1 <1>  -0.0600 
 19 H        1.0360    -0.6630    -2.0660 H     1 <1>   0.1500 
 20 H       -3.6480    -0.1940    -1.0750 H     1 <1>   0.0800 
 21 H       -3.4580     0.4250     0.5510 H     1 <1>   0.0800 
 22 H        1.7050     1.6580    -1.7660 H     1 <1>   0.1500 
 23 H        0.1550     3.2550    -0.7000 H     1 <1>   0.1500 
 24 H       -3.2730     2.7320    -0.3210 H     1 <1>   0.0800 
 25 H       -1.9480     3.7150     0.2220 H     1 <1>   0.0800 
 26 H       -2.5290     2.4320     1.2410 H     1 <1>   0.0800 
 27 H       -2.0270    -1.8920    -0.3550 H     1 <1>   0.4500 
 28 H       -4.4210    -2.2500    -0.8920 H     1 <1>   0.0800 
 29 H       -4.7640    -2.1320     0.8130 H     1 <1>   0.0800 
 30 H       -2.9840    -1.1970     2.3640 H     1 <1>   0.0800 
 31 H       -1.3660    -0.9630     1.7290 H     1 <1>   0.0800 
 32 H       -1.9820    -2.5800     1.9740 H     1 <1>   0.0800 
 33 H       -3.3750    -4.1520     1.2180 H     1 <1>   0.0800 
 34 H       -3.0380    -4.2450    -0.5070 H     1 <1>   0.0800 
 35 H       -8.1370    -4.8120     0.0460 H     1 <1>   0.1500 
 36 H       -7.0060    -7.0900    -0.6030 H     1 <1>   0.1500 
 37 H       -3.3950    -7.0330     0.2670 H     1 <1>   0.0800 
 38 H       -3.4360    -6.5910    -1.4300 H     1 <1>   0.0800 
 39 H       -4.4320    -7.8940    -0.8390 H     1 <1>   0.0800 
@<TRIPOS>BOND
  1   1   2  ar  
  2   1   3  ar  
  3   2   4  ar  
  4   2   5  1   
  5   3   6  ar  
  6   3  19  1   
  7   4   7  ar  
  8   4   8  1   
  9   5   9  1   
 10   5  20  1   
 11   5  21  1   
 12   6   7  ar  
 13   6  22  1   
 14   7  23  1   
 15   8  24  1   
 16   8  25  1   
 17   8  26  1   
 18   9  10  1   
 19   9  11  1   
 20   9  27  1   
 21  10  12  1   
 22  10  28  1   
 23  10  29  1   
 24  11  30  1   
 25  11  31  1   
 26  11  32  1   
 27  12  13  1   
 28  12  33  1   
 29  12  34  1   
 30  13  14  1   
 31  13  15  1   
 32  14  16  2   
 33  15  17  2   
 34  15  18  1   
 35  16  17  1   
 36  16  35  1   
 37  17  36  1   
 38  18  37  1   
 39  18  38  1   
 40  18  39  1   
@<TRIPOS>SUBSTRUCTURE
  1 ****   9 GROUP 4 **** **** 0

# MOE 2024.06 (io_trps.svl 2023.06)
