@<TRIPOS>MOLECULE
NONAME
40 41 1 0 0 
SMALL
USER_CHARGES


@<TRIPOS>ATOM
  1 S        0.6870     0.5750    -0.8160 S.3   1 <1>  -0.3320 
  2 C        0.2440     2.1420    -0.0510 C.ar  1 <1>   0.1020 
  3 C       -0.8200    -0.4940    -0.7560 C.3   1 <1>  -0.0100 
  4 C        1.2510     3.0810     0.0590 C.ar  1 <1>  -0.1500 
  5 C       -1.0360     2.4120     0.4050 C.ar  1 <1>  -0.1500 
  6 C        0.9830     4.3190     0.6250 C.ar  1 <1>  -0.1430 
  7 C       -1.3000     3.6430     0.9800 C.ar  1 <1>  -0.1500 
  8 C       -0.2960     4.5920     1.0900 C.ar  1 <1>  -0.1500 
  9 C        2.0760     5.3640     0.7260 C.3   1 <1>   0.4860 
 10 N        2.3320     5.8920    -0.6470 N.4   1 <1>  -0.9590 
 11 C        3.6460     6.6180    -0.7250 C.3   1 <1>   0.5230 
 12 C        1.1870     6.7510    -1.0940 C.3   1 <1>   0.2630 
 13 C        3.6970     7.9070     0.0970 C.2   1 <1>   0.0060 
 14 N        2.9040     8.2060     1.0690 N.2   1 <1>  -0.3380 
 15 N        4.5900     8.8830    -0.1040 N.pl3 1 <1>   0.0330 
 16 N        3.2650     9.4020     1.5220 N.2   1 <1>  -0.3380 
 17 C        4.2680     9.7910     0.8160 C.2   1 <1>   0.0060 
 18 C        4.9970    11.1110     1.0030 C.3   1 <1>   0.0200 
 19 C        4.8590    12.0120    -0.2280 C.3   1 <1>  -0.2400 
 20 H       -0.5610    -1.4430    -1.1880 H     1 <1>   0.0800 
 21 H       -1.5930    -0.0140    -1.3290 H     1 <1>   0.0800 
 22 H       -1.1050    -0.6100     0.2740 H     1 <1>   0.0800 
 23 H        2.2320     2.8200    -0.2980 H     1 <1>   0.1500 
 24 H       -1.8230     1.6870     0.3240 H     1 <1>   0.1500 
 25 H       -2.2900     3.8620     1.3440 H     1 <1>   0.1500 
 26 H       -0.5260     5.5420     1.5450 H     1 <1>   0.1500 
 27 H        2.9670     4.9090     1.1280 H     1 <1>   0.0800 
 28 H        1.7690     6.1560     1.3890 H     1 <1>   0.0800 
 29 H        2.3630     5.0660    -1.2570 H     1 <1>   0.4500 
 30 H        3.8460     6.8650    -1.7540 H     1 <1>   0.0800 
 31 H        4.4350     5.9660    -0.3860 H     1 <1>   0.0800 
 32 H        1.0700     7.5980    -0.4360 H     1 <1>   0.0800 
 33 H        0.2690     6.1840    -1.0840 H     1 <1>   0.0800 
 34 H        1.3540     7.1130    -2.0950 H     1 <1>   0.0800 
 35 H        5.3510     8.9620    -0.7840 H     1 <1>   0.2700 
 36 H        6.0360    10.9230     1.2080 H     1 <1>   0.0800 
 37 H        4.5830    11.6180     1.8590 H     1 <1>   0.0800 
 38 H        5.3110    11.5590    -1.0910 H     1 <1>   0.0800 
 39 H        5.3430    12.9560    -0.0450 H     1 <1>   0.0800 
 40 H        3.8190    12.1980    -0.4330 H     1 <1>   0.0800 
@<TRIPOS>BOND
  1   1   2  1   
  2   1   3  1   
  3   2   4  ar  
  4   2   5  ar  
  5   3  20  1   
  6   3  21  1   
  7   3  22  1   
  8   4   6  ar  
  9   4  23  1   
 10   5   7  ar  
 11   5  24  1   
 12   6   8  ar  
 13   6   9  1   
 14   7   8  ar  
 15   7  25  1   
 16   8  26  1   
 17   9  10  1   
 18   9  27  1   
 19   9  28  1   
 20  10  11  1   
 21  10  12  1   
 22  10  29  1   
 23  11  13  1   
 24  11  30  1   
 25  11  31  1   
 26  12  32  1   
 27  12  33  1   
 28  12  34  1   
 29  13  14  2   
 30  13  15  1   
 31  14  16  1   
 32  15  17  1   
 33  15  35  1   
 34  16  17  2   
 35  17  18  1   
 36  18  19  1   
 37  18  36  1   
 38  18  37  1   
 39  19  38  1   
 40  19  39  1   
 41  19  40  1   
@<TRIPOS>SUBSTRUCTURE
  1 ****   9 GROUP 4 **** **** 0

# MOE 2024.06 (io_trps.svl 2023.06)
