@<TRIPOS>MOLECULE
NONAME
46 48 1 0 0 
SMALL
USER_CHARGES


@<TRIPOS>ATOM
  1 S       -0.0700    -0.5190     0.5480 S.o2  1 <1>   1.4470 
  2 O       -1.2500     0.2130     0.9480 O.2   1 <1>  -0.6500 
  3 O        0.3330    -1.6950     1.2820 O.2   1 <1>  -0.6500 
  4 N       -0.4340    -0.9700    -1.0290 N.am  1 <1>  -0.9140 
  5 C        1.3400     0.6020     0.3380 C.ar  1 <1>  -0.0090 
  6 C       -0.9820    -2.3060    -1.2920 C.3   1 <1>   0.2760 
  7 C        1.1900     1.9800     0.4290 C.ar  1 <1>  -0.1500 
  8 C        2.6060     0.1070     0.0600 C.ar  1 <1>  -0.1500 
  9 C       -2.1340    -2.7590    -0.3830 C.3   1 <1>  -0.0800 
 10 C        0.0380    -3.4460    -1.2090 C.3   1 <1>   0.1200 
 11 C        2.2580     2.8460     0.2520 C.ar  1 <1>  -0.1430 
 12 C        3.6820     0.9570    -0.1190 C.ar  1 <1>  -0.1500 
 13 C       -1.6260    -4.0960     0.1640 C.3   1 <1>   0.1200 
 14 C       -3.4460    -2.9140    -1.1730 C.3   1 <1>  -0.0170 
 15 O       -0.6930    -4.5430    -0.7630 O.3   1 <1>  -0.5600 
 16 C        3.5180     2.3290    -0.0250 C.ar  1 <1>  -0.1430 
 17 C        2.0220     4.3460     0.3680 C.3   1 <1>  -0.0970 
 18 C       -4.5930    -3.3530    -0.2750 C.ar  1 <1>  -0.1430 
 19 C        4.7250     3.2350    -0.2270 C.3   1 <1>  -0.0970 
 20 C       -5.1470    -2.5050     0.6630 C.ar  1 <1>  -0.1500 
 21 C       -5.1390    -4.6180    -0.3500 C.ar  1 <1>  -0.1500 
 22 C       -6.1890    -2.9520     1.4590 C.ar  1 <1>   0.1600 
 23 C       -6.1820    -4.9650     0.4920 C.ar  1 <1>   0.1600 
 24 N       -6.7210    -4.1620     1.3960 N.ar  1 <1>  -0.6200 
 25 H       -1.1490    -0.2930    -1.2890 H     1 <1>   0.4200 
 26 H       -1.3290    -2.3030    -2.3120 H     1 <1>   0.0800 
 27 H        0.2140     2.3800     0.6440 H     1 <1>   0.1500 
 28 H        2.7530    -0.9570    -0.0150 H     1 <1>   0.1500 
 29 H       -2.3100    -2.0970     0.4430 H     1 <1>   0.0800 
 30 H        0.8180    -3.2550    -0.4950 H     1 <1>   0.0800 
 31 H        0.4610    -3.6800    -2.1690 H     1 <1>   0.0800 
 32 H        4.6510     0.5400    -0.3310 H     1 <1>   0.1500 
 33 H       -2.3960    -4.8390     0.2790 H     1 <1>   0.0800 
 34 H       -1.1170    -3.9560     1.1040 H     1 <1>   0.0800 
 35 H       -3.3100    -3.6310    -1.9650 H     1 <1>   0.0800 
 36 H       -3.7070    -1.9730    -1.6240 H     1 <1>   0.0800 
 37 H        0.9930     4.5610     0.5900 H     1 <1>   0.0800 
 38 H        2.2760     4.8310    -0.5580 H     1 <1>   0.0800 
 39 H        2.6290     4.7540     1.1560 H     1 <1>   0.0800 
 40 H        5.6090     2.6610    -0.4360 H     1 <1>   0.0800 
 41 H        4.9020     3.8160     0.6600 H     1 <1>   0.0800 
 42 H        4.5530     3.9000    -1.0540 H     1 <1>   0.0800 
 43 H       -4.7790    -1.5030     0.7860 H     1 <1>   0.1500 
 44 H       -4.7640    -5.3390    -1.0540 H     1 <1>   0.1500 
 45 H       -6.6080    -2.2770     2.1860 H     1 <1>   0.1500 
 46 H       -6.5950    -5.9570     0.4190 H     1 <1>   0.1500 
@<TRIPOS>BOND
  1   1   2  2   
  2   1   3  2   
  3   1   4  am  
  4   1   5  1   
  5   4   6  1   
  6   4  25  1   
  7   5   7  ar  
  8   5   8  ar  
  9   6   9  1   
 10   6  10  1   
 11   6  26  1   
 12   7  11  ar  
 13   7  27  1   
 14   8  12  ar  
 15   8  28  1   
 16   9  13  1   
 17   9  14  1   
 18   9  29  1   
 19  10  15  1   
 20  10  30  1   
 21  10  31  1   
 22  11  16  ar  
 23  11  17  1   
 24  12  16  ar  
 25  12  32  1   
 26  13  15  1   
 27  13  33  1   
 28  13  34  1   
 29  14  18  1   
 30  14  35  1   
 31  14  36  1   
 32  16  19  1   
 33  17  37  1   
 34  17  38  1   
 35  17  39  1   
 36  18  20  ar  
 37  18  21  ar  
 38  19  40  1   
 39  19  41  1   
 40  19  42  1   
 41  20  22  ar  
 42  20  43  1   
 43  21  23  ar  
 44  21  44  1   
 45  22  24  ar  
 46  22  45  1   
 47  23  24  ar  
 48  23  46  1   
@<TRIPOS>SUBSTRUCTURE
  1 ****   1 GROUP 4 **** **** 0

# MOE 2024.06 (io_trps.svl 2023.06)
