@<TRIPOS>MOLECULE
NONAME
58 61 1 0 0 
SMALL
USER_CHARGES


@<TRIPOS>ATOM
  1 O        0.6060     1.2290    -1.9270 O.2   1 <1>  -0.5700 
  2 C        0.1390     1.9930    -1.1140 C.2   1 <1>   0.5690 
  3 N       -1.1620     1.8860    -0.6900 N.am  1 <1>  -0.6600 
  4 C        1.0330     3.0970    -0.5650 C.3   1 <1>  -0.0990 
  5 C       -1.8330     2.7970     0.2950 C.3   1 <1>   0.1400 
  6 C       -2.0550     0.8030    -1.1980 C.3   1 <1>   0.1400 
  7 C        2.4710     3.0680    -1.1050 C.3   1 <1>  -0.0160 
  8 C       -3.0840     3.4530    -0.3200 C.3   1 <1>   0.1440 
  9 C       -3.3140     1.4110    -1.8270 C.3   1 <1>  -0.1600 
 10 C        3.2800     4.2090    -0.5100 C.ar  1 <1>  -0.1440 
 11 C       -3.7370     4.3220     0.7390 C.ar  1 <1>   0.1670 
 12 C       -4.0360     2.3610    -0.8550 C.3   1 <1>  -0.1600 
 13 C       -2.7130     4.4880    -1.4180 C.3   1 <1>  -0.1600 
 14 C        3.8750     4.0670     0.7340 C.ar  1 <1>  -0.1500 
 15 C        3.4260     5.4000    -1.2010 C.ar  1 <1>  -0.1500 
 16 N       -4.4000     3.8800     1.7860 N.ar  1 <1>  -0.6200 
 17 C       -3.5410     5.6480     0.4940 C.ar  1 <1>  -0.1430 
 18 C       -2.7280     5.8760    -0.7550 C.3   1 <1>  -0.0170 
 19 C        4.6120     5.1070     1.2950 C.ar  1 <1>   0.0820 
 20 C        4.1570     6.4420    -0.6580 C.ar  1 <1>  -0.1500 
 21 C       -4.8770     4.8330     2.5750 C.ar  1 <1>   0.4770 
 22 C       -4.0780     6.5490     1.3790 C.ar  1 <1>   0.1600 
 23 O        5.2090     5.0050     2.5180 O.3   1 <1>  -0.3630 
 24 C        4.7550     6.3070     0.5920 C.ar  1 <1>   0.0820 
 25 N       -4.7560     6.1460     2.4340 N.ar  1 <1>  -0.6200 
 26 C       -5.6570     4.3700     3.7810 C.3   1 <1>  -0.0970 
 27 C        5.2040     3.8000     3.2490 C.3   1 <1>   0.0400 
 28 O        5.4850     7.3070     1.1670 O.3   1 <1>  -0.3630 
 29 C        5.7530     8.5150     0.4920 C.3   1 <1>   0.0400 
 30 H        1.0680     3.0040     0.5050 H     1 <1>   0.0800 
 31 H        0.5940     4.0450    -0.8110 H     1 <1>   0.0800 
 32 H       -1.1670     3.5640     0.6420 H     1 <1>   0.0800 
 33 H       -2.1300     2.2160     1.1510 H     1 <1>   0.0800 
 34 H       -2.3300     0.1650    -0.3750 H     1 <1>   0.0800 
 35 H       -1.5460     0.1980    -1.9290 H     1 <1>   0.0800 
 36 H        2.4570     3.1490    -2.1790 H     1 <1>   0.0800 
 37 H        2.9330     2.1270    -0.8590 H     1 <1>   0.0800 
 38 H       -3.9810     0.6180    -2.1140 H     1 <1>   0.0800 
 39 H       -3.0340     1.9380    -2.7230 H     1 <1>   0.0800 
 40 H       -4.8860     2.8120    -1.3360 H     1 <1>   0.0800 
 41 H       -4.4070     1.7860    -0.0230 H     1 <1>   0.0800 
 42 H       -3.4680     4.4800    -2.1840 H     1 <1>   0.0800 
 43 H       -1.7670     4.2770    -1.8830 H     1 <1>   0.0800 
 44 H        3.7520     3.1380     1.2550 H     1 <1>   0.1500 
 45 H        2.9700     5.5210    -2.1690 H     1 <1>   0.1500 
 46 H       -3.1790     6.6150    -1.3940 H     1 <1>   0.0800 
 47 H       -1.7310     6.1820    -0.4880 H     1 <1>   0.0800 
 48 H        4.2480     7.3490    -1.2240 H     1 <1>   0.1500 
 49 H       -3.9520     7.6070     1.2270 H     1 <1>   0.1500 
 50 H       -5.4250     3.3460     4.0070 H     1 <1>   0.0800 
 51 H       -6.7080     4.4570     3.5770 H     1 <1>   0.0800 
 52 H       -5.4110     4.9800     4.6300 H     1 <1>   0.0800 
 53 H        5.7690     3.9560     4.1490 H     1 <1>   0.0800 
 54 H        5.6650     3.0300     2.6560 H     1 <1>   0.0800 
 55 H        4.1880     3.5460     3.4940 H     1 <1>   0.0800 
 56 H        6.3700     9.1210     1.1300 H     1 <1>   0.0800 
 57 H        4.8250     9.0190     0.2950 H     1 <1>   0.0800 
 58 H        6.2780     8.2940    -0.4210 H     1 <1>   0.0800 
@<TRIPOS>BOND
  1   1   2  2   
  2   2   3  am  
  3   2   4  1   
  4   3   5  1   
  5   3   6  1   
  6   4   7  1   
  7   4  30  1   
  8   4  31  1   
  9   5   8  1   
 10   5  32  1   
 11   5  33  1   
 12   6   9  1   
 13   6  34  1   
 14   6  35  1   
 15   7  10  1   
 16   7  36  1   
 17   7  37  1   
 18   8  11  1   
 19   8  12  1   
 20   8  13  1   
 21   9  12  1   
 22   9  38  1   
 23   9  39  1   
 24  10  14  ar  
 25  10  15  ar  
 26  11  16  ar  
 27  11  17  ar  
 28  12  40  1   
 29  12  41  1   
 30  13  18  1   
 31  13  42  1   
 32  13  43  1   
 33  14  19  ar  
 34  14  44  1   
 35  15  20  ar  
 36  15  45  1   
 37  16  21  ar  
 38  17  18  1   
 39  17  22  ar  
 40  18  46  1   
 41  18  47  1   
 42  19  23  1   
 43  19  24  ar  
 44  20  24  ar  
 45  20  48  1   
 46  21  25  ar  
 47  21  26  1   
 48  22  25  ar  
 49  22  49  1   
 50  23  27  1   
 51  24  28  1   
 52  26  50  1   
 53  26  51  1   
 54  26  52  1   
 55  27  53  1   
 56  27  54  1   
 57  27  55  1   
 58  28  29  1   
 59  29  56  1   
 60  29  57  1   
 61  29  58  1   
@<TRIPOS>SUBSTRUCTURE
  1 ****   4 GROUP 4 **** **** 0

# MOE 2024.06 (io_trps.svl 2023.06)
