@<TRIPOS>MOLECULE
NONAME
48 49 1 0 0 
SMALL
USER_CHARGES


@<TRIPOS>ATOM
  1 O       -1.7000     0.2420     1.5850 O.2   1 <1>  -0.5700 
  2 C       -2.0220     0.6820     0.5010 C.2   1 <1>   0.5690 
  3 N       -2.3600    -0.1740    -0.5210 N.am  1 <1>  -0.6600 
  4 C       -1.9850     2.2280     0.3040 C.3   1 <1>   0.4840 
  5 C       -2.3670    -1.6500    -0.2720 C.3   1 <1>   0.3200 
  6 C       -3.0110     0.2280    -1.8120 C.3   1 <1>   0.1400 
  7 N       -0.5950     2.8100     0.1790 N.4   1 <1>  -0.9590 
  8 C       -2.7130     2.9830     1.4240 C.3   1 <1>  -0.2400 
  9 C       -3.6910    -2.0640     0.3410 C.2   1 <1>   0.0060 
 10 C       -4.5020     0.5660    -1.6530 C.3   1 <1>   0.1200 
 11 C        0.0420     2.3810    -1.0920 C.3   1 <1>   0.3430 
 12 C        0.2810     2.4460     1.3290 C.3   1 <1>   0.3430 
 13 N       -4.6220    -2.7130    -0.2830 N.2   1 <1>  -0.5650 
 14 N       -4.0030    -1.7640     1.6200 N.pl3 1 <1>   0.0330 
 15 O       -4.6550     1.7230    -0.8970 O.3   1 <1>  -0.6800 
 16 C        1.0930     3.3910    -1.5580 C.3   1 <1>  -0.1600 
 17 C        1.1020     3.6550     1.7780 C.3   1 <1>  -0.1600 
 18 C       -5.5920    -2.8480     0.6420 C.2   1 <1>   0.0770 
 19 C       -5.2330    -2.2710     1.8100 C.2   1 <1>  -0.3020 
 20 C        2.2130     3.7190    -0.5530 C.3   1 <1>  -0.1600 
 21 C        1.7150     4.5180     0.6610 C.3   1 <1>  -0.1600 
 22 H       -2.5120     2.4410    -0.6070 H     1 <1>   0.0800 
 23 H       -1.5650    -1.9220     0.3930 H     1 <1>   0.0800 
 24 H       -2.2190    -2.1850    -1.1940 H     1 <1>   0.0800 
 25 H       -2.9280    -0.5840    -2.5150 H     1 <1>   0.0800 
 26 H       -2.5020     1.0690    -2.2460 H     1 <1>   0.0800 
 27 H       -0.6790     3.8320     0.1690 H     1 <1>   0.4500 
 28 H       -2.2660     2.8020     2.3840 H     1 <1>   0.0800 
 29 H       -3.7320     2.6410     1.4740 H     1 <1>   0.0800 
 30 H       -2.7300     4.0390     1.2220 H     1 <1>   0.0800 
 31 H       -5.0300    -0.2380    -1.1680 H     1 <1>   0.0800 
 32 H       -4.9470     0.7380    -2.6180 H     1 <1>   0.0800 
 33 H       -0.7060     2.2950    -1.8630 H     1 <1>   0.0800 
 34 H        0.4970     1.4110    -0.9630 H     1 <1>   0.0800 
 35 H        0.9430     1.6450     1.0410 H     1 <1>   0.0800 
 36 H       -0.3070     2.0950     2.1620 H     1 <1>   0.0800 
 37 H       -3.4100    -1.2420     2.2770 H     1 <1>   0.2700 
 38 H       -5.6100     1.8900    -0.7470 H     1 <1>   0.4000 
 39 H        0.6010     4.3000    -1.8590 H     1 <1>   0.0800 
 40 H        1.5530     2.9890    -2.4440 H     1 <1>   0.0800 
 41 H        1.8990     3.2810     2.3980 H     1 <1>   0.0800 
 42 H        0.4930     4.2780     2.4100 H     1 <1>   0.0800 
 43 H       -6.5130    -3.3610     0.4160 H     1 <1>   0.1500 
 44 H       -5.7690    -2.2000     2.7390 H     1 <1>   0.1500 
 45 H        2.9410     4.3260    -1.0670 H     1 <1>   0.0800 
 46 H        2.7230     2.8250    -0.2370 H     1 <1>   0.0800 
 47 H        2.5490     5.0570     1.0820 H     1 <1>   0.0800 
 48 H        1.0070     5.2630     0.3370 H     1 <1>   0.0800 
@<TRIPOS>BOND
  1   1   2  2   
  2   2   3  am  
  3   2   4  1   
  4   3   5  1   
  5   3   6  1   
  6   4   7  1   
  7   4   8  1   
  8   4  22  1   
  9   5   9  1   
 10   5  23  1   
 11   5  24  1   
 12   6  10  1   
 13   6  25  1   
 14   6  26  1   
 15   7  11  1   
 16   7  12  1   
 17   7  27  1   
 18   8  28  1   
 19   8  29  1   
 20   8  30  1   
 21   9  13  2   
 22   9  14  1   
 23  10  15  1   
 24  10  31  1   
 25  10  32  1   
 26  11  16  1   
 27  11  33  1   
 28  11  34  1   
 29  12  17  1   
 30  12  35  1   
 31  12  36  1   
 32  13  18  1   
 33  14  19  1   
 34  14  37  1   
 35  15  38  1   
 36  16  20  1   
 37  16  39  1   
 38  16  40  1   
 39  17  21  1   
 40  17  41  1   
 41  17  42  1   
 42  18  19  2   
 43  18  43  1   
 44  19  44  1   
 45  20  21  1   
 46  20  45  1   
 47  20  46  1   
 48  21  47  1   
 49  21  48  1   
@<TRIPOS>SUBSTRUCTURE
  1 ****   2 GROUP 4 **** **** 0

# MOE 2024.06 (io_trps.svl 2023.06)
