@<TRIPOS>MOLECULE
NONAME
47 50 1 0 0 
SMALL
USER_CHARGES


@<TRIPOS>ATOM
  1 O       -0.3230     1.5290     0.9910 O.2   1 <1>  -0.5700 
  2 C       -0.3240     2.5540     0.3480 C.2   1 <1>   0.5690 
  3 N       -1.4840     3.2690     0.1580 N.am  1 <1>  -0.6600 
  4 C        1.0020     3.0310    -0.2450 C.3   1 <1>  -0.0190 
  5 C       -2.7890     2.7680     0.6880 C.3   1 <1>   0.1400 
  6 C       -1.6280     4.5420    -0.6040 C.3   1 <1>   0.1400 
  7 C        2.1010     1.9550    -0.3870 C.3   1 <1>  -0.0170 
  8 C        1.6530     4.1680     0.5660 C.3   1 <1>  -0.0170 
  9 C       -3.7880     2.4940    -0.4650 C.3   1 <1>   0.0000 
 10 C       -2.5890     4.3310    -1.7790 C.3   1 <1>  -0.1600 
 11 C        3.3700     2.7660    -0.2880 C.ar  1 <1>  -0.1440 
 12 C        3.1190     4.0050     0.2490 C.ar  1 <1>  -0.1440 
 13 C       -5.1500     1.9880     0.0520 C.3   1 <1>   0.2000 
 14 C       -3.9470     3.7760    -1.3120 C.3   1 <1>  -0.1600 
 15 C       -3.3150     1.2980    -1.3100 C.3   1 <1>  -0.1600 
 16 C        4.6510     2.4010    -0.6570 C.ar  1 <1>  -0.1500 
 17 C        4.1420     4.9160     0.4340 C.ar  1 <1>  -0.1500 
 18 O       -5.5310     2.5780     1.2450 O.3   1 <1>  -0.6800 
 19 C       -5.0240     0.4730     0.2310 C.3   1 <1>  -0.1600 
 20 C       -3.7660     0.0550    -0.5400 C.3   1 <1>  -0.1600 
 21 C        5.6840     3.3070    -0.4760 C.ar  1 <1>  -0.1500 
 22 C        5.4310     4.5590     0.0670 C.ar  1 <1>  -0.1500 
 23 H        0.8220     3.3920    -1.2390 H     1 <1>   0.0800 
 24 H       -2.6460     1.8750     1.2700 H     1 <1>   0.0800 
 25 H       -3.1900     3.5200     1.3440 H     1 <1>   0.0800 
 26 H       -2.0250     5.2950     0.0550 H     1 <1>   0.0800 
 27 H       -0.6840     4.8970    -0.9720 H     1 <1>   0.0800 
 28 H        2.0250     1.4330    -1.3250 H     1 <1>   0.0800 
 29 H        2.0800     1.2500     0.4250 H     1 <1>   0.0800 
 30 H        1.4990     4.0190     1.6210 H     1 <1>   0.0800 
 31 H        1.2870     5.1340     0.2730 H     1 <1>   0.0800 
 32 H       -2.7420     5.2690    -2.2820 H     1 <1>   0.0800 
 33 H       -2.1380     3.6550    -2.4830 H     1 <1>   0.0800 
 34 H       -5.9150     2.1990    -0.6760 H     1 <1>   0.0800 
 35 H       -4.5700     3.5830    -2.1680 H     1 <1>   0.0800 
 36 H       -4.4420     4.5240    -0.7150 H     1 <1>   0.0800 
 37 H       -3.8110     1.3090    -2.2660 H     1 <1>   0.0800 
 38 H       -2.2520     1.2920    -1.4790 H     1 <1>   0.0800 
 39 H        4.8420     1.4290    -1.0750 H     1 <1>   0.1500 
 40 H        3.9430     5.8840     0.8570 H     1 <1>   0.1500 
 41 H       -4.9940     2.2210     1.9770 H     1 <1>   0.4000 
 42 H       -4.9260     0.1960     1.2660 H     1 <1>   0.0800 
 43 H       -5.8920    -0.0100    -0.1830 H     1 <1>   0.0800 
 44 H       -2.9940    -0.2320     0.1560 H     1 <1>   0.0800 
 45 H       -3.9560    -0.7710    -1.2030 H     1 <1>   0.0800 
 46 H        6.6870     3.0380    -0.7580 H     1 <1>   0.1500 
 47 H        6.2390     5.2560     0.2050 H     1 <1>   0.1500 
@<TRIPOS>BOND
  1   1   2  2   
  2   2   3  am  
  3   2   4  1   
  4   3   5  1   
  5   3   6  1   
  6   4   7  1   
  7   4   8  1   
  8   4  23  1   
  9   5   9  1   
 10   5  24  1   
 11   5  25  1   
 12   6  10  1   
 13   6  26  1   
 14   6  27  1   
 15   7  11  1   
 16   7  28  1   
 17   7  29  1   
 18   8  12  1   
 19   8  30  1   
 20   8  31  1   
 21   9  13  1   
 22   9  14  1   
 23   9  15  1   
 24  10  14  1   
 25  10  32  1   
 26  10  33  1   
 27  11  12  ar  
 28  11  16  ar  
 29  12  17  ar  
 30  13  18  1   
 31  13  19  1   
 32  13  34  1   
 33  14  35  1   
 34  14  36  1   
 35  15  20  1   
 36  15  37  1   
 37  15  38  1   
 38  16  21  ar  
 39  16  39  1   
 40  17  22  ar  
 41  17  40  1   
 42  18  41  1   
 43  19  20  1   
 44  19  42  1   
 45  19  43  1   
 46  20  44  1   
 47  20  45  1   
 48  21  22  ar  
 49  21  46  1   
 50  22  47  1   
@<TRIPOS>SUBSTRUCTURE
  1 ****   2 GROUP 4 **** **** 0

# MOE 2024.06 (io_trps.svl 2023.06)
