@<TRIPOS>MOLECULE
NONAME
47 49 1 0 0 
SMALL
USER_CHARGES


@<TRIPOS>ATOM
  1 O        2.6360    -0.7650    -1.5850 O.2   1 <1>  -0.5700 
  2 C        1.9360    -0.8760    -0.6060 C.2   1 <1>   0.5690 
  3 N        1.6250     0.1530     0.2360 N.am  1 <1>  -0.4940 
  4 C        1.3330    -2.2410    -0.2680 C.3   1 <1>   0.1710 
  5 C        1.9010     1.5420     0.1920 C.2   1 <1>  -0.0880 
  6 N        0.0790    -2.1550     0.5450 N.3   1 <1>  -0.8100 
  7 N        3.0130     2.1730    -0.2870 N.pl3 1 <1>   0.3140 
  8 C        1.0770     2.5160     0.6430 C.2   1 <1>  -0.1500 
  9 C       -1.0470    -1.7120    -0.3220 C.3   1 <1>   0.2530 
 10 C       -0.2970    -3.5080     1.0240 C.3   1 <1>   0.2540 
 11 N        2.8940     3.5210    -0.1630 N.2   1 <1>  -0.7070 
 12 C        4.2480     1.5440    -0.8220 C.3   1 <1>   0.0960 
 13 C        1.7420     3.7070     0.3920 C.2   1 <1>   0.1080 
 14 C       -1.6690    -2.9950    -0.8090 C.ar  1 <1>  -0.1430 
 15 C       -1.2350    -4.0330    -0.0310 C.ar  1 <1>  -0.1430 
 16 C        5.5170     2.3740    -0.5590 C.3   1 <1>  -0.1600 
 17 C        1.2180     5.0870     0.7130 C.3   1 <1>  -0.0590 
 18 C       -2.5430    -3.2100    -1.8590 C.ar  1 <1>  -0.1500 
 19 C       -1.6600    -5.3270    -0.2720 C.ar  1 <1>  -0.1500 
 20 C        6.7710     1.6420    -1.0540 C.3   1 <1>  -0.1600 
 21 C       -2.9760    -4.5030    -2.1120 C.ar  1 <1>  -0.1500 
 22 C       -2.5370    -5.5560    -1.3220 C.ar  1 <1>  -0.1500 
 23 C        8.0310     2.4730    -0.7930 C.3   1 <1>  -0.2400 
 24 H        0.9370    -0.1450     0.9370 H     1 <1>   0.3700 
 25 H        2.0800    -2.7830     0.2840 H     1 <1>   0.0800 
 26 H        1.1470    -2.7770    -1.1830 H     1 <1>   0.0800 
 27 H        0.1090     2.4150     1.0960 H     1 <1>   0.1500 
 28 H       -0.7180    -1.0940    -1.1410 H     1 <1>   0.0800 
 29 H       -1.7660    -1.1700     0.2680 H     1 <1>   0.0800 
 30 H       -0.8230    -3.4250     1.9600 H     1 <1>   0.0800 
 31 H        0.5590    -4.1480     1.1530 H     1 <1>   0.0800 
 32 H        4.1150     1.4000    -1.8790 H     1 <1>   0.0800 
 33 H        4.3600     0.5840    -0.3580 H     1 <1>   0.0800 
 34 H        5.6020     2.5620     0.4970 H     1 <1>   0.0800 
 35 H        5.4330     3.3190    -1.0680 H     1 <1>   0.0800 
 36 H        0.2500     5.0270     1.1730 H     1 <1>   0.0800 
 37 H        1.1460     5.6600    -0.1930 H     1 <1>   0.0800 
 38 H        1.8990     5.5800     1.3820 H     1 <1>   0.0800 
 39 H       -2.8800    -2.3910    -2.4690 H     1 <1>   0.1500 
 40 H       -1.3170    -6.1420     0.3410 H     1 <1>   0.1500 
 41 H        6.6850     1.4510    -2.1100 H     1 <1>   0.0800 
 42 H        6.8620     0.6950    -0.5500 H     1 <1>   0.0800 
 43 H       -3.6560    -4.6900    -2.9240 H     1 <1>   0.1500 
 44 H       -2.8780    -6.5560    -1.5250 H     1 <1>   0.1500 
 45 H        7.9700     3.4170    -1.3060 H     1 <1>   0.0800 
 46 H        8.9000     1.9460    -1.1470 H     1 <1>   0.0800 
 47 H        8.1480     2.6580     0.2600 H     1 <1>   0.0800 
@<TRIPOS>BOND
  1   1   2  2   
  2   2   3  am  
  3   2   4  1   
  4   3   5  1   
  5   3  24  1   
  6   4   6  1   
  7   4  25  1   
  8   4  26  1   
  9   5   7  1   
 10   5   8  2   
 11   6   9  1   
 12   6  10  1   
 13   7  11  1   
 14   7  12  1   
 15   8  13  1   
 16   8  27  1   
 17   9  14  1   
 18   9  28  1   
 19   9  29  1   
 20  10  15  1   
 21  10  30  1   
 22  10  31  1   
 23  11  13  2   
 24  12  16  1   
 25  12  32  1   
 26  12  33  1   
 27  13  17  1   
 28  14  15  ar  
 29  14  18  ar  
 30  15  19  ar  
 31  16  20  1   
 32  16  34  1   
 33  16  35  1   
 34  17  36  1   
 35  17  37  1   
 36  17  38  1   
 37  18  21  ar  
 38  18  39  1   
 39  19  22  ar  
 40  19  40  1   
 41  20  23  1   
 42  20  41  1   
 43  20  42  1   
 44  21  22  ar  
 45  21  43  1   
 46  22  44  1   
 47  23  45  1   
 48  23  46  1   
 49  23  47  1   
@<TRIPOS>SUBSTRUCTURE
  1 ****   2 GROUP 4 **** **** 0

# MOE 2024.06 (io_trps.svl 2023.06)
