@<TRIPOS>MOLECULE
NONAME
56 58 1 0 0 
SMALL
USER_CHARGES


@<TRIPOS>ATOM
  1 O       -1.7730     0.0270     2.3630 O.2   1 <1>  -0.5700 
  2 C       -1.9180     0.6390     1.3340 C.2   1 <1>   0.5690 
  3 N       -2.1420     0.0130     0.1380 N.am  1 <1>  -0.6600 
  4 C       -1.7940     2.1460     1.4110 C.3   1 <1>  -0.0990 
  5 C       -2.1280    -1.4910     0.0670 C.3   1 <1>   0.3640 
  6 C       -2.4400     0.7360    -1.1410 C.3   1 <1>   0.1400 
  7 C       -0.3460     2.5400     1.1390 C.3   1 <1>   0.1200 
  8 C       -0.7300    -2.0300    -0.2800 C.ar  1 <1>  -0.1440 
  9 C       -3.2000    -2.0620    -0.9160 C.3   1 <1>   0.2000 
 10 C       -2.6700    -0.2220    -2.3190 C.3   1 <1>   0.1200 
 11 O       -0.2960     3.9320     0.9290 O.3   1 <1>  -0.3630 
 12 C       -0.4770    -3.3730    -0.0270 C.ar  1 <1>  -0.1500 
 13 C        0.2910    -1.2570    -0.8260 C.ar  1 <1>  -0.1500 
 14 O       -3.6020    -1.1840    -1.9460 O.3   1 <1>  -0.5600 
 15 C       -4.4760    -2.4740    -0.1720 C.3   1 <1>   0.1200 
 16 C        0.8590     4.5410     0.5630 C.ar  1 <1>   0.0820 
 17 C        0.7490    -3.9430    -0.3250 C.ar  1 <1>   0.0820 
 18 C        1.5270    -1.8120    -1.1100 C.ar  1 <1>  -0.1500 
 19 O       -4.2380    -3.6080     0.6000 O.3   1 <1>  -0.6800 
 20 C        2.0920     3.8950     0.5080 C.ar  1 <1>  -0.1500 
 21 C        0.7780     5.8830     0.2270 C.ar  1 <1>  -0.1500 
 22 O        0.8890    -5.2720    -0.0910 O.3   1 <1>  -0.3630 
 23 C        1.7720    -3.1480    -0.8500 C.ar  1 <1>   0.0820 
 24 C        3.2220     4.5920     0.1130 C.ar  1 <1>  -0.1500 
 25 C        1.9080     6.5780    -0.1670 C.ar  1 <1>  -0.1500 
 26 C        1.1170    -6.0900    -1.2180 C.3   1 <1>   0.0400 
 27 O        3.0150    -3.6180    -1.1140 O.3   1 <1>  -0.3630 
 28 C        3.1310     5.9310    -0.2250 C.ar  1 <1>  -0.1500 
 29 C        3.7760    -4.0280     0.0020 C.3   1 <1>   0.0400 
 30 H       -2.4530     2.6180     0.7090 H     1 <1>   0.0800 
 31 H       -2.0690     2.4670     2.3990 H     1 <1>   0.0800 
 32 H       -2.3550    -1.8790     1.0460 H     1 <1>   0.0800 
 33 H       -3.3310     1.3250    -1.0100 H     1 <1>   0.0800 
 34 H       -1.6300     1.4020    -1.3810 H     1 <1>   0.0800 
 35 H        0.0200     2.0550     0.2520 H     1 <1>   0.0800 
 36 H        0.2780     2.2910     1.9810 H     1 <1>   0.0800 
 37 H       -2.8040    -2.9330    -1.4040 H     1 <1>   0.0800 
 38 H       -1.7600    -0.7110    -2.6210 H     1 <1>   0.0800 
 39 H       -3.0680     0.3150    -3.1620 H     1 <1>   0.0800 
 40 H       -1.2370    -3.9980     0.4070 H     1 <1>   0.1500 
 41 H        0.1460    -0.2140    -1.0300 H     1 <1>   0.1500 
 42 H       -5.2650    -2.7040    -0.8670 H     1 <1>   0.0800 
 43 H       -4.7930    -1.6840     0.4860 H     1 <1>   0.0800 
 44 H        2.3130    -1.2080    -1.5270 H     1 <1>   0.1500 
 45 H       -4.2420    -4.4140     0.0460 H     1 <1>   0.4000 
 46 H        2.1950     2.8590     0.7690 H     1 <1>   0.1500 
 47 H       -0.1750     6.3780     0.2750 H     1 <1>   0.1500 
 48 H        4.1750     4.0940     0.0710 H     1 <1>   0.1500 
 49 H        1.8350     7.6190    -0.4280 H     1 <1>   0.1500 
 50 H        1.0710    -7.1160    -0.9010 H     1 <1>   0.0800 
 51 H        2.0890    -5.8780    -1.6240 H     1 <1>   0.0800 
 52 H        0.3550    -5.8940    -1.9510 H     1 <1>   0.0800 
 53 H        4.0100     6.4710    -0.5310 H     1 <1>   0.1500 
 54 H        4.7630    -4.2830    -0.3390 H     1 <1>   0.0800 
 55 H        3.3120    -4.8850     0.4560 H     1 <1>   0.0800 
 56 H        3.8260    -3.2150     0.7050 H     1 <1>   0.0800 
@<TRIPOS>BOND
  1   1   2  2   
  2   2   3  am  
  3   2   4  1   
  4   3   5  1   
  5   3   6  1   
  6   4   7  1   
  7   4  30  1   
  8   4  31  1   
  9   5   8  1   
 10   5   9  1   
 11   5  32  1   
 12   6  10  1   
 13   6  33  1   
 14   6  34  1   
 15   7  11  1   
 16   7  35  1   
 17   7  36  1   
 18   8  12  ar  
 19   8  13  ar  
 20   9  14  1   
 21   9  15  1   
 22   9  37  1   
 23  10  14  1   
 24  10  38  1   
 25  10  39  1   
 26  11  16  1   
 27  12  17  ar  
 28  12  40  1   
 29  13  18  ar  
 30  13  41  1   
 31  15  19  1   
 32  15  42  1   
 33  15  43  1   
 34  16  20  ar  
 35  16  21  ar  
 36  17  22  1   
 37  17  23  ar  
 38  18  23  ar  
 39  18  44  1   
 40  19  45  1   
 41  20  24  ar  
 42  20  46  1   
 43  21  25  ar  
 44  21  47  1   
 45  22  26  1   
 46  23  27  1   
 47  24  28  ar  
 48  24  48  1   
 49  25  28  ar  
 50  25  49  1   
 51  26  50  1   
 52  26  51  1   
 53  26  52  1   
 54  27  29  1   
 55  28  53  1   
 56  29  54  1   
 57  29  55  1   
 58  29  56  1   
@<TRIPOS>SUBSTRUCTURE
  1 ****  13 GROUP 4 **** **** 0

# MOE 2024.06 (io_trps.svl 2023.06)
