@<TRIPOS>MOLECULE
NONAME
48 50 1 0 0 
SMALL
USER_CHARGES


@<TRIPOS>ATOM
  1 O       -1.0270    -0.3720     0.6800 O.2   1 <1>  -0.5700 
  2 C       -1.7050     0.5040     0.1630 C.2   1 <1>   0.5440 
  3 N       -2.9120     0.1010    -0.3990 N.am  1 <1>  -0.6600 
  4 C       -1.2160     1.8900     0.1780 C.ar  1 <1>   0.3960 
  5 C       -3.2460    -1.3370    -0.5380 C.3   1 <1>   0.1400 
  6 C       -4.1270     0.9720    -0.3660 C.3   1 <1>   0.1400 
  7 N       -2.0580     2.9140     0.4030 N.ar  1 <1>  -0.6200 
  8 C        0.1460     2.1130    -0.0310 C.ar  1 <1>  -0.1500 
  9 C       -4.4570    -1.5360     0.3920 C.3   1 <1>   0.4230 
 10 C       -5.4410     0.1890    -0.7080 C.3   1 <1>  -0.1600 
 11 C       -1.5510     4.1320     0.4120 C.ar  1 <1>   0.1670 
 12 C        0.6700     3.3850    -0.0220 C.ar  1 <1>  -0.1500 
 13 N       -4.1950    -2.5250     1.4960 N.4   1 <1>  -0.9590 
 14 C       -5.7890    -1.3920    -0.4690 C.3   1 <1>   0.0000 
 15 C       -0.2120     4.4160     0.2070 C.ar  1 <1>  -0.1500 
 16 C       -2.5330     5.2560     0.6680 C.3   1 <1>  -0.0970 
 17 C       -4.2490    -3.8880     1.0040 C.3   1 <1>   0.3430 
 18 C       -2.9290    -2.2310     2.2500 C.3   1 <1>   0.2630 
 19 C       -6.1890    -2.9600    -0.3460 C.3   1 <1>  -0.1600 
 20 C       -7.1470    -1.1550    -1.3040 C.3   1 <1>   0.1200 
 21 C       -5.6990    -4.0290     0.6550 C.3   1 <1>  -0.1600 
 22 O       -8.1660    -0.8620    -0.3990 O.3   1 <1>  -0.6800 
 23 H       -3.5130    -1.5370    -1.5610 H     1 <1>   0.0800 
 24 H       -2.4170    -1.9730    -0.2910 H     1 <1>   0.0800 
 25 H       -4.2180     1.3970     0.6210 H     1 <1>   0.0800 
 26 H       -3.9990     1.7910    -1.0560 H     1 <1>   0.0800 
 27 H        0.7940     1.2710    -0.2000 H     1 <1>   0.1500 
 28 H       -4.4840    -0.6560     1.0070 H     1 <1>   0.0800 
 29 H       -6.2280     0.8040    -0.2960 H     1 <1>   0.0800 
 30 H       -5.4250     0.3630    -1.7720 H     1 <1>   0.0800 
 31 H        1.7190     3.5660    -0.1830 H     1 <1>   0.1500 
 32 H       -4.9820    -2.4140     2.1490 H     1 <1>   0.4500 
 33 H        0.1420     5.4320     0.2250 H     1 <1>   0.1500 
 34 H       -2.0400     6.2110     0.6690 H     1 <1>   0.0800 
 35 H       -3.0060     5.1110     1.6220 H     1 <1>   0.0800 
 36 H       -3.2880     5.2570    -0.0970 H     1 <1>   0.0800 
 37 H       -3.6170    -4.0180     0.1400 H     1 <1>   0.0800 
 38 H       -3.9720    -4.5920     1.7730 H     1 <1>   0.0800 
 39 H       -2.0640    -2.4040     1.6300 H     1 <1>   0.0800 
 40 H       -2.8550    -2.8590     3.1220 H     1 <1>   0.0800 
 41 H       -2.9120    -1.2000     2.5640 H     1 <1>   0.0800 
 42 H       -7.2530    -3.1100    -0.2200 H     1 <1>   0.0800 
 43 H       -5.9440    -3.3830    -1.3080 H     1 <1>   0.0800 
 44 H       -7.4730    -1.9930    -1.9020 H     1 <1>   0.0800 
 45 H       -7.1760    -0.3600    -2.0300 H     1 <1>   0.0800 
 46 H       -5.8640    -5.0090     0.2400 H     1 <1>   0.0800 
 47 H       -6.2840    -3.9760     1.5580 H     1 <1>   0.0800 
 48 H       -9.0170    -0.7110    -0.8590 H     1 <1>   0.4000 
@<TRIPOS>BOND
  1   1   2  2   
  2   2   3  am  
  3   2   4  1   
  4   3   5  1   
  5   3   6  1   
  6   4   7  ar  
  7   4   8  ar  
  8   5   9  1   
  9   5  23  1   
 10   5  24  1   
 11   6  10  1   
 12   6  25  1   
 13   6  26  1   
 14   7  11  ar  
 15   8  12  ar  
 16   8  27  1   
 17   9  13  1   
 18   9  14  1   
 19   9  28  1   
 20  10  14  1   
 21  10  29  1   
 22  10  30  1   
 23  11  15  ar  
 24  11  16  1   
 25  12  15  ar  
 26  12  31  1   
 27  13  17  1   
 28  13  18  1   
 29  13  32  1   
 30  14  19  1   
 31  14  20  1   
 32  15  33  1   
 33  16  34  1   
 34  16  35  1   
 35  16  36  1   
 36  17  21  1   
 37  17  37  1   
 38  17  38  1   
 39  18  39  1   
 40  18  40  1   
 41  18  41  1   
 42  19  21  1   
 43  19  42  1   
 44  19  43  1   
 45  20  22  1   
 46  20  44  1   
 47  20  45  1   
 48  21  46  1   
 49  21  47  1   
 50  22  48  1   
@<TRIPOS>SUBSTRUCTURE
  1 ****   3 GROUP 4 **** **** 0

# MOE 2024.06 (io_trps.svl 2023.06)
