@<TRIPOS>MOLECULE
NONAME
56 59 1 0 0 
SMALL
USER_CHARGES


@<TRIPOS>ATOM
  1 F       -3.0270    -2.3610    -1.8540 F     1 <1>  -0.3400 
  2 C       -3.2560    -1.1420    -1.3840 C.3   1 <1>   0.8800 
  3 F       -2.0600    -0.5840    -1.2370 F     1 <1>  -0.3400 
  4 O       -3.8380    -1.2790    -0.1040 O.3   1 <1>  -0.3630 
  5 C       -4.3070    -0.1590     0.4810 C.ar  1 <1>   0.0830 
  6 C       -5.5530     0.3740     0.1330 C.ar  1 <1>   0.0860 
  7 C       -3.5300     0.4310     1.4660 C.ar  1 <1>  -0.1500 
  8 C       -6.3920    -0.2410    -0.8700 C.2   1 <1>   0.5440 
  9 C       -5.9720     1.5290     0.7940 C.ar  1 <1>  -0.1500 
 10 C       -3.9690     1.5720     2.1090 C.ar  1 <1>  -0.1500 
 11 O       -6.0630    -0.1570    -2.0390 O.2   1 <1>  -0.5700 
 12 N       -7.5450    -0.9190    -0.5370 N.am  1 <1>  -0.6600 
 13 C       -5.1930     2.1230     1.7690 C.ar  1 <1>  -0.1500 
 14 C       -8.4640    -1.4790    -1.5670 C.3   1 <1>   0.1400 
 15 C       -7.9300    -1.2630     0.8620 C.3   1 <1>   0.1400 
 16 C       -8.5010    -3.0030    -1.4330 C.3   1 <1>  -0.1600 
 17 C       -7.9650    -2.7850     1.0130 C.3   1 <1>  -0.1600 
 18 C       -8.8990    -3.4420    -0.0140 C.3   1 <1>   0.4240 
 19 O      -10.1790    -2.9220     0.2660 O.3   1 <1>  -0.5600 
 20 C       -8.8660    -4.9790     0.1300 C.ar  1 <1>  -0.1430 
 21 C      -11.2800    -3.6420    -0.1920 C.3   1 <1>   0.1200 
 22 C      -10.0190    -5.7040     0.4040 C.ar  1 <1>  -0.1430 
 23 C       -7.6740    -5.6760    -0.0210 C.ar  1 <1>  -0.1500 
 24 C      -11.3400    -4.9730     0.5510 C.3   1 <1>  -0.0170 
 25 C       -9.9720    -7.0810     0.5430 C.ar  1 <1>  -0.1500 
 26 C       -7.6090    -7.0530     0.1020 C.ar  1 <1>   0.0830 
 27 C       -8.7730    -7.7760     0.4060 C.ar  1 <1>   0.0830 
 28 O       -6.3690    -7.5860    -0.0870 O.3   1 <1>  -0.3620 
 29 O       -8.7160    -9.1300     0.5770 O.3   1 <1>  -0.3620 
 30 C       -6.2010    -8.8680    -0.6500 C.3   1 <1>   0.0400 
 31 C       -9.7750    -9.8540     1.1620 C.3   1 <1>   0.0400 
 32 H       -3.8480    -0.5780    -2.0810 H     1 <1>   0.0800 
 33 H       -2.5810    -0.0070     1.7230 H     1 <1>   0.1500 
 34 H       -6.9230     1.9600     0.5320 H     1 <1>   0.1500 
 35 H       -3.3620     2.0320     2.8700 H     1 <1>   0.1500 
 36 H       -5.5360     3.0150     2.2670 H     1 <1>   0.1500 
 37 H       -8.1410    -1.2100    -2.5570 H     1 <1>   0.0800 
 38 H       -9.4490    -1.0720    -1.4170 H     1 <1>   0.0800 
 39 H       -8.9030    -0.8500     1.0700 H     1 <1>   0.0800 
 40 H       -7.2350    -0.8520     1.5710 H     1 <1>   0.0800 
 41 H       -7.5230    -3.3800    -1.6660 H     1 <1>   0.0800 
 42 H       -9.1780    -3.4200    -2.1540 H     1 <1>   0.0800 
 43 H       -8.2930    -3.0470     2.0030 H     1 <1>   0.0800 
 44 H       -6.9650    -3.1570     0.8960 H     1 <1>   0.0800 
 45 H      -11.1910    -3.7940    -1.2530 H     1 <1>   0.0800 
 46 H      -12.1620    -3.0600     0.0080 H     1 <1>   0.0800 
 47 H       -6.7610    -5.1540    -0.2430 H     1 <1>   0.1500 
 48 H      -12.1410    -5.5660     0.1500 H     1 <1>   0.0800 
 49 H      -11.5390    -4.7920     1.5920 H     1 <1>   0.0800 
 50 H      -10.8850    -7.6000     0.7590 H     1 <1>   0.1500 
 51 H       -5.2020    -8.9350    -1.0400 H     1 <1>   0.0800 
 52 H       -6.9170    -9.0020    -1.4410 H     1 <1>   0.0800 
 53 H       -6.3400    -9.6050     0.1210 H     1 <1>   0.0800 
 54 H       -9.4470   -10.8680     1.3050 H     1 <1>   0.0800 
 55 H      -10.6210    -9.8360     0.4980 H     1 <1>   0.0800 
 56 H      -10.0180    -9.4110     2.1120 H     1 <1>   0.0800 
@<TRIPOS>BOND
  1   1   2  1   
  2   2   3  1   
  3   2   4  1   
  4   2  32  1   
  5   4   5  1   
  6   5   6  ar  
  7   5   7  ar  
  8   6   8  1   
  9   6   9  ar  
 10   7  10  ar  
 11   7  33  1   
 12   8  11  2   
 13   8  12  am  
 14   9  13  ar  
 15   9  34  1   
 16  10  13  ar  
 17  10  35  1   
 18  12  14  1   
 19  12  15  1   
 20  13  36  1   
 21  14  16  1   
 22  14  37  1   
 23  14  38  1   
 24  15  17  1   
 25  15  39  1   
 26  15  40  1   
 27  16  18  1   
 28  16  41  1   
 29  16  42  1   
 30  17  18  1   
 31  17  43  1   
 32  17  44  1   
 33  18  19  1   
 34  18  20  1   
 35  19  21  1   
 36  20  22  ar  
 37  20  23  ar  
 38  21  24  1   
 39  21  45  1   
 40  21  46  1   
 41  22  24  1   
 42  22  25  ar  
 43  23  26  ar  
 44  23  47  1   
 45  24  48  1   
 46  24  49  1   
 47  25  27  ar  
 48  25  50  1   
 49  26  27  ar  
 50  26  28  1   
 51  27  29  1   
 52  28  30  1   
 53  29  31  1   
 54  30  51  1   
 55  30  52  1   
 56  30  53  1   
 57  31  54  1   
 58  31  55  1   
 59  31  56  1   
@<TRIPOS>SUBSTRUCTURE
  1 ****  17 GROUP 4 **** **** 0

# MOE 2024.06 (io_trps.svl 2023.06)
