@<TRIPOS>MOLECULE
NONAME
45 47 1 0 0 
SMALL
USER_CHARGES


@<TRIPOS>ATOM
  1 O        1.1540    -0.6720    -1.8800 O.2   1 <1>  -0.5700 
  2 C        1.7480    -0.9320    -0.8620 C.2   1 <1>   0.5690 
  3 N        2.4300    -0.0020    -0.1360 N.am  1 <1>  -0.4930 
  4 C        1.7160    -2.3750    -0.3670 C.3   1 <1>  -0.0190 
  5 C        2.5390     1.3930    -0.3670 C.2   1 <1>   0.0630 
  6 C        0.3640    -2.7600     0.3030 C.3   1 <1>   0.4230 
  7 C        2.1180    -3.3560    -1.4900 C.3   1 <1>  -0.1600 
  8 C        3.2090     2.2790     0.4020 C.2   1 <1>  -0.3320 
  9 C        2.0010     2.1590    -1.4030 C.2   1 <1>   0.1390 
 10 N       -0.0020    -4.1930     0.0270 N.4   1 <1>  -0.9590 
 11 C       -0.8580    -1.8950    -0.0630 C.3   1 <1>  -0.1600 
 12 C        2.1670    -4.8080    -0.9780 C.3   1 <1>  -0.1600 
 13 N        3.0500     3.4940    -0.1820 N.pl3 1 <1>   0.3140 
 14 C        4.0100     2.0610     1.6790 C.3   1 <1>  -0.0600 
 15 N        2.3030     3.4170    -1.2940 N.2   1 <1>  -0.7070 
 16 C        1.1590    -5.1150     0.1360 C.3   1 <1>   0.3430 
 17 C       -1.1490    -4.6570     0.8550 C.3   1 <1>   0.3430 
 18 C       -2.1210    -2.3240     0.6960 C.3   1 <1>  -0.1600 
 19 C        3.5920     4.7820     0.2730 C.3   1 <1>   0.0160 
 20 C       -2.3840    -3.8230     0.5150 C.3   1 <1>  -0.1600 
 21 H        2.9750    -0.3140     0.6640 H     1 <1>   0.3700 
 22 H        2.4670    -2.4560     0.3960 H     1 <1>   0.0800 
 23 H        0.5060    -2.6510     1.3660 H     1 <1>   0.0800 
 24 H        1.4000    -3.2840    -2.2920 H     1 <1>   0.0800 
 25 H        3.0760    -3.0820    -1.9010 H     1 <1>   0.0800 
 26 H        1.4030     1.7650    -2.2060 H     1 <1>   0.1500 
 27 H       -0.3100    -4.2110    -0.9540 H     1 <1>   0.4500 
 28 H       -0.6650    -0.8640     0.1790 H     1 <1>   0.0800 
 29 H       -1.0360    -1.9470    -1.1240 H     1 <1>   0.0800 
 30 H        3.1520    -5.0240    -0.6020 H     1 <1>   0.0800 
 31 H        1.9990    -5.4770    -1.8040 H     1 <1>   0.0800 
 32 H        4.0010     1.0270     1.9690 H     1 <1>   0.0800 
 33 H        3.5910     2.6420     2.4820 H     1 <1>   0.0800 
 34 H        5.0320     2.3620     1.5290 H     1 <1>   0.0800 
 35 H        1.6300    -4.9830     1.0970 H     1 <1>   0.0800 
 36 H        0.8370    -6.1410     0.0550 H     1 <1>   0.0800 
 37 H       -1.3560    -5.6960     0.6550 H     1 <1>   0.0800 
 38 H       -0.9150    -4.5500     1.9020 H     1 <1>   0.0800 
 39 H       -2.0010    -2.1040     1.7440 H     1 <1>   0.0800 
 40 H       -2.9680    -1.7590     0.3410 H     1 <1>   0.0800 
 41 H        3.2130     4.9980     1.2540 H     1 <1>   0.0800 
 42 H        3.2840     5.5530    -0.4090 H     1 <1>   0.0800 
 43 H        4.6630     4.7270     0.2920 H     1 <1>   0.0800 
 44 H       -2.6830    -4.0220    -0.4990 H     1 <1>   0.0800 
 45 H       -3.1980    -4.1220     1.1530 H     1 <1>   0.0800 
@<TRIPOS>BOND
  1   1   2  2   
  2   2   3  am  
  3   2   4  1   
  4   3   5  1   
  5   3  21  1   
  6   4   6  1   
  7   4   7  1   
  8   4  22  1   
  9   5   8  2   
 10   5   9  1   
 11   6  10  1   
 12   6  11  1   
 13   6  23  1   
 14   7  12  1   
 15   7  24  1   
 16   7  25  1   
 17   8  13  1   
 18   8  14  1   
 19   9  15  2   
 20   9  26  1   
 21  10  16  1   
 22  10  17  1   
 23  10  27  1   
 24  11  18  1   
 25  11  28  1   
 26  11  29  1   
 27  12  16  1   
 28  12  30  1   
 29  12  31  1   
 30  13  15  1   
 31  13  19  1   
 32  14  32  1   
 33  14  33  1   
 34  14  34  1   
 35  16  35  1   
 36  16  36  1   
 37  17  20  1   
 38  17  37  1   
 39  17  38  1   
 40  18  20  1   
 41  18  39  1   
 42  18  40  1   
 43  19  41  1   
 44  19  42  1   
 45  19  43  1   
 46  20  44  1   
 47  20  45  1   
@<TRIPOS>SUBSTRUCTURE
  1 ****   2 GROUP 4 **** **** 0

# MOE 2024.06 (io_trps.svl 2023.06)
