@<TRIPOS>MOLECULE
NONAME
45 47 1 0 0 
SMALL
USER_CHARGES


@<TRIPOS>ATOM
  1 S        0.6020     0.0640     0.0560 S.o2  1 <1>   1.0900 
  2 O        0.1310    -1.2980     0.0380 O.2   1 <1>  -0.6500 
  3 O        1.9300     0.3990     0.5200 O.2   1 <1>  -0.6500 
  4 C       -0.5680     1.0700     0.9610 C.3   1 <1>  -0.0550 
  5 C        0.3930     0.7710    -1.5750 C.3   1 <1>  -0.0550 
  6 C       -0.2520     2.5730     0.8500 C.3   1 <1>  -0.1600 
  7 C        0.6740     2.2850    -1.5920 C.3   1 <1>  -0.1600 
  8 C       -0.2120     3.0750    -0.6080 C.3   1 <1>   0.2890 
  9 N        0.1540     4.5140    -0.6390 N.pl3 1 <1>  -0.8690 
 10 C        1.2950     5.1410    -0.2800 C.ar  1 <1>   0.4610 
 11 N        1.3580     6.4680    -0.4130 N.ar  1 <1>  -0.1790 
 12 C        2.4540     4.5060     0.2340 C.ar  1 <1>  -0.1500 
 13 C        2.4500     7.2570    -0.0920 C.ar  1 <1>   0.3610 
 14 C        3.5720     5.2020     0.5760 C.ar  1 <1>  -0.1430 
 15 C        3.5970     6.6220     0.4180 C.ar  1 <1>   0.0000 
 16 C        2.4110     8.6540    -0.2710 C.ar  1 <1>  -0.1440 
 17 C        4.7890     4.4660     1.1250 C.3   1 <1>  -0.0970 
 18 C        4.6980     7.4260     0.7410 C.ar  1 <1>  -0.1500 
 19 C        3.5200     9.4140     0.0600 C.ar  1 <1>  -0.1430 
 20 C        1.1380     9.3050    -0.8300 C.3   1 <1>  -0.0970 
 21 C        4.6570     8.7840     0.5650 C.ar  1 <1>  -0.1500 
 22 C        3.5800    10.9300    -0.0960 C.3   1 <1>  -0.0970 
 23 H       -0.5490     0.7850     1.9970 H     1 <1>   0.0800 
 24 H       -1.5610     0.8850     0.5950 H     1 <1>   0.0800 
 25 H       -0.6070     0.5880    -1.9210 H     1 <1>   0.0800 
 26 H        1.0640     0.2830    -2.2580 H     1 <1>   0.0800 
 27 H        0.6850     2.7420     1.3430 H     1 <1>   0.0800 
 28 H       -1.0050     3.1210     1.3880 H     1 <1>   0.0800 
 29 H        0.5030     2.6520    -2.5890 H     1 <1>   0.0800 
 30 H        1.7150     2.4220    -1.3720 H     1 <1>   0.0800 
 31 H       -1.2210     2.9980    -0.9820 H     1 <1>   0.0800 
 32 H       -0.6400     5.0520    -1.0030 H     1 <1>   0.4000 
 33 H        0.5480     6.9540    -0.7770 H     1 <1>   0.4570 
 34 H        2.4480     3.4410     0.3570 H     1 <1>   0.1500 
 35 H        4.6120     3.4060     1.1820 H     1 <1>   0.0800 
 36 H        5.0230     4.8170     2.1140 H     1 <1>   0.0800 
 37 H        5.6410     4.6260     0.4860 H     1 <1>   0.0800 
 38 H        5.5960     6.9820     1.1340 H     1 <1>   0.1500 
 39 H        0.9230     8.9230    -1.8130 H     1 <1>   0.0800 
 40 H        1.2240    10.3710    -0.9230 H     1 <1>   0.0800 
 41 H        0.3030     9.1160    -0.1790 H     1 <1>   0.0800 
 42 H        5.5220     9.3720     0.8240 H     1 <1>   0.1500 
 43 H        2.8190    11.3970     0.5040 H     1 <1>   0.0800 
 44 H        3.4370    11.2050    -1.1260 H     1 <1>   0.0800 
 45 H        4.5320    11.3200     0.2190 H     1 <1>   0.0800 
@<TRIPOS>BOND
  1   1   2  2   
  2   1   3  2   
  3   1   4  1   
  4   1   5  1   
  5   4   6  1   
  6   4  23  1   
  7   4  24  1   
  8   5   7  1   
  9   5  25  1   
 10   5  26  1   
 11   6   8  1   
 12   6  27  1   
 13   6  28  1   
 14   7   8  1   
 15   7  29  1   
 16   7  30  1   
 17   8   9  1   
 18   8  31  1   
 19   9  10  1   
 20   9  32  1   
 21  10  11  ar  
 22  10  12  ar  
 23  11  13  ar  
 24  11  33  1   
 25  12  14  ar  
 26  12  34  1   
 27  13  15  ar  
 28  13  16  ar  
 29  14  15  ar  
 30  14  17  1   
 31  15  18  ar  
 32  16  19  ar  
 33  16  20  1   
 34  17  35  1   
 35  17  36  1   
 36  17  37  1   
 37  18  21  ar  
 38  18  38  1   
 39  19  21  ar  
 40  19  22  1   
 41  20  39  1   
 42  20  40  1   
 43  20  41  1   
 44  21  42  1   
 45  22  43  1   
 46  22  44  1   
 47  22  45  1   
@<TRIPOS>SUBSTRUCTURE
  1 ****  12 GROUP 4 **** **** 0

# MOE 2024.06 (io_trps.svl 2023.06)
