@<TRIPOS>MOLECULE
NONAME
47 48 1 0 0 
SMALL
USER_CHARGES


@<TRIPOS>ATOM
  1 O        1.4210     0.3080    -3.2790 O.2   1 <1>  -0.5700 
  2 C        1.2280    -0.4250    -2.3360 C.2   1 <1>   0.5690 
  3 N        1.6450    -0.1630    -1.0690 N.am  1 <1>  -0.4930 
  4 C        0.4710    -1.7370    -2.5460 C.3   1 <1>   0.1710 
  5 C        2.3420     0.9480    -0.5390 C.2   1 <1>   0.0630 
  6 N       -0.1110    -2.3020    -1.2890 N.3   1 <1>  -0.8100 
  7 C        2.6620     1.1540     0.7570 C.2   1 <1>  -0.3320 
  8 C        2.8480     2.0590    -1.2120 C.2   1 <1>   0.1390 
  9 C       -0.4320    -3.7360    -1.4700 C.3   1 <1>   0.1100 
 10 C       -1.3160    -1.5540    -0.8880 C.3   1 <1>   0.1100 
 11 N        3.3240     2.3380     0.8050 N.pl3 1 <1>   0.3140 
 12 C        2.3760     0.2850     1.9730 C.3   1 <1>  -0.0600 
 13 N        3.4370     2.8960    -0.4110 N.2   1 <1>  -0.7070 
 14 C       -0.9480    -4.3620    -0.1660 C.3   1 <1>   0.2000 
 15 C       -1.8360    -2.0840     0.4520 C.3   1 <1>  -0.1600 
 16 C        3.8790     2.9980     1.9930 C.3   1 <1>   0.0160 
 17 O       -1.3340    -5.6710    -0.4510 O.3   1 <1>  -0.5600 
 18 C       -2.1550    -3.5850     0.3780 C.3   1 <1>  -0.1600 
 19 C       -1.3240    -6.5440     0.6320 C.3   1 <1>   0.1200 
 20 C       -1.7420    -7.9220     0.1240 C.3   1 <1>  -0.1600 
 21 C       -1.7550    -8.9550     1.2570 C.3   1 <1>  -0.2400 
 22 H        1.3440    -0.8790    -0.4020 H     1 <1>   0.3700 
 23 H        1.1750    -2.4380    -2.9580 H     1 <1>   0.0800 
 24 H       -0.3040    -1.5820    -3.2760 H     1 <1>   0.0800 
 25 H        2.7610     2.2090    -2.2750 H     1 <1>   0.1500 
 26 H        0.4530    -4.2670    -1.7740 H     1 <1>   0.0800 
 27 H       -1.1820    -3.8460    -2.2350 H     1 <1>   0.0800 
 28 H       -2.0810    -1.6570    -1.6410 H     1 <1>   0.0800 
 29 H       -1.0860    -0.5060    -0.7850 H     1 <1>   0.0800 
 30 H        1.8390    -0.6010     1.6890 H     1 <1>   0.0800 
 31 H        1.7810     0.8290     2.6850 H     1 <1>   0.0800 
 32 H        3.2980    -0.0130     2.4400 H     1 <1>   0.0800 
 33 H       -0.1430    -4.3770     0.5490 H     1 <1>   0.0800 
 34 H       -2.7240    -1.5420     0.7280 H     1 <1>   0.0800 
 35 H       -1.0940    -1.9050     1.2100 H     1 <1>   0.0800 
 36 H        4.6140     2.3570     2.4410 H     1 <1>   0.0800 
 37 H        3.0860     3.1960     2.6890 H     1 <1>   0.0800 
 38 H        4.3380     3.9230     1.6980 H     1 <1>   0.0800 
 39 H       -2.4180    -3.9410     1.3570 H     1 <1>   0.0800 
 40 H       -2.9920    -3.7340    -0.2820 H     1 <1>   0.0800 
 41 H       -2.0180    -6.1910     1.3760 H     1 <1>   0.0800 
 42 H       -0.3290    -6.5780     1.0420 H     1 <1>   0.0800 
 43 H       -1.0530    -8.2400    -0.6390 H     1 <1>   0.0800 
 44 H       -2.7250    -7.8550    -0.3070 H     1 <1>   0.0800 
 45 H       -0.7750    -9.0500     1.6920 H     1 <1>   0.0800 
 46 H       -2.0520    -9.9150     0.8730 H     1 <1>   0.0800 
 47 H       -2.4510    -8.6640     2.0240 H     1 <1>   0.0800 
@<TRIPOS>BOND
  1   1   2  2   
  2   2   3  am  
  3   2   4  1   
  4   3   5  1   
  5   3  22  1   
  6   4   6  1   
  7   4  23  1   
  8   4  24  1   
  9   5   7  2   
 10   5   8  1   
 11   6   9  1   
 12   6  10  1   
 13   7  11  1   
 14   7  12  1   
 15   8  13  2   
 16   8  25  1   
 17   9  14  1   
 18   9  26  1   
 19   9  27  1   
 20  10  15  1   
 21  10  28  1   
 22  10  29  1   
 23  11  13  1   
 24  11  16  1   
 25  12  30  1   
 26  12  31  1   
 27  12  32  1   
 28  14  17  1   
 29  14  18  1   
 30  14  33  1   
 31  15  18  1   
 32  15  34  1   
 33  15  35  1   
 34  16  36  1   
 35  16  37  1   
 36  16  38  1   
 37  17  19  1   
 38  18  39  1   
 39  18  40  1   
 40  19  20  1   
 41  19  41  1   
 42  19  42  1   
 43  20  21  1   
 44  20  43  1   
 45  20  44  1   
 46  21  45  1   
 47  21  46  1   
 48  21  47  1   
@<TRIPOS>SUBSTRUCTURE
  1 ****   6 GROUP 4 **** **** 0

# MOE 2024.06 (io_trps.svl 2023.06)
