@<TRIPOS>MOLECULE
NONAME
40 42 1 0 0 
SMALL
USER_CHARGES


@<TRIPOS>ATOM
  1 S        0.5650     0.6860    -1.3480 S.3   1 <1>  -0.3320 
  2 C        1.2370    -0.9610    -1.4860 C.ar  1 <1>   0.7220 
  3 C        1.1720     1.2930     0.3030 C.3   1 <1>   0.1310 
  4 N        1.8500    -1.4270    -0.4110 N.ar  1 <1>  -0.6200 
  5 N        1.0730    -1.5290    -2.6690 N.ar  1 <1>  -0.6200 
  6 C        1.2700     2.8130     0.3420 C.2   1 <1>   0.5690 
  7 C        2.3800    -2.6180    -0.5490 C.ar  1 <1>   0.1660 
  8 C        1.5990    -2.7290    -2.7690 C.ar  1 <1>   0.1600 
  9 O        0.4700     3.3800     1.0520 O.2   1 <1>  -0.5700 
 10 N        2.2330     3.5100    -0.3580 N.am  1 <1>  -0.5090 
 11 C        2.2740    -3.3220    -1.7270 C.ar  1 <1>  -0.1500 
 12 C        3.1210    -3.1780     0.6460 C.3   1 <1>  -0.0970 
 13 C        2.3060     4.9880    -0.2610 C.3   1 <1>   0.0490 
 14 C        3.0670     2.9210    -1.4450 C.3   1 <1>   0.2840 
 15 C        3.6310     5.6670    -0.0820 C.3   1 <1>  -0.2000 
 16 C        2.6730     5.5870     1.0610 C.3   1 <1>  -0.2000 
 17 C        4.0210     1.8510    -0.9270 C.ar  1 <1>  -0.1430 
 18 C        4.7210     1.9750     0.2590 C.ar  1 <1>  -0.1500 
 19 C        4.2240     0.6790    -1.6280 C.ar  1 <1>  -0.1500 
 20 C        5.5550     0.9510     0.6740 C.ar  1 <1>   0.1600 
 21 C        5.0790    -0.2850    -1.1230 C.ar  1 <1>   0.1600 
 22 N        5.7500    -0.1780     0.0120 N.ar  1 <1>  -0.6200 
 23 H        2.1300     0.8570     0.5040 H     1 <1>   0.0800 
 24 H        0.4680     0.9450     1.0350 H     1 <1>   0.0800 
 25 H        1.4910    -3.2490    -3.7060 H     1 <1>   0.1500 
 26 H        2.7020    -4.3010    -1.8360 H     1 <1>   0.1500 
 27 H        3.9300    -2.5200     0.9070 H     1 <1>   0.0800 
 28 H        3.5210    -4.1520     0.4340 H     1 <1>   0.0800 
 29 H        2.4520    -3.2510     1.4850 H     1 <1>   0.0800 
 30 H        1.5360     5.4780    -0.8350 H     1 <1>   0.1000 
 31 H        3.6460     3.6940    -1.9180 H     1 <1>   0.0800 
 32 H        2.4200     2.5100    -2.1980 H     1 <1>   0.0800 
 33 H        3.7860     6.6290    -0.5390 H     1 <1>   0.1000 
 34 H        4.5320     5.0850    -0.0310 H     1 <1>   0.1000 
 35 H        2.8730     4.9180     1.8800 H     1 <1>   0.1000 
 36 H        2.1600     6.4790     1.3740 H     1 <1>   0.1000 
 37 H        4.6200     2.8560     0.8670 H     1 <1>   0.1500 
 38 H        3.7190     0.4980    -2.5600 H     1 <1>   0.1500 
 39 H        6.0900     1.0670     1.6010 H     1 <1>   0.1500 
 40 H        5.2160    -1.1940    -1.6840 H     1 <1>   0.1500 
@<TRIPOS>BOND
  1   1   2  1   
  2   1   3  1   
  3   2   4  ar  
  4   2   5  ar  
  5   3   6  1   
  6   3  23  1   
  7   3  24  1   
  8   4   7  ar  
  9   5   8  ar  
 10   6   9  2   
 11   6  10  am  
 12   7  11  ar  
 13   7  12  1   
 14   8  11  ar  
 15   8  25  1   
 16  10  13  1   
 17  10  14  1   
 18  11  26  1   
 19  12  27  1   
 20  12  28  1   
 21  12  29  1   
 22  13  15  1   
 23  13  16  1   
 24  13  30  1   
 25  14  17  1   
 26  14  31  1   
 27  14  32  1   
 28  15  16  1   
 29  15  33  1   
 30  15  34  1   
 31  16  35  1   
 32  16  36  1   
 33  17  18  ar  
 34  17  19  ar  
 35  18  20  ar  
 36  18  37  1   
 37  19  21  ar  
 38  19  38  1   
 39  20  22  ar  
 40  20  39  1   
 41  21  22  ar  
 42  21  40  1   
@<TRIPOS>SUBSTRUCTURE
  1 ****  17 GROUP 4 **** **** 0

# MOE 2024.06 (io_trps.svl 2023.06)
