@<TRIPOS>MOLECULE
NONAME
53 56 1 0 0 
SMALL
USER_CHARGES


@<TRIPOS>ATOM
  1 O        0.6010    -0.3110    -0.6750 O.3   1 <1>  -0.5600 
  2 C        1.7740    -0.8650    -0.1330 C.3   1 <1>   0.4240 
  3 C       -0.6180    -0.6940    -0.1060 C.3   1 <1>   0.1200 
  4 C        1.5890    -2.3240     0.3180 C.ar  1 <1>  -0.1440 
  5 C        2.2140     0.0420     1.0210 C.3   1 <1>  -0.1600 
  6 C        2.7980    -0.7900    -1.2670 C.3   1 <1>  -0.1600 
  7 C       -0.8280    -2.1900    -0.3280 C.3   1 <1>  -0.0160 
  8 C        0.3600    -2.9560     0.2190 C.ar  1 <1>  -0.1440 
  9 C        2.6580    -3.0420     0.8380 C.ar  1 <1>  -0.1500 
 10 C        2.4080     1.4750     0.5270 C.3   1 <1>   0.3430 
 11 C        2.9780     0.6540    -1.7330 C.3   1 <1>   0.3430 
 12 C        0.2130    -4.2750     0.6170 C.ar  1 <1>  -0.1500 
 13 C        2.5340    -4.3590     1.2460 C.ar  1 <1>   0.0830 
 14 N        3.3990     1.5370    -0.6010 N.4   1 <1>  -0.9590 
 15 C        1.2870    -4.9990     1.1300 C.ar  1 <1>   0.0830 
 16 O        3.6950    -4.8910     1.7290 O.3   1 <1>  -0.3630 
 17 C        4.8120     1.2830    -0.1740 C.3   1 <1>   0.5230 
 18 O        1.1380    -6.3020     1.5110 O.3   1 <1>  -0.3630 
 19 C        3.7820    -6.1730     2.3080 C.3   1 <1>   0.0400 
 20 C        5.3150     2.4180     0.6930 C.2   1 <1>  -0.0400 
 21 C       -0.0620    -7.0180     1.3160 C.3   1 <1>   0.0400 
 22 O        4.8850     2.5240     1.9200 O.3   1 <1>  -0.0190 
 23 C        6.1790     3.4220     0.4700 C.2   1 <1>  -0.1500 
 24 N        5.3990     3.5500     2.5260 N.2   1 <1>  -0.4100 
 25 C        6.1890     4.1100     1.6810 C.2   1 <1>   0.1080 
 26 C        7.0100     5.3470     1.9760 C.3   1 <1>  -0.0590 
 27 H       -1.4000    -0.1310    -0.5850 H     1 <1>   0.0800 
 28 H       -0.6090    -0.4610     0.9450 H     1 <1>   0.0800 
 29 H        3.1220    -0.3190     1.4640 H     1 <1>   0.0800 
 30 H        1.4680     0.0260     1.7940 H     1 <1>   0.0800 
 31 H        2.4440    -1.3880    -2.0880 H     1 <1>   0.0800 
 32 H        3.7400    -1.2020    -0.9610 H     1 <1>   0.0800 
 33 H       -0.9380    -2.3870    -1.3800 H     1 <1>   0.0800 
 34 H       -1.7300    -2.4970     0.1690 H     1 <1>   0.0800 
 35 H        3.6270    -2.5920     0.9410 H     1 <1>   0.1500 
 36 H        2.7200     2.1050     1.3440 H     1 <1>   0.0800 
 37 H        1.4550     1.8430     0.1780 H     1 <1>   0.0800 
 38 H        2.0350     1.0030    -2.1260 H     1 <1>   0.0800 
 39 H        3.7040     0.6930    -2.5300 H     1 <1>   0.0800 
 40 H       -0.7560    -4.7250     0.5170 H     1 <1>   0.1500 
 41 H        3.3830     2.5090    -0.9400 H     1 <1>   0.4500 
 42 H        5.4430     1.2140    -1.0450 H     1 <1>   0.0800 
 43 H        4.8840     0.3550     0.3680 H     1 <1>   0.0800 
 44 H        4.7850    -6.3120     2.6680 H     1 <1>   0.0800 
 45 H        3.5570    -6.9110     1.5580 H     1 <1>   0.0800 
 46 H        3.0870    -6.2340     3.1270 H     1 <1>   0.0800 
 47 H        0.0940    -8.0270     1.6530 H     1 <1>   0.0800 
 48 H       -0.3040    -7.0170     0.2680 H     1 <1>   0.0800 
 49 H       -0.8430    -6.5580     1.8960 H     1 <1>   0.0800 
 50 H        6.7510     3.6820    -0.4030 H     1 <1>   0.1500 
 51 H        6.7370     6.1390     1.3040 H     1 <1>   0.0800 
 52 H        8.0560     5.1290     1.8620 H     1 <1>   0.0800 
 53 H        6.8330     5.6740     2.9860 H     1 <1>   0.0800 
@<TRIPOS>BOND
  1   1   2  1   
  2   1   3  1   
  3   2   4  1   
  4   2   5  1   
  5   2   6  1   
  6   3   7  1   
  7   3  27  1   
  8   3  28  1   
  9   4   8  ar  
 10   4   9  ar  
 11   5  10  1   
 12   5  29  1   
 13   5  30  1   
 14   6  11  1   
 15   6  31  1   
 16   6  32  1   
 17   7   8  1   
 18   7  33  1   
 19   7  34  1   
 20   8  12  ar  
 21   9  13  ar  
 22   9  35  1   
 23  10  14  1   
 24  10  36  1   
 25  10  37  1   
 26  11  14  1   
 27  11  38  1   
 28  11  39  1   
 29  12  15  ar  
 30  12  40  1   
 31  13  15  ar  
 32  13  16  1   
 33  14  17  1   
 34  14  41  1   
 35  15  18  1   
 36  16  19  1   
 37  17  20  1   
 38  17  42  1   
 39  17  43  1   
 40  18  21  1   
 41  19  44  1   
 42  19  45  1   
 43  19  46  1   
 44  20  22  1   
 45  20  23  2   
 46  21  47  1   
 47  21  48  1   
 48  21  49  1   
 49  22  24  1   
 50  23  25  1   
 51  23  50  1   
 52  24  25  2   
 53  25  26  1   
 54  26  51  1   
 55  26  52  1   
 56  26  53  1   
@<TRIPOS>SUBSTRUCTURE
  1 ****   5 GROUP 4 **** **** 0

# MOE 2024.06 (io_trps.svl 2023.06)
