@<TRIPOS>MOLECULE
NONAME
51 53 1 0 0 
SMALL
USER_CHARGES


@<TRIPOS>ATOM
  1 F       -0.6310     0.1800    -0.3140 F     1 <1>  -0.1900 
  2 C       -1.8970     0.4940    -0.2090 C.ar  1 <1>   0.1900 
  3 C       -2.3250     1.8180    -0.0700 C.ar  1 <1>   0.0830 
  4 C       -2.7950    -0.5540    -0.2440 C.ar  1 <1>  -0.1500 
  5 O       -1.5420     2.9340    -0.0220 O.3   1 <1>  -0.3630 
  6 C       -3.6880     2.0450     0.0320 C.ar  1 <1>  -0.1500 
  7 C       -4.1490    -0.2910    -0.1420 C.ar  1 <1>  -0.1500 
  8 C       -0.1330     2.8890    -0.0800 C.3   1 <1>   0.0400 
  9 C       -4.6310     1.0130     0.0000 C.ar  1 <1>   0.0530 
 10 C       -6.0440     1.3050     0.1070 C.2   1 <1>   0.0870 
 11 O       -6.4790     2.5270    -0.0770 O.3   1 <1>  -0.0190 
 12 C       -7.1400     0.5430     0.3700 C.2   1 <1>  -0.0860 
 13 N       -7.7750     2.6370     0.0480 N.2   1 <1>  -0.4100 
 14 C       -8.1980     1.4550     0.3290 C.2   1 <1>   0.3720 
 15 C       -7.2620    -0.8530     0.6330 C.2   1 <1>   0.7160 
 16 N       -9.5460     1.1400     0.5620 N.pl3 1 <1>  -0.8210 
 17 O       -6.8670    -1.2860     1.7010 O.2   1 <1>  -0.5700 
 18 N       -7.7670    -1.7350    -0.3010 N.am  1 <1>  -0.6600 
 19 C      -10.5360     2.1030     0.0030 C.3   1 <1>   0.1290 
 20 C       -9.8500     0.7860     1.9750 C.3   1 <1>   0.1290 
 21 C       -7.9260    -3.1970    -0.0160 C.3   1 <1>   0.1400 
 22 C       -8.3340    -1.3130    -1.6120 C.3   1 <1>   0.1400 
 23 C       -9.4080    -3.5950    -0.0620 C.3   1 <1>   0.2000 
 24 C       -9.8220    -1.6750    -1.6650 C.3   1 <1>  -0.1600 
 25 O       -9.4790    -4.9840     0.0510 O.3   1 <1>  -0.5600 
 26 C      -10.0610    -3.1690    -1.3870 C.3   1 <1>  -0.1600 
 27 C      -10.6640    -5.4770     0.5940 C.3   1 <1>   0.0400 
 28 H       -2.4370    -1.5620    -0.3500 H     1 <1>   0.1500 
 29 H       -4.0200     3.0620     0.1420 H     1 <1>   0.1500 
 30 H       -4.8300    -1.1210    -0.1740 H     1 <1>   0.1500 
 31 H        0.2370     3.8950    -0.0070 H     1 <1>   0.0800 
 32 H        0.1650     2.4590    -1.0200 H     1 <1>   0.0800 
 33 H        0.2330     2.3050     0.7460 H     1 <1>   0.0800 
 34 H      -10.2940     2.3200    -1.0230 H     1 <1>   0.0800 
 35 H      -10.5180     3.0200     0.5660 H     1 <1>   0.0800 
 36 H      -11.5240     1.6790     0.0420 H     1 <1>   0.0800 
 37 H       -9.1270     0.0850     2.3550 H     1 <1>   0.0800 
 38 H      -10.8250     0.3350     2.0370 H     1 <1>   0.0800 
 39 H       -9.8290     1.6700     2.5880 H     1 <1>   0.0800 
 40 H       -7.5260    -3.4450     0.9510 H     1 <1>   0.0800 
 41 H       -7.3860    -3.7550    -0.7600 H     1 <1>   0.0800 
 42 H       -7.8070    -1.8240    -2.4000 H     1 <1>   0.0800 
 43 H       -8.2170    -0.2550    -1.7690 H     1 <1>   0.0800 
 44 H       -9.9090    -3.1440     0.7790 H     1 <1>   0.0800 
 45 H      -10.2130    -1.4230    -2.6350 H     1 <1>   0.0800 
 46 H      -10.3480    -1.0820    -0.9380 H     1 <1>   0.0800 
 47 H      -11.1180    -3.3550    -1.3530 H     1 <1>   0.0800 
 48 H       -9.6350    -3.7480    -2.1870 H     1 <1>   0.0800 
 49 H      -10.5890    -6.5490     0.6380 H     1 <1>   0.0800 
 50 H      -11.4920    -5.2010    -0.0340 H     1 <1>   0.0800 
 51 H      -10.7910    -5.0830     1.5870 H     1 <1>   0.0800 
@<TRIPOS>BOND
  1   1   2  1   
  2   2   3  ar  
  3   2   4  ar  
  4   3   5  1   
  5   3   6  ar  
  6   4   7  ar  
  7   4  28  1   
  8   5   8  1   
  9   6   9  ar  
 10   6  29  1   
 11   7   9  ar  
 12   7  30  1   
 13   8  31  1   
 14   8  32  1   
 15   8  33  1   
 16   9  10  1   
 17  10  11  1   
 18  10  12  2   
 19  11  13  1   
 20  12  14  1   
 21  12  15  1   
 22  13  14  2   
 23  14  16  1   
 24  15  17  2   
 25  15  18  am  
 26  16  19  1   
 27  16  20  1   
 28  18  21  1   
 29  18  22  1   
 30  19  34  1   
 31  19  35  1   
 32  19  36  1   
 33  20  37  1   
 34  20  38  1   
 35  20  39  1   
 36  21  23  1   
 37  21  40  1   
 38  21  41  1   
 39  22  24  1   
 40  22  42  1   
 41  22  43  1   
 42  23  25  1   
 43  23  26  1   
 44  23  44  1   
 45  24  26  1   
 46  24  45  1   
 47  24  46  1   
 48  25  27  1   
 49  26  47  1   
 50  26  48  1   
 51  27  49  1   
 52  27  50  1   
 53  27  51  1   
@<TRIPOS>SUBSTRUCTURE
  1 ****  12 GROUP 4 **** **** 0

# MOE 2024.06 (io_trps.svl 2023.06)
