@<TRIPOS>MOLECULE
NONAME
46 48 1 0 0 
SMALL
USER_CHARGES


@<TRIPOS>ATOM
  1 S       -0.1460    -0.3680     0.0490 S.o2  1 <1>   1.5010 
  2 O        0.2820    -1.3030     1.0630 O.2   1 <1>  -0.6500 
  3 O       -1.4140     0.3110     0.1860 O.2   1 <1>  -0.6500 
  4 N       -0.3240    -1.1920    -1.4050 N.am  1 <1>  -0.9140 
  5 C        1.1680     0.8080    -0.3080 C.2   1 <1>  -0.0630 
  6 C       -0.7370    -2.6010    -1.3920 C.3   1 <1>   0.2760 
  7 C        1.4370     2.0630     0.1410 C.2   1 <1>  -0.3320 
  8 C        2.2180     0.5330    -1.1730 C.2   1 <1>   0.1390 
  9 C       -1.9320    -2.9480    -0.4930 C.3   1 <1>  -0.0800 
 10 C        0.3560    -3.5880    -0.9700 C.3   1 <1>   0.1200 
 11 N        2.5810     2.4650    -0.4580 N.pl3 1 <1>   0.3140 
 12 C        0.6420     2.9040     1.1310 C.3   1 <1>  -0.0600 
 13 N        3.0600     1.5130    -1.2740 N.2   1 <1>  -0.7070 
 14 C       -1.3800    -4.0790     0.3810 C.3   1 <1>   0.1200 
 15 C       -3.1490    -3.3950    -1.3220 C.3   1 <1>  -0.0170 
 16 O       -0.3290    -4.6250    -0.3450 O.3   1 <1>  -0.5600 
 17 C        3.2890     3.7550    -0.2970 C.3   1 <1>   0.0960 
 18 C       -4.3420    -3.7160    -0.4340 C.ar  1 <1>  -0.1430 
 19 C        4.2830     3.6990     0.8710 C.3   1 <1>  -0.2400 
 20 C       -4.7880    -5.0080    -0.2450 C.ar  1 <1>  -0.1500 
 21 C       -5.0400    -2.7270     0.2290 C.ar  1 <1>  -0.1500 
 22 C       -5.8790    -5.2420     0.5760 C.ar  1 <1>   0.1600 
 23 C       -6.1190    -3.0690     1.0290 C.ar  1 <1>   0.1600 
 24 N       -6.5550    -4.3030     1.2180 N.ar  1 <1>  -0.6200 
 25 H       -1.0670    -0.6640    -1.8590 H     1 <1>   0.4200 
 26 H       -0.9840    -2.8610    -2.4070 H     1 <1>   0.0800 
 27 H        2.3300    -0.3950    -1.7090 H     1 <1>   0.1500 
 28 H       -2.2340    -2.1410     0.1470 H     1 <1>   0.0800 
 29 H        1.0450    -3.1710    -0.2600 H     1 <1>   0.0800 
 30 H        0.8890    -3.9860    -1.8140 H     1 <1>   0.0800 
 31 H       -0.2160     2.3650     1.4890 H     1 <1>   0.0800 
 32 H        0.2980     3.8080     0.6590 H     1 <1>   0.0800 
 33 H        1.2540     3.1620     1.9770 H     1 <1>   0.0800 
 34 H       -2.0980    -4.8490     0.5990 H     1 <1>   0.0800 
 35 H       -0.9770    -3.6890     1.3020 H     1 <1>   0.0800 
 36 H       -2.8910    -4.2590    -1.9110 H     1 <1>   0.0800 
 37 H       -3.4310    -2.6080    -2.0000 H     1 <1>   0.0800 
 38 H        3.8150     3.9620    -1.2110 H     1 <1>   0.0800 
 39 H        2.5650     4.5310    -0.1370 H     1 <1>   0.0800 
 40 H        5.0120     2.9270     0.6950 H     1 <1>   0.0800 
 41 H        3.7700     3.4990     1.7950 H     1 <1>   0.0800 
 42 H        4.7960     4.6400     0.9590 H     1 <1>   0.0800 
 43 H       -4.2990    -5.8360    -0.7250 H     1 <1>   0.1500 
 44 H       -4.7570    -1.6940     0.1350 H     1 <1>   0.1500 
 45 H       -6.2130    -6.2570     0.7130 H     1 <1>   0.1500 
 46 H       -6.6500    -2.2840     1.5390 H     1 <1>   0.1500 
@<TRIPOS>BOND
  1   1   2  2   
  2   1   3  2   
  3   1   4  am  
  4   1   5  1   
  5   4   6  1   
  6   4  25  1   
  7   5   7  2   
  8   5   8  1   
  9   6   9  1   
 10   6  10  1   
 11   6  26  1   
 12   7  11  1   
 13   7  12  1   
 14   8  13  2   
 15   8  27  1   
 16   9  14  1   
 17   9  15  1   
 18   9  28  1   
 19  10  16  1   
 20  10  29  1   
 21  10  30  1   
 22  11  13  1   
 23  11  17  1   
 24  12  31  1   
 25  12  32  1   
 26  12  33  1   
 27  14  16  1   
 28  14  34  1   
 29  14  35  1   
 30  15  18  1   
 31  15  36  1   
 32  15  37  1   
 33  17  19  1   
 34  17  38  1   
 35  17  39  1   
 36  18  20  ar  
 37  18  21  ar  
 38  19  40  1   
 39  19  41  1   
 40  19  42  1   
 41  20  22  ar  
 42  20  43  1   
 43  21  23  ar  
 44  21  44  1   
 45  22  24  ar  
 46  22  45  1   
 47  23  24  ar  
 48  23  46  1   
@<TRIPOS>SUBSTRUCTURE
  1 ****   1 GROUP 4 **** **** 0

# MOE 2024.06 (io_trps.svl 2023.06)
