@<TRIPOS>MOLECULE
NONAME
39 40 1 0 0 
SMALL
USER_CHARGES


@<TRIPOS>ATOM
  1 F       -1.7690    -1.0010     1.9210 F     1 <1>  -0.3400 
  2 C       -2.4450    -2.0310     1.4340 C.3   1 <1>   1.3000 
  3 F       -3.1910    -2.5280     2.4140 F     1 <1>  -0.3400 
  4 F       -3.2560    -1.5750     0.4870 F     1 <1>  -0.3400 
  5 O       -1.5540    -3.0010     0.9230 O.3   1 <1>  -0.3630 
  6 C       -2.0890    -4.1270     0.4060 C.ar  1 <1>   0.0820 
  7 C       -2.2770    -5.2360     1.2140 C.ar  1 <1>  -0.1500 
  8 C       -2.4250    -4.1780    -0.9380 C.ar  1 <1>  -0.1500 
  9 C       -2.8180    -6.3920     0.6820 C.ar  1 <1>  -0.1500 
 10 C       -2.9660    -5.3350    -1.4690 C.ar  1 <1>  -0.1500 
 11 C       -3.1720    -6.4460    -0.6600 C.ar  1 <1>  -0.1430 
 12 C       -3.7760    -7.7150    -1.2320 C.3   1 <1>   0.4870 
 13 N       -5.1590    -7.8610    -0.7100 N.4   1 <1>  -0.9590 
 14 C       -5.6950    -9.2280    -0.9600 C.3   1 <1>   0.5230 
 15 C       -6.0830    -6.7420    -1.0860 C.3   1 <1>   0.3430 
 16 C       -5.1310   -10.1570     0.1120 C.2   1 <1>   0.0070 
 17 C       -7.2060    -6.5130    -0.0520 C.3   1 <1>   0.1200 
 18 N       -4.2820    -9.7800     1.0220 N.2   1 <1>  -0.5650 
 19 N       -5.4820   -11.4610     0.2140 N.pl3 1 <1>   0.0330 
 20 O       -7.9280    -7.6820     0.1690 O.3   1 <1>  -0.6800 
 21 C       -4.0670   -10.8940     1.7480 C.2   1 <1>   0.0770 
 22 C       -4.7910   -11.9270     1.2680 C.2   1 <1>  -0.3020 
 23 H       -1.9960    -5.1950     2.2530 H     1 <1>   0.1500 
 24 H       -2.2570    -3.3180    -1.5630 H     1 <1>   0.1500 
 25 H       -2.9530    -7.2500     1.3230 H     1 <1>   0.1500 
 26 H       -3.2170    -5.3580    -2.5160 H     1 <1>   0.1500 
 27 H       -3.1760    -8.5570    -0.9220 H     1 <1>   0.0800 
 28 H       -3.7810    -7.6730    -2.3080 H     1 <1>   0.0800 
 29 H       -5.0460    -7.8650     0.3170 H     1 <1>   0.4500 
 30 H       -5.4130    -9.5710    -1.9410 H     1 <1>   0.0800 
 31 H       -6.7690    -9.2340    -0.8920 H     1 <1>   0.0800 
 32 H       -6.5220    -6.9330    -2.0510 H     1 <1>   0.0800 
 33 H       -5.5230    -5.8250    -1.1610 H     1 <1>   0.0800 
 34 H       -7.8870    -5.7600    -0.4100 H     1 <1>   0.0800 
 35 H       -6.7890    -6.1870     0.8860 H     1 <1>   0.0800 
 36 H       -6.1370   -11.9990    -0.3640 H     1 <1>   0.2700 
 37 H       -8.6540    -7.5280     0.8140 H     1 <1>   0.4000 
 38 H       -3.3950   -10.8980     2.5930 H     1 <1>   0.1500 
 39 H       -4.8480   -12.9440     1.6170 H     1 <1>   0.1500 
@<TRIPOS>BOND
  1   1   2  1   
  2   2   3  1   
  3   2   4  1   
  4   2   5  1   
  5   5   6  1   
  6   6   7  ar  
  7   6   8  ar  
  8   7   9  ar  
  9   7  23  1   
 10   8  10  ar  
 11   8  24  1   
 12   9  11  ar  
 13   9  25  1   
 14  10  11  ar  
 15  10  26  1   
 16  11  12  1   
 17  12  13  1   
 18  12  27  1   
 19  12  28  1   
 20  13  14  1   
 21  13  15  1   
 22  13  29  1   
 23  14  16  1   
 24  14  30  1   
 25  14  31  1   
 26  15  17  1   
 27  15  32  1   
 28  15  33  1   
 29  16  18  2   
 30  16  19  1   
 31  17  20  1   
 32  17  34  1   
 33  17  35  1   
 34  18  21  1   
 35  19  22  1   
 36  19  36  1   
 37  20  37  1   
 38  21  22  2   
 39  21  38  1   
 40  22  39  1   
@<TRIPOS>SUBSTRUCTURE
  1 ****   9 GROUP 4 **** **** 0

# MOE 2024.06 (io_trps.svl 2023.06)
