@<TRIPOS>MOLECULE
NONAME
49 51 1 0 0 
SMALL
USER_CHARGES


@<TRIPOS>ATOM
  1 O       -0.0490    -0.7620    -2.6860 O.2   1 <1>  -0.5700 
  2 C       -0.5980     0.1490    -2.1120 C.2   1 <1>   0.5690 
  3 N       -1.5880    -0.0870    -1.1950 N.am  1 <1>  -0.6600 
  4 C       -0.1720     1.5690    -2.4650 C.3   1 <1>   0.0440 
  5 C       -2.2910     0.9300    -0.3710 C.3   1 <1>   0.1400 
  6 C       -2.0040    -1.4550    -0.8040 C.3   1 <1>   0.1400 
  7 C        0.3350     2.3730    -1.2710 C.ar  1 <1>  -0.1440 
  8 C       -3.3550     0.1430     0.3920 C.3   1 <1>   0.2000 
  9 C       -2.8100    -1.2800     0.4840 C.3   1 <1>  -0.0800 
 10 C       -0.1840     3.6270    -0.9930 C.ar  1 <1>  -0.1500 
 11 C        1.3150     1.8500    -0.4450 C.ar  1 <1>  -0.1500 
 12 O       -3.5660     0.6630     1.6580 O.3   1 <1>  -0.6800 
 13 C       -3.9080    -2.3360     0.6750 C.3   1 <1>   0.0210 
 14 C        0.2560     4.3560     0.1020 C.ar  1 <1>  -0.1430 
 15 C        1.7610     2.5710     0.6470 C.ar  1 <1>  -0.1500 
 16 C       -3.3300    -3.7380     0.6300 C.2   1 <1>   0.1080 
 17 C        1.2370     3.8220     0.9310 C.ar  1 <1>  -0.1430 
 18 C       -0.3470     5.7280     0.3680 C.3   1 <1>  -0.0970 
 19 N       -2.4760    -4.1750     1.5020 N.2   1 <1>  -0.7070 
 20 C       -3.6320    -4.6930    -0.3350 C.2   1 <1>  -0.1500 
 21 C        1.7550     4.5820     2.1430 C.3   1 <1>  -0.0970 
 22 N       -2.2070    -5.4350     1.1120 N.pl3 1 <1>   0.3000 
 23 C       -2.8940    -5.7710     0.0000 C.2   1 <1>  -0.3320 
 24 C       -2.8010    -7.1230    -0.6840 C.3   1 <1>  -0.0600 
 25 H        0.6130     1.5180    -3.1980 H     1 <1>   0.0800 
 26 H       -1.0070     2.0630    -2.9220 H     1 <1>   0.0800 
 27 H       -1.5910     1.3770     0.3130 H     1 <1>   0.0800 
 28 H       -2.7400     1.6830    -0.9940 H     1 <1>   0.0800 
 29 H       -2.6120    -1.8720    -1.5890 H     1 <1>   0.0800 
 30 H       -1.1470    -2.0890    -0.6450 H     1 <1>   0.0800 
 31 H       -4.2860     0.1740    -0.1480 H     1 <1>   0.0800 
 32 H       -2.1120    -1.3470     1.3020 H     1 <1>   0.0800 
 33 H       -0.9400     4.0430    -1.6350 H     1 <1>   0.1500 
 34 H        1.7330     0.8790    -0.6470 H     1 <1>   0.1500 
 35 H       -2.7550     0.5740     2.1960 H     1 <1>   0.4000 
 36 H       -4.6550    -2.2360    -0.0910 H     1 <1>   0.0800 
 37 H       -4.3840    -2.1900     1.6280 H     1 <1>   0.0800 
 38 H        2.5220     2.1450     1.2770 H     1 <1>   0.1500 
 39 H       -1.0830     5.9780    -0.3740 H     1 <1>   0.0800 
 40 H        0.4230     6.4780     0.3450 H     1 <1>   0.0800 
 41 H       -0.8210     5.7410     1.3320 H     1 <1>   0.0800 
 42 H       -4.3090    -4.5710    -1.1610 H     1 <1>   0.1500 
 43 H        2.5030     4.0130     2.6650 H     1 <1>   0.0800 
 44 H        0.9490     4.7840     2.8240 H     1 <1>   0.0800 
 45 H        2.1960     5.5130     1.8340 H     1 <1>   0.0800 
 46 H       -1.5500    -6.0360     1.6240 H     1 <1>   0.2700 
 47 H       -3.4410    -7.1450    -1.5470 H     1 <1>   0.0800 
 48 H       -3.1070    -7.9030    -0.0100 H     1 <1>   0.0800 
 49 H       -1.7900    -7.3090    -1.0020 H     1 <1>   0.0800 
@<TRIPOS>BOND
  1   1   2  2   
  2   2   3  am  
  3   2   4  1   
  4   3   5  1   
  5   3   6  1   
  6   4   7  1   
  7   4  25  1   
  8   4  26  1   
  9   5   8  1   
 10   5  27  1   
 11   5  28  1   
 12   6   9  1   
 13   6  29  1   
 14   6  30  1   
 15   7  10  ar  
 16   7  11  ar  
 17   8   9  1   
 18   8  12  1   
 19   8  31  1   
 20   9  13  1   
 21   9  32  1   
 22  10  14  ar  
 23  10  33  1   
 24  11  15  ar  
 25  11  34  1   
 26  12  35  1   
 27  13  16  1   
 28  13  36  1   
 29  13  37  1   
 30  14  17  ar  
 31  14  18  1   
 32  15  17  ar  
 33  15  38  1   
 34  16  19  2   
 35  16  20  1   
 36  17  21  1   
 37  18  39  1   
 38  18  40  1   
 39  18  41  1   
 40  19  22  1   
 41  20  23  2   
 42  20  42  1   
 43  21  43  1   
 44  21  44  1   
 45  21  45  1   
 46  22  23  1   
 47  22  46  1   
 48  23  24  1   
 49  24  47  1   
 50  24  48  1   
 51  24  49  1   
@<TRIPOS>SUBSTRUCTURE
  1 ****   3 GROUP 4 **** **** 0

# MOE 2024.06 (io_trps.svl 2023.06)
