@<TRIPOS>MOLECULE
NONAME
58 61 1 0 0 
SMALL
USER_CHARGES


@<TRIPOS>ATOM
  1 O       -0.5870     0.8030     0.7890 O.2   1 <1>  -0.5700 
  2 C       -1.6760     1.3380     0.7140 C.2   1 <1>   0.5440 
  3 N       -2.8030     0.5490     0.6750 N.am  1 <1>  -0.6600 
  4 C       -1.7610     2.7860     0.6390 C.ar  1 <1>   0.0860 
  5 C       -4.0860     0.9500     0.0380 C.3   1 <1>   0.1400 
  6 C       -2.7730    -0.9230     0.8470 C.3   1 <1>   0.1400 
  7 C       -0.9230     3.5030    -0.2140 C.ar  1 <1>  -0.1500 
  8 C       -2.6640     3.5100     1.4150 C.ar  1 <1>  -0.1500 
  9 C       -4.8840    -0.3470    -0.1600 C.3   1 <1>   0.2000 
 10 C       -3.8180    -1.4480    -0.1380 C.3   1 <1>  -0.0800 
 11 C       -0.9870     4.8850    -0.3080 C.ar  1 <1>  -0.1440 
 12 C       -2.7430     4.8880     1.3280 C.ar  1 <1>  -0.1500 
 13 O       -5.7510    -0.5370     0.9230 O.3   1 <1>  -0.5600 
 14 C       -4.3480    -2.8490     0.2170 C.3   1 <1>   0.0200 
 15 C       -1.9080     5.5740     0.4650 C.ar  1 <1>  -0.1500 
 16 C       -0.0510     5.6420    -1.2450 C.3   1 <1>   0.2390 
 17 C       -6.9950     0.0790     0.8020 C.3   1 <1>   0.0400 
 18 C       -3.3030    -3.9420     0.0590 C.2   1 <1>  -0.0400 
 19 N        0.7000     6.7070    -0.5400 N.pl3 1 <1>   0.3140 
 20 O       -3.6130    -5.1620     0.4080 O.3   1 <1>  -0.0190 
 21 C       -2.0380    -3.9570    -0.3940 C.2   1 <1>  -0.1500 
 22 N        0.5410     8.0040    -0.8740 N.2   1 <1>  -0.7070 
 23 C        1.6150     6.5670     0.4500 C.2   1 <1>  -0.3320 
 24 N       -2.6270    -5.9900     0.2170 N.2   1 <1>  -0.4100 
 25 C       -1.6640    -5.2910    -0.2640 C.2   1 <1>   0.1080 
 26 C        1.3460     8.6520    -0.0940 C.2   1 <1>   0.1080 
 27 C        2.0470     7.8080     0.7570 C.2   1 <1>  -0.1500 
 28 C        2.0380     5.2460     1.0720 C.3   1 <1>  -0.0600 
 29 C       -0.3090    -5.8500    -0.6360 C.3   1 <1>  -0.0590 
 30 C        1.4780    10.1560    -0.1380 C.3   1 <1>  -0.0590 
 31 H       -4.6220     1.6460     0.6560 H     1 <1>   0.0800 
 32 H       -3.8740     1.3990    -0.9160 H     1 <1>   0.0800 
 33 H       -1.7950    -1.3250     0.6480 H     1 <1>   0.0800 
 34 H       -3.0560    -1.1570     1.8590 H     1 <1>   0.0800 
 35 H       -0.2110     2.9510    -0.8030 H     1 <1>   0.1500 
 36 H       -3.3050     2.9830     2.1010 H     1 <1>   0.1500 
 37 H       -5.4490    -0.3540    -1.0760 H     1 <1>   0.0800 
 38 H       -3.3640    -1.4840    -1.1120 H     1 <1>   0.0800 
 39 H       -3.4480     5.4300     1.9340 H     1 <1>   0.1500 
 40 H       -5.1820    -3.0850    -0.4200 H     1 <1>   0.0800 
 41 H       -4.7020    -2.8590     1.2330 H     1 <1>   0.0800 
 42 H       -1.9690     6.6500     0.4050 H     1 <1>   0.1500 
 43 H       -0.6230     6.1000    -2.0300 H     1 <1>   0.0800 
 44 H        0.6610     4.9750    -1.6910 H     1 <1>   0.0800 
 45 H       -7.5560    -0.1270     1.6970 H     1 <1>   0.0800 
 46 H       -7.5130    -0.3290    -0.0490 H     1 <1>   0.0800 
 47 H       -6.8660     1.1410     0.6950 H     1 <1>   0.0800 
 48 H       -1.4230    -3.1640    -0.7730 H     1 <1>   0.1500 
 49 H        2.7710     8.1080     1.4930 H     1 <1>   0.1500 
 50 H        2.8090     5.4120     1.8020 H     1 <1>   0.0800 
 51 H        2.4180     4.5810     0.3180 H     1 <1>   0.0800 
 52 H        1.2010     4.7800     1.5620 H     1 <1>   0.0800 
 53 H        0.4600    -5.3330    -0.0930 H     1 <1>   0.0800 
 54 H       -0.1430    -5.7300    -1.6900 H     1 <1>   0.0800 
 55 H       -0.2640    -6.8960    -0.3920 H     1 <1>   0.0800 
 56 H        2.1940    10.4920     0.5890 H     1 <1>   0.0800 
 57 H        0.5240    10.6040     0.0700 H     1 <1>   0.0800 
 58 H        1.7990    10.4580    -1.1180 H     1 <1>   0.0800 
@<TRIPOS>BOND
  1   1   2  2   
  2   2   3  am  
  3   2   4  1   
  4   3   5  1   
  5   3   6  1   
  6   4   7  ar  
  7   4   8  ar  
  8   5   9  1   
  9   5  31  1   
 10   5  32  1   
 11   6  10  1   
 12   6  33  1   
 13   6  34  1   
 14   7  11  ar  
 15   7  35  1   
 16   8  12  ar  
 17   8  36  1   
 18   9  10  1   
 19   9  13  1   
 20   9  37  1   
 21  10  14  1   
 22  10  38  1   
 23  11  15  ar  
 24  11  16  1   
 25  12  15  ar  
 26  12  39  1   
 27  13  17  1   
 28  14  18  1   
 29  14  40  1   
 30  14  41  1   
 31  15  42  1   
 32  16  19  1   
 33  16  43  1   
 34  16  44  1   
 35  17  45  1   
 36  17  46  1   
 37  17  47  1   
 38  18  20  1   
 39  18  21  2   
 40  19  22  1   
 41  19  23  1   
 42  20  24  1   
 43  21  25  1   
 44  21  48  1   
 45  22  26  2   
 46  23  27  2   
 47  23  28  1   
 48  24  25  2   
 49  25  29  1   
 50  26  27  1   
 51  26  30  1   
 52  27  49  1   
 53  28  50  1   
 54  28  51  1   
 55  28  52  1   
 56  29  53  1   
 57  29  54  1   
 58  29  55  1   
 59  30  56  1   
 60  30  57  1   
 61  30  58  1   
@<TRIPOS>SUBSTRUCTURE
  1 ****   2 GROUP 4 **** **** 0

# MOE 2024.06 (io_trps.svl 2023.06)
