@<TRIPOS>MOLECULE
NONAME
54 57 1 0 0 
SMALL
USER_CHARGES


@<TRIPOS>ATOM
  1 O        1.9930    -0.5910     2.2880 O.2   1 <1>  -0.5700 
  2 C        2.1750    -0.9690     1.1440 C.2   1 <1>   0.5440 
  3 N        2.6210    -0.0440     0.2120 N.am  1 <1>  -0.6600 
  4 C        1.9390    -2.3590     0.8070 C.ar  1 <1>   0.0860 
  5 C        2.6730     1.4030     0.6000 C.3   1 <1>   0.1400 
  6 C        3.3520    -0.4790    -1.0220 C.3   1 <1>   0.1400 
  7 C        1.1050    -2.7270    -0.2480 C.ar  1 <1>  -0.1500 
  8 C        2.5450    -3.3850     1.5300 C.ar  1 <1>  -0.1500 
  9 C        4.0850     1.9010     1.0070 C.3   1 <1>   0.4230 
 10 C        4.7700     0.1130    -1.1860 C.3   1 <1>  -0.0800 
 11 C        0.9040    -4.0540    -0.5750 C.ar  1 <1>  -0.1500 
 12 C        2.3410    -4.7120     1.2030 C.ar  1 <1>  -0.1500 
 13 N        4.8870     2.4230    -0.1600 N.4   1 <1>  -0.9590 
 14 C        4.9290     0.8820     1.8210 C.3   1 <1>   0.1200 
 15 C        5.7970    -0.3230    -0.1180 C.3   1 <1>   0.1200 
 16 C        4.7350     1.6260    -1.4130 C.3   1 <1>   0.3430 
 17 C        1.5210    -5.0770     0.1390 C.ar  1 <1>   0.0000 
 18 C        4.6050     3.8690    -0.4180 C.3   1 <1>   0.2630 
 19 O        5.2630    -0.3180     1.1670 O.3   1 <1>  -0.5600 
 20 C        1.3230    -6.4670    -0.2100 C.ar  1 <1>   0.0000 
 21 C        0.0580    -7.0710    -0.2180 C.ar  1 <1>   0.0820 
 22 C        2.4260    -7.2470    -0.5520 C.ar  1 <1>  -0.1500 
 23 O       -1.0100    -6.3070     0.1260 O.3   1 <1>  -0.3620 
 24 C       -0.0730    -8.4150    -0.5640 C.ar  1 <1>  -0.1500 
 25 C        2.2910    -8.5790    -0.8940 C.ar  1 <1>  -0.1500 
 26 C       -2.3120    -6.8330     0.2450 C.3   1 <1>   0.0400 
 27 C        1.0380    -9.1650    -0.9000 C.ar  1 <1>  -0.1500 
 28 H        2.2790     2.0020    -0.2000 H     1 <1>   0.0800 
 29 H        2.0180     1.5660     1.4390 H     1 <1>   0.0800 
 30 H        3.4520    -1.5510    -1.0250 H     1 <1>   0.0800 
 31 H        2.7520    -0.2190    -1.8770 H     1 <1>   0.0800 
 32 H        0.6040    -1.9600    -0.8110 H     1 <1>   0.1500 
 33 H        3.1800    -3.1270     2.3590 H     1 <1>   0.1500 
 34 H        3.9210     2.7330     1.6710 H     1 <1>   0.0800 
 35 H        5.1320    -0.2920    -2.1140 H     1 <1>   0.0800 
 36 H        0.2540    -4.3160    -1.3920 H     1 <1>   0.1500 
 37 H        2.8180    -5.4830     1.7820 H     1 <1>   0.1500 
 38 H        5.8710     2.3330     0.1300 H     1 <1>   0.4500 
 39 H        4.3720     0.5990     2.6980 H     1 <1>   0.0800 
 40 H        5.8430     1.3390     2.1540 H     1 <1>   0.0800 
 41 H        6.6880     0.2800    -0.1320 H     1 <1>   0.0800 
 42 H        6.0870    -1.3430    -0.3110 H     1 <1>   0.0800 
 43 H        3.8050     1.8790    -1.8960 H     1 <1>   0.0800 
 44 H        5.5320     1.8910    -2.0890 H     1 <1>   0.0800 
 45 H        3.5780     4.0040    -0.7160 H     1 <1>   0.0800 
 46 H        5.2430     4.2420    -1.2030 H     1 <1>   0.0800 
 47 H        4.7850     4.4520     0.4720 H     1 <1>   0.0800 
 48 H        3.4030    -6.7980    -0.5530 H     1 <1>   0.1500 
 49 H       -1.0320    -8.8960    -0.5790 H     1 <1>   0.1500 
 50 H        3.1580    -9.1620    -1.1550 H     1 <1>   0.1500 
 51 H       -2.9640    -6.0390     0.5650 H     1 <1>   0.0800 
 52 H       -2.3050    -7.6180     0.9800 H     1 <1>   0.0800 
 53 H       -2.6290    -7.2020    -0.7140 H     1 <1>   0.0800 
 54 H        0.9310   -10.2020    -1.1660 H     1 <1>   0.1500 
@<TRIPOS>BOND
  1   1   2  2   
  2   2   3  am  
  3   2   4  1   
  4   3   5  1   
  5   3   6  1   
  6   4   7  ar  
  7   4   8  ar  
  8   5   9  1   
  9   5  28  1   
 10   5  29  1   
 11   6  10  1   
 12   6  30  1   
 13   6  31  1   
 14   7  11  ar  
 15   7  32  1   
 16   8  12  ar  
 17   8  33  1   
 18   9  13  1   
 19   9  14  1   
 20   9  34  1   
 21  10  15  1   
 22  10  16  1   
 23  10  35  1   
 24  11  17  ar  
 25  11  36  1   
 26  12  17  ar  
 27  12  37  1   
 28  13  16  1   
 29  13  18  1   
 30  13  38  1   
 31  14  19  1   
 32  14  39  1   
 33  14  40  1   
 34  15  19  1   
 35  15  41  1   
 36  15  42  1   
 37  16  43  1   
 38  16  44  1   
 39  17  20  1   
 40  18  45  1   
 41  18  46  1   
 42  18  47  1   
 43  20  21  ar  
 44  20  22  ar  
 45  21  23  1   
 46  21  24  ar  
 47  22  25  ar  
 48  22  48  1   
 49  23  26  1   
 50  24  27  ar  
 51  24  49  1   
 52  25  27  ar  
 53  25  50  1   
 54  26  51  1   
 55  26  52  1   
 56  26  53  1   
 57  27  54  1   
@<TRIPOS>SUBSTRUCTURE
  1 ****   4 GROUP 4 **** **** 0

# MOE 2024.06 (io_trps.svl 2023.06)
