@<TRIPOS>MOLECULE
NONAME
40 42 1 0 0 
SMALL
USER_CHARGES


@<TRIPOS>ATOM
  1 S       -2.0970    -0.1270    -1.6830 S.3   1 <1>  -0.0800 
  2 C       -2.6070     0.7560    -0.2590 C.2   1 <1>   0.1980 
  3 C       -0.4500     0.2870    -1.3150 C.2   1 <1>  -0.1100 
  4 N       -1.6500     1.2900     0.3940 N.2   1 <1>  -0.5650 
  5 C       -4.0990     0.7950     0.0430 C.3   1 <1>   0.3890 
  6 C       -0.4230     1.0280    -0.1950 C.2   1 <1>   0.0460 
  7 N       -4.5650    -0.4980     0.6020 N.pl3 1 <1>  -0.8690 
  8 C        0.7940     1.6150     0.5040 C.3   1 <1>   0.0210 
  9 C       -4.9840    -1.4900    -0.2100 C.ar  1 <1>   0.7200 
 10 C        2.1200     1.2780    -0.1890 C.3   1 <1>  -0.2400 
 11 N       -4.5490    -2.6850     0.1470 N.ar  1 <1>  -0.6200 
 12 N       -5.7530    -1.1620    -1.2430 N.ar  1 <1>  -0.6200 
 13 C       -4.9230    -3.6950    -0.6170 C.ar  1 <1>   0.4100 
 14 C       -6.1230    -2.1750    -2.0030 C.ar  1 <1>   0.1600 
 15 N       -4.4700    -4.9570    -0.2520 N.pl3 1 <1>  -0.8380 
 16 C       -5.7310    -3.4550    -1.7270 C.ar  1 <1>   0.1900 
 17 C       -5.4580    -6.0290     0.0660 C.3   1 <1>   0.2090 
 18 C       -3.2180    -5.0930     0.5530 C.3   1 <1>   0.2090 
 19 F       -6.1180    -4.4290    -2.5250 F     1 <1>  -0.1900 
 20 C       -4.7930    -7.4170     0.0100 C.3   1 <1>   0.1200 
 21 C       -2.6730    -6.5300     0.4800 C.3   1 <1>   0.1200 
 22 O       -3.6580    -7.4650     0.8310 O.3   1 <1>  -0.5600 
 23 H        0.3170    -0.0710    -1.9760 H     1 <1>   0.1500 
 24 H       -4.6400     1.0480    -0.8510 H     1 <1>   0.0800 
 25 H       -4.2830     1.5680     0.7680 H     1 <1>   0.0800 
 26 H       -3.9170    -0.8700     1.2950 H     1 <1>   0.4000 
 27 H        0.8170     1.2440     1.5130 H     1 <1>   0.0800 
 28 H        0.6780     2.6830     0.5500 H     1 <1>   0.0800 
 29 H        2.2640     0.2130    -0.2230 H     1 <1>   0.0800 
 30 H        2.9380     1.7180     0.3530 H     1 <1>   0.0800 
 31 H        2.1260     1.6670    -1.1920 H     1 <1>   0.0800 
 32 H       -6.7450    -1.9750    -2.8570 H     1 <1>   0.1500 
 33 H       -6.2790    -6.0020    -0.6270 H     1 <1>   0.0800 
 34 H       -5.8510    -5.8670     1.0550 H     1 <1>   0.0800 
 35 H       -3.4230    -4.8400     1.5790 H     1 <1>   0.0800 
 36 H       -2.4750    -4.4080     0.1830 H     1 <1>   0.0800 
 37 H       -4.4990    -7.6490    -0.9980 H     1 <1>   0.0800 
 38 H       -5.4780    -8.1700     0.3540 H     1 <1>   0.0800 
 39 H       -1.8500    -6.6480     1.1610 H     1 <1>   0.0800 
 40 H       -2.3320    -6.7490    -0.5170 H     1 <1>   0.0800 
@<TRIPOS>BOND
  1   1   2  1   
  2   1   3  1   
  3   2   4  2   
  4   2   5  1   
  5   3   6  2   
  6   3  23  1   
  7   4   6  1   
  8   5   7  1   
  9   5  24  1   
 10   5  25  1   
 11   6   8  1   
 12   7   9  1   
 13   7  26  1   
 14   8  10  1   
 15   8  27  1   
 16   8  28  1   
 17   9  11  ar  
 18   9  12  ar  
 19  10  29  1   
 20  10  30  1   
 21  10  31  1   
 22  11  13  ar  
 23  12  14  ar  
 24  13  15  1   
 25  13  16  ar  
 26  14  16  ar  
 27  14  32  1   
 28  15  17  1   
 29  15  18  1   
 30  16  19  1   
 31  17  20  1   
 32  17  33  1   
 33  17  34  1   
 34  18  21  1   
 35  18  35  1   
 36  18  36  1   
 37  20  22  1   
 38  20  37  1   
 39  20  38  1   
 40  21  22  1   
 41  21  39  1   
 42  21  40  1   
@<TRIPOS>SUBSTRUCTURE
  1 ****  11 GROUP 4 **** **** 0

# MOE 2024.06 (io_trps.svl 2023.06)
