@<TRIPOS>MOLECULE
NONAME
52 55 1 0 0 
SMALL
USER_CHARGES


@<TRIPOS>ATOM
  1 O        1.3870    -0.8780    -1.4580 O.3   1 <1>  -0.0190 
  2 N        1.5410     0.4080    -1.4320 N.2   1 <1>  -0.4100 
  3 C        1.8740    -1.4480    -0.3910 C.2   1 <1>  -0.0400 
  4 C        2.1570     0.6810    -0.3340 C.2   1 <1>   0.1080 
  5 C        2.4020    -0.4880     0.3860 C.2   1 <1>  -0.1500 
  6 C        1.7700    -2.9510    -0.2430 C.3   1 <1>   0.5230 
  7 C        2.5600     2.0810     0.1200 C.3   1 <1>   0.1010 
  8 N        0.3890    -3.3470     0.1760 N.4   1 <1>  -0.9590 
  9 C        1.3200     2.9590     0.3600 C.3   1 <1>  -0.1600 
 10 C        3.5050     2.7420    -0.8980 C.3   1 <1>  -0.1600 
 11 C        0.3390    -4.7780     0.5850 C.3   1 <1>   0.3430 
 12 C       -0.6380    -3.0280    -0.8620 C.3   1 <1>   0.3430 
 13 C        1.7090     4.3790     0.7960 C.3   1 <1>  -0.1600 
 14 C        3.8980     4.1620    -0.4640 C.3   1 <1>  -0.1600 
 15 C       -1.0300    -5.0880     1.1820 C.3   1 <1>  -0.1600 
 16 C       -2.0300    -3.3060    -0.3040 C.3   1 <1>  -0.1600 
 17 C        2.6570     5.0300    -0.2200 C.3   1 <1>  -0.1600 
 18 C       -2.1790    -4.7440     0.2190 C.3   1 <1>   0.1000 
 19 C       -3.5150    -4.8910     0.9370 C.2   1 <1>   0.0060 
 20 N       -3.8010    -4.2480     2.0190 N.2   1 <1>  -0.3380 
 21 N       -4.5330    -5.6740     0.5530 N.pl3 1 <1>   0.0480 
 22 N       -5.0330    -4.6030     2.3760 N.2   1 <1>  -0.3380 
 23 C       -5.4480    -5.4460     1.4960 C.2   1 <1>   0.0360 
 24 C       -4.6640    -6.5770    -0.6070 C.3   1 <1>   0.0160 
 25 H        2.9010    -0.5460     1.3370 H     1 <1>   0.1500 
 26 H        2.4770    -3.2700     0.5050 H     1 <1>   0.0800 
 27 H        2.0300    -3.4230    -1.1770 H     1 <1>   0.0800 
 28 H        3.0890     1.9910     1.0530 H     1 <1>   0.0800 
 29 H        0.1530    -2.7740     0.9990 H     1 <1>   0.4500 
 30 H        0.6980     2.5080     1.1140 H     1 <1>   0.0800 
 31 H        0.7450     3.0150    -0.5490 H     1 <1>   0.0800 
 32 H        3.0160     2.7900    -1.8570 H     1 <1>   0.0800 
 33 H        4.3900     2.1420    -1.0120 H     1 <1>   0.0800 
 34 H        1.1000    -4.9810     1.3220 H     1 <1>   0.0800 
 35 H        0.5140    -5.4120    -0.2700 H     1 <1>   0.0800 
 36 H       -0.4700    -3.6250    -1.7450 H     1 <1>   0.0800 
 37 H       -0.5820    -1.9880    -1.1410 H     1 <1>   0.0800 
 38 H        2.1900     4.3410     1.7590 H     1 <1>   0.0800 
 39 H        0.8210     4.9800     0.8960 H     1 <1>   0.0800 
 40 H        4.5090     4.6150    -1.2260 H     1 <1>   0.0800 
 41 H        4.4820     4.1120     0.4390 H     1 <1>   0.0800 
 42 H       -1.1400    -4.5370     2.1000 H     1 <1>   0.0800 
 43 H       -1.0810    -6.1330     1.4340 H     1 <1>   0.0800 
 44 H       -2.7620    -3.1290    -1.0720 H     1 <1>   0.0800 
 45 H       -2.2320    -2.6050     0.4890 H     1 <1>   0.0800 
 46 H        2.9590     5.9990     0.1380 H     1 <1>   0.0800 
 47 H        2.1350     5.1720    -1.1510 H     1 <1>   0.0800 
 48 H       -2.1410    -5.4210    -0.6160 H     1 <1>   0.0800 
 49 H       -6.4140    -5.9170     1.5110 H     1 <1>   0.1500 
 50 H       -3.9280    -7.3570    -0.5390 H     1 <1>   0.0800 
 51 H       -4.5230    -6.0180    -1.5140 H     1 <1>   0.0800 
 52 H       -5.6460    -7.0160    -0.6120 H     1 <1>   0.0800 
@<TRIPOS>BOND
  1   1   2  1   
  2   1   3  1   
  3   2   4  2   
  4   3   5  2   
  5   3   6  1   
  6   4   5  1   
  7   4   7  1   
  8   5  25  1   
  9   6   8  1   
 10   6  26  1   
 11   6  27  1   
 12   7   9  1   
 13   7  10  1   
 14   7  28  1   
 15   8  11  1   
 16   8  12  1   
 17   8  29  1   
 18   9  13  1   
 19   9  30  1   
 20   9  31  1   
 21  10  14  1   
 22  10  32  1   
 23  10  33  1   
 24  11  15  1   
 25  11  34  1   
 26  11  35  1   
 27  12  16  1   
 28  12  36  1   
 29  12  37  1   
 30  13  17  1   
 31  13  38  1   
 32  13  39  1   
 33  14  17  1   
 34  14  40  1   
 35  14  41  1   
 36  15  18  1   
 37  15  42  1   
 38  15  43  1   
 39  16  18  1   
 40  16  44  1   
 41  16  45  1   
 42  17  46  1   
 43  17  47  1   
 44  18  19  1   
 45  18  48  1   
 46  19  20  2   
 47  19  21  1   
 48  20  22  1   
 49  21  23  1   
 50  21  24  1   
 51  22  23  2   
 52  23  49  1   
 53  24  50  1   
 54  24  51  1   
 55  24  52  1   
@<TRIPOS>SUBSTRUCTURE
  1 ****  12 GROUP 4 **** **** 0

# MOE 2024.06 (io_trps.svl 2023.06)
