@<TRIPOS>MOLECULE
NONAME
47 48 1 0 0 
SMALL
USER_CHARGES


@<TRIPOS>ATOM
  1 CL      -0.0250    -3.1670    -3.0860 Cl    1 <1>  -0.1770 
  2 C        0.1670    -2.4380    -1.5110 C.ar  1 <1>   0.1770 
  3 C        0.7470    -3.1400    -0.4590 C.ar  1 <1>  -0.1440 
  4 C       -0.2940    -1.1450    -1.3480 C.ar  1 <1>  -0.1500 
  5 C        0.8580    -2.5050     0.7700 C.ar  1 <1>  -0.1500 
  6 C        1.2830    -4.5670    -0.5960 C.3   1 <1>   0.0450 
  7 C       -0.1810    -0.5280    -0.1150 C.ar  1 <1>  -0.1500 
  8 C        0.3940    -1.2110     0.9430 C.ar  1 <1>  -0.1500 
  9 C        0.6500    -5.5290     0.4050 C.2   1 <1>   0.5690 
 10 O        1.3040    -5.8090     1.3790 O.2   1 <1>  -0.5700 
 11 N       -0.6080    -6.0520     0.2340 N.am  1 <1>  -0.6600 
 12 C       -0.9940    -7.2270     1.0970 C.3   1 <1>   0.3210 
 13 C       -1.5720    -5.6320    -0.8370 C.3   1 <1>   0.1400 
 14 C       -2.4850    -7.5750     1.0850 C.2   1 <1>   0.0460 
 15 C       -2.6820    -4.6640    -0.3580 C.3   1 <1>   0.3430 
 16 N       -3.3840    -6.8430     1.7800 N.2   1 <1>  -0.5650 
 17 C       -3.0960    -8.6060     0.4530 C.2   1 <1>  -0.3320 
 18 N       -2.2150    -3.5690     0.5640 N.4   1 <1>  -0.9590 
 19 C       -4.5070    -7.4520     1.5770 C.2   1 <1>   0.0360 
 20 N       -4.4010    -8.5310     0.7760 N.pl3 1 <1>   0.0330 
 21 C       -2.5450    -9.7060    -0.4400 C.3   1 <1>  -0.0600 
 22 C       -2.2060    -4.0340     1.9870 C.3   1 <1>   0.2630 
 23 C       -3.0640    -2.3530     0.4310 C.3   1 <1>   0.2630 
 24 H       -0.7260    -0.6230    -2.1850 H     1 <1>   0.1500 
 25 H        1.3210    -3.0130     1.6040 H     1 <1>   0.1500 
 26 H        2.3420    -4.5440    -0.4100 H     1 <1>   0.0800 
 27 H        1.1620    -4.9600    -1.5860 H     1 <1>   0.0800 
 28 H       -0.5250     0.4850     0.0190 H     1 <1>   0.1500 
 29 H        0.4980    -0.7280     1.9010 H     1 <1>   0.1500 
 30 H       -0.7090    -7.0330     2.1170 H     1 <1>   0.0800 
 31 H       -0.4320    -8.0830     0.7720 H     1 <1>   0.0800 
 32 H       -2.0370    -6.5060    -1.2610 H     1 <1>   0.0800 
 33 H       -1.0440    -5.1650    -1.6440 H     1 <1>   0.0800 
 34 H       -3.4590    -5.2300     0.1250 H     1 <1>   0.0800 
 35 H       -3.1220    -4.2230    -1.2360 H     1 <1>   0.0800 
 36 H       -1.2410    -3.3230     0.3160 H     1 <1>   0.4500 
 37 H       -5.4500    -7.1510     2.0010 H     1 <1>   0.1500 
 38 H       -5.1540    -9.1680     0.4960 H     1 <1>   0.2700 
 39 H       -1.4920    -9.5730    -0.6110 H     1 <1>   0.0800 
 40 H       -3.0450    -9.6990    -1.3930 H     1 <1>   0.0800 
 41 H       -2.6940   -10.6660     0.0210 H     1 <1>   0.0800 
 42 H       -3.1930    -4.3490     2.2860 H     1 <1>   0.0800 
 43 H       -1.8790    -3.2420     2.6400 H     1 <1>   0.0800 
 44 H       -1.5380    -4.8700     2.1080 H     1 <1>   0.0800 
 45 H       -4.0830    -2.5760     0.7020 H     1 <1>   0.0800 
 46 H       -3.0430    -1.9930    -0.5850 H     1 <1>   0.0800 
 47 H       -2.6960    -1.5720     1.0770 H     1 <1>   0.0800 
@<TRIPOS>BOND
  1   1   2  1   
  2   2   3  ar  
  3   2   4  ar  
  4   3   5  ar  
  5   3   6  1   
  6   4   7  ar  
  7   4  24  1   
  8   5   8  ar  
  9   5  25  1   
 10   6   9  1   
 11   6  26  1   
 12   6  27  1   
 13   7   8  ar  
 14   7  28  1   
 15   8  29  1   
 16   9  10  2   
 17   9  11  am  
 18  11  12  1   
 19  11  13  1   
 20  12  14  1   
 21  12  30  1   
 22  12  31  1   
 23  13  15  1   
 24  13  32  1   
 25  13  33  1   
 26  14  16  1   
 27  14  17  2   
 28  15  18  1   
 29  15  34  1   
 30  15  35  1   
 31  16  19  2   
 32  17  20  1   
 33  17  21  1   
 34  18  22  1   
 35  18  23  1   
 36  18  36  1   
 37  19  20  1   
 38  19  37  1   
 39  20  38  1   
 40  21  39  1   
 41  21  40  1   
 42  21  41  1   
 43  22  42  1   
 44  22  43  1   
 45  22  44  1   
 46  23  45  1   
 47  23  46  1   
 48  23  47  1   
@<TRIPOS>SUBSTRUCTURE
  1 ****  13 GROUP 4 **** **** 0

# MOE 2024.06 (io_trps.svl 2023.06)
