@<TRIPOS>MOLECULE
NONAME
36 37 1 0 0 
SMALL
USER_CHARGES


@<TRIPOS>ATOM
  1 S       -0.9180     0.4320     1.5300 S.o2  1 <1>   1.4470 
  2 O       -1.4220     1.6860     2.0520 O.2   1 <1>  -0.6500 
  3 O       -0.9140    -0.7230     2.4020 O.2   1 <1>  -0.6500 
  4 N       -1.8290     0.0880     0.1380 N.am  1 <1>  -0.8490 
  5 C        0.7560     0.7190     0.8870 C.ar  1 <1>  -0.0090 
  6 C       -1.4290    -1.1090    -0.6300 C.3   1 <1>   0.1960 
  7 C       -3.2810     0.1980     0.3100 C.3   1 <1>   0.1960 
  8 C        1.1180     1.9530     0.3580 C.ar  1 <1>  -0.1500 
  9 C        1.7090    -0.2930     0.8820 C.ar  1 <1>  -0.1500 
 10 C       -2.0110    -2.4140    -0.0720 C.3   1 <1>  -0.1860 
 11 C       -3.8850    -1.0640     0.9300 C.3   1 <1>  -0.1600 
 12 C        2.3860     2.1820    -0.1510 C.ar  1 <1>  -0.1440 
 13 C        2.9780    -0.0800     0.3730 C.ar  1 <1>  -0.1500 
 14 C       -1.6740    -3.5710    -0.9880 C.2   1 <1>   0.9060 
 15 C       -3.5230    -2.2780     0.0830 C.3   1 <1>   0.2000 
 16 C        3.3160     1.1570    -0.1420 C.ar  1 <1>  -0.1500 
 17 C        2.7470     3.5430    -0.7190 C.3   1 <1>  -0.0970 
 18 O       -0.8830    -3.3980    -1.9200 O.co2 1 <1>  -0.9000 
 19 O       -2.2170    -4.6640    -0.7780 O.co2 1 <1>  -0.9000 
 20 O       -4.0130    -3.4060     0.6990 O.3   1 <1>  -0.6800 
 21 H       -1.7760    -0.9910    -1.6430 H     1 <1>   0.0800 
 22 H       -0.3560    -1.1860    -0.6810 H     1 <1>   0.0800 
 23 H       -3.5210     1.0560     0.9150 H     1 <1>   0.0800 
 24 H       -3.7250     0.3530    -0.6590 H     1 <1>   0.0800 
 25 H        0.3870     2.7430     0.3480 H     1 <1>   0.1500 
 26 H        1.4520    -1.2630     1.2770 H     1 <1>   0.1500 
 27 H       -1.5640    -2.6270     0.8790 H     1 <1>   0.0800 
 28 H       -4.9540    -0.9640     0.9700 H     1 <1>   0.0800 
 29 H       -3.5160    -1.1890     1.9320 H     1 <1>   0.0800 
 30 H        3.6990    -0.8800     0.3760 H     1 <1>   0.1500 
 31 H       -3.9840    -2.2120    -0.8890 H     1 <1>   0.0800 
 32 H        4.3040     1.3160    -0.5380 H     1 <1>   0.1500 
 33 H        3.8020     3.7240    -0.6220 H     1 <1>   0.0800 
 34 H        2.2200     4.3200    -0.1950 H     1 <1>   0.0800 
 35 H        2.4810     3.5850    -1.7600 H     1 <1>   0.0800 
 36 H       -3.5230    -4.1720     0.2780 H     1 <1>   0.4000 
@<TRIPOS>BOND
  1   1   2  2   
  2   1   3  2   
  3   1   4  am  
  4   1   5  1   
  5   4   6  1   
  6   4   7  1   
  7   5   8  ar  
  8   5   9  ar  
  9   6  10  1   
 10   6  21  1   
 11   6  22  1   
 12   7  11  1   
 13   7  23  1   
 14   7  24  1   
 15   8  12  ar  
 16   8  25  1   
 17   9  13  ar  
 18   9  26  1   
 19  10  14  1   
 20  10  15  1   
 21  10  27  1   
 22  11  15  1   
 23  11  28  1   
 24  11  29  1   
 25  12  16  ar  
 26  12  17  1   
 27  13  16  ar  
 28  13  30  1   
 29  14  18  ar  
 30  14  19  ar  
 31  15  20  1   
 32  15  31  1   
 33  16  32  1   
 34  17  33  1   
 35  17  34  1   
 36  17  35  1   
 37  20  36  1   
@<TRIPOS>SUBSTRUCTURE
  1 ****   6 GROUP 4 **** **** 0

# MOE 2024.06 (io_trps.svl 2023.06)
