@<TRIPOS>MOLECULE
NONAME
58 61 1 0 0 
SMALL
USER_CHARGES


@<TRIPOS>ATOM
  1 O        0.4710    -0.4190    -1.2530 O.2   1 <1>  -0.5700 
  2 C        1.1420    -1.2530    -0.6960 C.2   1 <1>   0.5690 
  3 N        0.7240    -1.9460     0.4070 N.am  1 <1>  -0.6600 
  4 C        2.5180    -1.5760    -1.2400 C.3   1 <1>  -0.0990 
  5 C        1.6150    -2.9350     1.0580 C.3   1 <1>   0.1400 
  6 C       -0.5860    -1.6860     1.0620 C.3   1 <1>   0.0600 
  7 C        2.7150    -3.1030    -1.3010 C.3   1 <1>  -0.0800 
  8 C        2.2850    -3.8320    -0.0070 C.3   1 <1>  -0.0800 
  9 C        4.1670    -3.5080    -1.5880 C.3   1 <1>  -0.1600 
 10 C        3.5370    -4.5510     0.5160 C.3   1 <1>  -0.1600 
 11 C        4.4140    -4.7390    -0.7220 C.3   1 <1>   0.4230 
 12 N        5.8690    -5.0090    -0.4610 N.4   1 <1>  -0.9590 
 13 C        6.5470    -4.2850     0.6720 C.3   1 <1>   0.4860 
 14 C        6.0710    -6.4830    -0.2970 C.3   1 <1>   0.2630 
 15 C        6.6450    -2.8020     0.4030 C.ar  1 <1>  -0.1440 
 16 C        5.9180    -1.8900     1.1370 C.ar  1 <1>   0.1600 
 17 C        7.4470    -2.2940    -0.5950 C.ar  1 <1>   0.1600 
 18 N        5.9320    -0.6110     0.8700 N.ar  1 <1>  -0.6200 
 19 N        7.4800    -1.0190    -0.8800 N.ar  1 <1>  -0.6200 
 20 C        6.7020    -0.2370    -0.1390 C.ar  1 <1>   0.7200 
 21 N        6.6580     1.0760    -0.4230 N.pl3 1 <1>  -0.8690 
 22 C        7.7420     1.8040    -1.0970 C.3   1 <1>   0.3530 
 23 C        7.7600     3.2210    -0.5540 C.ar  1 <1>  -0.1440 
 24 C        8.6230     3.5680     0.4750 C.ar  1 <1>  -0.1500 
 25 C        6.9050     4.1800    -1.0760 C.ar  1 <1>  -0.1500 
 26 C        8.6360     4.8610     0.9710 C.ar  1 <1>  -0.1500 
 27 C        6.9180     5.4730    -0.5820 C.ar  1 <1>  -0.1500 
 28 C        7.7840     5.8140     0.4420 C.ar  1 <1>  -0.1500 
 29 H        2.6240    -1.1460    -2.2200 H     1 <1>   0.0800 
 30 H        3.2420    -1.1160    -0.5930 H     1 <1>   0.0800 
 31 H        2.3570    -2.3920     1.6170 H     1 <1>   0.0800 
 32 H        1.0520    -3.5430     1.7450 H     1 <1>   0.0800 
 33 H       -1.1720    -2.5880     1.0760 H     1 <1>   0.0800 
 34 H       -1.1340    -0.9300     0.5260 H     1 <1>   0.0800 
 35 H       -0.4290    -1.3450     2.0700 H     1 <1>   0.0800 
 36 H        2.0900    -3.4720    -2.1000 H     1 <1>   0.0800 
 37 H        1.5630    -4.5820    -0.2870 H     1 <1>   0.0800 
 38 H        4.8120    -2.6930    -1.3330 H     1 <1>   0.0800 
 39 H        4.2930    -3.7350    -2.6320 H     1 <1>   0.0800 
 40 H        3.2770    -5.4940     0.9640 H     1 <1>   0.0800 
 41 H        4.0090    -3.9260     1.2440 H     1 <1>   0.0800 
 42 H        4.0040    -5.5730    -1.2710 H     1 <1>   0.0800 
 43 H        6.3520    -4.7260    -1.3240 H     1 <1>   0.4500 
 44 H        6.0130    -4.4570     1.5920 H     1 <1>   0.0800 
 45 H        7.5450    -4.6720     0.7990 H     1 <1>   0.0800 
 46 H        5.5660    -6.8350     0.5880 H     1 <1>   0.0800 
 47 H        7.1210    -6.7140    -0.2110 H     1 <1>   0.0800 
 48 H        5.6760    -7.0120    -1.1500 H     1 <1>   0.0800 
 49 H        5.3000    -2.2040     1.9610 H     1 <1>   0.1500 
 50 H        8.0730    -2.9410    -1.1860 H     1 <1>   0.1500 
 51 H        6.1780     1.6320     0.2840 H     1 <1>   0.4000 
 52 H        8.6880     1.3230    -0.9130 H     1 <1>   0.0800 
 53 H        7.5620     1.8120    -2.1580 H     1 <1>   0.0800 
 54 H        9.2860     2.8330     0.8970 H     1 <1>   0.1500 
 55 H        6.2230     3.9210    -1.8690 H     1 <1>   0.1500 
 56 H        9.3090     5.1240     1.7680 H     1 <1>   0.1500 
 57 H        6.2520     6.2120    -0.9920 H     1 <1>   0.1500 
 58 H        7.7950     6.8190     0.8270 H     1 <1>   0.1500 
@<TRIPOS>BOND
  1   1   2  2   
  2   2   3  am  
  3   2   4  1   
  4   3   5  1   
  5   3   6  1   
  6   4   7  1   
  7   4  29  1   
  8   4  30  1   
  9   5   8  1   
 10   5  31  1   
 11   5  32  1   
 12   6  33  1   
 13   6  34  1   
 14   6  35  1   
 15   7   8  1   
 16   7   9  1   
 17   7  36  1   
 18   8  10  1   
 19   8  37  1   
 20   9  11  1   
 21   9  38  1   
 22   9  39  1   
 23  10  11  1   
 24  10  40  1   
 25  10  41  1   
 26  11  12  1   
 27  11  42  1   
 28  12  13  1   
 29  12  14  1   
 30  12  43  1   
 31  13  15  1   
 32  13  44  1   
 33  13  45  1   
 34  14  46  1   
 35  14  47  1   
 36  14  48  1   
 37  15  16  ar  
 38  15  17  ar  
 39  16  18  ar  
 40  16  49  1   
 41  17  19  ar  
 42  17  50  1   
 43  18  20  ar  
 44  19  20  ar  
 45  20  21  1   
 46  21  22  1   
 47  21  51  1   
 48  22  23  1   
 49  22  52  1   
 50  22  53  1   
 51  23  24  ar  
 52  23  25  ar  
 53  24  26  ar  
 54  24  54  1   
 55  25  27  ar  
 56  25  55  1   
 57  26  28  ar  
 58  26  56  1   
 59  27  28  ar  
 60  27  57  1   
 61  28  58  1   
@<TRIPOS>SUBSTRUCTURE
  1 ****  18 GROUP 4 **** **** 0

# MOE 2024.06 (io_trps.svl 2023.06)
