@<TRIPOS>MOLECULE
NONAME
45 47 1 0 0 
SMALL
USER_CHARGES


@<TRIPOS>ATOM
  1 F       -1.3350    -0.1180    -1.3270 F     1 <1>  -0.1900 
  2 C       -2.0910    -0.8040    -0.5170 C.ar  1 <1>   0.1900 
  3 C       -1.9470    -2.1830    -0.4010 C.ar  1 <1>  -0.1440 
  4 C       -3.0310    -0.0820     0.1920 C.ar  1 <1>  -0.1500 
  5 C       -2.8270    -2.8460     0.4710 C.ar  1 <1>  -0.1440 
  6 C       -0.8800    -2.9510    -1.2000 C.3   1 <1>   1.1640 
  7 C       -3.8760    -0.7480     1.0560 C.ar  1 <1>  -0.1500 
  8 C       -3.7710    -2.1200     1.1900 C.ar  1 <1>  -0.1500 
  9 C       -2.8210    -4.3590     0.6930 C.3   1 <1>   0.4860 
 10 F        0.0140    -2.2420    -1.8680 F     1 <1>  -0.3400 
 11 F       -0.1850    -3.7590    -0.4110 F     1 <1>  -0.3400 
 12 F       -1.4630    -3.7490    -2.0910 F     1 <1>  -0.3400 
 13 N       -3.4340    -5.0550    -0.4750 N.4   1 <1>  -0.9590 
 14 C       -4.8750    -4.6860    -0.6520 C.3   1 <1>   0.3430 
 15 C       -3.4090    -6.5320    -0.2410 C.3   1 <1>   0.3430 
 16 C       -5.6680    -5.7290     0.1400 C.3   1 <1>   0.2000 
 17 C       -4.8620    -7.0050    -0.1070 C.3   1 <1>  -0.0800 
 18 O       -5.6240    -5.3820     1.4890 O.3   1 <1>  -0.6800 
 19 C       -5.0240    -8.1260     0.9380 C.3   1 <1>   0.0210 
 20 C       -4.1810    -9.3330     0.5740 C.2   1 <1>   0.1080 
 21 N       -2.8860    -9.2890     0.4940 N.2   1 <1>  -0.7070 
 22 C       -4.6840   -10.5980     0.2940 C.2   1 <1>  -0.1500 
 23 N       -2.5240   -10.5490     0.1690 N.pl3 1 <1>   0.3000 
 24 C       -3.5980   -11.3550     0.0360 C.2   1 <1>  -0.3320 
 25 C       -3.5180   -12.8270    -0.3270 C.3   1 <1>  -0.0600 
 26 H       -3.0960     0.9860     0.0670 H     1 <1>   0.1500 
 27 H       -4.6110    -0.1980     1.6210 H     1 <1>   0.1500 
 28 H       -4.4430    -2.6190     1.8710 H     1 <1>   0.1500 
 29 H       -3.3810    -4.5890     1.5850 H     1 <1>   0.0800 
 30 H       -1.8130    -4.7080     0.8460 H     1 <1>   0.0800 
 31 H       -2.8990    -4.8240    -1.3250 H     1 <1>   0.4500 
 32 H       -5.0940    -3.6870    -0.3140 H     1 <1>   0.0800 
 33 H       -5.1380    -4.7680    -1.6940 H     1 <1>   0.0800 
 34 H       -2.9260    -7.0510    -1.0540 H     1 <1>   0.0800 
 35 H       -2.8720    -6.7600     0.6670 H     1 <1>   0.0800 
 36 H       -6.6960    -5.7930    -0.1740 H     1 <1>   0.0800 
 37 H       -5.1520    -7.4040    -1.0640 H     1 <1>   0.0800 
 38 H       -6.2780    -5.8970     2.0080 H     1 <1>   0.4000 
 39 H       -6.0560    -8.4220     1.0020 H     1 <1>   0.0800 
 40 H       -4.7120    -7.7890     1.9110 H     1 <1>   0.0800 
 41 H       -5.7200   -10.8910     0.2920 H     1 <1>   0.1500 
 42 H       -1.5430   -10.8320     0.0490 H     1 <1>   0.2700 
 43 H       -4.5050   -13.2530    -0.3680 H     1 <1>   0.0800 
 44 H       -2.9460   -13.3620     0.4100 H     1 <1>   0.0800 
 45 H       -3.0530   -12.9500    -1.2890 H     1 <1>   0.0800 
@<TRIPOS>BOND
  1   1   2  1   
  2   2   3  ar  
  3   2   4  ar  
  4   3   5  ar  
  5   3   6  1   
  6   4   7  ar  
  7   4  26  1   
  8   5   8  ar  
  9   5   9  1   
 10   6  10  1   
 11   6  11  1   
 12   6  12  1   
 13   7   8  ar  
 14   7  27  1   
 15   8  28  1   
 16   9  13  1   
 17   9  29  1   
 18   9  30  1   
 19  13  14  1   
 20  13  15  1   
 21  13  31  1   
 22  14  16  1   
 23  14  32  1   
 24  14  33  1   
 25  15  17  1   
 26  15  34  1   
 27  15  35  1   
 28  16  17  1   
 29  16  18  1   
 30  16  36  1   
 31  17  19  1   
 32  17  37  1   
 33  18  38  1   
 34  19  20  1   
 35  19  39  1   
 36  19  40  1   
 37  20  21  2   
 38  20  22  1   
 39  21  23  1   
 40  22  24  2   
 41  22  41  1   
 42  23  24  1   
 43  23  42  1   
 44  24  25  1   
 45  25  43  1   
 46  25  44  1   
 47  25  45  1   
@<TRIPOS>SUBSTRUCTURE
  1 ****  13 GROUP 4 **** **** 0

# MOE 2024.06 (io_trps.svl 2023.06)
