@<TRIPOS>MOLECULE
NONAME
45 47 1 0 0 
SMALL
USER_CHARGES


@<TRIPOS>ATOM
  1 S        0.3810    -0.0270    -0.3770 S.o2  1 <1>   1.3330 
  2 O        0.5360    -0.5320     0.9690 O.2   1 <1>  -0.6500 
  3 O        0.2470    -0.9480    -1.4830 O.2   1 <1>  -0.6500 
  4 N       -0.9250     1.0590    -0.3990 N.am  1 <1>  -0.8490 
  5 C        1.7690     1.0450    -0.7340 C.3   1 <1>  -0.0550 
  6 C       -1.3300     1.5180     0.9340 C.3   1 <1>   0.1160 
  7 C       -2.0880     0.5400    -1.1290 C.3   1 <1>   0.1160 
  8 C        3.1000     0.2820    -0.8810 C.3   1 <1>  -0.0800 
  9 C        4.2920     1.1250    -1.3170 C.3   1 <1>   0.2200 
 10 C        3.6050    -0.3910     0.4060 C.3   1 <1>   0.1200 
 11 N        4.3210     2.4180    -0.5840 N.am  1 <1>  -0.7300 
 12 C        5.4310     0.2690    -0.7840 C.3   1 <1>   0.1200 
 13 O        4.9780    -0.1290     0.4710 O.3   1 <1>  -0.5600 
 14 C        3.9870     3.6340    -1.1110 C.2   1 <1>   0.7030 
 15 O        3.5110     3.6680    -2.2270 O.2   1 <1>  -0.5700 
 16 C        4.1660     4.8780    -0.3780 C.2   1 <1>   0.2770 
 17 N        3.7630     6.1210    -0.8390 N.pl3 1 <1>  -0.7000 
 18 C        4.7270     5.1020     0.8350 C.2   1 <1>   0.2000 
 19 C        4.0720     7.0540     0.0670 C.cat 1 <1>   0.7910 
 20 N        4.6720     6.4490     1.1200 N.pl3 1 <1>  -0.6290 
 21 C        3.8710     8.4440     0.0580 C.2   1 <1>  -0.1410 
 22 C        5.0970     7.1930     2.2010 C.2   1 <1>   0.2290 
 23 C        4.2860     9.1940     1.1250 C.2   1 <1>  -0.1500 
 24 C        4.9100     8.5460     2.2110 C.2   1 <1>  -0.1500 
 25 H        1.5710     1.5650    -1.6520 H     1 <1>   0.0800 
 26 H        1.8500     1.7760     0.0460 H     1 <1>   0.0800 
 27 H       -2.0950     2.2710     0.8510 H     1 <1>   0.0800 
 28 H       -0.4870     1.9440     1.4500 H     1 <1>   0.0800 
 29 H       -1.7100     0.6940     1.5150 H     1 <1>   0.0800 
 30 H       -2.8810     1.2690    -1.1360 H     1 <1>   0.0800 
 31 H       -2.4440    -0.3670    -0.6700 H     1 <1>   0.0800 
 32 H       -1.8180     0.3280    -2.1500 H     1 <1>   0.0800 
 33 H        2.9590    -0.4940    -1.6150 H     1 <1>   0.0800 
 34 H        4.3420     1.2710    -2.3840 H     1 <1>   0.0800 
 35 H        3.4540    -1.4580     0.3820 H     1 <1>   0.0800 
 36 H        3.1480     0.0170     1.2920 H     1 <1>   0.0800 
 37 H        4.6450     2.2900     0.3790 H     1 <1>   0.3700 
 38 H        6.3580     0.8060    -0.6880 H     1 <1>   0.0800 
 39 H        5.5750    -0.6120    -1.3870 H     1 <1>   0.0800 
 40 H        3.3120     6.2660    -1.7490 H     1 <1>   0.4500 
 41 H        5.1650     4.3860     1.5130 H     1 <1>   0.1500 
 42 H        3.3910     8.8910    -0.7930 H     1 <1>   0.1500 
 43 H        5.5740     6.6790     3.0220 H     1 <1>   0.1500 
 44 H        4.1490    10.2640     1.1560 H     1 <1>   0.1500 
 45 H        5.2360     9.1410     3.0480 H     1 <1>   0.1500 
@<TRIPOS>BOND
  1   1   2  2   
  2   1   3  2   
  3   1   4  am  
  4   1   5  1   
  5   4   6  1   
  6   4   7  1   
  7   5   8  1   
  8   5  25  1   
  9   5  26  1   
 10   6  27  1   
 11   6  28  1   
 12   6  29  1   
 13   7  30  1   
 14   7  31  1   
 15   7  32  1   
 16   8   9  1   
 17   8  10  1   
 18   8  33  1   
 19   9  11  1   
 20   9  12  1   
 21   9  34  1   
 22  10  13  1   
 23  10  35  1   
 24  10  36  1   
 25  11  14  am  
 26  11  37  1   
 27  12  13  1   
 28  12  38  1   
 29  12  39  1   
 30  14  15  2   
 31  14  16  1   
 32  16  17  1   
 33  16  18  2   
 34  17  19  ar  
 35  17  40  1   
 36  18  20  1   
 37  18  41  1   
 38  19  20  ar  
 39  19  21  1   
 40  20  22  1   
 41  21  23  2   
 42  21  42  1   
 43  22  24  2   
 44  22  43  1   
 45  23  24  1   
 46  23  44  1   
 47  24  45  1   
@<TRIPOS>SUBSTRUCTURE
  1 ****  14 GROUP 4 **** **** 0

# MOE 2024.06 (io_trps.svl 2023.06)
