@<TRIPOS>MOLECULE
NONAME
55 58 1 0 0 
SMALL
USER_CHARGES


@<TRIPOS>ATOM
  1 O        1.8060    -0.7310     2.3560 O.2   1 <1>  -0.5700 
  2 C        2.2080    -1.5770     1.6000 C.2   1 <1>   0.5690 
  3 N        1.4130    -2.1120     0.6510 N.am  1 <1>  -0.7300 
  4 C        3.6290    -2.0890     1.6940 C.3   1 <1>  -0.0990 
  5 C        1.8590    -3.1770    -0.2710 C.3   1 <1>   0.1400 
  6 C        4.2420    -2.2400     0.2890 C.3   1 <1>  -0.0800 
  7 C        3.2960    -2.8890    -0.7530 C.3   1 <1>  -0.0800 
  8 C        5.5360    -3.0660     0.2850 C.3   1 <1>  -0.1600 
  9 C        4.0210    -4.1470    -1.2480 C.3   1 <1>  -0.1600 
 10 C        5.5010    -3.8370    -1.0300 C.3   1 <1>   0.2200 
 11 N        6.3900    -5.0390    -1.0140 N.am  1 <1>  -0.6600 
 12 C        7.6070    -5.0650    -1.6660 C.2   1 <1>   0.5690 
 13 C        5.9540    -6.2260    -0.2140 C.3   1 <1>   0.0600 
 14 O        8.3190    -6.0440    -1.6260 O.2   1 <1>  -0.5700 
 15 C        8.1300    -3.8730    -2.4920 C.3   1 <1>   0.1710 
 16 N        8.3390    -2.6020    -1.7410 N.3   1 <1>  -0.8100 
 17 C        9.3520    -2.7870    -0.6730 C.3   1 <1>   0.1100 
 18 C        8.7750    -1.5210    -2.6530 C.3   1 <1>   0.1100 
 19 C        9.6190    -1.4930     0.1210 C.3   1 <1>   0.2090 
 20 C        9.0000    -0.1900    -1.9130 C.3   1 <1>   0.2090 
 21 N        9.9760    -0.3610    -0.7920 N.pl3 1 <1>  -0.8380 
 22 C       11.0640     0.4640    -0.5930 C.ar  1 <1>   0.7200 
 23 N       11.3230     1.3720    -1.5350 N.ar  1 <1>  -0.6200 
 24 N       11.7670     0.2880     0.5270 N.ar  1 <1>  -0.6200 
 25 C       12.3570     2.1500    -1.3310 C.ar  1 <1>   0.1600 
 26 C       12.7950     1.0800     0.7050 C.ar  1 <1>   0.1600 
 27 C       13.1400     2.0450    -0.2090 C.ar  1 <1>  -0.1500 
 28 H        0.4420    -1.7940     0.6120 H     1 <1>   0.3700 
 29 H        4.2170    -1.4110     2.2850 H     1 <1>   0.0800 
 30 H        3.5980    -3.0380     2.1970 H     1 <1>   0.0800 
 31 H        1.8220    -4.1150     0.2580 H     1 <1>   0.0800 
 32 H        1.1920    -3.2350    -1.1140 H     1 <1>   0.0800 
 33 H        4.4750    -1.2500    -0.0690 H     1 <1>   0.0800 
 34 H        3.2240    -2.2070    -1.5830 H     1 <1>   0.0800 
 35 H        5.5470    -3.7480     1.1150 H     1 <1>   0.0800 
 36 H        6.4040    -2.4330     0.3360 H     1 <1>   0.0800 
 37 H        3.8110    -4.3460    -2.2840 H     1 <1>   0.0800 
 38 H        3.7170    -4.9860    -0.6510 H     1 <1>   0.0800 
 39 H        5.7980    -3.1610    -1.8120 H     1 <1>   0.0800 
 40 H        5.4660    -5.9170     0.6920 H     1 <1>   0.0800 
 41 H        6.7990    -6.8360     0.0550 H     1 <1>   0.0800 
 42 H        5.2750    -6.8230    -0.7970 H     1 <1>   0.0800 
 43 H        7.4290    -3.7010    -3.2880 H     1 <1>   0.0800 
 44 H        9.0600    -4.1700    -2.9440 H     1 <1>   0.0800 
 45 H        9.0160    -3.5430     0.0150 H     1 <1>   0.0800 
 46 H       10.2810    -3.1210    -1.1040 H     1 <1>   0.0800 
 47 H        9.6940    -1.8000    -3.1400 H     1 <1>   0.0800 
 48 H        8.0260    -1.3700    -3.4100 H     1 <1>   0.0800 
 49 H       10.4030    -1.6870     0.8300 H     1 <1>   0.0800 
 50 H        8.7350    -1.2300     0.6730 H     1 <1>   0.0800 
 51 H        8.0630     0.1510    -1.5100 H     1 <1>   0.0800 
 52 H        9.3380     0.5440    -2.6210 H     1 <1>   0.0800 
 53 H       12.5850     2.8910    -2.0780 H     1 <1>   0.1500 
 54 H       13.3760     0.9570     1.6030 H     1 <1>   0.1500 
 55 H       13.9840     2.6880    -0.0520 H     1 <1>   0.1500 
@<TRIPOS>BOND
  1   1   2  2   
  2   2   3  am  
  3   2   4  1   
  4   3   5  1   
  5   3  28  1   
  6   4   6  1   
  7   4  29  1   
  8   4  30  1   
  9   5   7  1   
 10   5  31  1   
 11   5  32  1   
 12   6   7  1   
 13   6   8  1   
 14   6  33  1   
 15   7   9  1   
 16   7  34  1   
 17   8  10  1   
 18   8  35  1   
 19   8  36  1   
 20   9  10  1   
 21   9  37  1   
 22   9  38  1   
 23  10  11  1   
 24  10  39  1   
 25  11  12  am  
 26  11  13  1   
 27  12  14  2   
 28  12  15  1   
 29  13  40  1   
 30  13  41  1   
 31  13  42  1   
 32  15  16  1   
 33  15  43  1   
 34  15  44  1   
 35  16  17  1   
 36  16  18  1   
 37  17  19  1   
 38  17  45  1   
 39  17  46  1   
 40  18  20  1   
 41  18  47  1   
 42  18  48  1   
 43  19  21  1   
 44  19  49  1   
 45  19  50  1   
 46  20  21  1   
 47  20  51  1   
 48  20  52  1   
 49  21  22  1   
 50  22  23  ar  
 51  22  24  ar  
 52  23  25  ar  
 53  24  26  ar  
 54  25  27  ar  
 55  25  53  1   
 56  26  27  ar  
 57  26  54  1   
 58  27  55  1   
@<TRIPOS>SUBSTRUCTURE
  1 ****  16 GROUP 4 **** **** 0

# MOE 2024.06 (io_trps.svl 2023.06)
