@<TRIPOS>MOLECULE
NONAME
32 33 1 0 0 
SMALL
USER_CHARGES


@<TRIPOS>ATOM
  1 S       -1.1810    -1.6630     3.1120 S.3   1 <1>  -0.0800 
  2 C       -2.1370    -1.5820     1.6550 C.2   1 <1>  -0.1400 
  3 C       -1.3790     0.0550     3.3230 C.2   1 <1>   0.2280 
  4 C       -2.5080    -0.2960     1.4690 C.2   1 <1>   0.0460 
  5 C       -2.3100    -2.9390     0.9780 C.3   1 <1>   0.0200 
  6 N       -2.0720     0.6140     2.4170 N.2   1 <1>  -0.5650 
  7 C       -3.3410     0.3390     0.3720 C.3   1 <1>  -0.0590 
  8 C       -3.1260    -2.9210    -0.3170 C.3   1 <1>   0.2090 
  9 N       -3.2290    -4.2820    -0.9130 N.pl3 1 <1>  -0.8380 
 10 C       -3.9820    -5.2300    -0.2480 C.ar  1 <1>   0.4100 
 11 C       -2.0450    -4.7280    -1.7010 C.3   1 <1>   0.1290 
 12 N       -3.3260    -6.2530     0.2790 N.ar  1 <1>  -0.6200 
 13 C       -5.3600    -5.0700    -0.1450 C.ar  1 <1>  -0.1500 
 14 C       -4.0500    -7.1580     0.9370 C.ar  1 <1>   0.3830 
 15 C       -6.1130    -5.9960     0.5320 C.ar  1 <1>  -0.1500 
 16 C       -3.3720    -8.2850     1.5240 C.1   1 <1>   0.4840 
 17 C       -5.4300    -7.0610     1.0820 C.ar  1 <1>  -0.1500 
 18 N       -2.8800    -9.1960     2.0090 N.1   1 <1>  -0.5570 
 19 H       -0.9120     0.5030     4.1820 H     1 <1>   0.1500 
 20 H       -2.7870    -3.6020     1.6770 H     1 <1>   0.0800 
 21 H       -1.3330    -3.3320     0.7650 H     1 <1>   0.0800 
 22 H       -3.6850    -0.3650    -0.3550 H     1 <1>   0.0800 
 23 H       -2.7540     1.0880    -0.1290 H     1 <1>   0.0800 
 24 H       -4.1970     0.8190     0.8120 H     1 <1>   0.0800 
 25 H       -2.6610    -2.2600    -1.0280 H     1 <1>   0.0800 
 26 H       -4.1150    -2.5560    -0.1050 H     1 <1>   0.0800 
 27 H       -1.8170    -4.0070    -2.4670 H     1 <1>   0.0800 
 28 H       -2.2560    -5.6740    -2.1710 H     1 <1>   0.0800 
 29 H       -1.1930    -4.8490    -1.0550 H     1 <1>   0.0800 
 30 H       -5.8190    -4.2180    -0.6090 H     1 <1>   0.1500 
 31 H       -7.1820    -5.8980     0.6270 H     1 <1>   0.1500 
 32 H       -5.9670    -7.8190     1.6240 H     1 <1>   0.1500 
@<TRIPOS>BOND
  1   1   2  1   
  2   1   3  1   
  3   2   4  2   
  4   2   5  1   
  5   3   6  2   
  6   3  19  1   
  7   4   6  1   
  8   4   7  1   
  9   5   8  1   
 10   5  20  1   
 11   5  21  1   
 12   7  22  1   
 13   7  23  1   
 14   7  24  1   
 15   8   9  1   
 16   8  25  1   
 17   8  26  1   
 18   9  10  1   
 19   9  11  1   
 20  10  12  ar  
 21  10  13  ar  
 22  11  27  1   
 23  11  28  1   
 24  11  29  1   
 25  12  14  ar  
 26  13  15  ar  
 27  13  30  1   
 28  14  16  1   
 29  14  17  ar  
 30  15  17  ar  
 31  15  31  1   
 32  16  18  3   
 33  17  32  1   
@<TRIPOS>SUBSTRUCTURE
  1 ****   5 GROUP 4 **** **** 0

# MOE 2024.06 (io_trps.svl 2023.06)
