@<TRIPOS>MOLECULE
NONAME
48 51 1 0 0 
SMALL
USER_CHARGES


@<TRIPOS>ATOM
  1 O       -1.4300     0.0350    -0.1090 O.2   1 <1>  -0.5700 
  2 C       -2.1630     0.9590     0.1960 C.2   1 <1>   0.7150 
  3 N       -3.4020     0.6620     0.7080 N.am  1 <1>  -0.6600 
  4 C       -1.7400     2.3220     0.0210 C.2   1 <1>  -0.2370 
  5 C       -3.6410    -0.6730     1.3290 C.3   1 <1>   0.1400 
  6 C       -4.6350     1.2850     0.1410 C.3   1 <1>   0.1400 
  7 N       -2.2650     3.3610     0.7530 N.pl3 1 <1>   0.0330 
  8 C       -0.7940     2.8440    -0.8130 C.2   1 <1>  -0.1500 
  9 C       -4.1920    -1.6260     0.2450 C.3   1 <1>   0.4230 
 10 C       -5.2780     0.3250    -0.8770 C.3   1 <1>  -0.1600 
 11 C       -1.6670     4.5300     0.3710 C.ar  1 <1>  -0.1520 
 12 C       -0.7340     4.2350    -0.6160 C.ar  1 <1>   0.0000 
 13 N       -4.3510    -3.0580     0.6710 N.4   1 <1>  -0.9590 
 14 C       -5.5400    -1.0930    -0.2920 C.3   1 <1>  -0.1060 
 15 C       -1.8610     5.8440     0.8070 C.ar  1 <1>  -0.1500 
 16 C        0.0250     5.2670    -1.1800 C.ar  1 <1>  -0.1500 
 17 C       -4.7770    -3.9710    -0.4320 C.3   1 <1>   0.3430 
 18 C       -3.2360    -3.6190     1.4780 C.3   1 <1>   0.2630 
 19 C       -6.5230    -1.0380     0.8930 C.2   1 <1>   0.9060 
 20 C       -6.1140    -2.0230    -1.4010 C.3   1 <1>  -0.1600 
 21 C       -1.1100     6.8480     0.2430 C.ar  1 <1>  -0.1500 
 22 C       -0.1660     6.5590    -0.7510 C.ar  1 <1>  -0.1500 
 23 C       -5.1960    -3.2180    -1.7040 C.3   1 <1>  -0.1600 
 24 O       -6.5410    -1.9970     1.6800 O.co2 1 <1>  -0.9000 
 25 O       -7.2360    -0.0500     1.0610 O.co2 1 <1>  -0.9000 
 26 H       -2.7100    -1.0440     1.7170 H     1 <1>   0.0800 
 27 H       -4.3320    -0.5680     2.1480 H     1 <1>   0.0800 
 28 H       -5.3250     1.5020     0.9410 H     1 <1>   0.0800 
 29 H       -4.4020     2.2120    -0.3540 H     1 <1>   0.0800 
 30 H       -2.9820     3.2650     1.4800 H     1 <1>   0.2700 
 31 H       -0.1800     2.3040    -1.5130 H     1 <1>   0.1500 
 32 H       -3.4780    -1.6040    -0.5610 H     1 <1>   0.0800 
 33 H       -6.2100     0.7550    -1.2030 H     1 <1>   0.0800 
 34 H       -4.6360     0.2580    -1.7370 H     1 <1>   0.0800 
 35 H       -5.2030    -2.9690     1.2890 H     1 <1>   0.4500 
 36 H       -2.5880     6.0560     1.5720 H     1 <1>   0.1500 
 37 H        0.7460     5.0300    -1.9410 H     1 <1>   0.1500 
 38 H       -3.9750    -4.6470    -0.6790 H     1 <1>   0.0800 
 39 H       -5.6120    -4.5570    -0.0850 H     1 <1>   0.0800 
 40 H       -2.3230    -3.6140     0.9060 H     1 <1>   0.0800 
 41 H       -3.4630    -4.6320     1.7690 H     1 <1>   0.0800 
 42 H       -3.0940    -3.0350     2.3720 H     1 <1>   0.0800 
 43 H       -7.0720    -2.4030    -1.0810 H     1 <1>   0.0800 
 44 H       -6.2940    -1.4730    -2.3090 H     1 <1>   0.0800 
 45 H       -1.2390     7.8680     0.5610 H     1 <1>   0.1500 
 46 H        0.4090     7.3630    -1.1760 H     1 <1>   0.1500 
 47 H       -4.3140    -2.8770    -2.2190 H     1 <1>   0.0800 
 48 H       -5.7020    -3.9010    -2.3630 H     1 <1>   0.0800 
@<TRIPOS>BOND
  1   1   2  2   
  2   2   3  am  
  3   2   4  1   
  4   3   5  1   
  5   3   6  1   
  6   4   7  1   
  7   4   8  2   
  8   5   9  1   
  9   5  26  1   
 10   5  27  1   
 11   6  10  1   
 12   6  28  1   
 13   6  29  1   
 14   7  11  1   
 15   7  30  1   
 16   8  12  1   
 17   8  31  1   
 18   9  13  1   
 19   9  14  1   
 20   9  32  1   
 21  10  14  1   
 22  10  33  1   
 23  10  34  1   
 24  11  12  ar  
 25  11  15  ar  
 26  12  16  ar  
 27  13  17  1   
 28  13  18  1   
 29  13  35  1   
 30  14  19  1   
 31  14  20  1   
 32  15  21  ar  
 33  15  36  1   
 34  16  22  ar  
 35  16  37  1   
 36  17  23  1   
 37  17  38  1   
 38  17  39  1   
 39  18  40  1   
 40  18  41  1   
 41  18  42  1   
 42  19  24  ar  
 43  19  25  ar  
 44  20  23  1   
 45  20  43  1   
 46  20  44  1   
 47  21  22  ar  
 48  21  45  1   
 49  22  46  1   
 50  23  47  1   
 51  23  48  1   
@<TRIPOS>SUBSTRUCTURE
  1 ****   3 GROUP 4 **** **** 0

# MOE 2024.06 (io_trps.svl 2023.06)
