@<TRIPOS>MOLECULE
NONAME
43 46 1 0 0 
SMALL
USER_CHARGES


@<TRIPOS>ATOM
  1 S        1.7360     0.8710    -1.9500 S.3   1 <1>  -0.0800 
  2 C        1.1130     2.1880    -0.9780 C.2   1 <1>  -0.1400 
  3 C        3.3750     1.4770    -1.7530 C.2   1 <1>  -0.1100 
  4 C        2.0900     2.9930    -0.5410 C.2   1 <1>  -0.1810 
  5 C       -0.3530     2.3670    -0.6950 C.3   1 <1>   0.0200 
  6 C        3.3910     2.5900    -0.9930 C.2   1 <1>  -0.1500 
  7 C        1.7790     4.2020     0.3450 C.3   1 <1>   0.4610 
  8 C       -0.5490     3.8200    -0.2330 C.3   1 <1>   0.1200 
  9 O        0.4140     4.1840     0.7280 O.3   1 <1>  -0.5600 
 10 C        2.5820     4.1270     1.6490 C.3   1 <1>  -0.1600 
 11 C        2.0760     5.5170    -0.3890 C.3   1 <1>  -0.1600 
 12 C        2.3530     5.3600     2.5250 C.3   1 <1>   0.1400 
 13 C        1.8520     6.7300     0.5170 C.3   1 <1>   0.1400 
 14 N        2.6890     6.5820     1.7410 N.am  1 <1>  -0.6600 
 15 C        3.7320     7.4000     2.1130 C.2   1 <1>   0.5690 
 16 O        4.3810     7.1790     3.1100 O.2   1 <1>  -0.5700 
 17 C        4.1270     8.6320     1.3120 C.3   1 <1>   0.0810 
 18 C        4.9820     8.2790     0.1090 C.2   1 <1>  -0.0400 
 19 O        4.4310     7.8220    -0.9830 O.3   1 <1>  -0.0190 
 20 C        6.3060     8.3430    -0.0960 C.2   1 <1>  -0.1500 
 21 N        5.3130     7.5710    -1.9050 N.2   1 <1>  -0.4100 
 22 C        6.4540     7.8750    -1.3990 C.2   1 <1>   0.1080 
 23 C        7.7720     7.7390    -2.1270 C.3   1 <1>  -0.0590 
 24 H        4.1640     0.9290    -2.2350 H     1 <1>   0.1500 
 25 H       -0.6660     1.6840     0.0740 H     1 <1>   0.0800 
 26 H       -0.9330     2.1850    -1.5820 H     1 <1>   0.0800 
 27 H        4.2720     3.1510    -0.7320 H     1 <1>   0.1500 
 28 H       -1.5210     3.9400     0.2130 H     1 <1>   0.0800 
 29 H       -0.4690     4.4920    -1.0690 H     1 <1>   0.0800 
 30 H        3.6310     4.0600     1.4290 H     1 <1>   0.0800 
 31 H        2.3030     3.2390     2.1850 H     1 <1>   0.0800 
 32 H        1.4710     5.5950    -1.2710 H     1 <1>   0.0800 
 33 H        3.1010     5.5130    -0.7110 H     1 <1>   0.0800 
 34 H        2.9600     5.2900     3.4120 H     1 <1>   0.0800 
 35 H        1.3220     5.4080     2.8340 H     1 <1>   0.0800 
 36 H        0.8150     6.7810     0.8060 H     1 <1>   0.0800 
 37 H        2.0880     7.6290    -0.0200 H     1 <1>   0.0800 
 38 H        4.6960     9.2760     1.9560 H     1 <1>   0.0800 
 39 H        3.2560     9.1780     1.0070 H     1 <1>   0.0800 
 40 H        7.0910     8.6650     0.5640 H     1 <1>   0.1500 
 41 H        8.4200     7.0760    -1.5850 H     1 <1>   0.0800 
 42 H        8.2410     8.7010    -2.2160 H     1 <1>   0.0800 
 43 H        7.6080     7.3390    -3.1110 H     1 <1>   0.0800 
@<TRIPOS>BOND
  1   1   2  1   
  2   1   3  1   
  3   2   4  2   
  4   2   5  1   
  5   3   6  2   
  6   3  24  1   
  7   4   6  1   
  8   4   7  1   
  9   5   8  1   
 10   5  25  1   
 11   5  26  1   
 12   6  27  1   
 13   7   9  1   
 14   7  10  1   
 15   7  11  1   
 16   8   9  1   
 17   8  28  1   
 18   8  29  1   
 19  10  12  1   
 20  10  30  1   
 21  10  31  1   
 22  11  13  1   
 23  11  32  1   
 24  11  33  1   
 25  12  14  1   
 26  12  34  1   
 27  12  35  1   
 28  13  14  1   
 29  13  36  1   
 30  13  37  1   
 31  14  15  am  
 32  15  16  2   
 33  15  17  1   
 34  17  18  1   
 35  17  38  1   
 36  17  39  1   
 37  18  19  1   
 38  18  20  2   
 39  19  21  1   
 40  20  22  1   
 41  20  40  1   
 42  21  22  2   
 43  22  23  1   
 44  23  41  1   
 45  23  42  1   
 46  23  43  1   
@<TRIPOS>SUBSTRUCTURE
  1 ****  11 GROUP 4 **** **** 0

# MOE 2024.06 (io_trps.svl 2023.06)
