@<TRIPOS>MOLECULE
NONAME
48 49 1 0 0 
SMALL
USER_CHARGES


@<TRIPOS>ATOM
  1 O       -0.8400    -0.3370    -0.3210 O.2   1 <1>  -0.5700 
  2 C       -1.8280     0.2810     0.0340 C.2   1 <1>   0.5440 
  3 N       -1.6640     1.5480     0.5650 N.am  1 <1>  -0.6600 
  4 C       -3.1270    -0.3270    -0.1260 C.ar  1 <1>   0.0860 
  5 C       -2.7340     2.5830     0.5770 C.3   1 <1>   0.0600 
  6 C       -0.3210     2.0460     0.9730 C.3   1 <1>   0.0600 
  7 C       -3.4450    -1.0040    -1.3000 C.ar  1 <1>   0.1600 
  8 C       -4.1090    -0.2880     0.8590 C.ar  1 <1>  -0.1500 
  9 N       -4.6000    -1.5840    -1.5750 N.ar  1 <1>  -0.6200 
 10 C       -5.3140    -0.8910     0.5940 C.ar  1 <1>  -0.1500 
 11 C       -5.5330    -1.5220    -0.6300 C.ar  1 <1>   0.4100 
 12 N       -6.7440    -2.1170    -0.9000 N.pl3 1 <1>  -0.8380 
 13 C       -6.8320    -3.2110    -1.9220 C.3   1 <1>   0.3900 
 14 C       -8.0350    -1.4350    -0.6070 C.3   1 <1>   0.1290 
 15 C       -7.9030    -4.2360    -1.5560 C.2   1 <1>   0.1080 
 16 N       -8.9530    -4.4890    -2.2820 N.2   1 <1>  -0.7070 
 17 C       -7.8730    -5.0090    -0.4000 C.2   1 <1>  -0.1500 
 18 N       -9.6160    -5.4400    -1.5970 N.pl3 1 <1>   0.3000 
 19 C       -8.9870    -5.7760    -0.4500 C.2   1 <1>  -0.3320 
 20 C       -9.5200    -6.8240     0.5200 C.3   1 <1>   0.1800 
 21 C      -10.9020    -6.3940     1.0240 C.3   1 <1>  -0.2400 
 22 C       -9.6250    -8.1740    -0.1970 C.3   1 <1>  -0.2400 
 23 C       -8.5760    -6.9670     1.7180 C.3   1 <1>  -0.2400 
 24 H       -3.5750     2.2740    -0.0190 H     1 <1>   0.0800 
 25 H       -2.3530     3.5030     0.1670 H     1 <1>   0.0800 
 26 H       -3.0590     2.7570     1.5870 H     1 <1>   0.0800 
 27 H        0.3550     1.2230     1.1320 H     1 <1>   0.0800 
 28 H       -0.3990     2.6050     1.8890 H     1 <1>   0.0800 
 29 H        0.0800     2.6780     0.2000 H     1 <1>   0.0800 
 30 H       -2.6830    -1.0600    -2.0580 H     1 <1>   0.1500 
 31 H       -3.9170     0.1960     1.8010 H     1 <1>   0.1500 
 32 H       -6.0970    -0.8960     1.3270 H     1 <1>   0.1500 
 33 H       -5.8880    -3.7210    -1.9990 H     1 <1>   0.0800 
 34 H       -7.0610    -2.7830    -2.8810 H     1 <1>   0.0800 
 35 H       -7.8640    -0.4400    -0.2360 H     1 <1>   0.0800 
 36 H       -8.5820    -2.0000     0.1280 H     1 <1>   0.0800 
 37 H       -8.6270    -1.3690    -1.5040 H     1 <1>   0.0800 
 38 H       -7.1020    -4.9620     0.3480 H     1 <1>   0.1500 
 39 H      -10.4970    -5.8430    -1.9340 H     1 <1>   0.2700 
 40 H      -11.6030    -6.3260     0.2130 H     1 <1>   0.0800 
 41 H      -10.8370    -5.4300     1.4980 H     1 <1>   0.0800 
 42 H      -11.2790    -7.1020     1.7400 H     1 <1>   0.0800 
 43 H      -10.3160    -8.1220    -1.0180 H     1 <1>   0.0800 
 44 H       -9.9630    -8.9360     0.4820 H     1 <1>   0.0800 
 45 H       -8.6620    -8.4610    -0.5810 H     1 <1>   0.0800 
 46 H       -8.4860    -6.0300     2.2380 H     1 <1>   0.0800 
 47 H       -7.5980    -7.2700     1.3890 H     1 <1>   0.0800 
 48 H       -8.9460    -7.7050     2.4080 H     1 <1>   0.0800 
@<TRIPOS>BOND
  1   1   2  2   
  2   2   3  am  
  3   2   4  1   
  4   3   5  1   
  5   3   6  1   
  6   4   7  ar  
  7   4   8  ar  
  8   5  24  1   
  9   5  25  1   
 10   5  26  1   
 11   6  27  1   
 12   6  28  1   
 13   6  29  1   
 14   7   9  ar  
 15   7  30  1   
 16   8  10  ar  
 17   8  31  1   
 18   9  11  ar  
 19  10  11  ar  
 20  10  32  1   
 21  11  12  1   
 22  12  13  1   
 23  12  14  1   
 24  13  15  1   
 25  13  33  1   
 26  13  34  1   
 27  14  35  1   
 28  14  36  1   
 29  14  37  1   
 30  15  16  2   
 31  15  17  1   
 32  16  18  1   
 33  17  19  2   
 34  17  38  1   
 35  18  19  1   
 36  18  39  1   
 37  19  20  1   
 38  20  21  1   
 39  20  22  1   
 40  20  23  1   
 41  21  40  1   
 42  21  41  1   
 43  21  42  1   
 44  22  43  1   
 45  22  44  1   
 46  22  45  1   
 47  23  46  1   
 48  23  47  1   
 49  23  48  1   
@<TRIPOS>SUBSTRUCTURE
  1 ****  12 GROUP 4 **** **** 0

# MOE 2024.06 (io_trps.svl 2023.06)
