@<TRIPOS>MOLECULE
NONAME
48 49 1 0 0 
SMALL
USER_CHARGES


@<TRIPOS>ATOM
  1 O       -0.0460    -0.5710     0.2470 O.2   1 <1>  -0.5700 
  2 C        1.0190     0.0200     0.2730 C.2   1 <1>   0.5440 
  3 N        1.1600     1.0770     1.1330 N.am  1 <1>  -0.7300 
  4 C        2.1110    -0.3650    -0.5870 C.ar  1 <1>   0.0860 
  5 C        0.1230     1.5710     2.0750 C.3   1 <1>   0.0600 
  6 C        2.4910    -1.7130    -0.7400 C.ar  1 <1>   0.4100 
  7 C        2.8240     0.5940    -1.2960 C.ar  1 <1>  -0.1500 
  8 N        3.4920    -2.1120    -1.5230 N.ar  1 <1>  -0.6200 
  9 N        1.8400    -2.7100    -0.0530 N.pl3 1 <1>  -0.8690 
 10 C        3.8580     0.1760    -2.1010 C.ar  1 <1>  -0.1500 
 11 C        4.1460    -1.1740    -2.1770 C.ar  1 <1>   0.1600 
 12 C        1.7460    -4.1010    -0.5220 C.3   1 <1>   0.4330 
 13 C        0.2840    -4.5520    -0.3940 C.ar  1 <1>  -0.1430 
 14 C        2.7420    -4.9130     0.3030 C.3   1 <1>  -0.2400 
 15 C       -0.0900    -5.7690     0.1660 C.ar  1 <1>  -0.1500 
 16 C       -0.7190    -3.7150    -0.8650 C.ar  1 <1>  -0.1500 
 17 C       -1.4200    -6.1460     0.2610 C.ar  1 <1>   0.0830 
 18 C       -2.0620    -4.0630    -0.7700 C.ar  1 <1>   0.0830 
 19 O       -1.6540    -7.3570     0.8370 O.3   1 <1>  -0.3630 
 20 C       -2.4200    -5.2980    -0.2280 C.ar  1 <1>   0.0830 
 21 O       -3.0370    -3.2120    -1.1960 O.3   1 <1>  -0.3630 
 22 C       -2.6900    -7.4740     1.7890 C.3   1 <1>   0.0400 
 23 O       -3.7310    -5.6650    -0.1840 O.3   1 <1>  -0.3630 
 24 C       -2.8680    -1.8250    -0.9910 C.3   1 <1>   0.0400 
 25 C       -4.2780    -6.0890    -1.4100 C.3   1 <1>   0.0400 
 26 H        2.0850     1.5000     1.2360 H     1 <1>   0.3700 
 27 H       -0.8170     1.0770     1.8960 H     1 <1>   0.0800 
 28 H       -0.0140     2.6300     1.9450 H     1 <1>   0.0800 
 29 H        0.4290     1.3740     3.0880 H     1 <1>   0.0800 
 30 H        2.5680     1.6370    -1.2230 H     1 <1>   0.1500 
 31 H        0.9610    -2.4200     0.3990 H     1 <1>   0.4000 
 32 H        4.4370     0.8830    -2.6690 H     1 <1>   0.1500 
 33 H        4.9570    -1.4960    -2.8100 H     1 <1>   0.1500 
 34 H        2.0250    -4.1550    -1.5620 H     1 <1>   0.0800 
 35 H        2.4580    -4.9090     1.3390 H     1 <1>   0.0800 
 36 H        3.7230    -4.4840     0.2030 H     1 <1>   0.0800 
 37 H        2.7810    -5.9240    -0.0550 H     1 <1>   0.0800 
 38 H        0.6400    -6.4580     0.5460 H     1 <1>   0.1500 
 39 H       -0.4480    -2.7790    -1.3180 H     1 <1>   0.1500 
 40 H       -2.4650    -8.3080     2.4290 H     1 <1>   0.0800 
 41 H       -3.6170    -7.6500     1.2760 H     1 <1>   0.0800 
 42 H       -2.7420    -6.5680     2.3670 H     1 <1>   0.0800 
 43 H       -3.8200    -1.3470    -1.1330 H     1 <1>   0.0800 
 44 H       -2.1590    -1.4440    -1.7040 H     1 <1>   0.0800 
 45 H       -2.5200    -1.6580     0.0130 H     1 <1>   0.0800 
 46 H       -5.2970    -6.3870    -1.2390 H     1 <1>   0.0800 
 47 H       -3.7030    -6.9220    -1.7760 H     1 <1>   0.0800 
 48 H       -4.2460    -5.2740    -2.1110 H     1 <1>   0.0800 
@<TRIPOS>BOND
  1   1   2  2   
  2   2   3  am  
  3   2   4  1   
  4   3   5  1   
  5   3  26  1   
  6   4   6  ar  
  7   4   7  ar  
  8   5  27  1   
  9   5  28  1   
 10   5  29  1   
 11   6   8  ar  
 12   6   9  1   
 13   7  10  ar  
 14   7  30  1   
 15   8  11  ar  
 16   9  12  1   
 17   9  31  1   
 18  10  11  ar  
 19  10  32  1   
 20  11  33  1   
 21  12  13  1   
 22  12  14  1   
 23  12  34  1   
 24  13  15  ar  
 25  13  16  ar  
 26  14  35  1   
 27  14  36  1   
 28  14  37  1   
 29  15  17  ar  
 30  15  38  1   
 31  16  18  ar  
 32  16  39  1   
 33  17  19  1   
 34  17  20  ar  
 35  18  20  ar  
 36  18  21  1   
 37  19  22  1   
 38  20  23  1   
 39  21  24  1   
 40  22  40  1   
 41  22  41  1   
 42  22  42  1   
 43  23  25  1   
 44  24  43  1   
 45  24  44  1   
 46  24  45  1   
 47  25  46  1   
 48  25  47  1   
 49  25  48  1   
@<TRIPOS>SUBSTRUCTURE
  1 ****  16 GROUP 4 **** **** 0

# MOE 2024.06 (io_trps.svl 2023.06)
