@<TRIPOS>MOLECULE
NONAME
53 55 1 0 0 
SMALL
USER_CHARGES


@<TRIPOS>ATOM
  1 O        0.4570    -1.3250     1.7940 O.2   1 <1>  -0.5700 
  2 C        1.3250    -1.5210     0.9750 C.2   1 <1>   0.5690 
  3 N        1.1300    -2.3220    -0.1240 N.am  1 <1>  -0.6600 
  4 C        2.6550    -0.8180     1.1960 C.3   1 <1>  -0.0990 
  5 C        2.2020    -2.6500    -1.1060 C.3   1 <1>   0.1400 
  6 C       -0.1800    -2.9880    -0.3590 C.3   1 <1>   0.1400 
  7 C        3.8130    -1.4120     0.3850 C.3   1 <1>  -0.1600 
  8 C        3.3560    -1.6450    -1.0560 C.3   1 <1>  -0.1600 
  9 C       -0.0900    -4.4800    -0.0230 C.3   1 <1>  -0.1600 
 10 C       -1.4660    -5.1670    -0.1250 C.3   1 <1>  -0.0990 
 11 C       -1.4320    -6.6760     0.0940 C.2   1 <1>   0.5690 
 12 O       -0.3950    -7.2090     0.4080 O.2   1 <1>  -0.5700 
 13 N       -2.5750    -7.4040    -0.0790 N.am  1 <1>  -0.6600 
 14 C       -3.9340    -6.8900    -0.3900 C.3   1 <1>   0.1400 
 15 C       -2.6030    -8.8850     0.0370 C.3   1 <1>   0.1400 
 16 C       -4.8700    -8.0280     0.0160 C.3   1 <1>   0.2000 
 17 C       -4.0490    -9.2870    -0.2750 C.3   1 <1>  -0.0800 
 18 O       -5.1020    -7.9280     1.3810 O.3   1 <1>  -0.6800 
 19 C       -4.5090   -10.5650     0.4480 C.3   1 <1>   0.0210 
 20 C       -3.6250   -11.7400     0.0760 C.2   1 <1>   0.1080 
 21 N       -3.5480   -12.2060    -1.1310 N.2   1 <1>  -0.7070 
 22 C       -2.8040   -12.4310     0.9610 C.2   1 <1>  -0.1500 
 23 N       -2.6660   -13.2200    -1.0480 N.pl3 1 <1>   0.3000 
 24 C       -2.2000   -13.3740     0.2090 C.2   1 <1>  -0.3320 
 25 C       -1.1900   -14.4300     0.6210 C.3   1 <1>  -0.0600 
 26 H        2.5210     0.2130     0.9250 H     1 <1>   0.0800 
 27 H        2.8930    -0.8530     2.2440 H     1 <1>   0.0800 
 28 H        2.5790    -3.6330    -0.8830 H     1 <1>   0.0800 
 29 H        1.7880    -2.6650    -2.0990 H     1 <1>   0.0800 
 30 H       -0.9370    -2.5290     0.2540 H     1 <1>   0.0800 
 31 H       -0.4680    -2.8540    -1.3880 H     1 <1>   0.0800 
 32 H        4.6570    -0.7430     0.4080 H     1 <1>   0.0800 
 33 H        4.1130    -2.3490     0.8220 H     1 <1>   0.0800 
 34 H        4.1760    -2.0220    -1.6420 H     1 <1>   0.0800 
 35 H        3.0380    -0.7160    -1.4970 H     1 <1>   0.0800 
 36 H        0.5930    -4.9630    -0.7000 H     1 <1>   0.0800 
 37 H        0.2850    -4.5950     0.9790 H     1 <1>   0.0800 
 38 H       -1.8760    -4.9830    -1.1000 H     1 <1>   0.0800 
 39 H       -2.1230    -4.7360     0.6080 H     1 <1>   0.0800 
 40 H       -4.1600    -5.9830     0.1430 H     1 <1>   0.0800 
 41 H       -4.0080    -6.7190    -1.4500 H     1 <1>   0.0800 
 42 H       -1.9130    -9.3370    -0.6570 H     1 <1>   0.0800 
 43 H       -2.3280    -9.1650     1.0400 H     1 <1>   0.0800 
 44 H       -5.8170    -8.0050    -0.4970 H     1 <1>   0.0800 
 45 H       -4.1020    -9.4720    -1.3340 H     1 <1>   0.0800 
 46 H       -4.2400    -7.8310     1.8350 H     1 <1>   0.4000 
 47 H       -5.5210   -10.7930     0.1670 H     1 <1>   0.0800 
 48 H       -4.4830   -10.4310     1.5140 H     1 <1>   0.0800 
 49 H       -2.6930   -12.2320     2.0120 H     1 <1>   0.1500 
 50 H       -2.4030   -13.7840    -1.8650 H     1 <1>   0.2700 
 51 H       -0.9790   -14.3480     1.6730 H     1 <1>   0.0800 
 52 H       -0.2720   -14.2980     0.0770 H     1 <1>   0.0800 
 53 H       -1.5780   -15.4130     0.4250 H     1 <1>   0.0800 
@<TRIPOS>BOND
  1   1   2  2   
  2   2   3  am  
  3   2   4  1   
  4   3   5  1   
  5   3   6  1   
  6   4   7  1   
  7   4  26  1   
  8   4  27  1   
  9   5   8  1   
 10   5  28  1   
 11   5  29  1   
 12   6   9  1   
 13   6  30  1   
 14   6  31  1   
 15   7   8  1   
 16   7  32  1   
 17   7  33  1   
 18   8  34  1   
 19   8  35  1   
 20   9  10  1   
 21   9  36  1   
 22   9  37  1   
 23  10  11  1   
 24  10  38  1   
 25  10  39  1   
 26  11  12  2   
 27  11  13  am  
 28  13  14  1   
 29  13  15  1   
 30  14  16  1   
 31  14  40  1   
 32  14  41  1   
 33  15  17  1   
 34  15  42  1   
 35  15  43  1   
 36  16  17  1   
 37  16  18  1   
 38  16  44  1   
 39  17  19  1   
 40  17  45  1   
 41  18  46  1   
 42  19  20  1   
 43  19  47  1   
 44  19  48  1   
 45  20  21  2   
 46  20  22  1   
 47  21  23  1   
 48  22  24  2   
 49  22  49  1   
 50  23  24  1   
 51  23  50  1   
 52  24  25  1   
 53  25  51  1   
 54  25  52  1   
 55  25  53  1   
@<TRIPOS>SUBSTRUCTURE
  1 ****  11 GROUP 4 **** **** 0

# MOE 2024.06 (io_trps.svl 2023.06)
