@<TRIPOS>MOLECULE
NONAME
39 41 1 0 0 
SMALL
USER_CHARGES


@<TRIPOS>ATOM
  1 O        4.0230    -2.0310    -1.5620 O.2   1 <1>  -0.5700 
  2 C        3.1530    -1.7890    -0.7450 C.2   1 <1>   0.7150 
  3 N        3.0930    -0.5120    -0.2640 N.am  1 <1>  -0.6600 
  4 C        2.2850    -2.8170    -0.2500 C.2   1 <1>  -0.2370 
  5 C        3.7870    -0.2470     1.0430 C.3   1 <1>   0.2200 
  6 C        2.9270     0.6050    -1.2450 C.3   1 <1>   0.1400 
  7 N        2.3740    -4.1090    -0.6860 N.pl3 1 <1>   0.0330 
  8 C        1.2660    -2.7660     0.6670 C.2   1 <1>  -0.1500 
  9 C        3.2720     1.0170     1.7500 C.3   1 <1>   0.1200 
 10 C        5.3270    -0.1850     0.8570 C.3   1 <1>   0.3430 
 11 C        3.9130     1.7770    -1.0770 C.3   1 <1>  -0.0800 
 12 C        1.4360    -4.8430    -0.0460 C.2   1 <1>  -0.3020 
 13 C        0.7220    -4.0480     0.8060 C.2   1 <1>   0.0190 
 14 O        3.9680     2.1440     1.3100 O.3   1 <1>  -0.5600 
 15 N        5.7450     0.0440    -0.5720 N.4   1 <1>  -0.9590 
 16 C        3.5410     2.6850     0.1050 C.3   1 <1>   0.1200 
 17 C        5.4140     1.4110    -1.0880 C.3   1 <1>   0.3430 
 18 C       -0.3650    -4.4110     1.6730 C.1   1 <1>   0.5380 
 19 C        7.1850    -0.2790    -0.7780 C.3   1 <1>   0.2630 
 20 N       -1.2240    -4.6870     2.3700 N.1   1 <1>  -0.5570 
 21 H        3.5690    -1.0700     1.7010 H     1 <1>   0.0800 
 22 H        3.0280     0.2130    -2.2440 H     1 <1>   0.0800 
 23 H        1.9190     0.9780    -1.1620 H     1 <1>   0.0800 
 24 H        3.0440    -4.4420    -1.3930 H     1 <1>   0.2700 
 25 H        0.9150    -1.8990     1.2010 H     1 <1>   0.1500 
 26 H        3.4670     0.9350     2.8060 H     1 <1>   0.0800 
 27 H        2.2130     1.1530     1.6140 H     1 <1>   0.0800 
 28 H        5.7340    -1.1250     1.1920 H     1 <1>   0.0800 
 29 H        5.7360     0.5850     1.4910 H     1 <1>   0.0800 
 30 H        3.7630     2.3990    -1.9410 H     1 <1>   0.0800 
 31 H        1.3070    -5.8980    -0.2210 H     1 <1>   0.1500 
 32 H        5.1760    -0.6330    -1.1260 H     1 <1>   0.4500 
 33 H        2.4800     2.8650     0.1560 H     1 <1>   0.0800 
 34 H        4.0340     3.6380     0.0030 H     1 <1>   0.0800 
 35 H        5.9540     2.1500    -0.5180 H     1 <1>   0.0800 
 36 H        5.7590     1.4760    -2.1070 H     1 <1>   0.0800 
 37 H        7.8060     0.3900    -0.2040 H     1 <1>   0.0800 
 38 H        7.4430    -0.1830    -1.8200 H     1 <1>   0.0800 
 39 H        7.3880    -1.2920    -0.4700 H     1 <1>   0.0800 
@<TRIPOS>BOND
  1   1   2  2   
  2   2   3  am  
  3   2   4  1   
  4   3   5  1   
  5   3   6  1   
  6   4   7  1   
  7   4   8  2   
  8   5   9  1   
  9   5  10  1   
 10   5  21  1   
 11   6  11  1   
 12   6  22  1   
 13   6  23  1   
 14   7  12  1   
 15   7  24  1   
 16   8  13  1   
 17   8  25  1   
 18   9  14  1   
 19   9  26  1   
 20   9  27  1   
 21  10  15  1   
 22  10  28  1   
 23  10  29  1   
 24  11  16  1   
 25  11  17  1   
 26  11  30  1   
 27  12  13  2   
 28  12  31  1   
 29  13  18  1   
 30  14  16  1   
 31  15  17  1   
 32  15  19  1   
 33  15  32  1   
 34  16  33  1   
 35  16  34  1   
 36  17  35  1   
 37  17  36  1   
 38  18  20  3   
 39  19  37  1   
 40  19  38  1   
 41  19  39  1   
@<TRIPOS>SUBSTRUCTURE
  1 ****   3 GROUP 4 **** **** 0

# MOE 2024.06 (io_trps.svl 2023.06)
