@<TRIPOS>MOLECULE
NONAME
48 50 1 0 0 
SMALL
USER_CHARGES


@<TRIPOS>ATOM
  1 S        0.5230    -0.0710     0.7090 S.o2  1 <1>   1.3330 
  2 O        1.9180     0.0880     1.0520 O.2   1 <1>  -0.6500 
  3 O       -0.4790    -0.0330     1.7500 O.2   1 <1>  -0.6500 
  4 N        0.3550    -1.5260    -0.1500 N.am  1 <1>  -0.8490 
  5 C        0.0830     1.1690    -0.5070 C.3   1 <1>  -0.0550 
  6 C        1.5400    -1.8760    -0.9400 C.3   1 <1>   0.1160 
  7 C       -0.0120    -2.6470     0.7220 C.3   1 <1>   0.1160 
  8 C        0.0450     2.5940     0.0720 C.3   1 <1>  -0.0800 
  9 C       -0.4400     3.6230    -0.9440 C.3   1 <1>   0.2000 
 10 C        1.4060     3.1360     0.5200 C.3   1 <1>   0.1400 
 11 O       -1.8240     3.6180    -1.0030 O.3   1 <1>  -0.6800 
 12 C        0.1050     4.9600    -0.4500 C.3   1 <1>   0.1400 
 13 N        1.3240     4.6050     0.3180 N.am  1 <1>  -0.6600 
 14 C        2.4170     5.4270     0.4670 C.2   1 <1>   0.7150 
 15 O        3.4940     4.9170     0.7120 O.2   1 <1>  -0.5700 
 16 C        2.3060     6.8530     0.3220 C.2   1 <1>  -0.2370 
 17 N        3.2900     7.6540    -0.1620 N.pl3 1 <1>   0.3140 
 18 C        1.2840     7.7010     0.6140 C.2   1 <1>  -0.1500 
 19 N        2.9270     8.9400    -0.2080 N.2   1 <1>  -0.7070 
 20 C        4.6310     7.2510    -0.6190 C.3   1 <1>   0.0160 
 21 C        1.7070     8.9800     0.2680 C.2   1 <1>   0.2880 
 22 C        0.9130    10.1750     0.4150 C.2   1 <1>   0.0410 
 23 S        1.5750    11.7230    -0.1260 S.3   1 <1>  -0.0800 
 24 C       -0.3300    10.3890     0.9160 C.2   1 <1>  -0.1500 
 25 C        0.1290    12.5930     0.3540 C.2   1 <1>  -0.1100 
 26 C       -0.7720    11.7460     0.8820 C.2   1 <1>  -0.1500 
 27 H        0.7760     1.1320    -1.3240 H     1 <1>   0.0800 
 28 H       -0.8910     0.9330    -0.8920 H     1 <1>   0.0800 
 29 H        1.3440    -2.7560    -1.5290 H     1 <1>   0.0800 
 30 H        2.3820    -2.0670    -0.2940 H     1 <1>   0.0800 
 31 H        1.7930    -1.0710    -1.6080 H     1 <1>   0.0800 
 32 H       -0.1270    -3.5470     0.1440 H     1 <1>   0.0800 
 33 H       -0.9490    -2.4410     1.2120 H     1 <1>   0.0800 
 34 H        0.7450    -2.8000     1.4730 H     1 <1>   0.0800 
 35 H       -0.6030     2.6120     0.9320 H     1 <1>   0.0800 
 36 H       -0.0570     3.4160    -1.9290 H     1 <1>   0.0800 
 37 H        2.2020     2.7390    -0.0890 H     1 <1>   0.0800 
 38 H        1.6060     2.9040     1.5530 H     1 <1>   0.0800 
 39 H       -2.2100     3.7040    -0.1100 H     1 <1>   0.4000 
 40 H       -0.6000     5.4360     0.2090 H     1 <1>   0.0800 
 41 H        0.3440     5.6080    -1.2760 H     1 <1>   0.0800 
 42 H        0.3280     7.4630     1.0390 H     1 <1>   0.1500 
 43 H        4.5420     6.4500    -1.3280 H     1 <1>   0.0800 
 44 H        5.2070     6.9260     0.2270 H     1 <1>   0.0800 
 45 H        5.1160     8.0910    -1.0810 H     1 <1>   0.0800 
 46 H       -0.9650     9.6210     1.3180 H     1 <1>   0.1500 
 47 H        0.1110    13.6550     0.1860 H     1 <1>   0.1500 
 48 H       -1.7430    12.0240     1.2550 H     1 <1>   0.1500 
@<TRIPOS>BOND
  1   1   2  2   
  2   1   3  2   
  3   1   4  am  
  4   1   5  1   
  5   4   6  1   
  6   4   7  1   
  7   5   8  1   
  8   5  27  1   
  9   5  28  1   
 10   6  29  1   
 11   6  30  1   
 12   6  31  1   
 13   7  32  1   
 14   7  33  1   
 15   7  34  1   
 16   8   9  1   
 17   8  10  1   
 18   8  35  1   
 19   9  11  1   
 20   9  12  1   
 21   9  36  1   
 22  10  13  1   
 23  10  37  1   
 24  10  38  1   
 25  11  39  1   
 26  12  13  1   
 27  12  40  1   
 28  12  41  1   
 29  13  14  am  
 30  14  15  2   
 31  14  16  1   
 32  16  17  1   
 33  16  18  2   
 34  17  19  1   
 35  17  20  1   
 36  18  21  1   
 37  18  42  1   
 38  19  21  2   
 39  20  43  1   
 40  20  44  1   
 41  20  45  1   
 42  21  22  1   
 43  22  23  1   
 44  22  24  2   
 45  23  25  1   
 46  24  26  1   
 47  24  46  1   
 48  25  26  2   
 49  25  47  1   
 50  26  48  1   
@<TRIPOS>SUBSTRUCTURE
  1 ****  13 GROUP 4 **** **** 0

# MOE 2024.06 (io_trps.svl 2023.06)
