@<TRIPOS>MOLECULE
NONAME
41 42 1 0 0 
SMALL
USER_CHARGES


@<TRIPOS>ATOM
  1 CL      -1.7530     0.1410    -2.1660 Cl    1 <1>  -0.1770 
  2 C       -2.1550    -0.9580    -0.8660 C.ar  1 <1>   0.1770 
  3 C       -1.7210    -0.7180     0.4260 C.ar  1 <1>   0.1900 
  4 C       -2.9140    -2.0780    -1.1390 C.ar  1 <1>  -0.1500 
  5 F       -1.0010     0.3380     0.6930 F     1 <1>  -0.1900 
  6 C       -2.0380    -1.5840     1.4550 C.ar  1 <1>  -0.1500 
  7 C       -3.2510    -2.9830    -0.1270 C.ar  1 <1>   0.0860 
  8 C       -2.8010    -2.7050     1.1710 C.ar  1 <1>  -0.1500 
  9 C       -4.0440    -4.1610    -0.4320 C.2   1 <1>   0.5440 
 10 O       -4.8000    -4.1710    -1.3840 O.2   1 <1>  -0.5700 
 11 N       -3.9700    -5.2840     0.3400 N.am  1 <1>  -0.7300 
 12 C       -4.7350    -6.5280     0.0900 C.3   1 <1>   0.2200 
 13 C       -6.1170    -6.4040     0.7360 C.3   1 <1>  -0.0800 
 14 C       -4.1050    -7.6960     0.8450 C.3   1 <1>   0.1200 
 15 C       -6.0860    -7.4340     1.8730 C.3   1 <1>   0.1200 
 16 C       -7.2810    -6.5080    -0.2760 C.3   1 <1>  -0.0550 
 17 O       -4.7380    -7.6990     2.0830 O.3   1 <1>  -0.5600 
 18 S       -7.5430    -8.0870    -1.1010 S.o2  1 <1>   1.3330 
 19 O       -6.2640    -8.7170    -1.3400 O.2   1 <1>  -0.6500 
 20 O       -8.4570    -7.8930    -2.2040 O.2   1 <1>  -0.6500 
 21 N       -8.3710    -9.0100     0.0620 N.am  1 <1>  -0.8490 
 22 C       -9.8170    -8.7580     0.0880 C.3   1 <1>   0.1160 
 23 C       -8.1230   -10.4470    -0.0900 C.3   1 <1>   0.1160 
 24 H       -3.2500    -2.2570    -2.1460 H     1 <1>   0.1500 
 25 H       -1.6950    -1.3770     2.4540 H     1 <1>   0.1500 
 26 H       -3.0560    -3.3720     1.9760 H     1 <1>   0.1500 
 27 H       -3.4050    -5.3040     1.1900 H     1 <1>   0.3700 
 28 H       -4.7690    -6.7260    -0.9690 H     1 <1>   0.0800 
 29 H       -6.2020    -5.4360     1.1970 H     1 <1>   0.0800 
 30 H       -3.0430    -7.5920     0.9760 H     1 <1>   0.0800 
 31 H       -4.3250    -8.6300     0.3570 H     1 <1>   0.0800 
 32 H       -6.5540    -8.3640     1.6130 H     1 <1>   0.0800 
 33 H       -6.5140    -7.0540     2.7850 H     1 <1>   0.0800 
 34 H       -7.1020    -5.7670    -1.0340 H     1 <1>   0.0800 
 35 H       -8.1890    -6.2250     0.2180 H     1 <1>   0.0800 
 36 H      -10.2710    -9.2940     0.9040 H     1 <1>   0.0800 
 37 H      -10.2710    -9.0770    -0.8360 H     1 <1>   0.0800 
 38 H      -10.0100    -7.7080     0.2220 H     1 <1>   0.0800 
 39 H       -8.6540   -11.0010     0.6640 H     1 <1>   0.0800 
 40 H       -7.0720   -10.6550     0.0200 H     1 <1>   0.0800 
 41 H       -8.4400   -10.7800    -1.0650 H     1 <1>   0.0800 
@<TRIPOS>BOND
  1   1   2  1   
  2   2   3  ar  
  3   2   4  ar  
  4   3   5  1   
  5   3   6  ar  
  6   4   7  ar  
  7   4  24  1   
  8   6   8  ar  
  9   6  25  1   
 10   7   8  ar  
 11   7   9  1   
 12   8  26  1   
 13   9  10  2   
 14   9  11  am  
 15  11  12  1   
 16  11  27  1   
 17  12  13  1   
 18  12  14  1   
 19  12  28  1   
 20  13  15  1   
 21  13  16  1   
 22  13  29  1   
 23  14  17  1   
 24  14  30  1   
 25  14  31  1   
 26  15  17  1   
 27  15  32  1   
 28  15  33  1   
 29  16  18  1   
 30  16  34  1   
 31  16  35  1   
 32  18  19  2   
 33  18  20  2   
 34  18  21  am  
 35  21  22  1   
 36  21  23  1   
 37  22  36  1   
 38  22  37  1   
 39  22  38  1   
 40  23  39  1   
 41  23  40  1   
 42  23  41  1   
@<TRIPOS>SUBSTRUCTURE
  1 ****  11 GROUP 4 **** **** 0

# MOE 2024.06 (io_trps.svl 2023.06)
