@<TRIPOS>MOLECULE
NONAME
34 35 1 0 0 
SMALL
USER_CHARGES


@<TRIPOS>ATOM
  1 O        2.3120    -0.8570     2.7620 O.2   1 <1>  -0.5700 
  2 C        2.0300    -1.2410     1.6380 C.2   1 <1>   0.5440 
  3 N        2.3340    -0.3850     0.5920 N.am  1 <1>  -0.6600 
  4 C        1.4290    -2.5690     1.4770 C.ar  1 <1>   0.3960 
  5 C        2.1650    -0.6720    -0.8520 C.3   1 <1>   0.1400 
  6 C        3.0360     0.9030     0.7900 C.3   1 <1>   0.1400 
  7 N        0.6150    -2.8510     0.4450 N.ar  1 <1>  -0.6200 
  8 C        1.7260    -3.5340     2.4460 C.ar  1 <1>   0.1600 
  9 C        2.6990     0.5630    -1.5720 C.3   1 <1>  -0.1600 
 10 C        3.6370     1.2290    -0.5710 C.3   1 <1>  -0.1600 
 11 C        0.1540    -4.0900     0.4450 C.ar  1 <1>   0.4100 
 12 N        1.2830    -4.7840     2.4620 N.ar  1 <1>  -0.6200 
 13 N       -0.7090    -4.4290    -0.5830 N.pl3 1 <1>  -0.8380 
 14 C        0.4970    -5.0250     1.4330 C.ar  1 <1>   0.1600 
 15 C       -2.0970    -4.8160    -0.2280 C.3   1 <1>   0.4090 
 16 C       -0.5420    -3.8280    -1.9350 C.3   1 <1>   0.1290 
 17 C       -2.3360    -6.2230    -0.6580 C.1   1 <1>  -0.2000 
 18 C       -2.5260    -7.3470    -1.0000 C.1   1 <1>  -0.1770 
 19 H        1.1290    -0.8350    -1.0920 H     1 <1>   0.0800 
 20 H        2.7420    -1.5440    -1.1110 H     1 <1>   0.0800 
 21 H        3.7950     0.8210     1.5500 H     1 <1>   0.0800 
 22 H        2.3170     1.6510     1.0780 H     1 <1>   0.0800 
 23 H        2.3760    -3.2500     3.2570 H     1 <1>   0.1500 
 24 H        1.8750     1.2200    -1.7910 H     1 <1>   0.0800 
 25 H        3.1950     0.3060    -2.4910 H     1 <1>   0.0800 
 26 H        4.6160     0.7860    -0.6340 H     1 <1>   0.0800 
 27 H        3.7210     2.2900    -0.7260 H     1 <1>   0.0800 
 28 H        0.0870    -6.0140     1.3380 H     1 <1>   0.1500 
 29 H       -2.7970    -4.1600    -0.7160 H     1 <1>   0.0800 
 30 H       -2.2470    -4.7340     0.8350 H     1 <1>   0.0800 
 31 H        0.5020    -3.6600    -2.1340 H     1 <1>   0.0800 
 32 H       -1.0630    -2.8880    -1.9860 H     1 <1>   0.0800 
 33 H       -0.9320    -4.4960    -2.6830 H     1 <1>   0.0800 
 34 H       -2.6910    -8.3630    -1.3110 H     1 <1>   0.1770 
@<TRIPOS>BOND
  1   1   2  2   
  2   2   3  am  
  3   2   4  1   
  4   3   5  1   
  5   3   6  1   
  6   4   7  ar  
  7   4   8  ar  
  8   5   9  1   
  9   5  19  1   
 10   5  20  1   
 11   6  10  1   
 12   6  21  1   
 13   6  22  1   
 14   7  11  ar  
 15   8  12  ar  
 16   8  23  1   
 17   9  10  1   
 18   9  24  1   
 19   9  25  1   
 20  10  26  1   
 21  10  27  1   
 22  11  13  1   
 23  11  14  ar  
 24  12  14  ar  
 25  13  15  1   
 26  13  16  1   
 27  14  28  1   
 28  15  17  1   
 29  15  29  1   
 30  15  30  1   
 31  16  31  1   
 32  16  32  1   
 33  16  33  1   
 34  17  18  3   
 35  18  34  1   
@<TRIPOS>SUBSTRUCTURE
  1 ****   7 GROUP 4 **** **** 0

# MOE 2024.06 (io_trps.svl 2023.06)
