@<TRIPOS>MOLECULE
NONAME
42 43 1 0 0 
SMALL
USER_CHARGES


@<TRIPOS>ATOM
  1 N       -0.5350    -0.2900     0.0170 N.ar  1 <1>  -0.6200 
  2 C       -1.4760    -1.1810     0.2820 C.ar  1 <1>   0.4100 
  3 C        0.6560    -0.8500    -0.1560 C.ar  1 <1>   0.1600 
  4 N       -2.7680    -0.6740     0.4990 N.pl3 1 <1>  -0.8380 
  5 C       -1.2170    -2.5910     0.3600 C.ar  1 <1>   0.4100 
  6 C        0.9010    -2.2090    -0.0780 C.ar  1 <1>   0.1600 
  7 C       -3.1790    -0.5900     1.9250 C.3   1 <1>   0.1290 
  8 C       -3.1900     0.5060    -0.3050 C.3   1 <1>   0.1290 
  9 N       -0.0230    -3.1260     0.1790 N.ar  1 <1>  -0.6200 
 10 N       -2.2580    -3.4700     0.6300 N.pl3 1 <1>  -0.8690 
 11 C       -2.2680    -4.8080     0.0150 C.3   1 <1>   0.2090 
 12 C       -3.6710    -5.3990     0.1360 C.3   1 <1>  -0.1600 
 13 C       -3.7360    -6.8060    -0.4680 C.3   1 <1>  -0.0170 
 14 C       -5.1420    -7.3720    -0.3510 C.ar  1 <1>  -0.1430 
 15 C       -5.5120    -8.1040     0.7660 C.ar  1 <1>  -0.1500 
 16 C       -6.0690    -7.1610    -1.3590 C.ar  1 <1>  -0.1500 
 17 C       -6.7920    -8.6210     0.8720 C.ar  1 <1>  -0.1500 
 18 C       -7.3490    -7.6780    -1.2530 C.ar  1 <1>  -0.1500 
 19 C       -7.7180    -8.4100    -0.1370 C.ar  1 <1>  -0.1430 
 20 C       -9.1210    -8.9790    -0.0220 C.3   1 <1>  -0.0970 
 21 H        1.4740    -0.1860    -0.3720 H     1 <1>   0.1500 
 22 H        1.9040    -2.5650    -0.2330 H     1 <1>   0.1500 
 23 H       -2.7880    -1.4300     2.4750 H     1 <1>   0.0800 
 24 H       -4.2520    -0.5980     1.9980 H     1 <1>   0.0800 
 25 H       -2.7970     0.3160     2.3630 H     1 <1>   0.0800 
 26 H       -2.8460     0.3970    -1.3190 H     1 <1>   0.0800 
 27 H       -2.7650     1.4040     0.1090 H     1 <1>   0.0800 
 28 H       -4.2630     0.5850    -0.3080 H     1 <1>   0.0800 
 29 H       -3.1470    -2.9660     0.5300 H     1 <1>   0.4000 
 30 H       -1.5520    -5.4320     0.5240 H     1 <1>   0.0800 
 31 H       -1.9810    -4.7310    -1.0210 H     1 <1>   0.0800 
 32 H       -4.3720    -4.7630    -0.3750 H     1 <1>   0.0800 
 33 H       -3.9450    -5.4480     1.1760 H     1 <1>   0.0800 
 34 H       -3.0450    -7.4540     0.0420 H     1 <1>   0.0800 
 35 H       -3.4490    -6.7720    -1.5040 H     1 <1>   0.0800 
 36 H       -4.8060    -8.2750     1.5590 H     1 <1>   0.1500 
 37 H       -5.7980    -6.5930    -2.2310 H     1 <1>   0.1500 
 38 H       -7.0640    -9.1890     1.7430 H     1 <1>   0.1500 
 39 H       -8.0560    -7.5070    -2.0450 H     1 <1>   0.1500 
 40 H       -9.4180    -9.0400     1.0090 H     1 <1>   0.0800 
 41 H       -9.1490    -9.9640    -0.4510 H     1 <1>   0.0800 
 42 H       -9.8240    -8.3530    -0.5410 H     1 <1>   0.0800 
@<TRIPOS>BOND
  1   1   2  ar  
  2   1   3  ar  
  3   2   4  1   
  4   2   5  ar  
  5   3   6  ar  
  6   3  21  1   
  7   4   7  1   
  8   4   8  1   
  9   5   9  ar  
 10   5  10  1   
 11   6   9  ar  
 12   6  22  1   
 13   7  23  1   
 14   7  24  1   
 15   7  25  1   
 16   8  26  1   
 17   8  27  1   
 18   8  28  1   
 19  10  11  1   
 20  10  29  1   
 21  11  12  1   
 22  11  30  1   
 23  11  31  1   
 24  12  13  1   
 25  12  32  1   
 26  12  33  1   
 27  13  14  1   
 28  13  34  1   
 29  13  35  1   
 30  14  15  ar  
 31  14  16  ar  
 32  15  17  ar  
 33  15  36  1   
 34  16  18  ar  
 35  16  37  1   
 36  17  19  ar  
 37  17  38  1   
 38  18  19  ar  
 39  18  39  1   
 40  19  20  1   
 41  20  40  1   
 42  20  41  1   
 43  20  42  1   
@<TRIPOS>SUBSTRUCTURE
  1 ****  12 GROUP 4 **** **** 0

# MOE 2024.06 (io_trps.svl 2023.06)
