@<TRIPOS>MOLECULE
NONAME
48 49 1 0 0 
SMALL
USER_CHARGES


@<TRIPOS>ATOM
  1 O       -0.1060     0.9880    -1.5860 O.2   1 <1>  -0.5700 
  2 C        0.3070     1.1360    -0.4550 C.2   1 <1>   0.7800 
  3 O       -0.4320     1.6980     0.4980 O.3   1 <1>  -0.4300 
  4 N        1.5390     0.7510    -0.0540 N.am  1 <1>  -0.7300 
  5 C       -1.7470     2.1960     0.3720 C.3   1 <1>   0.2800 
  6 C        2.6440     0.1710    -0.8390 C.3   1 <1>   0.3000 
  7 C       -2.7100     1.0630    -0.0020 C.3   1 <1>  -0.2400 
  8 C       -2.1080     2.7270     1.7600 C.3   1 <1>  -0.2400 
  9 C       -1.7840     3.3510    -0.6350 C.3   1 <1>  -0.2400 
 10 C        2.2010    -1.1040    -1.5780 C.3   1 <1>  -0.1600 
 11 C        3.7760    -0.1820     0.1390 C.3   1 <1>  -0.1600 
 12 C        3.1300     1.2310    -1.8290 C.3   1 <1>  -0.2400 
 13 C        1.8110    -2.2160    -0.6070 C.3   1 <1>   0.2090 
 14 C        3.3970    -1.3260     1.0830 C.3   1 <1>   0.2090 
 15 N        2.9700    -2.4990     0.2810 N.pl3 1 <1>  -0.8380 
 16 C        3.0090    -3.7350     0.9710 C.ar  1 <1>   0.1000 
 17 C        4.2210    -4.4450     1.1530 C.ar  1 <1>   0.4100 
 18 C        1.8630    -4.2960     1.4990 C.ar  1 <1>  -0.1500 
 19 N        4.3470    -5.6090     1.7580 N.ar  1 <1>  -0.6200 
 20 N        5.3880    -3.9510     0.6450 N.pl3 1 <1>  -0.9000 
 21 C        1.9810    -5.5100     2.1500 C.ar  1 <1>  -0.1500 
 22 C        3.2210    -6.1110     2.2470 C.ar  1 <1>   0.1600 
 23 H        1.7730     0.9930     0.9040 H     1 <1>   0.3700 
 24 H       -2.6060     0.2410     0.6830 H     1 <1>   0.0800 
 25 H       -2.5320     0.7150    -1.0020 H     1 <1>   0.0800 
 26 H       -3.7250     1.4150     0.0410 H     1 <1>   0.0800 
 27 H       -2.0650     1.9340     2.4860 H     1 <1>   0.0800 
 28 H       -3.1040     3.1300     1.7580 H     1 <1>   0.0800 
 29 H       -1.4270     3.5060     2.0500 H     1 <1>   0.0800 
 30 H       -1.6030     3.0010    -1.6350 H     1 <1>   0.0800 
 31 H       -1.0480     4.0930    -0.3820 H     1 <1>   0.0800 
 32 H       -2.7530     3.8160    -0.6260 H     1 <1>   0.0800 
 33 H        3.0110    -1.4640    -2.1850 H     1 <1>   0.0800 
 34 H        1.3820    -0.8970    -2.2400 H     1 <1>   0.0800 
 35 H        4.0560     0.6830     0.7120 H     1 <1>   0.0800 
 36 H        4.6430    -0.4910    -0.4160 H     1 <1>   0.0800 
 37 H        2.3540     1.4740    -2.5320 H     1 <1>   0.0800 
 38 H        3.9760     0.8640    -2.3820 H     1 <1>   0.0800 
 39 H        3.4250     2.1260    -1.3110 H     1 <1>   0.0800 
 40 H        1.5510    -3.1050    -1.1560 H     1 <1>   0.0800 
 41 H        0.9610    -1.9130    -0.0190 H     1 <1>   0.0800 
 42 H        2.5930    -1.0300     1.7360 H     1 <1>   0.0800 
 43 H        4.2450    -1.5940     1.6920 H     1 <1>   0.0800 
 44 H        0.9110    -3.8080     1.4150 H     1 <1>   0.1500 
 45 H        6.0330    -4.7010     0.4060 H     1 <1>   0.4000 
 46 H        5.1850    -3.3120    -0.1260 H     1 <1>   0.4000 
 47 H        1.1160    -5.9830     2.5760 H     1 <1>   0.1500 
 48 H        3.2990    -7.0570     2.7540 H     1 <1>   0.1500 
@<TRIPOS>BOND
  1   1   2  2   
  2   2   3  1   
  3   2   4  am  
  4   3   5  1   
  5   4   6  1   
  6   4  23  1   
  7   5   7  1   
  8   5   8  1   
  9   5   9  1   
 10   6  10  1   
 11   6  11  1   
 12   6  12  1   
 13   7  24  1   
 14   7  25  1   
 15   7  26  1   
 16   8  27  1   
 17   8  28  1   
 18   8  29  1   
 19   9  30  1   
 20   9  31  1   
 21   9  32  1   
 22  10  13  1   
 23  10  33  1   
 24  10  34  1   
 25  11  14  1   
 26  11  35  1   
 27  11  36  1   
 28  12  37  1   
 29  12  38  1   
 30  12  39  1   
 31  13  15  1   
 32  13  40  1   
 33  13  41  1   
 34  14  15  1   
 35  14  42  1   
 36  14  43  1   
 37  15  16  1   
 38  16  17  ar  
 39  16  18  ar  
 40  17  19  ar  
 41  17  20  1   
 42  18  21  ar  
 43  18  44  1   
 44  19  22  ar  
 45  20  45  1   
 46  20  46  1   
 47  21  22  ar  
 48  21  47  1   
 49  22  48  1   
@<TRIPOS>SUBSTRUCTURE
  1 ****  13 GROUP 4 **** **** 0

# MOE 2024.06 (io_trps.svl 2023.06)
