@<TRIPOS>MOLECULE
NONAME
43 45 1 0 0 
SMALL
USER_CHARGES


@<TRIPOS>ATOM
  1 O       -0.6110     0.0550    -0.5400 O.2   1 <1>  -0.5700 
  2 C       -1.5340     0.6860    -0.0550 C.2   1 <1>   0.5440 
  3 N       -2.5610     0.0100     0.5490 N.am  1 <1>  -0.6600 
  4 C       -1.5120     2.1350    -0.1250 C.ar  1 <1>   0.0860 
  5 C       -3.6830     0.6130     1.3260 C.3   1 <1>   0.2350 
  6 C       -2.9170    -1.3950     0.2050 C.3   1 <1>   0.2350 
  7 C       -0.4530     2.8650     0.4040 C.ar  1 <1>  -0.1500 
  8 C       -2.5380     2.8540    -0.7300 C.ar  1 <1>  -0.1500 
  9 C       -4.9160    -0.1550     0.8910 C.3   1 <1>  -0.2420 
 10 C       -4.4390    -1.4210     0.2180 C.3   1 <1>  -0.2420 
 11 C       -0.4260     4.2470     0.3490 C.ar  1 <1>  -0.1500 
 12 C       -2.5160     4.2350    -0.7850 C.ar  1 <1>  -0.1500 
 13 C       -6.0830     0.1480     1.8340 C.2   1 <1>   0.9470 
 14 C       -5.2210    -0.3980    -0.5670 C.3   1 <1>  -0.2000 
 15 C       -4.9600    -2.8570     0.2970 C.2   1 <1>   0.9470 
 16 C       -1.4620     4.9640    -0.2440 C.ar  1 <1>  -0.1430 
 17 O       -7.1290     0.6280     1.3740 O.co2 1 <1>  -0.9000 
 18 O       -5.8960     0.0820     3.0570 O.co2 1 <1>  -0.9000 
 19 O       -5.6950    -3.2900    -0.6010 O.co2 1 <1>  -0.9000 
 20 O       -4.5130    -3.6090     1.1740 O.co2 1 <1>  -0.9000 
 21 C       -1.4860     6.5060    -0.3230 C.3   1 <1>   0.1430 
 22 C       -1.5340     6.9440    -1.7950 C.3   1 <1>  -0.2400 
 23 C       -0.2530     7.1640     0.3180 C.3   1 <1>  -0.2400 
 24 C       -2.7280     7.0370     0.4080 C.3   1 <1>  -0.2400 
 25 H       -3.5080     0.4510     2.3770 H     1 <1>   0.0800 
 26 H       -3.8070     1.6630     1.1470 H     1 <1>   0.0800 
 27 H       -2.5350    -1.6740    -0.7610 H     1 <1>   0.0800 
 28 H       -2.5250    -2.0570     0.9580 H     1 <1>   0.0800 
 29 H        0.3580     2.3270     0.8630 H     1 <1>   0.1500 
 30 H       -3.3670     2.3130    -1.1560 H     1 <1>   0.1500 
 31 H        0.4220     4.7420     0.7820 H     1 <1>   0.1500 
 32 H       -3.3420     4.7360    -1.2560 H     1 <1>   0.1500 
 33 H       -4.7240     0.1760    -1.3250 H     1 <1>   0.1000 
 34 H       -6.2360    -0.6440    -0.8350 H     1 <1>   0.1000 
 35 H       -1.5140     8.0160    -1.8730 H     1 <1>   0.0800 
 36 H       -2.4270     6.5920    -2.2760 H     1 <1>   0.0800 
 37 H       -0.6860     6.5460    -2.3240 H     1 <1>   0.0800 
 38 H       -0.3120     8.2350     0.2410 H     1 <1>   0.0800 
 39 H        0.6460     6.8440    -0.1790 H     1 <1>   0.0800 
 40 H       -0.1880     6.9090     1.3600 H     1 <1>   0.0800 
 41 H       -2.7460     8.1120     0.3970 H     1 <1>   0.0800 
 42 H       -2.7220     6.7050     1.4310 H     1 <1>   0.0800 
 43 H       -3.6320     6.6840    -0.0530 H     1 <1>   0.0800 
@<TRIPOS>BOND
  1   1   2  2   
  2   2   3  am  
  3   2   4  1   
  4   3   5  1   
  5   3   6  1   
  6   4   7  ar  
  7   4   8  ar  
  8   5   9  1   
  9   5  25  1   
 10   5  26  1   
 11   6  10  1   
 12   6  27  1   
 13   6  28  1   
 14   7  11  ar  
 15   7  29  1   
 16   8  12  ar  
 17   8  30  1   
 18   9  10  1   
 19   9  13  1   
 20   9  14  1   
 21  10  14  1   
 22  10  15  1   
 23  11  16  ar  
 24  11  31  1   
 25  12  16  ar  
 26  12  32  1   
 27  13  17  ar  
 28  13  18  ar  
 29  14  33  1   
 30  14  34  1   
 31  15  19  ar  
 32  15  20  ar  
 33  16  21  1   
 34  21  22  1   
 35  21  23  1   
 36  21  24  1   
 37  22  35  1   
 38  22  36  1   
 39  22  37  1   
 40  23  38  1   
 41  23  39  1   
 42  23  40  1   
 43  24  41  1   
 44  24  42  1   
 45  24  43  1   
@<TRIPOS>SUBSTRUCTURE
  1 ****   5 GROUP 4 **** **** 0

# MOE 2024.06 (io_trps.svl 2023.06)
