@<TRIPOS>MOLECULE
NONAME
45 47 1 0 0 
SMALL
USER_CHARGES


@<TRIPOS>ATOM
  1 CL      -1.2110    -0.7070    -1.7000 Cl    1 <1>  -0.1770 
  2 C       -1.9480     0.5960    -0.7960 C.ar  1 <1>   0.1770 
  3 C       -2.8680     0.3230     0.2100 C.ar  1 <1>  -0.1440 
  4 C       -1.5840     1.8880    -1.1210 C.ar  1 <1>  -0.1500 
  5 C       -3.4110     1.3900     0.9250 C.ar  1 <1>  -0.1440 
  6 C       -3.2400    -1.1190     0.5160 C.3   1 <1>   0.4870 
  7 C       -2.1420     2.9410    -0.4230 C.ar  1 <1>  -0.1500 
  8 C       -3.0470     2.6880     0.5930 C.ar  1 <1>  -0.1500 
  9 C       -4.3990     1.1990     2.0690 C.3   1 <1>  -0.0970 
 10 N       -3.8500    -1.8020    -0.6740 N.4   1 <1>  -0.9590 
 11 C       -5.3010    -1.5870    -0.9660 C.3   1 <1>   0.4230 
 12 C       -3.5480    -3.2640    -0.6210 C.3   1 <1>   0.2630 
 13 C       -6.2400    -1.8060     0.2180 C.3   1 <1>  -0.1600 
 14 C       -5.6440    -0.1960    -1.4820 C.3   1 <1>  -0.1600 
 15 C       -7.5510    -1.1340    -0.2140 C.3   1 <1>  -0.0800 
 16 C       -7.1570    -0.0650    -1.2650 C.3   1 <1>  -0.0800 
 17 C       -8.3980    -0.6330     0.9760 C.3   1 <1>   0.1400 
 18 C       -7.5910     1.3720    -0.9080 C.3   1 <1>  -0.0990 
 19 N       -9.3330     0.4120     0.5190 N.am  1 <1>  -0.7300 
 20 C       -9.0010     1.3810    -0.3590 C.2   1 <1>   0.5690 
 21 O       -9.7860     2.2280    -0.6920 O.2   1 <1>  -0.5700 
 22 H       -0.8720     2.0690    -1.9070 H     1 <1>   0.1500 
 23 H       -3.9030    -1.1690     1.3600 H     1 <1>   0.0800 
 24 H       -2.3320    -1.6320     0.7900 H     1 <1>   0.0800 
 25 H       -1.8710     3.9550    -0.6640 H     1 <1>   0.1500 
 26 H       -3.4630     3.5250     1.1300 H     1 <1>   0.1500 
 27 H       -4.5210     2.1140     2.6220 H     1 <1>   0.0800 
 28 H       -4.0490     0.4530     2.7600 H     1 <1>   0.0800 
 29 H       -5.3630     0.9150     1.6900 H     1 <1>   0.0800 
 30 H       -3.3340    -1.4180    -1.4810 H     1 <1>   0.4500 
 31 H       -5.5980    -2.2790    -1.7390 H     1 <1>   0.0800 
 32 H       -4.0400    -3.7210     0.2230 H     1 <1>   0.0800 
 33 H       -2.4850    -3.4240    -0.5310 H     1 <1>   0.0800 
 34 H       -3.8880    -3.7490    -1.5220 H     1 <1>   0.0800 
 35 H       -6.3930    -2.8520     0.4180 H     1 <1>   0.0800 
 36 H       -5.8720    -1.3200     1.0990 H     1 <1>   0.0800 
 37 H       -5.1460     0.5660    -0.9200 H     1 <1>   0.0800 
 38 H       -5.3930    -0.0880    -2.5230 H     1 <1>   0.0800 
 39 H       -8.1460    -1.8740    -0.7260 H     1 <1>   0.0800 
 40 H       -7.6590    -0.3260    -2.1840 H     1 <1>   0.0800 
 41 H       -7.7690    -0.2070     1.7390 H     1 <1>   0.0800 
 42 H       -8.9510    -1.4500     1.4080 H     1 <1>   0.0800 
 43 H       -7.5450     2.0020    -1.7780 H     1 <1>   0.0800 
 44 H       -6.9520     1.7920    -0.1550 H     1 <1>   0.0800 
 45 H      -10.2770     0.4430     0.9130 H     1 <1>   0.3700 
@<TRIPOS>BOND
  1   1   2  1   
  2   2   3  ar  
  3   2   4  ar  
  4   3   5  ar  
  5   3   6  1   
  6   4   7  ar  
  7   4  22  1   
  8   5   8  ar  
  9   5   9  1   
 10   6  10  1   
 11   6  23  1   
 12   6  24  1   
 13   7   8  ar  
 14   7  25  1   
 15   8  26  1   
 16   9  27  1   
 17   9  28  1   
 18   9  29  1   
 19  10  11  1   
 20  10  12  1   
 21  10  30  1   
 22  11  13  1   
 23  11  14  1   
 24  11  31  1   
 25  12  32  1   
 26  12  33  1   
 27  12  34  1   
 28  13  15  1   
 29  13  35  1   
 30  13  36  1   
 31  14  16  1   
 32  14  37  1   
 33  14  38  1   
 34  15  16  1   
 35  15  17  1   
 36  15  39  1   
 37  16  18  1   
 38  16  40  1   
 39  17  19  1   
 40  17  41  1   
 41  17  42  1   
 42  18  20  1   
 43  18  43  1   
 44  18  44  1   
 45  19  20  am  
 46  19  45  1   
 47  20  21  2   
@<TRIPOS>SUBSTRUCTURE
  1 ****  14 GROUP 4 **** **** 0

# MOE 2024.06 (io_trps.svl 2023.06)
