@<TRIPOS>MOLECULE
NONAME
46 48 1 0 0 
SMALL
USER_CHARGES


@<TRIPOS>ATOM
  1 CL      -0.5630    -1.1460     2.7690 Cl    1 <1>  -0.1770 
  2 C       -1.4830    -1.5510     1.3440 C.ar  1 <1>   0.1770 
  3 C       -1.7550    -0.5650     0.4170 C.ar  1 <1>  -0.1500 
  4 C       -1.9230    -2.8500     1.1710 C.ar  1 <1>  -0.1500 
  5 C       -2.4850    -0.9320    -0.6950 C.ar  1 <1>   0.1900 
  6 C       -2.6690    -3.2150     0.0470 C.ar  1 <1>   0.0860 
  7 F       -2.7570    -0.0240    -1.5920 F     1 <1>  -0.1900 
  8 C       -2.9390    -2.2210    -0.8970 C.ar  1 <1>  -0.1500 
  9 C       -3.1320    -4.5820    -0.1280 C.2   1 <1>   0.5440 
 10 O       -2.4790    -5.5120     0.3060 O.2   1 <1>  -0.5700 
 11 N       -4.3250    -4.8840    -0.7470 N.am  1 <1>  -0.6600 
 12 C       -4.5500    -6.2710    -1.2340 C.3   1 <1>   0.1400 
 13 C       -5.5790    -4.1810    -0.3650 C.3   1 <1>   0.1400 
 14 C       -5.1830    -7.0980    -0.0930 C.3   1 <1>   0.4230 
 15 C       -6.2490    -4.9770     0.7660 C.3   1 <1>  -0.1600 
 16 N       -5.2640    -8.5910    -0.3790 N.4   1 <1>  -0.9590 
 17 C       -6.5190    -6.4700     0.4110 C.3   1 <1>   0.0000 
 18 C       -6.2180    -9.3320     0.5090 C.3   1 <1>   0.3430 
 19 C       -5.4970    -8.9670    -1.8120 C.3   1 <1>   0.2630 
 20 C       -6.9810    -7.2140     1.6990 C.3   1 <1>  -0.1600 
 21 C       -7.6090    -6.5720    -0.6950 C.3   1 <1>   0.1200 
 22 C       -6.3790    -8.6240     1.8530 C.3   1 <1>  -0.1600 
 23 O       -8.7450    -5.8520    -0.3640 O.3   1 <1>  -0.6800 
 24 H       -1.4110     0.4430     0.5540 H     1 <1>   0.1500 
 25 H       -1.6830    -3.5890     1.9150 H     1 <1>   0.1500 
 26 H       -3.4960    -2.4510    -1.7870 H     1 <1>   0.1500 
 27 H       -5.1820    -6.2360    -2.1030 H     1 <1>   0.0800 
 28 H       -3.6060    -6.7030    -1.5170 H     1 <1>   0.0800 
 29 H       -5.3660    -3.1820    -0.0230 H     1 <1>   0.0800 
 30 H       -6.2330    -4.1060    -1.2180 H     1 <1>   0.0800 
 31 H       -4.4960    -6.9910     0.7310 H     1 <1>   0.0800 
 32 H       -5.5980    -4.9190     1.6220 H     1 <1>   0.0800 
 33 H       -7.1620    -4.4800     1.0450 H     1 <1>   0.0800 
 34 H       -4.3240    -8.9380    -0.1310 H     1 <1>   0.4500 
 35 H       -7.1850    -9.3900     0.0360 H     1 <1>   0.0800 
 36 H       -5.8650   -10.3390     0.6660 H     1 <1>   0.0800 
 37 H       -6.4490    -8.5940    -2.1510 H     1 <1>   0.0800 
 38 H       -5.4900   -10.0400    -1.9210 H     1 <1>   0.0800 
 39 H       -4.7210    -8.5600    -2.4410 H     1 <1>   0.0800 
 40 H       -6.7100    -6.6540     2.5790 H     1 <1>   0.0800 
 41 H       -8.0550    -7.2900     1.7180 H     1 <1>   0.0800 
 42 H       -7.9120    -7.5910    -0.8590 H     1 <1>   0.0800 
 43 H       -7.2610    -6.1680    -1.6280 H     1 <1>   0.0800 
 44 H       -7.0190    -9.2120     2.4890 H     1 <1>   0.0800 
 45 H       -5.4200    -8.5680     2.3390 H     1 <1>   0.0800 
 46 H       -9.1900    -6.2050     0.4320 H     1 <1>   0.4000 
@<TRIPOS>BOND
  1   1   2  1   
  2   2   3  ar  
  3   2   4  ar  
  4   3   5  ar  
  5   3  24  1   
  6   4   6  ar  
  7   4  25  1   
  8   5   7  1   
  9   5   8  ar  
 10   6   8  ar  
 11   6   9  1   
 12   8  26  1   
 13   9  10  2   
 14   9  11  am  
 15  11  12  1   
 16  11  13  1   
 17  12  14  1   
 18  12  27  1   
 19  12  28  1   
 20  13  15  1   
 21  13  29  1   
 22  13  30  1   
 23  14  16  1   
 24  14  17  1   
 25  14  31  1   
 26  15  17  1   
 27  15  32  1   
 28  15  33  1   
 29  16  18  1   
 30  16  19  1   
 31  16  34  1   
 32  17  20  1   
 33  17  21  1   
 34  18  22  1   
 35  18  35  1   
 36  18  36  1   
 37  19  37  1   
 38  19  38  1   
 39  19  39  1   
 40  20  22  1   
 41  20  40  1   
 42  20  41  1   
 43  21  23  1   
 44  21  42  1   
 45  21  43  1   
 46  22  44  1   
 47  22  45  1   
 48  23  46  1   
@<TRIPOS>SUBSTRUCTURE
  1 ****  11 GROUP 4 **** **** 0

# MOE 2024.06 (io_trps.svl 2023.06)
