@<TRIPOS>MOLECULE
NONAME
54 56 1 0 0 
SMALL
USER_CHARGES


@<TRIPOS>ATOM
  1 CL      -0.7980    -0.2440    -0.5830 Cl    1 <1>  -0.1770 
  2 C       -2.1670     0.7780    -0.2230 C.ar  1 <1>   0.1770 
  3 C       -2.1480     2.1010    -0.6200 C.ar  1 <1>  -0.1500 
  4 C       -3.2490     0.2470     0.4530 C.ar  1 <1>  -0.1500 
  5 C       -3.2350     2.9090    -0.3320 C.ar  1 <1>  -0.1500 
  6 C       -4.3330     1.0610     0.7380 C.ar  1 <1>  -0.1500 
  7 C       -4.3300     2.3930     0.3480 C.ar  1 <1>  -0.1430 
  8 C       -5.5220     3.2820     0.6630 C.3   1 <1>  -0.0160 
  9 C       -6.5540     3.2180    -0.4690 C.3   1 <1>  -0.1600 
 10 C       -7.7910     4.0830    -0.1620 C.3   1 <1>  -0.0990 
 11 C       -8.8760     4.0310    -1.2360 C.2   1 <1>   0.5690 
 12 O       -8.5760     3.6310    -2.3370 O.2   1 <1>  -0.5700 
 13 N      -10.1530     4.4360    -0.9410 N.am  1 <1>  -0.6600 
 14 C      -10.5510     5.0540     0.3610 C.3   1 <1>   0.1400 
 15 C      -11.2410     4.2590    -1.9490 C.3   1 <1>   0.1400 
 16 C      -11.7630     5.9700     0.1740 C.3   1 <1>  -0.1600 
 17 C      -12.5710     4.0060    -1.2370 C.3   1 <1>  -0.1600 
 18 C      -12.9970     5.2130    -0.3710 C.3   1 <1>   0.2800 
 19 O      -13.6190     6.1120    -1.2660 O.3   1 <1>  -0.5600 
 20 C      -13.9580     4.8130     0.7930 C.3   1 <1>   0.2000 
 21 C      -14.9640     6.4590    -1.0840 C.3   1 <1>   0.1200 
 22 O      -13.3930     3.8680     1.6580 O.3   1 <1>  -0.6800 
 23 C      -15.3750     4.3830     0.3100 C.3   1 <1>   0.2800 
 24 C      -15.8000     5.1860    -0.9320 C.3   1 <1>  -0.1600 
 25 O      -16.2530     4.6980     1.3300 O.3   1 <1>  -0.6800 
 26 C      -15.5670     2.8780     0.0700 C.3   1 <1>  -0.2400 
 27 H       -1.2950     2.4890    -1.1460 H     1 <1>   0.1500 
 28 H       -3.2410    -0.7850     0.7500 H     1 <1>   0.1500 
 29 H       -3.2270     3.9400    -0.6420 H     1 <1>   0.1500 
 30 H       -5.1810     0.6530     1.2610 H     1 <1>   0.1500 
 31 H       -5.9730     2.9610     1.5860 H     1 <1>   0.0800 
 32 H       -5.1900     4.2970     0.7970 H     1 <1>   0.0800 
 33 H       -6.8630     2.1970    -0.6150 H     1 <1>   0.0800 
 34 H       -6.0990     3.5550    -1.3850 H     1 <1>   0.0800 
 35 H       -7.4890     5.1070    -0.0490 H     1 <1>   0.0800 
 36 H       -8.2150     3.7470     0.7660 H     1 <1>   0.0800 
 37 H      -10.7920     4.2730     1.0620 H     1 <1>   0.0800 
 38 H       -9.7370     5.6330     0.7590 H     1 <1>   0.0800 
 39 H      -11.3110     5.1450    -2.5570 H     1 <1>   0.0800 
 40 H      -11.0140     3.4250    -2.5910 H     1 <1>   0.0800 
 41 H      -11.4800     6.7520    -0.5090 H     1 <1>   0.0800 
 42 H      -11.9950     6.4340     1.1150 H     1 <1>   0.0800 
 43 H      -12.4480     3.1290    -0.6280 H     1 <1>   0.0800 
 44 H      -13.3280     3.7910    -1.9670 H     1 <1>   0.0800 
 45 H      -14.0900     5.7000     1.3890 H     1 <1>   0.0800 
 46 H      -15.0460     7.0930    -0.2170 H     1 <1>   0.0800 
 47 H      -15.2750     7.0160    -1.9510 H     1 <1>   0.0800 
 48 H      -14.0520     3.6650     2.3530 H     1 <1>   0.4000 
 49 H      -15.6500     4.6020    -1.8220 H     1 <1>   0.0800 
 50 H      -16.8450     5.4380    -0.8890 H     1 <1>   0.0800 
 51 H      -17.1470     4.3790     1.1040 H     1 <1>   0.4000 
 52 H      -14.8810     2.5260    -0.6780 H     1 <1>   0.0800 
 53 H      -16.5640     2.6710    -0.2750 H     1 <1>   0.0800 
 54 H      -15.3860     2.3180     0.9700 H     1 <1>   0.0800 
@<TRIPOS>BOND
  1   1   2  1   
  2   2   3  ar  
  3   2   4  ar  
  4   3   5  ar  
  5   3  27  1   
  6   4   6  ar  
  7   4  28  1   
  8   5   7  ar  
  9   5  29  1   
 10   6   7  ar  
 11   6  30  1   
 12   7   8  1   
 13   8   9  1   
 14   8  31  1   
 15   8  32  1   
 16   9  10  1   
 17   9  33  1   
 18   9  34  1   
 19  10  11  1   
 20  10  35  1   
 21  10  36  1   
 22  11  12  2   
 23  11  13  am  
 24  13  14  1   
 25  13  15  1   
 26  14  16  1   
 27  14  37  1   
 28  14  38  1   
 29  15  17  1   
 30  15  39  1   
 31  15  40  1   
 32  16  18  1   
 33  16  41  1   
 34  16  42  1   
 35  17  18  1   
 36  17  43  1   
 37  17  44  1   
 38  18  19  1   
 39  18  20  1   
 40  19  21  1   
 41  20  22  1   
 42  20  23  1   
 43  20  45  1   
 44  21  24  1   
 45  21  46  1   
 46  21  47  1   
 47  22  48  1   
 48  23  24  1   
 49  23  25  1   
 50  23  26  1   
 51  24  49  1   
 52  24  50  1   
 53  25  51  1   
 54  26  52  1   
 55  26  53  1   
 56  26  54  1   
@<TRIPOS>SUBSTRUCTURE
  1 ****  11 GROUP 4 **** **** 0

# MOE 2024.06 (io_trps.svl 2023.06)
