@<TRIPOS>MOLECULE
NONAME
64 67 1 0 0 
SMALL
USER_CHARGES


@<TRIPOS>ATOM
  1 O        1.1030    -1.0260     0.3210 O.3   1 <1>  -0.5600 
  2 C        0.6450    -1.9650    -0.6280 C.3   1 <1>   0.4180 
  3 C        1.1990     0.3130    -0.0940 C.3   1 <1>   0.1200 
  4 C       -0.4910    -1.3850    -1.4610 C.2   1 <1>  -0.2880 
  5 C        0.1400    -3.1670     0.1800 C.3   1 <1>  -0.1600 
  6 C        1.8270    -2.4060    -1.4980 C.3   1 <1>  -0.1600 
  7 C       -0.1810     0.8630    -0.4780 C.3   1 <1>  -0.0220 
  8 C       -0.8900    -0.1130    -1.3970 C.2   1 <1>  -0.2760 
  9 C        1.2610    -4.0340     0.7680 C.3   1 <1>   0.3430 
 10 C        2.9850    -2.9800    -0.6720 C.3   1 <1>   0.3430 
 11 C       -2.0480     0.4670    -2.1910 C.3   1 <1>  -0.1020 
 12 N        2.5500    -3.3010     0.7220 N.4   1 <1>  -0.9590 
 13 C        3.6180    -3.9100     1.5540 C.3   1 <1>   0.4860 
 14 C        4.8110    -2.9730     1.5830 C.ar  1 <1>  -0.1440 
 15 C        5.9670    -3.2980     0.8910 C.ar  1 <1>  -0.1500 
 16 C        4.7550    -1.7820     2.2920 C.ar  1 <1>  -0.1500 
 17 C        7.0590    -2.4460     0.8960 C.ar  1 <1>   0.0820 
 18 C        5.8420    -0.9250     2.3000 C.ar  1 <1>  -0.1500 
 19 O        8.1450    -2.8500     0.1940 O.3   1 <1>  -0.3620 
 20 C        6.9920    -1.2500     1.6040 C.ar  1 <1>  -0.1500 
 21 C        9.3700    -2.1610     0.2810 C.3   1 <1>   0.1200 
 22 C       10.3940    -2.9480    -0.5420 C.3   1 <1>   0.3430 
 23 N       11.7600    -2.3330    -0.5140 N.4   1 <1>  -0.9590 
 24 C       12.6730    -2.9450    -1.5390 C.3   1 <1>   0.3430 
 25 C       12.4230    -2.3540     0.8390 C.3   1 <1>   0.3430 
 26 C       14.0690    -2.2770    -1.5180 C.3   1 <1>   0.1200 
 27 C       13.8600    -1.7850     0.7750 C.3   1 <1>   0.1200 
 28 O       14.1550    -1.3060    -0.5090 O.3   1 <1>  -0.5600 
 29 H        1.8680     0.3670    -0.9350 H     1 <1>   0.0800 
 30 H        1.6140     0.8850     0.7170 H     1 <1>   0.0800 
 31 H       -0.9560    -2.1060    -2.1110 H     1 <1>   0.1500 
 32 H       -0.4630    -3.7960    -0.4500 H     1 <1>   0.0800 
 33 H       -0.5030    -2.8130     0.9670 H     1 <1>   0.0800 
 34 H        2.1760    -1.5860    -2.0980 H     1 <1>   0.0800 
 35 H        1.4880    -3.1610    -2.1830 H     1 <1>   0.0800 
 36 H       -0.0460     1.8090    -0.9720 H     1 <1>   0.0800 
 37 H       -0.7700     1.0290     0.4070 H     1 <1>   0.0800 
 38 H        1.3470    -4.9460     0.1990 H     1 <1>   0.0800 
 39 H        1.0120    -4.2910     1.7850 H     1 <1>   0.0800 
 40 H        3.7760    -2.2480    -0.6310 H     1 <1>   0.0800 
 41 H        3.3720    -3.8620    -1.1560 H     1 <1>   0.0800 
 42 H       -2.7940     0.8600    -1.5240 H     1 <1>   0.0800 
 43 H       -2.5050    -0.2900    -2.8030 H     1 <1>   0.0800 
 44 H       -1.7020     1.2590    -2.8310 H     1 <1>   0.0800 
 45 H        2.3350    -2.3670     1.1240 H     1 <1>   0.4500 
 46 H        3.9100    -4.8630     1.1450 H     1 <1>   0.0800 
 47 H        3.2620    -4.0630     2.5600 H     1 <1>   0.0800 
 48 H        6.0430    -4.2190     0.3380 H     1 <1>   0.1500 
 49 H        3.8730    -1.5060     2.8450 H     1 <1>   0.1500 
 50 H        5.7910     0.0000     2.8520 H     1 <1>   0.1500 
 51 H        7.8140    -0.5590     1.6290 H     1 <1>   0.1500 
 52 H        9.6510    -2.1170     1.3180 H     1 <1>   0.0800 
 53 H        9.2290    -1.1740    -0.1240 H     1 <1>   0.0800 
 54 H       10.0440    -2.9890    -1.5610 H     1 <1>   0.0800 
 55 H       10.4460    -3.9550    -0.1620 H     1 <1>   0.0800 
 56 H       11.7120    -1.3360    -0.7780 H     1 <1>   0.4500 
 57 H       12.2500    -2.8390    -2.5240 H     1 <1>   0.0800 
 58 H       12.7880    -3.9990    -1.3470 H     1 <1>   0.0800 
 59 H       12.4650    -3.3620     1.2150 H     1 <1>   0.0800 
 60 H       11.8510    -1.7690     1.5400 H     1 <1>   0.0800 
 61 H       14.2610    -1.7890    -2.4580 H     1 <1>   0.0800 
 62 H       14.8410    -3.0110    -1.3580 H     1 <1>   0.0800 
 63 H       14.5830    -2.5390     1.0360 H     1 <1>   0.0800 
 64 H       13.9670    -0.9650     1.4650 H     1 <1>   0.0800 
@<TRIPOS>BOND
  1   1   2  1   
  2   1   3  1   
  3   2   4  1   
  4   2   5  1   
  5   2   6  1   
  6   3   7  1   
  7   3  29  1   
  8   3  30  1   
  9   4   8  2   
 10   4  31  1   
 11   5   9  1   
 12   5  32  1   
 13   5  33  1   
 14   6  10  1   
 15   6  34  1   
 16   6  35  1   
 17   7   8  1   
 18   7  36  1   
 19   7  37  1   
 20   8  11  1   
 21   9  12  1   
 22   9  38  1   
 23   9  39  1   
 24  10  12  1   
 25  10  40  1   
 26  10  41  1   
 27  11  42  1   
 28  11  43  1   
 29  11  44  1   
 30  12  13  1   
 31  12  45  1   
 32  13  14  1   
 33  13  46  1   
 34  13  47  1   
 35  14  15  ar  
 36  14  16  ar  
 37  15  17  ar  
 38  15  48  1   
 39  16  18  ar  
 40  16  49  1   
 41  17  19  1   
 42  17  20  ar  
 43  18  20  ar  
 44  18  50  1   
 45  19  21  1   
 46  20  51  1   
 47  21  22  1   
 48  21  52  1   
 49  21  53  1   
 50  22  23  1   
 51  22  54  1   
 52  22  55  1   
 53  23  24  1   
 54  23  25  1   
 55  23  56  1   
 56  24  26  1   
 57  24  57  1   
 58  24  58  1   
 59  25  27  1   
 60  25  59  1   
 61  25  60  1   
 62  26  28  1   
 63  26  61  1   
 64  26  62  1   
 65  27  28  1   
 66  27  63  1   
 67  27  64  1   
@<TRIPOS>SUBSTRUCTURE
  1 ****  15 GROUP 4 **** **** 0

# MOE 2024.06 (io_trps.svl 2023.06)
