@<TRIPOS>MOLECULE
NONAME
44 46 1 0 0 
SMALL
USER_CHARGES


@<TRIPOS>ATOM
  1 CL      -0.2550    -0.3380    -1.2590 Cl    1 <1>  -0.1770 
  2 C       -1.7490    -0.9520    -0.6050 C.ar  1 <1>   0.1770 
  3 C       -2.5750    -1.7190    -1.4030 C.ar  1 <1>  -0.1500 
  4 C       -2.0880    -0.6610     0.7050 C.ar  1 <1>  -0.1500 
  5 C       -3.7530    -2.1860    -0.8540 C.ar  1 <1>   0.1900 
  6 C       -3.2760    -1.1450     1.2300 C.ar  1 <1>  -0.1500 
  7 F       -4.5300    -2.9050    -1.6180 F     1 <1>  -0.1900 
  8 C       -4.1440    -1.9190     0.4570 C.ar  1 <1>   0.0860 
  9 C       -5.3820    -2.4190     1.0090 C.2   1 <1>   0.5440 
 10 O       -5.3400    -3.3710     1.7650 O.2   1 <1>  -0.5700 
 11 N       -6.5970    -1.8260     0.7360 N.am  1 <1>  -0.6600 
 12 C       -6.7400    -0.6470    -0.1730 C.3   1 <1>   0.1400 
 13 C       -7.8520    -2.3500     1.3580 C.3   1 <1>   0.1400 
 14 C       -8.1180    -0.6720    -0.8310 C.3   1 <1>  -0.1600 
 15 C       -8.8640    -1.2180     1.5450 C.3   1 <1>  -0.1600 
 16 C       -9.2450    -0.5280     0.2090 C.3   1 <1>   0.2800 
 17 O       -9.3450     0.8520     0.4510 O.3   1 <1>  -0.5600 
 18 C      -10.5780    -1.0550    -0.3920 C.3   1 <1>  -0.1600 
 19 C      -10.3460     1.3070     1.3270 C.3   1 <1>   0.1200 
 20 C      -11.7310    -0.0500    -0.3210 C.3   1 <1>   0.2800 
 21 C      -11.7080     0.6590     1.0310 C.3   1 <1>  -0.1600 
 22 O      -11.5080     0.8980    -1.2840 O.3   1 <1>  -0.6800 
 23 C      -13.0830    -0.6870    -0.6290 C.3   1 <1>  -0.2400 
 24 H       -2.3070    -1.9450    -2.4190 H     1 <1>   0.1500 
 25 H       -1.4230    -0.0640     1.3060 H     1 <1>   0.1500 
 26 H       -3.5430    -0.9300     2.2510 H     1 <1>   0.1500 
 27 H       -5.9870    -0.6680    -0.9400 H     1 <1>   0.0800 
 28 H       -6.6250     0.2600     0.3960 H     1 <1>   0.0800 
 29 H       -7.6300    -2.7900     2.3160 H     1 <1>   0.0800 
 30 H       -8.2630    -3.1180     0.7250 H     1 <1>   0.0800 
 31 H       -8.2060    -1.6070    -1.3560 H     1 <1>   0.0800 
 32 H       -8.1960     0.1140    -1.5600 H     1 <1>   0.0800 
 33 H       -8.4050    -0.5060     2.2080 H     1 <1>   0.0800 
 34 H       -9.7360    -1.6030     2.0390 H     1 <1>   0.0800 
 35 H      -10.8630    -1.9490     0.1280 H     1 <1>   0.0800 
 36 H      -10.4520    -1.3500    -1.4190 H     1 <1>   0.0800 
 37 H      -10.4130     2.3730     1.1920 H     1 <1>   0.0800 
 38 H      -10.0390     1.1150     2.3400 H     1 <1>   0.0800 
 39 H      -12.4840     1.4030     1.0750 H     1 <1>   0.0800 
 40 H      -11.9200    -0.0570     1.8040 H     1 <1>   0.0800 
 41 H      -10.6300     1.2910    -1.0860 H     1 <1>   0.4000 
 42 H      -13.3180    -1.4360     0.1040 H     1 <1>   0.0800 
 43 H      -13.0610    -1.1510    -1.5980 H     1 <1>   0.0800 
 44 H      -13.8570     0.0590    -0.6150 H     1 <1>   0.0800 
@<TRIPOS>BOND
  1   1   2  1   
  2   2   3  ar  
  3   2   4  ar  
  4   3   5  ar  
  5   3  24  1   
  6   4   6  ar  
  7   4  25  1   
  8   5   7  1   
  9   5   8  ar  
 10   6   8  ar  
 11   6  26  1   
 12   8   9  1   
 13   9  10  2   
 14   9  11  am  
 15  11  12  1   
 16  11  13  1   
 17  12  14  1   
 18  12  27  1   
 19  12  28  1   
 20  13  15  1   
 21  13  29  1   
 22  13  30  1   
 23  14  16  1   
 24  14  31  1   
 25  14  32  1   
 26  15  16  1   
 27  15  33  1   
 28  15  34  1   
 29  16  17  1   
 30  16  18  1   
 31  17  19  1   
 32  18  20  1   
 33  18  35  1   
 34  18  36  1   
 35  19  21  1   
 36  19  37  1   
 37  19  38  1   
 38  20  21  1   
 39  20  22  1   
 40  20  23  1   
 41  21  39  1   
 42  21  40  1   
 43  22  41  1   
 44  23  42  1   
 45  23  43  1   
 46  23  44  1   
@<TRIPOS>SUBSTRUCTURE
  1 ****  12 GROUP 4 **** **** 0

# MOE 2024.06 (io_trps.svl 2023.06)
