@<TRIPOS>MOLECULE
NONAME
56 59 1 0 0 
SMALL
USER_CHARGES


@<TRIPOS>ATOM
  1 CL      -0.5230    -0.4520     1.2380 Cl    1 <1>  -0.1770 
  2 C       -0.7850    -1.9030     0.2960 C.ar  1 <1>   0.1770 
  3 C       -0.0900    -2.1000    -0.8890 C.ar  1 <1>  -0.1440 
  4 C       -1.6920    -2.8300     0.7690 C.ar  1 <1>  -0.1500 
  5 C       -0.3260    -3.2650    -1.6030 C.ar  1 <1>  -0.1500 
  6 C        0.9080    -1.0720    -1.4000 C.3   1 <1>  -0.0960 
  7 C       -1.9310    -3.9960     0.0510 C.ar  1 <1>   0.1000 
  8 C       -1.2360    -4.1980    -1.1350 C.ar  1 <1>  -0.1500 
  9 N       -2.8350    -4.9600     0.4920 N.pl3 1 <1>  -0.8380 
 10 C       -4.1540    -4.5160     0.9900 C.3   1 <1>   0.2090 
 11 C       -2.2620    -6.1410     1.1710 C.3   1 <1>   0.2090 
 12 C       -5.1410    -5.6520     0.7400 C.3   1 <1>  -0.1600 
 13 C       -3.2060    -7.3110     0.9160 C.3   1 <1>  -0.1600 
 14 C       -4.6260    -6.9510     1.3730 C.3   1 <1>   0.4230 
 15 N       -5.5870    -8.0550     1.1100 N.4   1 <1>  -0.9060 
 16 C       -5.7430    -8.5160    -0.3030 C.3   1 <1>   0.4230 
 17 C       -7.1520    -9.0650    -0.5310 C.3   1 <1>  -0.0800 
 18 C       -4.9500    -9.8090    -0.4680 C.3   1 <1>   0.1200 
 19 C       -7.0550   -10.5090    -0.0110 C.3   1 <1>   0.1200 
 20 C       -8.3320    -8.2600     0.0500 C.3   1 <1>  -0.0170 
 21 O       -5.7010   -10.7190     0.2640 O.3   1 <1>  -0.5600 
 22 C       -9.6530    -8.8830    -0.3670 C.ar  1 <1>  -0.1430 
 23 C      -10.3760    -9.7080     0.4740 C.ar  1 <1>  -0.1500 
 24 C      -10.2010    -8.6550    -1.6140 C.ar  1 <1>  -0.1500 
 25 C      -11.5700   -10.2550     0.0360 C.ar  1 <1>   0.1600 
 26 C      -11.4040    -9.2520    -1.9530 C.ar  1 <1>   0.1600 
 27 N      -12.0980   -10.0490    -1.1580 N.ar  1 <1>  -0.6200 
 28 H       -2.2020    -2.6430     1.6920 H     1 <1>   0.1500 
 29 H        0.1950    -3.4510    -2.5260 H     1 <1>   0.1500 
 30 H        1.3490    -1.3890    -2.3280 H     1 <1>   0.0800 
 31 H        1.6930    -0.9320    -0.6790 H     1 <1>   0.0800 
 32 H        0.4140    -0.1300    -1.5610 H     1 <1>   0.0800 
 33 H       -1.4170    -5.0960    -1.6950 H     1 <1>   0.1500 
 34 H       -4.0880    -4.2840     2.0410 H     1 <1>   0.0800 
 35 H       -4.4630    -3.6290     0.4600 H     1 <1>   0.0800 
 36 H       -1.2830    -6.3550     0.7730 H     1 <1>   0.0800 
 37 H       -2.1640    -5.9410     2.2260 H     1 <1>   0.0800 
 38 H       -5.2510    -5.7550    -0.3240 H     1 <1>   0.0800 
 39 H       -6.0900    -5.3790     1.1630 H     1 <1>   0.0800 
 40 H       -2.8450    -8.1680     1.4550 H     1 <1>   0.0800 
 41 H       -3.1760    -7.5160    -0.1380 H     1 <1>   0.0800 
 42 H       -4.5820    -6.7880     2.4390 H     1 <1>   0.0800 
 43 H       -6.5020    -7.7840     1.4720 H     1 <1>   0.4500 
 44 H       -5.3180    -8.9020     1.6350 H     1 <1>   0.4500 
 45 H       -5.4680    -7.7550    -1.0150 H     1 <1>   0.0800 
 46 H       -7.3010    -9.1290    -1.5960 H     1 <1>   0.0800 
 47 H       -3.9490    -9.7690    -0.0780 H     1 <1>   0.0800 
 48 H       -4.9280   -10.1330    -1.4960 H     1 <1>   0.0800 
 49 H       -7.3750   -11.2220    -0.7540 H     1 <1>   0.0800 
 50 H       -7.6090   -10.6660     0.8990 H     1 <1>   0.0800 
 51 H       -8.2990    -7.2470    -0.3130 H     1 <1>   0.0800 
 52 H       -8.2940    -8.2310     1.1250 H     1 <1>   0.0800 
 53 H      -10.0330    -9.9360     1.4660 H     1 <1>   0.1500 
 54 H       -9.7130    -8.0210    -2.3300 H     1 <1>   0.1500 
 55 H      -12.1220   -10.8970     0.7020 H     1 <1>   0.1500 
 56 H      -11.8190    -9.0650    -2.9300 H     1 <1>   0.1500 
@<TRIPOS>BOND
  1   1   2  1   
  2   2   3  ar  
  3   2   4  ar  
  4   3   5  ar  
  5   3   6  1   
  6   4   7  ar  
  7   4  28  1   
  8   5   8  ar  
  9   5  29  1   
 10   6  30  1   
 11   6  31  1   
 12   6  32  1   
 13   7   8  ar  
 14   7   9  1   
 15   8  33  1   
 16   9  10  1   
 17   9  11  1   
 18  10  12  1   
 19  10  34  1   
 20  10  35  1   
 21  11  13  1   
 22  11  36  1   
 23  11  37  1   
 24  12  14  1   
 25  12  38  1   
 26  12  39  1   
 27  13  14  1   
 28  13  40  1   
 29  13  41  1   
 30  14  15  1   
 31  14  42  1   
 32  15  16  1   
 33  15  43  1   
 34  15  44  1   
 35  16  17  1   
 36  16  18  1   
 37  16  45  1   
 38  17  19  1   
 39  17  20  1   
 40  17  46  1   
 41  18  21  1   
 42  18  47  1   
 43  18  48  1   
 44  19  21  1   
 45  19  49  1   
 46  19  50  1   
 47  20  22  1   
 48  20  51  1   
 49  20  52  1   
 50  22  23  ar  
 51  22  24  ar  
 52  23  25  ar  
 53  23  53  1   
 54  24  26  ar  
 55  24  54  1   
 56  25  27  ar  
 57  25  55  1   
 58  26  27  ar  
 59  26  56  1   
@<TRIPOS>SUBSTRUCTURE
  1 ****  12 GROUP 4 **** **** 0

# MOE 2024.06 (io_trps.svl 2023.06)
