@<TRIPOS>MOLECULE
NONAME
45 48 1 0 0 
SMALL
USER_CHARGES


@<TRIPOS>ATOM
  1 O       -1.3070     0.7740    -1.0520 O.2   1 <1>  -0.5700 
  2 C       -1.3360     0.6760     0.1630 C.2   1 <1>   0.7150 
  3 N       -1.7150    -0.5170     0.7050 N.am  1 <1>  -0.7300 
  4 C       -0.9960     1.7770     1.0340 C.2   1 <1>   0.1020 
  5 C       -2.1300    -1.7290    -0.0340 C.3   1 <1>   0.2200 
  6 N       -1.0830     1.7570     2.3400 N.2   1 <1>  -0.3380 
  7 N       -0.5490     2.9810     0.6300 N.pl3 1 <1>   0.0480 
  8 C       -3.6290    -1.9190     0.1230 C.3   1 <1>  -0.0800 
  9 C       -1.5710    -2.9760     0.6520 C.3   1 <1>   0.1200 
 10 N       -0.7050     2.9460     2.7930 N.2   1 <1>  -0.3380 
 11 C       -0.3960     3.6560     1.7640 C.2   1 <1>   0.0070 
 12 C       -0.3220     3.5220    -0.7340 C.3   1 <1>   0.0960 
 13 C       -3.7060    -2.6500     1.4640 C.3   1 <1>   0.1200 
 14 C       -4.2170    -2.7530    -1.0310 C.3   1 <1>  -0.0160 
 15 O       -2.5360    -3.4060     1.5690 O.3   1 <1>  -0.5600 
 16 C        0.0950     5.0920     1.8070 C.3   1 <1>   0.0200 
 17 C        0.4570     4.8490    -0.6870 C.3   1 <1>  -0.1600 
 18 C       -5.7190    -2.9350    -0.8770 C.ar  1 <1>  -0.1440 
 19 C       -0.0530     5.7710     0.4350 C.3   1 <1>  -0.1600 
 20 C       -6.6060    -1.9150    -1.1550 C.ar  1 <1>  -0.1500 
 21 C       -6.2740    -4.1260    -0.4530 C.ar  1 <1>  -0.1500 
 22 C       -7.9660    -2.1270    -0.9950 C.ar  1 <1>   0.1600 
 23 C       -7.6490    -4.2340    -0.3260 C.ar  1 <1>   0.1600 
 24 N       -8.5080    -3.2620    -0.5850 N.ar  1 <1>  -0.6200 
 25 H       -1.7460    -0.5730     1.7270 H     1 <1>   0.3700 
 26 H       -1.8180    -1.6640    -1.0630 H     1 <1>   0.0800 
 27 H       -4.1430    -0.9740     0.1680 H     1 <1>   0.0800 
 28 H       -0.6460    -2.7840     1.1660 H     1 <1>   0.0800 
 29 H       -1.4310    -3.7680    -0.0620 H     1 <1>   0.0800 
 30 H        0.2210     2.8000    -1.3190 H     1 <1>   0.0800 
 31 H       -1.2830     3.6780    -1.1920 H     1 <1>   0.0800 
 32 H       -4.5580    -3.3020     1.5500 H     1 <1>   0.0800 
 33 H       -3.7120    -1.9470     2.2790 H     1 <1>   0.0800 
 34 H       -3.7410    -3.7170    -1.0740 H     1 <1>   0.0800 
 35 H       -4.0250    -2.2550    -1.9650 H     1 <1>   0.0800 
 36 H       -0.4540     5.6400     2.5530 H     1 <1>   0.0800 
 37 H        1.1310     5.0850     2.0960 H     1 <1>   0.0800 
 38 H        1.5010     4.6380    -0.5290 H     1 <1>   0.0800 
 39 H        0.3680     5.3450    -1.6380 H     1 <1>   0.0800 
 40 H       -1.0920     5.9980     0.2640 H     1 <1>   0.0800 
 41 H        0.4940     6.6980     0.4300 H     1 <1>   0.0800 
 42 H       -6.2540    -0.9570    -1.4930 H     1 <1>   0.1500 
 43 H       -5.6510    -4.9700    -0.2180 H     1 <1>   0.1500 
 44 H       -8.6430    -1.3190    -1.2160 H     1 <1>   0.1500 
 45 H       -8.0630    -5.1700     0.0070 H     1 <1>   0.1500 
@<TRIPOS>BOND
  1   1   2  2   
  2   2   3  am  
  3   2   4  1   
  4   3   5  1   
  5   3  25  1   
  6   4   6  2   
  7   4   7  1   
  8   5   8  1   
  9   5   9  1   
 10   5  26  1   
 11   6  10  1   
 12   7  11  1   
 13   7  12  1   
 14   8  13  1   
 15   8  14  1   
 16   8  27  1   
 17   9  15  1   
 18   9  28  1   
 19   9  29  1   
 20  10  11  2   
 21  11  16  1   
 22  12  17  1   
 23  12  30  1   
 24  12  31  1   
 25  13  15  1   
 26  13  32  1   
 27  13  33  1   
 28  14  18  1   
 29  14  34  1   
 30  14  35  1   
 31  16  19  1   
 32  16  36  1   
 33  16  37  1   
 34  17  19  1   
 35  17  38  1   
 36  17  39  1   
 37  18  20  ar  
 38  18  21  ar  
 39  19  40  1   
 40  19  41  1   
 41  20  22  ar  
 42  20  42  1   
 43  21  23  ar  
 44  21  43  1   
 45  22  24  ar  
 46  22  44  1   
 47  23  24  ar  
 48  23  45  1   
@<TRIPOS>SUBSTRUCTURE
  1 ****   3 GROUP 4 **** **** 0

# MOE 2024.06 (io_trps.svl 2023.06)
