@<TRIPOS>MOLECULE
NONAME
42 44 1 0 0 
SMALL
USER_CHARGES


@<TRIPOS>ATOM
  1 F       -1.7890    -0.3180    -1.3850 F     1 <1>  -0.1900 
  2 C       -2.5310     0.3980    -0.5840 C.ar  1 <1>   0.1900 
  3 C       -2.0140     1.5560    -0.0300 C.ar  1 <1>   0.1600 
  4 C       -3.8140    -0.0140    -0.3130 C.ar  1 <1>  -0.1500 
  5 N       -2.7010     2.3390     0.7940 N.ar  1 <1>  -0.6200 
  6 C       -4.5580     0.7910     0.5400 C.ar  1 <1>   0.0860 
  7 C       -3.9370     1.9300     1.0580 C.ar  1 <1>   0.1600 
  8 C       -5.9220     0.4640     0.8890 C.2   1 <1>   0.5440 
  9 O       -6.1650    -0.6490     1.3150 O.2   1 <1>  -0.5700 
 10 N       -6.9470     1.3740     0.7410 N.am  1 <1>  -0.6600 
 11 C       -8.3330     1.0560     1.1960 C.3   1 <1>   0.1400 
 12 C       -6.8390     2.5920    -0.1230 C.3   1 <1>   0.1400 
 13 C       -9.2460     0.7500    -0.0130 C.3   1 <1>   0.0000 
 14 C       -8.1860     2.9660    -0.7650 C.3   1 <1>  -0.1600 
 15 C      -10.7200     0.7730     0.4340 C.3   1 <1>   0.2000 
 16 C       -8.9610     1.7150    -1.2070 C.3   1 <1>  -0.1600 
 17 C       -9.1060    -0.7060    -0.4850 C.3   1 <1>  -0.1600 
 18 O      -11.2240     2.0750     0.4850 O.3   1 <1>  -0.5600 
 19 C      -11.4740    -0.0920    -0.5830 C.3   1 <1>  -0.1600 
 20 C      -10.4240    -1.0290    -1.1970 C.3   1 <1>  -0.1600 
 21 C      -12.4460     2.2080     1.1390 C.3   1 <1>   0.0400 
 22 H       -1.0050     1.8420    -0.2720 H     1 <1>   0.1500 
 23 H       -4.2230    -0.9150    -0.7340 H     1 <1>   0.1500 
 24 H       -4.5100     2.5400     1.7370 H     1 <1>   0.1500 
 25 H       -8.3310     0.2300     1.8850 H     1 <1>   0.0800 
 26 H       -8.7190     1.9100     1.7260 H     1 <1>   0.0800 
 27 H       -6.4810     3.4200     0.4640 H     1 <1>   0.0800 
 28 H       -6.1290     2.4020    -0.9100 H     1 <1>   0.0800 
 29 H       -8.7800     3.5220    -0.0600 H     1 <1>   0.0800 
 30 H       -8.0120     3.6080    -1.6110 H     1 <1>   0.0800 
 31 H      -10.7980     0.3300     1.4130 H     1 <1>   0.0800 
 32 H       -8.3660     1.2150    -1.9500 H     1 <1>   0.0800 
 33 H       -9.8760     2.0110    -1.6890 H     1 <1>   0.0800 
 34 H       -8.2470    -0.8630    -1.1140 H     1 <1>   0.0800 
 35 H       -9.0070    -1.3540     0.3700 H     1 <1>   0.0800 
 36 H      -12.2500    -0.6550    -0.0960 H     1 <1>   0.0800 
 37 H      -11.9020     0.5240    -1.3540 H     1 <1>   0.0800 
 38 H      -10.6890    -2.0650    -1.0690 H     1 <1>   0.0800 
 39 H      -10.3280    -0.8220    -2.2490 H     1 <1>   0.0800 
 40 H      -12.7140     3.2500     1.1360 H     1 <1>   0.0800 
 41 H      -12.3470     1.8630     2.1540 H     1 <1>   0.0800 
 42 H      -13.1970     1.6420     0.6170 H     1 <1>   0.0800 
@<TRIPOS>BOND
  1   1   2  1   
  2   2   3  ar  
  3   2   4  ar  
  4   3   5  ar  
  5   3  22  1   
  6   4   6  ar  
  7   4  23  1   
  8   5   7  ar  
  9   6   7  ar  
 10   6   8  1   
 11   7  24  1   
 12   8   9  2   
 13   8  10  am  
 14  10  11  1   
 15  10  12  1   
 16  11  13  1   
 17  11  25  1   
 18  11  26  1   
 19  12  14  1   
 20  12  27  1   
 21  12  28  1   
 22  13  15  1   
 23  13  16  1   
 24  13  17  1   
 25  14  16  1   
 26  14  29  1   
 27  14  30  1   
 28  15  18  1   
 29  15  19  1   
 30  15  31  1   
 31  16  32  1   
 32  16  33  1   
 33  17  20  1   
 34  17  34  1   
 35  17  35  1   
 36  18  21  1   
 37  19  20  1   
 38  19  36  1   
 39  19  37  1   
 40  20  38  1   
 41  20  39  1   
 42  21  40  1   
 43  21  41  1   
 44  21  42  1   
@<TRIPOS>SUBSTRUCTURE
  1 ****  10 GROUP 4 **** **** 0

# MOE 2024.06 (io_trps.svl 2023.06)
