@<TRIPOS>MOLECULE
NONAME
55 58 1 0 0 
SMALL
USER_CHARGES


@<TRIPOS>ATOM
  1 O       -0.8170    -0.2090    -0.8810 O.3   1 <1>  -0.3630 
  2 C       -1.9780    -0.8260    -0.5480 C.ar  1 <1>   0.0830 
  3 C       -0.7100     1.1720    -1.1540 C.3   1 <1>   0.0400 
  4 C       -2.0060    -2.2340    -0.4500 C.ar  1 <1>   0.0830 
  5 C       -3.1430    -0.1200    -0.3200 C.ar  1 <1>  -0.1500 
  6 O       -0.9260    -3.0340    -0.6500 O.3   1 <1>  -0.3630 
  7 C       -3.1810    -2.8790    -0.1540 C.ar  1 <1>  -0.1500 
  8 C       -4.3360    -0.7770    -0.0090 C.ar  1 <1>   0.3610 
  9 C        0.3220    -2.7020    -0.0780 C.3   1 <1>   0.0400 
 10 C       -4.3750    -2.1800     0.0760 C.ar  1 <1>   0.0000 
 11 N       -5.5010    -0.0660     0.2210 N.ar  1 <1>  -0.1790 
 12 C       -5.6230    -2.7950     0.3870 C.ar  1 <1>  -0.1430 
 13 C       -6.6850    -0.6030     0.5240 C.ar  1 <1>   0.4610 
 14 C       -6.7240    -2.0200     0.5980 C.ar  1 <1>  -0.1500 
 15 C       -5.7250    -4.3140     0.4760 C.3   1 <1>  -0.0970 
 16 N       -7.7530     0.2100     0.7310 N.pl3 1 <1>  -0.8380 
 17 C       -9.1030    -0.2680     1.2040 C.3   1 <1>   0.2090 
 18 C       -7.8150     1.6820     0.4550 C.3   1 <1>   0.2090 
 19 C      -10.1820    -0.0930     0.1070 C.3   1 <1>   0.0000 
 20 C       -8.8200     1.9340    -0.6720 C.3   1 <1>  -0.1600 
 21 C      -11.5290    -0.6040     0.6620 C.3   1 <1>   0.2000 
 22 C      -10.2160     1.3960    -0.3190 C.3   1 <1>  -0.1600 
 23 C       -9.9230    -1.0390    -1.0840 C.3   1 <1>  -0.1600 
 24 O      -12.5780    -0.1290    -0.1020 O.3   1 <1>  -0.6800 
 25 C      -11.4890    -2.1200     0.4790 C.3   1 <1>  -0.1600 
 26 C      -10.5710    -2.3830    -0.7240 C.3   1 <1>  -0.1600 
 27 H        0.3040     1.3740    -1.4480 H     1 <1>   0.0800 
 28 H       -0.9440     1.7270    -0.2630 H     1 <1>   0.0800 
 29 H       -1.3770     1.4240    -1.9600 H     1 <1>   0.0800 
 30 H       -3.1460     0.9500    -0.3810 H     1 <1>   0.1500 
 31 H       -3.1650    -3.9530    -0.1020 H     1 <1>   0.1500 
 32 H        0.8930    -3.6070     0.0260 H     1 <1>   0.0800 
 33 H        0.1640    -2.2520     0.8860 H     1 <1>   0.0800 
 34 H        0.8370    -2.0250    -0.7350 H     1 <1>   0.0800 
 35 H       -5.4650     0.9430     0.1780 H     1 <1>   0.4570 
 36 H       -7.6570    -2.4990     0.8150 H     1 <1>   0.1500 
 37 H       -6.7260    -4.6260     0.7120 H     1 <1>   0.0800 
 38 H       -5.0700    -4.6870     1.2440 H     1 <1>   0.0800 
 39 H       -5.4490    -4.7610    -0.4640 H     1 <1>   0.0800 
 40 H       -9.0730    -1.2860     1.5390 H     1 <1>   0.0800 
 41 H       -9.3880     0.3190     2.0610 H     1 <1>   0.0800 
 42 H       -8.1360     2.2000     1.3450 H     1 <1>   0.0800 
 43 H       -6.8610     2.0850     0.1690 H     1 <1>   0.0800 
 44 H       -8.8880     2.9920    -0.8570 H     1 <1>   0.0800 
 45 H       -8.4670     1.4690    -1.5760 H     1 <1>   0.0800 
 46 H      -11.7070    -0.3100     1.6830 H     1 <1>   0.0800 
 47 H      -10.8720     1.5350    -1.1610 H     1 <1>   0.0800 
 48 H      -10.6190     1.9790     0.4930 H     1 <1>   0.0800 
 49 H      -10.4130    -0.6520    -1.9610 H     1 <1>   0.0800 
 50 H       -8.8790    -1.1490    -1.3150 H     1 <1>   0.0800 
 51 H      -12.4950    -0.4700    -1.0130 H     1 <1>   0.4000 
 52 H      -11.0560    -2.5680     1.3560 H     1 <1>   0.0800 
 53 H      -12.4730    -2.5370     0.3450 H     1 <1>   0.0800 
 54 H       -9.8230    -3.1130    -0.4660 H     1 <1>   0.0800 
 55 H      -11.1390    -2.7580    -1.5600 H     1 <1>   0.0800 
@<TRIPOS>BOND
  1   1   2  1   
  2   1   3  1   
  3   2   4  ar  
  4   2   5  ar  
  5   3  27  1   
  6   3  28  1   
  7   3  29  1   
  8   4   6  1   
  9   4   7  ar  
 10   5   8  ar  
 11   5  30  1   
 12   6   9  1   
 13   7  10  ar  
 14   7  31  1   
 15   8  10  ar  
 16   8  11  ar  
 17   9  32  1   
 18   9  33  1   
 19   9  34  1   
 20  10  12  ar  
 21  11  13  ar  
 22  11  35  1   
 23  12  14  ar  
 24  12  15  1   
 25  13  14  ar  
 26  13  16  1   
 27  14  36  1   
 28  15  37  1   
 29  15  38  1   
 30  15  39  1   
 31  16  17  1   
 32  16  18  1   
 33  17  19  1   
 34  17  40  1   
 35  17  41  1   
 36  18  20  1   
 37  18  42  1   
 38  18  43  1   
 39  19  21  1   
 40  19  22  1   
 41  19  23  1   
 42  20  22  1   
 43  20  44  1   
 44  20  45  1   
 45  21  24  1   
 46  21  25  1   
 47  21  46  1   
 48  22  47  1   
 49  22  48  1   
 50  23  26  1   
 51  23  49  1   
 52  23  50  1   
 53  24  51  1   
 54  25  26  1   
 55  25  52  1   
 56  25  53  1   
 57  26  54  1   
 58  26  55  1   
@<TRIPOS>SUBSTRUCTURE
  1 ****  13 GROUP 4 **** **** 0

# MOE 2024.06 (io_trps.svl 2023.06)
