@<TRIPOS>MOLECULE
NONAME
57 60 1 0 0 
SMALL
USER_CHARGES


@<TRIPOS>ATOM
  1 O       -2.1660     0.2860    -2.6560 O.2   1 <1>  -0.5700 
  2 C       -1.9900     0.6350    -1.5050 C.2   1 <1>   0.5440 
  3 N       -1.8990    -0.3410    -0.5530 N.am  1 <1>  -0.7300 
  4 C       -1.8920     2.0400    -1.1560 C.ar  1 <1>   0.0860 
  5 C       -1.9870    -1.7980    -0.8060 C.3   1 <1>   0.2200 
  6 C       -1.6450     3.0060    -2.1350 C.ar  1 <1>  -0.1500 
  7 C       -2.0430     2.5000     0.1560 C.ar  1 <1>  -0.1500 
  8 C       -3.3490    -2.3480    -0.4030 C.3   1 <1>  -0.0800 
  9 C       -1.0910    -2.5220     0.1890 C.3   1 <1>   0.1200 
 10 C       -1.5490     4.3480    -1.8260 C.ar  1 <1>  -0.1500 
 11 C       -1.9480     3.8420     0.4670 C.ar  1 <1>  -0.1500 
 12 C       -3.1920    -2.5850     1.1040 C.3   1 <1>   0.1200 
 13 C       -4.5640    -1.4830    -0.7870 C.3   1 <1>  -0.0160 
 14 O       -1.8200    -2.5500     1.3790 O.3   1 <1>  -0.5600 
 15 C       -1.7000     4.7910    -0.5170 C.ar  1 <1>   0.1000 
 16 C       -5.8640    -2.1690    -0.3960 C.ar  1 <1>  -0.1430 
 17 N       -1.6140     6.1350    -0.1870 N.pl3 1 <1>  -0.8380 
 18 C       -6.4150    -3.1720    -1.1680 C.ar  1 <1>  -0.1500 
 19 C       -6.5580    -1.8280     0.7480 C.ar  1 <1>  -0.1500 
 20 C       -2.2380     7.1720    -1.0580 C.3   1 <1>   0.2090 
 21 C       -0.5050     6.6040     0.6930 C.3   1 <1>   0.2090 
 22 C       -7.5970    -3.7720    -0.7670 C.ar  1 <1>   0.1600 
 23 C       -7.7330    -2.4930     1.0580 C.ar  1 <1>   0.1600 
 24 C       -2.6480     8.4040    -0.2240 C.3   1 <1>   0.3430 
 25 C       -0.9380     7.8490     1.4970 C.3   1 <1>   0.3430 
 26 N       -8.2680    -3.4590     0.3300 N.ar  1 <1>  -0.6200 
 27 N       -1.5150     8.9400     0.6230 N.4   1 <1>  -0.9590 
 28 C       -1.9610    10.1060     1.4420 C.3   1 <1>   0.2630 
 29 H       -1.7240    -0.1060     0.4250 H     1 <1>   0.3700 
 30 H       -1.7310    -2.0260    -1.8280 H     1 <1>   0.0800 
 31 H       -1.5260     2.6870    -3.1570 H     1 <1>   0.1500 
 32 H       -2.2470     1.8020     0.9470 H     1 <1>   0.1500 
 33 H       -3.4630    -3.3110    -0.8680 H     1 <1>   0.0800 
 34 H       -0.1520    -2.0220     0.3470 H     1 <1>   0.0800 
 35 H       -0.9200    -3.5390    -0.1190 H     1 <1>   0.0800 
 36 H       -1.3490     5.0540    -2.6100 H     1 <1>   0.1500 
 37 H       -2.0780     4.1660     1.4830 H     1 <1>   0.1500 
 38 H       -3.5860    -3.5420     1.4000 H     1 <1>   0.0800 
 39 H       -3.6580    -1.8050     1.6800 H     1 <1>   0.0800 
 40 H       -4.5570    -1.3100    -1.8500 H     1 <1>   0.0800 
 41 H       -4.5120    -0.5230    -0.3050 H     1 <1>   0.0800 
 42 H       -5.9380    -3.4890    -2.0760 H     1 <1>   0.1500 
 43 H       -6.1980    -1.0530     1.3990 H     1 <1>   0.1500 
 44 H       -1.5430     7.4640    -1.8260 H     1 <1>   0.0800 
 45 H       -3.1110     6.7590    -1.5360 H     1 <1>   0.0800 
 46 H       -0.2200     5.8190     1.3720 H     1 <1>   0.0800 
 47 H        0.3540     6.8400     0.0880 H     1 <1>   0.0800 
 48 H       -8.0130    -4.5530    -1.3820 H     1 <1>   0.1500 
 49 H       -8.2610    -2.2140     1.9540 H     1 <1>   0.1500 
 50 H       -3.4660     8.1130     0.4150 H     1 <1>   0.0800 
 51 H       -3.0070     9.1730    -0.8880 H     1 <1>   0.0800 
 52 H       -0.0900     8.2260     2.0430 H     1 <1>   0.0800 
 53 H       -1.6790     7.5370     2.2140 H     1 <1>   0.0800 
 54 H       -0.7690     9.2470    -0.0190 H     1 <1>   0.4500 
 55 H       -2.7430     9.8090     2.1230 H     1 <1>   0.0800 
 56 H       -2.3390    10.8900     0.8050 H     1 <1>   0.0800 
 57 H       -1.1370    10.5000     2.0150 H     1 <1>   0.0800 
@<TRIPOS>BOND
  1   1   2  2   
  2   2   3  am  
  3   2   4  1   
  4   3   5  1   
  5   3  29  1   
  6   4   6  ar  
  7   4   7  ar  
  8   5   8  1   
  9   5   9  1   
 10   5  30  1   
 11   6  10  ar  
 12   6  31  1   
 13   7  11  ar  
 14   7  32  1   
 15   8  12  1   
 16   8  13  1   
 17   8  33  1   
 18   9  14  1   
 19   9  34  1   
 20   9  35  1   
 21  10  15  ar  
 22  10  36  1   
 23  11  15  ar  
 24  11  37  1   
 25  12  14  1   
 26  12  38  1   
 27  12  39  1   
 28  13  16  1   
 29  13  40  1   
 30  13  41  1   
 31  15  17  1   
 32  16  18  ar  
 33  16  19  ar  
 34  17  20  1   
 35  17  21  1   
 36  18  22  ar  
 37  18  42  1   
 38  19  23  ar  
 39  19  43  1   
 40  20  24  1   
 41  20  44  1   
 42  20  45  1   
 43  21  25  1   
 44  21  46  1   
 45  21  47  1   
 46  22  26  ar  
 47  22  48  1   
 48  23  26  ar  
 49  23  49  1   
 50  24  27  1   
 51  24  50  1   
 52  24  51  1   
 53  25  27  1   
 54  25  52  1   
 55  25  53  1   
 56  27  28  1   
 57  27  54  1   
 58  28  55  1   
 59  28  56  1   
 60  28  57  1   
@<TRIPOS>SUBSTRUCTURE
  1 ****   7 GROUP 4 **** **** 0

# MOE 2024.06 (io_trps.svl 2023.06)
