@<TRIPOS>MOLECULE
NONAME
47 49 1 0 0 
SMALL
USER_CHARGES


@<TRIPOS>ATOM
  1 O       -0.5220     0.2270    -0.2200 O.2   1 <1>  -0.5700 
  2 C       -1.6080     0.7640    -0.1030 C.2   1 <1>   0.7150 
  3 N       -2.7260    -0.0330    -0.0190 N.am  1 <1>  -0.6600 
  4 C       -1.7080     2.1960    -0.0720 C.2   1 <1>  -0.2370 
  5 C       -4.1100     0.4250    -0.2920 C.3   1 <1>   0.1400 
  6 C       -2.6460    -1.5140    -0.0780 C.3   1 <1>   0.1400 
  7 N       -0.9080     3.0290    -0.7860 N.pl3 1 <1>   0.3140 
  8 C       -2.5460     3.0190     0.6190 C.2   1 <1>  -0.1500 
  9 C       -4.8710    -0.8370    -0.6950 C.3   1 <1>   0.2000 
 10 C       -4.0980    -1.9970    -0.0720 C.3   1 <1>  -0.0800 
 11 N       -1.2180     4.3200    -0.5960 N.2   1 <1>  -0.7070 
 12 C        0.1890     2.6600    -1.6960 C.3   1 <1>   0.0160 
 13 C       -2.2000     4.3080     0.2550 C.2   1 <1>   0.1080 
 14 O       -6.1730    -0.8250    -0.2200 O.3   1 <1>  -0.6800 
 15 C       -4.3260    -3.3250    -0.8130 C.3   1 <1>  -0.0170 
 16 C       -2.8810     5.5680     0.7830 C.3   1 <1>   0.1010 
 17 C       -3.6010    -4.4810    -0.1430 C.ar  1 <1>   0.1670 
 18 C       -3.5440     6.3460    -0.3600 C.3   1 <1>  -0.2400 
 19 C       -1.8760     6.4580     1.5240 C.3   1 <1>  -0.2400 
 20 N       -2.3140    -4.6140    -0.4220 N.ar  1 <1>  -0.6200 
 21 C       -4.2930    -5.3330     0.7160 C.ar  1 <1>   0.1600 
 22 C       -1.7720    -5.6420     0.2090 C.ar  1 <1>   0.1600 
 23 N       -3.7520    -6.3610     1.3500 N.ar  1 <1>  -0.6200 
 24 C       -2.4670    -6.4860     1.0660 C.ar  1 <1>   0.1600 
 25 H       -4.5250     0.8480     0.6060 H     1 <1>   0.0800 
 26 H       -4.1220     1.1510    -1.0870 H     1 <1>   0.0800 
 27 H       -2.1470    -1.8040    -0.9870 H     1 <1>   0.0800 
 28 H       -2.0950    -1.9010     0.7630 H     1 <1>   0.0800 
 29 H       -3.3170     2.7490     1.3150 H     1 <1>   0.1500 
 30 H       -4.9000    -0.9170    -1.7690 H     1 <1>   0.0800 
 31 H       -4.3900    -2.1080     0.9580 H     1 <1>   0.0800 
 32 H       -0.1660     1.9380    -2.4060 H     1 <1>   0.0800 
 33 H        0.9930     2.2400    -1.1220 H     1 <1>   0.0800 
 34 H        0.5330     3.5370    -2.2110 H     1 <1>   0.0800 
 35 H       -6.1820    -0.7580     0.7540 H     1 <1>   0.4000 
 36 H       -3.9850    -3.2420    -1.8310 H     1 <1>   0.0800 
 37 H       -5.3810    -3.5350    -0.8440 H     1 <1>   0.0800 
 38 H       -3.6460     5.2720     1.4790 H     1 <1>   0.0800 
 39 H       -2.8010     6.6600    -1.0720 H     1 <1>   0.0800 
 40 H       -4.0540     7.2130     0.0180 H     1 <1>   0.0800 
 41 H       -4.2540     5.7170    -0.8670 H     1 <1>   0.0800 
 42 H       -1.1000     6.7780     0.8510 H     1 <1>   0.0800 
 43 H       -1.4220     5.9070     2.3270 H     1 <1>   0.0800 
 44 H       -2.3650     7.3250     1.9290 H     1 <1>   0.0800 
 45 H       -5.3400    -5.1570     0.8890 H     1 <1>   0.1500 
 46 H       -0.7250    -5.8260     0.0400 H     1 <1>   0.1500 
 47 H       -1.9380    -7.2970     1.5340 H     1 <1>   0.1500 
@<TRIPOS>BOND
  1   1   2  2   
  2   2   3  am  
  3   2   4  1   
  4   3   5  1   
  5   3   6  1   
  6   4   7  1   
  7   4   8  2   
  8   5   9  1   
  9   5  25  1   
 10   5  26  1   
 11   6  10  1   
 12   6  27  1   
 13   6  28  1   
 14   7  11  1   
 15   7  12  1   
 16   8  13  1   
 17   8  29  1   
 18   9  10  1   
 19   9  14  1   
 20   9  30  1   
 21  10  15  1   
 22  10  31  1   
 23  11  13  2   
 24  12  32  1   
 25  12  33  1   
 26  12  34  1   
 27  13  16  1   
 28  14  35  1   
 29  15  17  1   
 30  15  36  1   
 31  15  37  1   
 32  16  18  1   
 33  16  19  1   
 34  16  38  1   
 35  17  20  ar  
 36  17  21  ar  
 37  18  39  1   
 38  18  40  1   
 39  18  41  1   
 40  19  42  1   
 41  19  43  1   
 42  19  44  1   
 43  20  22  ar  
 44  21  23  ar  
 45  21  45  1   
 46  22  24  ar  
 47  22  46  1   
 48  23  24  ar  
 49  24  47  1   
@<TRIPOS>SUBSTRUCTURE
  1 ****   3 GROUP 4 **** **** 0

# MOE 2024.06 (io_trps.svl 2023.06)
