@<TRIPOS>MOLECULE
NONAME
56 59 1 0 0 
SMALL
USER_CHARGES


@<TRIPOS>ATOM
  1 O        0.3760    -0.5260    -2.2020 O.2   1 <1>  -0.5700 
  2 C       -0.2600     0.4470    -1.8630 C.2   1 <1>   0.5690 
  3 N       -1.4390     0.3000    -1.1760 N.am  1 <1>  -0.6600 
  4 C        0.2800     1.8140    -2.2710 C.3   1 <1>   0.0820 
  5 C       -2.2580     1.3600    -0.5240 C.3   1 <1>   0.1400 
  6 C       -1.9980    -1.0370    -0.8500 C.3   1 <1>   0.1400 
  7 C        0.5780     2.7500    -1.1010 C.2   1 <1>  -0.1810 
  8 C       -2.9930     0.6280     0.5970 C.3   1 <1>   0.2000 
  9 C       -3.2370    -0.7630     0.0080 C.3   1 <1>  -0.0800 
 10 C       -0.0150     4.0200    -0.8340 C.ar  1 <1>   0.0000 
 11 C        1.4620     2.4820    -0.1060 C.2   1 <1>  -0.3320 
 12 O       -2.1270     0.5270     1.6760 O.3   1 <1>  -0.6800 
 13 C       -3.5420    -1.8710     1.0310 C.3   1 <1>   0.0210 
 14 C       -0.9620     4.8620    -1.4560 C.ar  1 <1>  -0.1430 
 15 C        0.5470     4.4420     0.3730 C.ar  1 <1>  -0.1520 
 16 N        1.4480     3.5030     0.7920 N.pl3 1 <1>   0.0330 
 17 C        2.3710     1.2810     0.0990 C.3   1 <1>  -0.0600 
 18 C       -3.7890    -3.1940     0.3320 C.2   1 <1>   0.1080 
 19 C       -1.3110     6.0470    -0.8450 C.ar  1 <1>  -0.1500 
 20 C       -1.6100     4.5220    -2.7880 C.3   1 <1>  -0.0970 
 21 C        0.1880     5.6440     0.9900 C.ar  1 <1>  -0.1430 
 22 N       -4.8090    -3.4020    -0.4410 N.2   1 <1>  -0.7070 
 23 C       -2.9650    -4.3100     0.4270 C.2   1 <1>  -0.1500 
 24 C       -0.7450     6.4370     0.3700 C.ar  1 <1>  -0.1500 
 25 C        0.8190     6.0520     2.3100 C.3   1 <1>  -0.0970 
 26 N       -4.6620    -4.6720    -0.8630 N.pl3 1 <1>   0.3000 
 27 C       -3.5500    -5.2420    -0.3530 C.2   1 <1>  -0.3320 
 28 C       -3.1100    -6.6650    -0.6450 C.3   1 <1>  -0.0600 
 29 H        1.1940     1.6660    -2.8150 H     1 <1>   0.0800 
 30 H       -0.4160     2.2400    -2.9560 H     1 <1>   0.0800 
 31 H       -1.6700     2.1630    -0.1230 H     1 <1>   0.0800 
 32 H       -2.9650     1.7460    -1.2360 H     1 <1>   0.0800 
 33 H       -2.2550    -1.5740    -1.7480 H     1 <1>   0.0800 
 34 H       -1.2640    -1.6010    -0.3000 H     1 <1>   0.0800 
 35 H       -3.8920     1.1250     0.9180 H     1 <1>   0.0800 
 36 H       -4.0770    -0.6910    -0.6610 H     1 <1>   0.0800 
 37 H       -1.2300     0.3440     1.3270 H     1 <1>   0.4000 
 38 H       -4.4200    -1.6090     1.5930 H     1 <1>   0.0800 
 39 H       -2.7270    -1.9840     1.7220 H     1 <1>   0.0800 
 40 H        2.0090     3.5750     1.6440 H     1 <1>   0.2700 
 41 H        2.3380     0.6190    -0.7460 H     1 <1>   0.0800 
 42 H        2.0660     0.7320     0.9720 H     1 <1>   0.0800 
 43 H        3.3880     1.6060     0.2280 H     1 <1>   0.0800 
 44 H       -2.0320     6.7050    -1.2970 H     1 <1>   0.1500 
 45 H       -2.2630     5.3110    -3.1120 H     1 <1>   0.0800 
 46 H       -2.1920     3.6240    -2.6990 H     1 <1>   0.0800 
 47 H       -0.8520     4.3930    -3.5390 H     1 <1>   0.0800 
 48 H       -2.0600    -4.3840     1.0040 H     1 <1>   0.1500 
 49 H       -1.0530     7.3700     0.8080 H     1 <1>   0.1500 
 50 H        0.4290     6.9970     2.6430 H     1 <1>   0.0800 
 51 H        1.8840     6.1450     2.1930 H     1 <1>   0.0800 
 52 H        0.6080     5.3120     3.0610 H     1 <1>   0.0800 
 53 H       -5.3350    -5.1180    -1.4980 H     1 <1>   0.2700 
 54 H       -2.1960    -6.8840    -0.1220 H     1 <1>   0.0800 
 55 H       -2.9390    -6.7910    -1.7000 H     1 <1>   0.0800 
 56 H       -3.8640    -7.3610    -0.3250 H     1 <1>   0.0800 
@<TRIPOS>BOND
  1   1   2  2   
  2   2   3  am  
  3   2   4  1   
  4   3   5  1   
  5   3   6  1   
  6   4   7  1   
  7   4  29  1   
  8   4  30  1   
  9   5   8  1   
 10   5  31  1   
 11   5  32  1   
 12   6   9  1   
 13   6  33  1   
 14   6  34  1   
 15   7  10  1   
 16   7  11  2   
 17   8   9  1   
 18   8  12  1   
 19   8  35  1   
 20   9  13  1   
 21   9  36  1   
 22  10  14  ar  
 23  10  15  ar  
 24  11  16  1   
 25  11  17  1   
 26  12  37  1   
 27  13  18  1   
 28  13  38  1   
 29  13  39  1   
 30  14  19  ar  
 31  14  20  1   
 32  15  16  1   
 33  15  21  ar  
 34  16  40  1   
 35  17  41  1   
 36  17  42  1   
 37  17  43  1   
 38  18  22  2   
 39  18  23  1   
 40  19  24  ar  
 41  19  44  1   
 42  20  45  1   
 43  20  46  1   
 44  20  47  1   
 45  21  24  ar  
 46  21  25  1   
 47  22  26  1   
 48  23  27  2   
 49  23  48  1   
 50  24  49  1   
 51  25  50  1   
 52  25  51  1   
 53  25  52  1   
 54  26  27  1   
 55  26  53  1   
 56  27  28  1   
 57  28  54  1   
 58  28  55  1   
 59  28  56  1   
@<TRIPOS>SUBSTRUCTURE
  1 ****   3 GROUP 4 **** **** 0

# MOE 2024.06 (io_trps.svl 2023.06)
