@<TRIPOS>MOLECULE
NONAME
52 54 1 0 0 
SMALL
USER_CHARGES


@<TRIPOS>ATOM
  1 O       -1.2230     0.8890     1.1220 O.3   1 <1>  -0.5600 
  2 C       -0.7460     1.2710    -0.1360 C.3   1 <1>   0.1200 
  3 C       -0.2900     0.9560     2.1560 C.3   1 <1>   0.1200 
  4 C       -0.3200     2.7480    -0.1130 C.3   1 <1>   0.2000 
  5 C        0.1380     2.4130     2.3500 C.3   1 <1>  -0.1600 
  6 O        0.2810     3.0790    -1.3420 O.3   1 <1>  -0.5600 
  7 C        0.6800     2.9870     1.0400 C.3   1 <1>   0.2890 
  8 C       -0.6130     3.4440    -2.3470 C.3   1 <1>   0.0400 
  9 N        0.9670     4.4290     1.2550 N.pl3 1 <1>  -0.8690 
 10 C        1.8260     5.2310     0.6090 C.ar  1 <1>   0.4100 
 11 N        1.8070     6.4850     0.9960 N.ar  1 <1>  -0.6200 
 12 C        2.6790     4.7750    -0.4120 C.ar  1 <1>  -0.1500 
 13 C        2.6240     7.3390     0.3920 C.ar  1 <1>   0.7710 
 14 C        3.4970     5.6600    -1.0270 C.ar  1 <1>   0.2180 
 15 N        3.4430     6.9440    -0.5990 N.ar  1 <1>  -0.1790 
 16 N        2.6360     8.6460     0.7720 N.pl3 1 <1>  -0.8380 
 17 C        4.4490     5.2870    -2.1550 C.3   1 <1>  -0.0170 
 18 C        1.6210     9.1980     1.7310 C.3   1 <1>   0.2090 
 19 C        3.5840     9.7120     0.3210 C.3   1 <1>   0.2090 
 20 C        5.9180     5.5030    -1.7680 C.3   1 <1>  -0.2400 
 21 C        0.8010    10.2810     1.0230 C.3   1 <1>  -0.1600 
 22 C        2.8040    10.7920    -0.4320 C.3   1 <1>  -0.1600 
 23 C        1.6930    11.3890     0.4430 C.3   1 <1>  -0.1600 
 24 H        0.0830     0.6350    -0.3940 H     1 <1>   0.0800 
 25 H       -1.5450     1.1200    -0.8390 H     1 <1>   0.0800 
 26 H       -0.7620     0.5790     3.0470 H     1 <1>   0.0800 
 27 H        0.5470     0.3240     1.9090 H     1 <1>   0.0800 
 28 H       -1.1850     3.3700     0.0380 H     1 <1>   0.0800 
 29 H       -0.7150     2.9780     2.6810 H     1 <1>   0.0800 
 30 H        0.8980     2.4610     3.1090 H     1 <1>   0.0800 
 31 H        1.5930     2.4670     0.8070 H     1 <1>   0.0800 
 32 H       -0.0480     3.6700    -3.2340 H     1 <1>   0.0800 
 33 H       -1.1610     4.3170    -2.0360 H     1 <1>   0.0800 
 34 H       -1.2860     2.6280    -2.5480 H     1 <1>   0.0800 
 35 H        0.3630     4.8840     1.9440 H     1 <1>   0.4000 
 36 H        2.6560     3.7400    -0.6910 H     1 <1>   0.1500 
 37 H        4.0050     7.6700    -1.0170 H     1 <1>   0.4570 
 38 H        4.3080     4.2500    -2.4100 H     1 <1>   0.0800 
 39 H        4.2150     5.8650    -3.0330 H     1 <1>   0.0800 
 40 H        0.9520     8.4390     2.1000 H     1 <1>   0.0800 
 41 H        2.1280     9.6220     2.5810 H     1 <1>   0.0800 
 42 H        4.0540    10.1520     1.1870 H     1 <1>   0.0800 
 43 H        4.3660     9.3230    -0.3040 H     1 <1>   0.0800 
 44 H        6.1640     4.9270    -0.8910 H     1 <1>   0.0800 
 45 H        6.1290     6.5390    -1.5750 H     1 <1>   0.0800 
 46 H        6.5570     5.1760    -2.5710 H     1 <1>   0.0800 
 47 H        0.2290     9.8230     0.2350 H     1 <1>   0.0800 
 48 H        0.1040    10.7100     1.7210 H     1 <1>   0.0800 
 49 H        3.4770    11.5760    -0.7330 H     1 <1>   0.0800 
 50 H        2.3740    10.3690    -1.3230 H     1 <1>   0.0800 
 51 H        2.1360    11.9460     1.2520 H     1 <1>   0.0800 
 52 H        1.0950    12.0720    -0.1370 H     1 <1>   0.0800 
@<TRIPOS>BOND
  1   1   2  1   
  2   1   3  1   
  3   2   4  1   
  4   2  24  1   
  5   2  25  1   
  6   3   5  1   
  7   3  26  1   
  8   3  27  1   
  9   4   6  1   
 10   4   7  1   
 11   4  28  1   
 12   5   7  1   
 13   5  29  1   
 14   5  30  1   
 15   6   8  1   
 16   7   9  1   
 17   7  31  1   
 18   8  32  1   
 19   8  33  1   
 20   8  34  1   
 21   9  10  1   
 22   9  35  1   
 23  10  11  ar  
 24  10  12  ar  
 25  11  13  ar  
 26  12  14  ar  
 27  12  36  1   
 28  13  15  ar  
 29  13  16  1   
 30  14  15  ar  
 31  14  17  1   
 32  15  37  1   
 33  16  18  1   
 34  16  19  1   
 35  17  20  1   
 36  17  38  1   
 37  17  39  1   
 38  18  21  1   
 39  18  40  1   
 40  18  41  1   
 41  19  22  1   
 42  19  42  1   
 43  19  43  1   
 44  20  44  1   
 45  20  45  1   
 46  20  46  1   
 47  21  23  1   
 48  21  47  1   
 49  21  48  1   
 50  22  23  1   
 51  22  49  1   
 52  22  50  1   
 53  23  51  1   
 54  23  52  1   
@<TRIPOS>SUBSTRUCTURE
  1 ****  10 GROUP 4 **** **** 0

# MOE 2024.06 (io_trps.svl 2023.06)
