@<TRIPOS>MOLECULE
NONAME
42 43 1 0 0 
SMALL
USER_CHARGES


@<TRIPOS>ATOM
  1 O       -1.2430     0.3560     2.0670 O.2   1 <1>  -0.5700 
  2 C       -1.4790     0.7690     0.9580 C.2   1 <1>   0.5690 
  3 N       -1.9730    -0.0380    -0.0130 N.am  1 <1>  -0.7300 
  4 C       -1.2360     2.2440     0.6480 C.3   1 <1>  -0.0190 
  5 C       -2.3620    -1.4460     0.1770 C.3   1 <1>   0.2840 
  6 C       -2.5120     2.9470     0.1420 C.3   1 <1>  -0.1600 
  7 C       -0.0570     2.4400    -0.3350 C.3   1 <1>  -0.1600 
  8 C       -3.7880    -1.6130    -0.3250 C.ar  1 <1>  -0.1440 
  9 C       -2.3110     4.4680    -0.0210 C.3   1 <1>   0.2000 
 10 C       -0.0860     3.7910    -1.0770 C.3   1 <1>  -0.1600 
 11 C       -4.9040    -1.3460     0.4510 C.ar  1 <1>  -0.1440 
 12 C       -4.0250    -2.0430    -1.6160 C.ar  1 <1>  -0.1500 
 13 O       -3.0930     4.8940    -1.1100 O.3   1 <1>  -0.5600 
 14 C       -0.8310     4.8610    -0.2730 C.3   1 <1>   0.2000 
 15 C       -6.1640    -1.5250    -0.1070 C.ar  1 <1>   0.1600 
 16 C       -4.7790    -0.8630     1.8910 C.3   1 <1>  -0.0970 
 17 C       -5.3260    -2.1850    -2.0660 C.ar  1 <1>   0.1600 
 18 C       -4.4450     5.0890    -0.8290 C.3   1 <1>   0.0400 
 19 O       -0.7890     6.0390    -0.9890 O.3   1 <1>  -0.6800 
 20 N       -6.4020    -1.9340    -1.3420 N.ar  1 <1>  -0.6200 
 21 H       -2.2440     0.3610    -0.9120 H     1 <1>   0.3700 
 22 H       -0.9650     2.7100     1.5800 H     1 <1>   0.0800 
 23 H       -1.6930    -2.0770    -0.3820 H     1 <1>   0.0800 
 24 H       -2.2890    -1.7220     1.2150 H     1 <1>   0.0800 
 25 H       -3.3150     2.7690     0.8340 H     1 <1>   0.0800 
 26 H       -2.7840     2.5230    -0.8090 H     1 <1>   0.0800 
 27 H        0.8610     2.3580     0.2220 H     1 <1>   0.0800 
 28 H       -0.0500     1.6540    -1.0710 H     1 <1>   0.0800 
 29 H       -2.6390     4.9840     0.8660 H     1 <1>   0.0800 
 30 H       -0.5910     3.6630    -2.0190 H     1 <1>   0.0800 
 31 H        0.9210     4.1170    -1.2740 H     1 <1>   0.0800 
 32 H       -3.2110    -2.2710    -2.2800 H     1 <1>   0.1500 
 33 H       -0.3220     5.0240     0.6610 H     1 <1>   0.0800 
 34 H       -7.0300    -1.3190     0.4980 H     1 <1>   0.1500 
 35 H       -4.1860     0.0330     1.9340 H     1 <1>   0.0800 
 36 H       -4.3070    -1.6180     2.4950 H     1 <1>   0.0800 
 37 H       -5.7440    -0.6480     2.3130 H     1 <1>   0.0800 
 38 H       -5.4910    -2.5220    -3.0750 H     1 <1>   0.1500 
 39 H       -4.9290     5.4220    -1.7310 H     1 <1>   0.0800 
 40 H       -4.5450     5.8430    -0.0680 H     1 <1>   0.0800 
 41 H       -4.8850     4.1620    -0.5070 H     1 <1>   0.0800 
 42 H       -1.6000     6.0420    -1.5470 H     1 <1>   0.4000 
@<TRIPOS>BOND
  1   1   2  2   
  2   2   3  am  
  3   2   4  1   
  4   3   5  1   
  5   3  21  1   
  6   4   6  1   
  7   4   7  1   
  8   4  22  1   
  9   5   8  1   
 10   5  23  1   
 11   5  24  1   
 12   6   9  1   
 13   6  25  1   
 14   6  26  1   
 15   7  10  1   
 16   7  27  1   
 17   7  28  1   
 18   8  11  ar  
 19   8  12  ar  
 20   9  13  1   
 21   9  14  1   
 22   9  29  1   
 23  10  14  1   
 24  10  30  1   
 25  10  31  1   
 26  11  15  ar  
 27  11  16  1   
 28  12  17  ar  
 29  12  32  1   
 30  13  18  1   
 31  14  19  1   
 32  14  33  1   
 33  15  20  ar  
 34  15  34  1   
 35  16  35  1   
 36  16  36  1   
 37  16  37  1   
 38  17  20  ar  
 39  17  38  1   
 40  18  39  1   
 41  18  40  1   
 42  18  41  1   
 43  19  42  1   
@<TRIPOS>SUBSTRUCTURE
  1 ****   3 GROUP 4 **** **** 0

# MOE 2024.06 (io_trps.svl 2023.06)
