@<TRIPOS>MOLECULE
NONAME
47 50 1 0 0 
SMALL
USER_CHARGES


@<TRIPOS>ATOM
  1 O       -0.3270    -4.3110     2.2280 O.2   1 <1>  -0.5700 
  2 C        0.3510    -3.6030     1.5150 C.2   1 <1>   0.7800 
  3 O        1.6400    -3.4000     1.7360 O.3   1 <1>  -0.4300 
  4 N       -0.0680    -3.0050     0.3800 N.am  1 <1>  -0.6600 
  5 C        2.2180    -2.6540     0.6820 C.3   1 <1>   0.1200 
  6 C        1.0790    -2.4270    -0.3220 C.3   1 <1>   0.1400 
  7 C       -1.3540    -3.3180    -0.3120 C.3   1 <1>   0.2010 
  8 C       -1.3870    -4.7200    -0.9220 C.2   1 <1>   0.5690 
  9 O       -1.5890    -4.8400    -2.1070 O.2   1 <1>  -0.5700 
 10 N       -1.1990    -5.7980    -0.1180 N.am  1 <1>  -0.7300 
 11 C       -1.1370    -7.2090    -0.5650 C.3   1 <1>   0.2200 
 12 C       -2.3850    -7.9790    -0.1570 C.3   1 <1>  -0.0800 
 13 C       -0.0650    -7.9460     0.2310 C.3   1 <1>   0.1200 
 14 C       -2.0730    -8.3250     1.3000 C.3   1 <1>   0.1200 
 15 C       -3.7170    -7.2300    -0.3700 C.3   1 <1>  -0.0160 
 16 O       -0.6830    -8.4100     1.3960 O.3   1 <1>  -0.5600 
 17 C       -5.0040    -8.0220    -0.1070 C.ar  1 <1>  -0.1440 
 18 C       -6.2530    -7.3530    -0.1370 C.ar  1 <1>   0.0000 
 19 C       -5.0280    -9.3640     0.1530 C.ar  1 <1>  -0.1500 
 20 C       -7.4200    -8.1110     0.1320 C.ar  1 <1>   0.3100 
 21 C       -6.4150    -5.9770    -0.4250 C.ar  1 <1>  -0.1500 
 22 C       -6.2400   -10.0190     0.3980 C.ar  1 <1>   0.1600 
 23 N       -7.3970    -9.4400     0.3980 N.ar  1 <1>  -0.6200 
 24 C       -8.6690    -7.4680     0.1190 C.ar  1 <1>  -0.1500 
 25 C       -7.6480    -5.3820    -0.4320 C.ar  1 <1>  -0.1500 
 26 C       -8.7910    -6.1340    -0.1540 C.ar  1 <1>  -0.1500 
 27 H        2.5860    -1.7250     1.0810 H     1 <1>   0.0800 
 28 H        3.0240    -3.2220     0.2530 H     1 <1>   0.0800 
 29 H        1.2660    -2.9500    -1.2450 H     1 <1>   0.0800 
 30 H        0.9280    -1.3790    -0.5140 H     1 <1>   0.0800 
 31 H       -2.1570    -3.2420     0.3990 H     1 <1>   0.0800 
 32 H       -1.5280    -2.5940    -1.0880 H     1 <1>   0.0800 
 33 H       -0.9930    -5.6450     0.8830 H     1 <1>   0.3700 
 34 H       -0.9540    -7.2570    -1.6260 H     1 <1>   0.0800 
 35 H       -2.3990    -8.8890    -0.7300 H     1 <1>   0.0800 
 36 H        0.7660    -7.3140     0.4920 H     1 <1>   0.0800 
 37 H        0.2850    -8.8050    -0.3130 H     1 <1>   0.0800 
 38 H       -2.5030    -9.2610     1.6110 H     1 <1>   0.0800 
 39 H       -2.3950    -7.5400     1.9640 H     1 <1>   0.0800 
 40 H       -3.7440    -6.8760    -1.3870 H     1 <1>   0.0800 
 41 H       -3.7240    -6.3680     0.2740 H     1 <1>   0.0800 
 42 H       -4.1420    -9.9680     0.1810 H     1 <1>   0.1500 
 43 H       -5.5530    -5.3770    -0.6480 H     1 <1>   0.1500 
 44 H       -6.2060   -11.0760     0.6020 H     1 <1>   0.1500 
 45 H       -9.5340    -8.0690     0.3320 H     1 <1>   0.1500 
 46 H       -7.7530    -4.3330    -0.6520 H     1 <1>   0.1500 
 47 H       -9.7550    -5.6550    -0.1610 H     1 <1>   0.1500 
@<TRIPOS>BOND
  1   1   2  2   
  2   2   3  1   
  3   2   4  am  
  4   3   5  1   
  5   4   6  1   
  6   4   7  1   
  7   5   6  1   
  8   5  27  1   
  9   5  28  1   
 10   6  29  1   
 11   6  30  1   
 12   7   8  1   
 13   7  31  1   
 14   7  32  1   
 15   8   9  2   
 16   8  10  am  
 17  10  11  1   
 18  10  33  1   
 19  11  12  1   
 20  11  13  1   
 21  11  34  1   
 22  12  14  1   
 23  12  15  1   
 24  12  35  1   
 25  13  16  1   
 26  13  36  1   
 27  13  37  1   
 28  14  16  1   
 29  14  38  1   
 30  14  39  1   
 31  15  17  1   
 32  15  40  1   
 33  15  41  1   
 34  17  18  ar  
 35  17  19  ar  
 36  18  20  ar  
 37  18  21  ar  
 38  19  22  ar  
 39  19  42  1   
 40  20  23  ar  
 41  20  24  ar  
 42  21  25  ar  
 43  21  43  1   
 44  22  23  ar  
 45  22  44  1   
 46  24  26  ar  
 47  24  45  1   
 48  25  26  ar  
 49  25  46  1   
 50  26  47  1   
@<TRIPOS>SUBSTRUCTURE
  1 ****  15 GROUP 4 **** **** 0

# MOE 2024.06 (io_trps.svl 2023.06)
