@<TRIPOS>MOLECULE
NONAME
42 43 1 0 0 
SMALL
USER_CHARGES


@<TRIPOS>ATOM
  1 S        0.0940     0.3430    -0.8140 S.o2  1 <1>   1.3330 
  2 O        0.2500    -0.8540    -1.6100 O.2   1 <1>  -0.6500 
  3 O       -0.9650     1.2760    -1.1240 O.2   1 <1>  -0.6500 
  4 N       -0.1140    -0.1330     0.8040 N.am  1 <1>  -0.8490 
  5 C        1.6620     1.2130    -0.8080 C.3   1 <1>  -0.0550 
  6 C       -0.6420     0.9360     1.6600 C.3   1 <1>   0.1160 
  7 C       -0.9590    -1.3250     0.9240 C.3   1 <1>   0.1160 
  8 C        2.8910     0.3190    -0.5300 C.3   1 <1>  -0.0800 
  9 C        4.2340     1.0120    -0.7050 C.3   1 <1>   0.2200 
 10 C        2.9820    -0.2390     0.8960 C.3   1 <1>   0.1200 
 11 N        4.2040     2.3760    -0.1220 N.am  1 <1>  -0.7300 
 12 C        5.1220     0.1250     0.1560 C.3   1 <1>   0.1200 
 13 O        4.3340    -0.2200     1.2540 O.3   1 <1>  -0.5600 
 14 C        4.0370     3.5380    -0.8150 C.2   1 <1>   0.5440 
 15 O        3.8530     3.4500    -2.0140 O.2   1 <1>  -0.5700 
 16 C        4.0170     4.8370    -0.1650 C.ar  1 <1>   0.0860 
 17 C        4.5610     5.0980     1.0980 C.ar  1 <1>   0.1900 
 18 C        3.4150     5.9250    -0.8040 C.ar  1 <1>  -0.1500 
 19 F        5.1510     4.1430     1.7680 F     1 <1>  -0.1900 
 20 C        4.5180     6.3400     1.7060 C.ar  1 <1>  -0.1500 
 21 C        3.3610     7.1730    -0.2080 C.ar  1 <1>   0.0820 
 22 C        3.9090     7.3900     1.0450 C.ar  1 <1>  -0.1500 
 23 O        2.7720     8.1960    -0.8430 O.3   1 <1>  -0.5330 
 24 H        1.7960     1.6640    -1.7730 H     1 <1>   0.0800 
 25 H        1.6210     2.0080    -0.0910 H     1 <1>   0.0800 
 26 H       -0.6700     0.6080     2.6860 H     1 <1>   0.0800 
 27 H       -1.6390     1.2080     1.3530 H     1 <1>   0.0800 
 28 H       -0.0130     1.8070     1.6000 H     1 <1>   0.0800 
 29 H       -1.0630    -1.6080     1.9570 H     1 <1>   0.0800 
 30 H       -0.5120    -2.1490     0.3930 H     1 <1>   0.0800 
 31 H       -1.9350    -1.1350     0.5070 H     1 <1>   0.0800 
 32 H        2.8620    -0.5180    -1.2060 H     1 <1>   0.0800 
 33 H        4.5580     1.0430    -1.7320 H     1 <1>   0.0800 
 34 H        2.6170    -1.2500     0.9540 H     1 <1>   0.0800 
 35 H        2.4540     0.3780     1.6020 H     1 <1>   0.0800 
 36 H        4.3900     2.4030     0.8870 H     1 <1>   0.3700 
 37 H        6.0150     0.6230     0.4880 H     1 <1>   0.0800 
 38 H        5.3770    -0.7810    -0.3660 H     1 <1>   0.0800 
 39 H        2.9850     5.7830    -1.7800 H     1 <1>   0.1500 
 40 H        4.9540     6.4820     2.6790 H     1 <1>   0.1500 
 41 H        3.8560     8.3700     1.4870 H     1 <1>   0.1500 
 42 H        2.4320     7.9640    -1.7260 H     1 <1>   0.4500 
@<TRIPOS>BOND
  1   1   2  2   
  2   1   3  2   
  3   1   4  am  
  4   1   5  1   
  5   4   6  1   
  6   4   7  1   
  7   5   8  1   
  8   5  24  1   
  9   5  25  1   
 10   6  26  1   
 11   6  27  1   
 12   6  28  1   
 13   7  29  1   
 14   7  30  1   
 15   7  31  1   
 16   8   9  1   
 17   8  10  1   
 18   8  32  1   
 19   9  11  1   
 20   9  12  1   
 21   9  33  1   
 22  10  13  1   
 23  10  34  1   
 24  10  35  1   
 25  11  14  am  
 26  11  36  1   
 27  12  13  1   
 28  12  37  1   
 29  12  38  1   
 30  14  15  2   
 31  14  16  1   
 32  16  17  ar  
 33  16  18  ar  
 34  17  19  1   
 35  17  20  ar  
 36  18  21  ar  
 37  18  39  1   
 38  20  22  ar  
 39  20  40  1   
 40  21  22  ar  
 41  21  23  1   
 42  22  41  1   
 43  23  42  1   
@<TRIPOS>SUBSTRUCTURE
  1 ****  11 GROUP 4 **** **** 0

# MOE 2024.06 (io_trps.svl 2023.06)
