@<TRIPOS>MOLECULE
NONAME
51 54 1 0 0 
SMALL
USER_CHARGES


@<TRIPOS>ATOM
  1 O        1.3960     0.4530     2.1890 O.3   1 <1>  -0.5600 
  2 C        2.6520     1.0460     2.0030 C.3   1 <1>   0.1200 
  3 C        0.9300    -0.3080     1.1080 C.3   1 <1>   0.1200 
  4 C        3.7220    -0.0270     1.7000 C.3   1 <1>   0.4230 
  5 C        1.9220    -1.4500     0.7780 C.3   1 <1>   0.4230 
  6 N        3.3000    -0.9090     0.5450 N.4   1 <1>  -0.9590 
  7 C        5.1110     0.6160     1.4520 C.3   1 <1>   0.1100 
  8 C        1.4710    -2.3120    -0.4120 C.3   1 <1>  -0.1600 
  9 C        3.5160    -0.1970    -0.7630 C.3   1 <1>   0.3430 
 10 N        5.8050     0.0250     0.2790 N.3   1 <1>  -0.8100 
 11 C        0.2410    -3.1730    -0.0810 C.3   1 <1>  -0.1600 
 12 C        4.9950     0.2150    -0.9510 C.3   1 <1>   0.1100 
 13 C        7.1970     0.5280     0.1300 C.3   1 <1>   0.2900 
 14 C       -0.1260    -4.0750    -1.2630 C.3   1 <1>  -0.2400 
 15 C        7.2830     1.9600    -0.3920 C.2   1 <1>  -0.0400 
 16 O        6.6660     2.9270     0.2560 O.3   1 <1>  -0.2800 
 17 C        7.9140     2.4610    -1.4750 C.2   1 <1>  -0.1500 
 18 C        6.8550     4.0730    -0.3850 C.2   1 <1>   0.1410 
 19 C        7.6390     3.8320    -1.4700 C.2   1 <1>  -0.1500 
 20 C        6.2520     5.2920     0.1060 C.2   1 <1>   0.2880 
 21 N        5.2870     5.3520     0.9970 N.2   1 <1>  -0.7070 
 22 C        6.6140     6.5780    -0.3110 C.2   1 <1>  -0.1500 
 23 N        5.0360     6.6630     1.1590 N.pl3 1 <1>   0.3000 
 24 C        5.8240     7.4240     0.3770 C.2   1 <1>  -0.3020 
 25 H        2.5810     1.7650     1.2050 H     1 <1>   0.0800 
 26 H        2.9000     1.5710     2.9090 H     1 <1>   0.0800 
 27 H       -0.0240    -0.7140     1.3950 H     1 <1>   0.0800 
 28 H        0.7830     0.3420     0.2640 H     1 <1>   0.0800 
 29 H        3.8080    -0.6380     2.5830 H     1 <1>   0.0800 
 30 H        1.9580    -2.0920     1.6430 H     1 <1>   0.0800 
 31 H        3.9900    -1.6720     0.5450 H     1 <1>   0.4500 
 32 H        5.7140     0.4880     2.3350 H     1 <1>   0.0800 
 33 H        4.9800     1.6740     1.3100 H     1 <1>   0.0800 
 34 H        1.2350    -1.6880    -1.2560 H     1 <1>   0.0800 
 35 H        2.2740    -2.9740    -0.6880 H     1 <1>   0.0800 
 36 H        3.2290    -0.8280    -1.5870 H     1 <1>   0.0800 
 37 H        2.9020     0.6870    -0.8010 H     1 <1>   0.0800 
 38 H        0.4440    -3.7920     0.7780 H     1 <1>   0.0800 
 39 H       -0.6070    -2.5510     0.1490 H     1 <1>   0.0800 
 40 H        5.0130     1.2470    -1.2600 H     1 <1>   0.0800 
 41 H        5.4250    -0.3670    -1.7480 H     1 <1>   0.0800 
 42 H        7.7010     0.4720     1.0800 H     1 <1>   0.0800 
 43 H        7.7250    -0.1170    -0.5510 H     1 <1>   0.0800 
 44 H        0.6850    -4.7420    -1.5020 H     1 <1>   0.0800 
 45 H       -0.3610    -3.4890    -2.1340 H     1 <1>   0.0800 
 46 H       -0.9880    -4.6710    -1.0150 H     1 <1>   0.0800 
 47 H        8.5090     1.9480    -2.2100 H     1 <1>   0.1500 
 48 H        7.9890     4.5390    -2.2010 H     1 <1>   0.1500 
 49 H        7.3760     6.8080    -1.0330 H     1 <1>   0.1500 
 50 H        4.3210     7.0100     1.8120 H     1 <1>   0.2700 
 51 H        5.7780     8.4980     0.3590 H     1 <1>   0.1500 
@<TRIPOS>BOND
  1   1   2  1   
  2   1   3  1   
  3   2   4  1   
  4   2  25  1   
  5   2  26  1   
  6   3   5  1   
  7   3  27  1   
  8   3  28  1   
  9   4   6  1   
 10   4   7  1   
 11   4  29  1   
 12   5   6  1   
 13   5   8  1   
 14   5  30  1   
 15   6   9  1   
 16   6  31  1   
 17   7  10  1   
 18   7  32  1   
 19   7  33  1   
 20   8  11  1   
 21   8  34  1   
 22   8  35  1   
 23   9  12  1   
 24   9  36  1   
 25   9  37  1   
 26  10  12  1   
 27  10  13  1   
 28  11  14  1   
 29  11  38  1   
 30  11  39  1   
 31  12  40  1   
 32  12  41  1   
 33  13  15  1   
 34  13  42  1   
 35  13  43  1   
 36  14  44  1   
 37  14  45  1   
 38  14  46  1   
 39  15  16  1   
 40  15  17  2   
 41  16  18  1   
 42  17  19  1   
 43  17  47  1   
 44  18  19  2   
 45  18  20  1   
 46  19  48  1   
 47  20  21  2   
 48  20  22  1   
 49  21  23  1   
 50  22  24  2   
 51  22  49  1   
 52  23  24  1   
 53  23  50  1   
 54  24  51  1   
@<TRIPOS>SUBSTRUCTURE
  1 ****   7 GROUP 4 **** **** 0

# MOE 2024.06 (io_trps.svl 2023.06)
