@<TRIPOS>MOLECULE
NONAME
56 59 1 0 0 
SMALL
USER_CHARGES


@<TRIPOS>ATOM
  1 F        1.6660    -2.4300    -0.4210 F     1 <1>  -0.1900 
  2 C        0.7030    -3.0800     0.1740 C.ar  1 <1>   0.1900 
  3 C       -0.3840    -3.4880    -0.5710 C.ar  1 <1>  -0.1500 
  4 C        0.8120    -3.3320     1.5280 C.ar  1 <1>  -0.1500 
  5 C       -1.4200    -4.1810     0.0480 C.ar  1 <1>   0.0000 
  6 C       -0.2140    -4.0220     2.1510 C.ar  1 <1>  -0.1500 
  7 C       -2.5720    -4.6210    -0.7050 C.ar  1 <1>   0.0000 
  8 C       -1.3130    -4.4380     1.4150 C.ar  1 <1>  -0.1500 
  9 C       -2.9350    -5.9620    -0.7370 C.ar  1 <1>  -0.1500 
 10 C       -3.3480    -3.7160    -1.4210 C.ar  1 <1>  -0.1500 
 11 C       -4.0420    -6.4230    -1.4470 C.ar  1 <1>   0.0860 
 12 C       -4.4450    -4.1420    -2.1450 C.ar  1 <1>  -0.1500 
 13 C       -4.3970    -7.8330    -1.4440 C.2   1 <1>   0.5440 
 14 C       -4.7850    -5.4810    -2.1590 C.ar  1 <1>  -0.1500 
 15 O       -3.5360    -8.6900    -1.3620 O.2   1 <1>  -0.5700 
 16 N       -5.7070    -8.2610    -1.4880 N.am  1 <1>  -0.6600 
 17 C       -5.9900    -9.6730    -1.8520 C.3   1 <1>   0.1400 
 18 C       -6.7290    -7.6630    -0.5870 C.3   1 <1>   0.1400 
 19 C       -5.9840   -10.5230    -0.5620 C.3   1 <1>   0.4230 
 20 C       -6.7650    -8.4870     0.7090 C.3   1 <1>  -0.1600 
 21 N       -6.0380   -12.0240    -0.8080 N.4   1 <1>  -0.9590 
 22 C       -7.0220   -10.0070     0.4810 C.3   1 <1>   0.0000 
 23 C       -6.4410   -12.8260     0.3920 C.3   1 <1>   0.3430 
 24 C       -6.8300   -12.4560    -2.0060 C.3   1 <1>   0.2630 
 25 C       -6.8100   -10.7570     1.8300 C.3   1 <1>  -0.1600 
 26 C       -8.4680   -10.2360    -0.0450 C.3   1 <1>   0.1200 
 27 C       -6.0710   -12.1010     1.6850 C.3   1 <1>  -0.1600 
 28 O       -9.4100    -9.6130     0.7560 O.3   1 <1>  -0.6800 
 29 H       -0.4220    -3.2740    -1.6230 H     1 <1>   0.1500 
 30 H        1.6760    -2.9980     2.0740 H     1 <1>   0.1500 
 31 H       -0.1580    -4.2350     3.2050 H     1 <1>   0.1500 
 32 H       -2.1070    -4.9700     1.9090 H     1 <1>   0.1500 
 33 H       -2.3340    -6.6740    -0.1980 H     1 <1>   0.1500 
 34 H       -3.0880    -2.6720    -1.4080 H     1 <1>   0.1500 
 35 H       -5.0340    -3.4300    -2.6980 H     1 <1>   0.1500 
 36 H       -5.6360    -5.8040    -2.7330 H     1 <1>   0.1500 
 37 H       -6.9360    -9.7190    -2.3590 H     1 <1>   0.0800 
 38 H       -5.2260   -10.0240    -2.5250 H     1 <1>   0.0800 
 39 H       -6.4800    -6.6410    -0.3560 H     1 <1>   0.0800 
 40 H       -7.6920    -7.6680    -1.0710 H     1 <1>   0.0800 
 41 H       -5.0210   -10.3300    -0.1160 H     1 <1>   0.0800 
 42 H       -5.8150    -8.3480     1.1980 H     1 <1>   0.0800 
 43 H       -7.5080    -8.0670     1.3640 H     1 <1>   0.0800 
 44 H       -5.0550   -12.2740    -0.9970 H     1 <1>   0.4500 
 45 H       -7.5070   -12.9840     0.3840 H     1 <1>   0.0800 
 46 H       -5.9620   -13.7920     0.3650 H     1 <1>   0.0800 
 47 H       -7.8650   -12.1790    -1.8950 H     1 <1>   0.0800 
 48 H       -6.7720   -13.5260    -2.1240 H     1 <1>   0.0800 
 49 H       -6.4420   -11.9980    -2.9010 H     1 <1>   0.0800 
 50 H       -6.2390   -10.1520     2.5150 H     1 <1>   0.0800 
 51 H       -7.7570   -10.9310     2.3100 H     1 <1>   0.0800 
 52 H       -8.7160   -11.2810    -0.0770 H     1 <1>   0.0800 
 53 H       -8.5970    -9.8260    -1.0300 H     1 <1>   0.0800 
 54 H       -6.3140   -12.7290     2.5260 H     1 <1>   0.0800 
 55 H       -5.0050   -11.9440     1.7090 H     1 <1>   0.0800 
 56 H       -9.4210    -9.9720     1.6660 H     1 <1>   0.4000 
@<TRIPOS>BOND
  1   1   2  1   
  2   2   3  ar  
  3   2   4  ar  
  4   3   5  ar  
  5   3  29  1   
  6   4   6  ar  
  7   4  30  1   
  8   5   7  1   
  9   5   8  ar  
 10   6   8  ar  
 11   6  31  1   
 12   7   9  ar  
 13   7  10  ar  
 14   8  32  1   
 15   9  11  ar  
 16   9  33  1   
 17  10  12  ar  
 18  10  34  1   
 19  11  13  1   
 20  11  14  ar  
 21  12  14  ar  
 22  12  35  1   
 23  13  15  2   
 24  13  16  am  
 25  14  36  1   
 26  16  17  1   
 27  16  18  1   
 28  17  19  1   
 29  17  37  1   
 30  17  38  1   
 31  18  20  1   
 32  18  39  1   
 33  18  40  1   
 34  19  21  1   
 35  19  22  1   
 36  19  41  1   
 37  20  22  1   
 38  20  42  1   
 39  20  43  1   
 40  21  23  1   
 41  21  24  1   
 42  21  44  1   
 43  22  25  1   
 44  22  26  1   
 45  23  27  1   
 46  23  45  1   
 47  23  46  1   
 48  24  47  1   
 49  24  48  1   
 50  24  49  1   
 51  25  27  1   
 52  25  50  1   
 53  25  51  1   
 54  26  28  1   
 55  26  52  1   
 56  26  53  1   
 57  27  54  1   
 58  27  55  1   
 59  28  56  1   
@<TRIPOS>SUBSTRUCTURE
  1 ****  13 GROUP 4 **** **** 0

# MOE 2024.06 (io_trps.svl 2023.06)
