@<TRIPOS>MOLECULE
NONAME
49 51 1 0 0 
SMALL
USER_CHARGES


@<TRIPOS>ATOM
  1 O       -3.4650    -0.2480    -2.6100 O.2   1 <1>  -0.5700 
  2 C       -3.3350     0.2940    -1.5320 C.2   1 <1>   0.7800 
  3 O       -2.6920     1.4630    -1.4930 O.3   1 <1>  -0.4300 
  4 N       -3.8150    -0.2590    -0.3710 N.am  1 <1>  -0.6600 
  5 C       -2.6600     2.2630    -0.3330 C.3   1 <1>   0.1200 
  6 C       -3.5790     0.3350     0.9670 C.3   1 <1>   0.1400 
  7 C       -4.6020    -1.5200    -0.3970 C.3   1 <1>   0.1400 
  8 C       -2.4600     1.3710     0.8900 C.3   1 <1>  -0.1600 
  9 C       -3.6630    -2.7290    -0.4420 C.3   1 <1>   0.1400 
 10 N       -4.4400    -3.9910    -0.3710 N.am  1 <1>  -0.7300 
 11 C       -4.9250    -4.5240     0.7770 C.2   1 <1>   0.5690 
 12 O       -4.7870    -3.9800     1.8450 O.2   1 <1>  -0.5700 
 13 C       -5.6570    -5.8420     0.7180 C.3   1 <1>  -0.0990 
 14 C       -4.7200    -6.9960     1.0840 C.3   1 <1>   0.0200 
 15 C       -5.4570    -8.3170     1.0030 C.2   1 <1>   0.0070 
 16 N       -5.5390    -9.0220    -0.0700 N.2   1 <1>  -0.5650 
 17 N       -6.1020    -8.8600     2.0650 N.pl3 1 <1>   0.0330 
 18 C       -6.2840   -10.1110     0.2880 C.ar  1 <1>   0.2270 
 19 C       -6.6440   -10.0190     1.6190 C.ar  1 <1>  -0.1520 
 20 C       -6.6900   -11.2120    -0.4790 C.ar  1 <1>  -0.1440 
 21 C       -7.4150   -11.0040     2.2330 C.ar  1 <1>  -0.1500 
 22 C       -7.4660   -12.1910     0.1220 C.ar  1 <1>  -0.1440 
 23 C       -6.2590   -11.2710    -1.9410 C.3   1 <1>  -0.0970 
 24 C       -7.8180   -12.0790     1.4760 C.ar  1 <1>  -0.1500 
 25 C       -7.9650   -13.4080    -0.6440 C.3   1 <1>  -0.0970 
 26 H       -3.5930     2.7970    -0.2750 H     1 <1>   0.0800 
 27 H       -1.8520     2.9660    -0.4390 H     1 <1>   0.0800 
 28 H       -3.3140    -0.4380     1.6700 H     1 <1>   0.0800 
 29 H       -4.4900     0.8030     1.3000 H     1 <1>   0.0800 
 30 H       -5.2350    -1.5270    -1.2680 H     1 <1>   0.0800 
 31 H       -5.2240    -1.5750     0.4800 H     1 <1>   0.0800 
 32 H       -2.4590     1.9670     1.7840 H     1 <1>   0.0800 
 33 H       -1.5070     0.8760     0.8230 H     1 <1>   0.0800 
 34 H       -2.9880    -2.6870     0.3960 H     1 <1>   0.0800 
 35 H       -3.0900    -2.7120    -1.3530 H     1 <1>   0.0800 
 36 H       -4.5900    -4.4730    -1.2610 H     1 <1>   0.3700 
 37 H       -6.0530    -5.9980    -0.2690 H     1 <1>   0.0800 
 38 H       -6.4820    -5.8100     1.4060 H     1 <1>   0.0800 
 39 H       -4.3230    -6.8530     2.0740 H     1 <1>   0.0800 
 40 H       -3.8930    -7.0180     0.3960 H     1 <1>   0.0800 
 41 H       -6.1710    -8.4810     3.0120 H     1 <1>   0.2700 
 42 H       -7.6850   -10.9190     3.2700 H     1 <1>   0.1500 
 43 H       -5.2970   -10.8050    -2.0620 H     1 <1>   0.0800 
 44 H       -6.9720   -10.7430    -2.5470 H     1 <1>   0.0800 
 45 H       -6.1770   -12.2830    -2.2890 H     1 <1>   0.0800 
 46 H       -8.4150   -12.8490     1.9320 H     1 <1>   0.1500 
 47 H       -8.3820   -13.1080    -1.5890 H     1 <1>   0.0800 
 48 H       -8.7290   -13.9260    -0.0940 H     1 <1>   0.0800 
 49 H       -7.1500   -14.0870    -0.8190 H     1 <1>   0.0800 
@<TRIPOS>BOND
  1   1   2  2   
  2   2   3  1   
  3   2   4  am  
  4   3   5  1   
  5   4   6  1   
  6   4   7  1   
  7   5   8  1   
  8   5  26  1   
  9   5  27  1   
 10   6   8  1   
 11   6  28  1   
 12   6  29  1   
 13   7   9  1   
 14   7  30  1   
 15   7  31  1   
 16   8  32  1   
 17   8  33  1   
 18   9  10  1   
 19   9  34  1   
 20   9  35  1   
 21  10  11  am  
 22  10  36  1   
 23  11  12  2   
 24  11  13  1   
 25  13  14  1   
 26  13  37  1   
 27  13  38  1   
 28  14  15  1   
 29  14  39  1   
 30  14  40  1   
 31  15  16  2   
 32  15  17  1   
 33  16  18  1   
 34  17  19  1   
 35  17  41  1   
 36  18  19  ar  
 37  18  20  ar  
 38  19  21  ar  
 39  20  22  ar  
 40  20  23  1   
 41  21  24  ar  
 42  21  42  1   
 43  22  24  ar  
 44  22  25  1   
 45  23  43  1   
 46  23  44  1   
 47  23  45  1   
 48  24  46  1   
 49  25  47  1   
 50  25  48  1   
 51  25  49  1   
@<TRIPOS>SUBSTRUCTURE
  1 ****  13 GROUP 4 **** **** 0

# MOE 2024.06 (io_trps.svl 2023.06)
