@<TRIPOS>MOLECULE
NONAME
58 62 1 0 0 
SMALL
USER_CHARGES


@<TRIPOS>ATOM
  1 S       -0.6170     0.5490     0.2770 S.o2  1 <1>   1.3330 
  2 O       -1.0100    -0.0760     1.5210 O.2   1 <1>  -0.6500 
  3 O       -0.1560     1.9170     0.2730 O.2   1 <1>  -0.6500 
  4 N       -1.9150     0.4260    -0.8060 N.am  1 <1>  -0.8490 
  5 C        0.6290    -0.4490    -0.5080 C.3   1 <1>  -0.1350 
  6 C       -2.7160    -0.8050    -0.6170 C.3   1 <1>   0.1960 
  7 C       -2.8830     1.5190    -0.6430 C.3   1 <1>   0.1960 
  8 C       -3.9690    -0.4040     0.1720 C.3   1 <1>   0.2800 
  9 C       -3.8280     1.0770     0.4780 C.3   1 <1>  -0.0800 
 10 O       -5.1050    -0.4020    -0.6160 O.3   1 <1>  -0.5600 
 11 C       -4.4420    -1.1940     1.3890 C.3   1 <1>  -0.1600 
 12 C       -5.3030     1.5400     0.5070 C.3   1 <1>  -0.0800 
 13 C       -6.0020     0.1940     0.2410 C.3   1 <1>   0.2000 
 14 C       -5.9050    -0.7370     1.4600 C.3   1 <1>  -0.1600 
 15 C       -5.6510     2.6250    -0.5280 C.3   1 <1>   0.1100 
 16 N       -6.8310     3.4130    -0.1290 N.3   1 <1>  -0.8100 
 17 C       -8.1150     2.6580    -0.2360 C.3   1 <1>   0.1710 
 18 C       -6.9310     4.6490    -0.9210 C.3   1 <1>   0.1100 
 19 C       -9.4050     3.4900    -0.1410 C.2   1 <1>   0.5690 
 20 C       -8.0490     5.5630    -0.3910 C.3   1 <1>   0.1400 
 21 O      -10.4400     2.8850     0.0280 O.2   1 <1>  -0.5700 
 22 N       -9.3650     4.8580    -0.2680 N.am  1 <1>  -0.6600 
 23 C      -10.6140     5.6700    -0.1340 C.3   1 <1>   0.2200 
 24 C      -10.7850     6.6690    -1.2840 C.3   1 <1>  -0.1600 
 25 C      -10.6130     6.4980     1.1600 C.3   1 <1>  -0.1600 
 26 C      -10.4660     8.0480    -0.7050 C.3   1 <1>  -0.1600 
 27 C      -10.8920     7.9490     0.7550 C.3   1 <1>  -0.1600 
 28 H        0.2900    -1.4610    -0.6060 H     1 <1>   0.0800 
 29 H        1.5270    -0.4400     0.0770 H     1 <1>   0.0800 
 30 H        0.8480    -0.0590    -1.4830 H     1 <1>   0.0800 
 31 H       -3.0130    -1.1940    -1.5760 H     1 <1>   0.0800 
 32 H       -2.1600    -1.5620    -0.0930 H     1 <1>   0.0800 
 33 H       -2.4100     2.4620    -0.4260 H     1 <1>   0.0800 
 34 H       -3.4270     1.6140    -1.5670 H     1 <1>   0.0800 
 35 H       -3.3530     1.2350     1.4310 H     1 <1>   0.0800 
 36 H       -4.3730    -2.2500     1.1990 H     1 <1>   0.0800 
 37 H       -3.8780    -0.9450     2.2710 H     1 <1>   0.0800 
 38 H       -5.5480     1.9090     1.4880 H     1 <1>   0.0800 
 39 H       -6.9790     0.2450    -0.2040 H     1 <1>   0.0800 
 40 H       -6.1370    -0.2230     2.3760 H     1 <1>   0.0800 
 41 H       -6.5740    -1.5710     1.3400 H     1 <1>   0.0800 
 42 H       -5.7950     2.1890    -1.5040 H     1 <1>   0.0800 
 43 H       -4.8180     3.3040    -0.5880 H     1 <1>   0.0800 
 44 H       -8.1460     2.1350    -1.1740 H     1 <1>   0.0800 
 45 H       -8.1550     1.9320     0.5550 H     1 <1>   0.0800 
 46 H       -6.0000     5.1870    -0.8670 H     1 <1>   0.0800 
 47 H       -7.1210     4.4110    -1.9540 H     1 <1>   0.0800 
 48 H       -8.1390     6.3980    -1.0600 H     1 <1>   0.0800 
 49 H       -7.7570     5.9380     0.5730 H     1 <1>   0.0800 
 50 H      -11.4710     5.0170    -0.1290 H     1 <1>   0.0800 
 51 H      -10.1850     6.4260    -2.1430 H     1 <1>   0.0800 
 52 H      -11.8180     6.6590    -1.5830 H     1 <1>   0.0800 
 53 H      -11.3760     6.1430     1.8290 H     1 <1>   0.0800 
 54 H       -9.6660     6.4330     1.6630 H     1 <1>   0.0800 
 55 H       -9.4090     8.2370    -0.7590 H     1 <1>   0.0800 
 56 H      -10.9890     8.8330    -1.2240 H     1 <1>   0.0800 
 57 H      -11.9490     8.1410     0.8290 H     1 <1>   0.0800 
 58 H      -10.3640     8.6500     1.3790 H     1 <1>   0.0800 
@<TRIPOS>BOND
  1   1   2  2   
  2   1   3  2   
  3   1   4  am  
  4   1   5  1   
  5   4   6  1   
  6   4   7  1   
  7   5  28  1   
  8   5  29  1   
  9   5  30  1   
 10   6   8  1   
 11   6  31  1   
 12   6  32  1   
 13   7   9  1   
 14   7  33  1   
 15   7  34  1   
 16   8   9  1   
 17   8  10  1   
 18   8  11  1   
 19   9  12  1   
 20   9  35  1   
 21  10  13  1   
 22  11  14  1   
 23  11  36  1   
 24  11  37  1   
 25  12  13  1   
 26  12  15  1   
 27  12  38  1   
 28  13  14  1   
 29  13  39  1   
 30  14  40  1   
 31  14  41  1   
 32  15  16  1   
 33  15  42  1   
 34  15  43  1   
 35  16  17  1   
 36  16  18  1   
 37  17  19  1   
 38  17  44  1   
 39  17  45  1   
 40  18  20  1   
 41  18  46  1   
 42  18  47  1   
 43  19  21  2   
 44  19  22  am  
 45  20  22  1   
 46  20  48  1   
 47  20  49  1   
 48  22  23  1   
 49  23  24  1   
 50  23  25  1   
 51  23  50  1   
 52  24  26  1   
 53  24  51  1   
 54  24  52  1   
 55  25  27  1   
 56  25  53  1   
 57  25  54  1   
 58  26  27  1   
 59  26  55  1   
 60  26  56  1   
 61  27  57  1   
 62  27  58  1   
@<TRIPOS>SUBSTRUCTURE
  1 ****  15 GROUP 4 **** **** 0

# MOE 2024.06 (io_trps.svl 2023.06)
