@<TRIPOS>MOLECULE
NONAME
52 54 1 0 0 
SMALL
USER_CHARGES


@<TRIPOS>ATOM
  1 F       -4.5510    -0.7810    -2.1980 F     1 <1>  -0.1900 
  2 C       -3.5590    -0.0920    -1.6920 C.ar  1 <1>   0.1900 
  3 C       -3.1180    -0.3650    -0.3970 C.ar  1 <1>   0.0830 
  4 C       -2.9990     0.8950    -2.4790 C.ar  1 <1>  -0.1500 
  5 O       -3.7250    -1.3560     0.3120 O.3   1 <1>  -0.3630 
  6 C       -2.0650     0.3950     0.1190 C.ar  1 <1>  -0.1500 
  7 C       -1.9630     1.6240    -1.9310 C.ar  1 <1>   0.1900 
  8 C       -3.6710    -1.3620     1.7350 C.3   1 <1>   0.1810 
  9 C       -1.4870     1.3940    -0.6510 C.ar  1 <1>  -0.1500 
 10 F       -1.4110     2.5670    -2.6460 F     1 <1>  -0.1900 
 11 C       -4.5600    -2.4420     2.3580 C.2   1 <1>   0.5690 
 12 O       -4.0140    -3.1800     3.1470 O.2   1 <1>  -0.5700 
 13 N       -5.9110    -2.5540     2.0890 N.am  1 <1>  -0.6600 
 14 C       -6.6160    -1.6680     1.1140 C.3   1 <1>   0.2200 
 15 C       -6.7050    -3.6360     2.7550 C.3   1 <1>   0.0600 
 16 C       -7.9980    -1.1850     1.5450 C.3   1 <1>  -0.1600 
 17 C       -6.8820    -2.3640    -0.2120 C.3   1 <1>  -0.1600 
 18 C       -8.6560    -0.7260     0.2330 C.3   1 <1>  -0.0800 
 19 C       -7.9240    -1.4700    -0.8980 C.3   1 <1>  -0.0800 
 20 C      -10.1390    -1.1010     0.1120 C.3   1 <1>  -0.1600 
 21 C       -8.9880    -2.2510    -1.6770 C.3   1 <1>  -0.1600 
 22 C      -10.1430    -2.4010    -0.6930 C.3   1 <1>   0.4230 
 23 N      -11.4420    -2.7200    -1.3630 N.4   1 <1>  -0.9590 
 24 C      -11.9620    -1.6620    -2.2920 C.3   1 <1>   0.2630 
 25 C      -12.4850    -3.0710    -0.3510 C.3   1 <1>   0.2630 
 26 H       -3.3530     1.0890    -3.4750 H     1 <1>   0.1500 
 27 H       -1.6780     0.2200     1.1050 H     1 <1>   0.1500 
 28 H       -2.6540    -1.5470     2.0270 H     1 <1>   0.0800 
 29 H       -3.9800    -0.3990     2.0930 H     1 <1>   0.0800 
 30 H       -0.6750     1.9880    -0.2700 H     1 <1>   0.1500 
 31 H       -6.0270    -0.7880     0.9190 H     1 <1>   0.0800 
 32 H       -7.3800    -4.0960     2.0580 H     1 <1>   0.0800 
 33 H       -7.2640    -3.2200     3.5740 H     1 <1>   0.0800 
 34 H       -6.0570    -4.4040     3.1420 H     1 <1>   0.0800 
 35 H       -8.5650    -1.9880     1.9760 H     1 <1>   0.0800 
 36 H       -7.9240    -0.3780     2.2530 H     1 <1>   0.0800 
 37 H       -5.9840    -2.4490    -0.7970 H     1 <1>   0.0800 
 38 H       -7.2800    -3.3470    -0.0380 H     1 <1>   0.0800 
 39 H       -8.5220     0.3380     0.1190 H     1 <1>   0.0800 
 40 H       -7.4180    -0.7660    -1.5400 H     1 <1>   0.0800 
 41 H      -10.6330    -0.3120    -0.4230 H     1 <1>   0.0800 
 42 H      -10.6020    -1.2190     1.0760 H     1 <1>   0.0800 
 43 H       -8.6180    -3.2020    -2.0160 H     1 <1>   0.0800 
 44 H       -9.2730    -1.6580    -2.5260 H     1 <1>   0.0800 
 45 H       -9.8850    -3.2030    -0.0180 H     1 <1>   0.0800 
 46 H      -11.2640    -3.5630    -1.9300 H     1 <1>   0.4500 
 47 H      -12.1860    -0.7590    -1.7500 H     1 <1>   0.0800 
 48 H      -12.8650    -2.0020    -2.7740 H     1 <1>   0.0800 
 49 H      -11.2370    -1.4360    -3.0570 H     1 <1>   0.0800 
 50 H      -12.7110    -2.2160     0.2660 H     1 <1>   0.0800 
 51 H      -12.1390    -3.8710     0.2830 H     1 <1>   0.0800 
 52 H      -13.3910    -3.3890    -0.8410 H     1 <1>   0.0800 
@<TRIPOS>BOND
  1   1   2  1   
  2   2   3  ar  
  3   2   4  ar  
  4   3   5  1   
  5   3   6  ar  
  6   4   7  ar  
  7   4  26  1   
  8   5   8  1   
  9   6   9  ar  
 10   6  27  1   
 11   7   9  ar  
 12   7  10  1   
 13   8  11  1   
 14   8  28  1   
 15   8  29  1   
 16   9  30  1   
 17  11  12  2   
 18  11  13  am  
 19  13  14  1   
 20  13  15  1   
 21  14  16  1   
 22  14  17  1   
 23  14  31  1   
 24  15  32  1   
 25  15  33  1   
 26  15  34  1   
 27  16  18  1   
 28  16  35  1   
 29  16  36  1   
 30  17  19  1   
 31  17  37  1   
 32  17  38  1   
 33  18  19  1   
 34  18  20  1   
 35  18  39  1   
 36  19  21  1   
 37  19  40  1   
 38  20  22  1   
 39  20  41  1   
 40  20  42  1   
 41  21  22  1   
 42  21  43  1   
 43  21  44  1   
 44  22  23  1   
 45  22  45  1   
 46  23  24  1   
 47  23  25  1   
 48  23  46  1   
 49  24  47  1   
 50  24  48  1   
 51  24  49  1   
 52  25  50  1   
 53  25  51  1   
 54  25  52  1   
@<TRIPOS>SUBSTRUCTURE
  1 ****  17 GROUP 4 **** **** 0

# MOE 2024.06 (io_trps.svl 2023.06)
