@<TRIPOS>MOLECULE
NONAME
46 48 1 0 0 
SMALL
USER_CHARGES


@<TRIPOS>ATOM
  1 O       -1.3290     0.1920    -1.9170 O.2   1 <1>  -0.5700 
  2 C       -1.3570     0.5090    -0.7430 C.2   1 <1>   0.5440 
  3 N       -1.4830    -0.4890     0.1800 N.am  1 <1>  -0.7300 
  4 C       -1.2660     1.9020    -0.3380 C.ar  1 <1>   0.0860 
  5 C       -1.5550    -1.9380    -0.1240 C.3   1 <1>   0.2200 
  6 C       -0.7520     2.8670    -1.2060 C.ar  1 <1>  -0.1500 
  7 C       -1.6840     2.3420     0.9210 C.ar  1 <1>  -0.1500 
  8 C       -2.9810    -2.4580    -0.0050 C.3   1 <1>  -0.0800 
  9 C       -0.8860    -2.7070     1.0060 C.3   1 <1>   0.1200 
 10 C       -0.6460     4.2000    -0.8480 C.ar  1 <1>  -0.1430 
 11 C       -1.5840     3.6680     1.2950 C.ar  1 <1>  -0.1500 
 12 C       -3.1230    -2.7380     1.4950 C.3   1 <1>   0.1200 
 13 C       -4.0790    -1.5510    -0.5900 C.3   1 <1>  -0.0160 
 14 O       -1.8310    -2.7360     2.0320 O.3   1 <1>  -0.5600 
 15 C       -1.0630     4.6110     0.4140 C.ar  1 <1>   0.0820 
 16 C       -0.0760     5.2060    -1.8390 C.3   1 <1>  -0.0970 
 17 C       -5.4420    -2.2180    -0.4930 C.ar  1 <1>  -0.1430 
 18 O       -0.9400     5.9240     0.7270 O.3   1 <1>  -0.3630 
 19 C       -6.3380    -1.9160     0.5130 C.ar  1 <1>  -0.1500 
 20 C       -5.8520    -3.1640    -1.4110 C.ar  1 <1>  -0.1500 
 21 C       -1.3320     6.4400     1.9790 C.3   1 <1>   0.0400 
 22 C       -7.5630    -2.5620     0.5540 C.ar  1 <1>   0.1600 
 23 C       -7.1000    -3.7510    -1.2790 C.ar  1 <1>   0.1600 
 24 N       -7.9650    -3.4740    -0.3160 N.ar  1 <1>  -0.6200 
 25 H       -1.4780    -0.2800     1.1800 H     1 <1>   0.3700 
 26 H       -1.1110    -2.1510    -1.0820 H     1 <1>   0.0800 
 27 H       -0.4300     2.5520    -2.1830 H     1 <1>   0.1500 
 28 H       -2.1000     1.6400     1.6200 H     1 <1>   0.1500 
 29 H       -3.0260    -3.4050    -0.5130 H     1 <1>   0.0800 
 30 H        0.0180    -2.2390     1.3540 H     1 <1>   0.0800 
 31 H       -0.6850    -3.7230     0.7120 H     1 <1>   0.0800 
 32 H       -1.9180     3.9530     2.2740 H     1 <1>   0.1500 
 33 H       -3.5800    -3.6950     1.6810 H     1 <1>   0.0800 
 34 H       -3.6830    -1.9650     1.9940 H     1 <1>   0.0800 
 35 H       -3.8560    -1.3410    -1.6220 H     1 <1>   0.0800 
 36 H       -4.1070    -0.6090    -0.0710 H     1 <1>   0.0800 
 37 H        0.1950     4.7320    -2.7650 H     1 <1>   0.0800 
 38 H        0.7990     5.6710    -1.4210 H     1 <1>   0.0800 
 39 H       -0.8060     5.9680    -2.0440 H     1 <1>   0.0800 
 40 H       -6.0980    -1.1860     1.2630 H     1 <1>   0.1500 
 41 H       -5.2140    -3.4480    -2.2270 H     1 <1>   0.1500 
 42 H       -1.1330     7.4960     1.9810 H     1 <1>   0.0800 
 43 H       -0.7560     5.9580     2.7500 H     1 <1>   0.0800 
 44 H       -2.3840     6.2660     2.1150 H     1 <1>   0.0800 
 45 H       -8.2490    -2.3150     1.3460 H     1 <1>   0.1500 
 46 H       -7.4030    -4.4860    -2.0040 H     1 <1>   0.1500 
@<TRIPOS>BOND
  1   1   2  2   
  2   2   3  am  
  3   2   4  1   
  4   3   5  1   
  5   3  25  1   
  6   4   6  ar  
  7   4   7  ar  
  8   5   8  1   
  9   5   9  1   
 10   5  26  1   
 11   6  10  ar  
 12   6  27  1   
 13   7  11  ar  
 14   7  28  1   
 15   8  12  1   
 16   8  13  1   
 17   8  29  1   
 18   9  14  1   
 19   9  30  1   
 20   9  31  1   
 21  10  15  ar  
 22  10  16  1   
 23  11  15  ar  
 24  11  32  1   
 25  12  14  1   
 26  12  33  1   
 27  12  34  1   
 28  13  17  1   
 29  13  35  1   
 30  13  36  1   
 31  15  18  1   
 32  16  37  1   
 33  16  38  1   
 34  16  39  1   
 35  17  19  ar  
 36  17  20  ar  
 37  18  21  1   
 38  19  22  ar  
 39  19  40  1   
 40  20  23  ar  
 41  20  41  1   
 42  21  42  1   
 43  21  43  1   
 44  21  44  1   
 45  22  24  ar  
 46  22  45  1   
 47  23  24  ar  
 48  23  46  1   
@<TRIPOS>SUBSTRUCTURE
  1 ****   3 GROUP 4 **** **** 0

# MOE 2024.06 (io_trps.svl 2023.06)
