@<TRIPOS>MOLECULE
NONAME
44 46 1 0 0 
SMALL
USER_CHARGES


@<TRIPOS>ATOM
  1 CL      -0.4740     1.2750     2.0410 Cl    1 <1>  -0.1770 
  2 C       -2.0180     1.6390     1.3170 C.ar  1 <1>   0.1770 
  3 C       -2.0820     1.9590    -0.0250 C.ar  1 <1>  -0.1500 
  4 C       -3.1590     1.6030     2.0950 C.ar  1 <1>  -0.1500 
  5 C       -3.3120     2.2480    -0.5930 C.ar  1 <1>  -0.1500 
  6 C       -4.3820     1.8940     1.5130 C.ar  1 <1>  -0.1500 
  7 C       -4.4820     2.2230     0.1640 C.ar  1 <1>  -0.0090 
  8 S       -6.0950     2.6030    -0.5790 S.o2  1 <1>   1.4470 
  9 O       -6.9480     1.4460    -0.4130 O.2   1 <1>  -0.6500 
 10 O       -5.8880     3.1570    -1.9010 O.2   1 <1>  -0.6500 
 11 N       -6.6650     3.8380     0.4390 N.am  1 <1>  -0.8490 
 12 C       -8.0670     3.7650     0.8980 C.3   1 <1>   0.1960 
 13 C       -6.2100     5.1960     0.1390 C.3   1 <1>   0.1960 
 14 C       -9.0890     4.4840    -0.0300 C.3   1 <1>   0.0000 
 15 C       -7.1520     5.9130    -0.8370 C.3   1 <1>  -0.1600 
 16 C      -10.4910     4.4950     0.6100 C.3   1 <1>   0.2000 
 17 C       -8.5990     5.9160    -0.3220 C.3   1 <1>  -0.1600 
 18 C       -9.3710     3.6930    -1.3200 C.3   1 <1>  -0.1600 
 19 O      -10.4330     4.7410     1.9840 O.3   1 <1>  -0.5600 
 20 C      -11.0950     3.1180     0.3150 C.3   1 <1>  -0.1600 
 21 C      -10.3490     2.5870    -0.9160 C.3   1 <1>  -0.1600 
 22 C      -11.6500     5.0750     2.5730 C.3   1 <1>   0.0400 
 23 H       -1.1820     1.9790    -0.6130 H     1 <1>   0.1500 
 24 H       -3.0890     1.3510     3.1380 H     1 <1>   0.1500 
 25 H       -3.3670     2.4970    -1.6410 H     1 <1>   0.1500 
 26 H       -5.2780     1.8680     2.1130 H     1 <1>   0.1500 
 27 H       -8.3600     2.7420     1.0580 H     1 <1>   0.0800 
 28 H       -8.0980     4.2410     1.8620 H     1 <1>   0.0800 
 29 H       -6.1790     5.7540     1.0600 H     1 <1>   0.0800 
 30 H       -5.2110     5.1720    -0.2630 H     1 <1>   0.0800 
 31 H       -6.8170     6.9260    -0.9630 H     1 <1>   0.0800 
 32 H       -7.1040     5.4390    -1.8020 H     1 <1>   0.0800 
 33 H      -11.0850     5.2620     0.1410 H     1 <1>   0.0800 
 34 H       -9.2400     6.3960    -1.0410 H     1 <1>   0.0800 
 35 H       -8.6420     6.4900     0.5880 H     1 <1>   0.0800 
 36 H       -9.8610     4.3340    -2.0330 H     1 <1>   0.0800 
 37 H       -8.4940     3.2950    -1.7910 H     1 <1>   0.0800 
 38 H      -10.9360     2.4520     1.1460 H     1 <1>   0.0800 
 39 H      -12.1480     3.2040     0.1160 H     1 <1>   0.0800 
 40 H       -9.8000     1.6980    -0.6530 H     1 <1>   0.0800 
 41 H      -11.0220     2.3510    -1.7220 H     1 <1>   0.0800 
 42 H      -11.4760     5.2590     3.6180 H     1 <1>   0.0800 
 43 H      -12.3410     4.2580     2.4610 H     1 <1>   0.0800 
 44 H      -12.0370     5.9660     2.1090 H     1 <1>   0.0800 
@<TRIPOS>BOND
  1   1   2  1   
  2   2   3  ar  
  3   2   4  ar  
  4   3   5  ar  
  5   3  23  1   
  6   4   6  ar  
  7   4  24  1   
  8   5   7  ar  
  9   5  25  1   
 10   6   7  ar  
 11   6  26  1   
 12   7   8  1   
 13   8   9  2   
 14   8  10  2   
 15   8  11  am  
 16  11  12  1   
 17  11  13  1   
 18  12  14  1   
 19  12  27  1   
 20  12  28  1   
 21  13  15  1   
 22  13  29  1   
 23  13  30  1   
 24  14  16  1   
 25  14  17  1   
 26  14  18  1   
 27  15  17  1   
 28  15  31  1   
 29  15  32  1   
 30  16  19  1   
 31  16  20  1   
 32  16  33  1   
 33  17  34  1   
 34  17  35  1   
 35  18  21  1   
 36  18  36  1   
 37  18  37  1   
 38  19  22  1   
 39  20  21  1   
 40  20  38  1   
 41  20  39  1   
 42  21  40  1   
 43  21  41  1   
 44  22  42  1   
 45  22  43  1   
 46  22  44  1   
@<TRIPOS>SUBSTRUCTURE
  1 ****  11 GROUP 4 **** **** 0

# MOE 2024.06 (io_trps.svl 2023.06)
