@<TRIPOS>MOLECULE
NONAME
44 46 1 0 0 
SMALL
USER_CHARGES


@<TRIPOS>ATOM
  1 S        0.3910     0.7770     1.7140 S.3   1 <1>  -0.0800 
  2 C        0.7540    -0.8230     1.1590 C.2   1 <1>   0.4620 
  3 C        1.4360     1.3560     0.4600 C.2   1 <1>   0.1980 
  4 N        1.5600    -0.8320     0.1610 N.2   1 <1>  -0.3380 
  5 N        0.1870    -1.8850     1.7920 N.pl3 1 <1>  -0.8840 
  6 N        1.9460     0.4180    -0.2320 N.2   1 <1>  -0.3380 
  7 C        1.6290     2.8540     0.3400 C.3   1 <1>   0.0200 
  8 C        2.4650     3.2030    -0.8930 C.3   1 <1>   0.2090 
  9 N        2.7950     4.6510    -0.8840 N.pl3 1 <1>  -0.8690 
 10 C        3.9250     5.2750    -0.5160 C.ar  1 <1>   0.4100 
 11 N        3.9230     6.5710    -0.7120 N.ar  1 <1>  -0.6200 
 12 C        5.0280     4.6030     0.0420 C.ar  1 <1>  -0.1500 
 13 C        5.0100     7.2590    -0.3860 C.ar  1 <1>   0.7710 
 14 C        6.1270     5.3190     0.3770 C.ar  1 <1>   0.2180 
 15 N        6.0870     6.6530     0.1480 N.ar  1 <1>  -0.1790 
 16 N        5.0440     8.6050    -0.5830 N.pl3 1 <1>  -0.8380 
 17 C        7.3770     4.7100     0.9880 C.3   1 <1>  -0.0970 
 18 C        3.8210     9.3730    -0.9970 C.3   1 <1>   0.2090 
 19 C        6.2190     9.5180    -0.4180 C.3   1 <1>   0.2090 
 20 C        3.4720    10.3850     0.0990 C.3   1 <1>  -0.1600 
 21 C        5.9230    10.5170     0.7050 C.3   1 <1>  -0.1600 
 22 C        4.6490    11.3210     0.4120 C.3   1 <1>  -0.1600 
 23 H        0.3910    -2.8350     1.4780 H     1 <1>   0.4000 
 24 H       -0.4470    -1.7830     2.5850 H     1 <1>   0.4000 
 25 H        2.1270     3.2050     1.2250 H     1 <1>   0.0800 
 26 H        0.6680     3.3290     0.2670 H     1 <1>   0.0800 
 27 H        1.9120     2.9650    -1.7870 H     1 <1>   0.0800 
 28 H        3.3670     2.6160    -0.9060 H     1 <1>   0.0800 
 29 H        2.0680     5.2580    -1.2820 H     1 <1>   0.4000 
 30 H        4.9770     3.5420     0.1940 H     1 <1>   0.1500 
 31 H        6.8530     7.2670     0.3900 H     1 <1>   0.4570 
 32 H        7.2560     3.6470     1.1100 H     1 <1>   0.0800 
 33 H        7.5710     5.1380     1.9560 H     1 <1>   0.0800 
 34 H        8.2280     4.8790     0.3510 H     1 <1>   0.0800 
 35 H        2.9720     8.7320    -1.1640 H     1 <1>   0.0800 
 36 H        4.0210     9.8910    -1.9200 H     1 <1>   0.0800 
 37 H        6.3770    10.0560    -1.3390 H     1 <1>   0.0800 
 38 H        7.1240     8.9820    -0.2000 H     1 <1>   0.0800 
 39 H        3.1850     9.8500     0.9880 H     1 <1>   0.0800 
 40 H        2.6240    10.9680    -0.2150 H     1 <1>   0.0800 
 41 H        6.7530    11.1940     0.8090 H     1 <1>   0.0800 
 42 H        5.8110     9.9890     1.6360 H     1 <1>   0.0800 
 43 H        4.4050    11.9430     1.2570 H     1 <1>   0.0800 
 44 H        4.8210    11.9670    -0.4330 H     1 <1>   0.0800 
@<TRIPOS>BOND
  1   1   2  1   
  2   1   3  1   
  3   2   4  2   
  4   2   5  1   
  5   3   6  2   
  6   3   7  1   
  7   4   6  1   
  8   5  23  1   
  9   5  24  1   
 10   7   8  1   
 11   7  25  1   
 12   7  26  1   
 13   8   9  1   
 14   8  27  1   
 15   8  28  1   
 16   9  10  1   
 17   9  29  1   
 18  10  11  ar  
 19  10  12  ar  
 20  11  13  ar  
 21  12  14  ar  
 22  12  30  1   
 23  13  15  ar  
 24  13  16  1   
 25  14  15  ar  
 26  14  17  1   
 27  15  31  1   
 28  16  18  1   
 29  16  19  1   
 30  17  32  1   
 31  17  33  1   
 32  17  34  1   
 33  18  20  1   
 34  18  35  1   
 35  18  36  1   
 36  19  21  1   
 37  19  37  1   
 38  19  38  1   
 39  20  22  1   
 40  20  39  1   
 41  20  40  1   
 42  21  22  1   
 43  21  41  1   
 44  21  42  1   
 45  22  43  1   
 46  22  44  1   
@<TRIPOS>SUBSTRUCTURE
  1 ****  10 GROUP 4 **** **** 0

# MOE 2024.06 (io_trps.svl 2023.06)
