@<TRIPOS>MOLECULE
Untitled Document
49 52 1 0 0 
SMALL
USER_CHARGES


@<TRIPOS>ATOM
  1 CL      -0.9340     0.6550    -1.1490 Cl    1 <1>  -0.1770 
  2 C       -2.4500     1.1650    -0.4320 C.ar  1 <1>   0.1770 
  3 C       -2.4320     2.0470     0.6490 C.ar  1 <1>   0.1000 
  4 C       -3.6260     0.6720    -0.9500 C.ar  1 <1>  -0.1500 
  5 N       -1.2550     2.5420     1.1860 N.pl3 1 <1>  -0.9000 
  6 C       -3.6540     2.4230     1.1830 C.ar  1 <1>  -0.1500 
  7 C       -4.8670     1.0350    -0.4150 C.ar  1 <1>   0.0860 
  8 C       -4.8480     1.9490     0.6570 C.ar  1 <1>   0.0830 
  9 C       -6.0760     0.4630    -0.9760 C.2   1 <1>   0.5440 
 10 O       -6.0040     2.3850     1.2120 O.3   1 <1>  -0.3630 
 11 O       -6.0700    -0.0790    -2.0660 O.2   1 <1>  -0.5700 
 12 N       -7.2650     0.4760    -0.3030 N.am  1 <1>  -0.7300 
 13 C       -6.3140     3.7640     1.1160 C.3   1 <1>   0.2150 
 14 C       -8.5800     0.0840    -0.8680 C.3   1 <1>   0.2200 
 15 C       -6.8790     4.0490    -0.2780 C.3   1 <1>  -0.1950 
 16 C       -9.6560     0.1420     0.2430 C.3   1 <1>  -0.0800 
 17 C       -8.5430    -1.3610    -1.4470 C.3   1 <1>   0.3430 
 18 C       -7.8220     5.1900    -0.4970 C.3   1 <1>  -0.2000 
 19 C       -8.3110     3.7750    -0.6160 C.3   1 <1>  -0.2000 
 20 C       -9.2710    -0.8420     1.3710 C.3   1 <1>  -0.1600 
 21 C      -10.9790    -0.3810    -0.3550 C.3   1 <1>  -0.1600 
 22 N       -9.4190    -2.2980    -0.6470 N.4   1 <1>  -0.9590 
 23 C       -8.9910    -2.2440     0.7920 C.3   1 <1>   0.3430 
 24 C      -10.8480    -1.8600    -0.7770 C.3   1 <1>   0.3430 
 25 H       -3.5790    -0.0080    -1.7820 H     1 <1>   0.1500 
 26 H       -1.2280     2.8120     2.1730 H     1 <1>   0.4000 
 27 H       -0.3770     2.1190     0.8590 H     1 <1>   0.4000 
 28 H       -3.6650     3.0970     2.0190 H     1 <1>   0.1500 
 29 H       -7.2980     1.1230     0.4960 H     1 <1>   0.3700 
 30 H       -5.4320     4.3520     1.3030 H     1 <1>   0.0800 
 31 H       -7.0460     3.9850     1.8730 H     1 <1>   0.0800 
 32 H       -8.8210     0.7730    -1.6600 H     1 <1>   0.0800 
 33 H       -6.1410     3.9030    -1.0490 H     1 <1>   0.1000 
 34 H       -9.7780     1.1450     0.6140 H     1 <1>   0.0800 
 35 H       -7.5260    -1.7170    -1.4460 H     1 <1>   0.0800 
 36 H       -8.8820    -1.3340    -2.4690 H     1 <1>   0.0800 
 37 H       -7.7240     5.7780    -1.3940 H     1 <1>   0.1000 
 38 H       -8.1510     5.7770     0.3430 H     1 <1>   0.1000 
 39 H       -8.9810     3.4130     0.1430 H     1 <1>   0.1000 
 40 H       -8.5470     3.3950    -1.5950 H     1 <1>   0.1000 
 41 H      -10.0670    -0.9070     2.0920 H     1 <1>   0.0800 
 42 H       -8.4000    -0.5000     1.9020 H     1 <1>   0.0800 
 43 H      -11.2610     0.2110    -1.2090 H     1 <1>   0.0800 
 44 H      -11.7750    -0.2910     0.3650 H     1 <1>   0.0800 
 45 H       -9.3040    -3.2560    -1.0060 H     1 <1>   0.4500 
 46 H       -9.5190    -2.9870     1.3680 H     1 <1>   0.0800 
 47 H       -7.9350    -2.4530     0.8590 H     1 <1>   0.0800 
 48 H      -11.1810    -1.9780    -1.7970 H     1 <1>   0.0800 
 49 H      -11.4730    -2.4730    -0.1470 H     1 <1>   0.0800 
@<TRIPOS>BOND
  1   1   2  1   
  2   2   3  ar  
  3   2   4  ar  
  4   3   5  1   
  5   3   6  ar  
  6   4   7  ar  
  7   4  25  1   
  8   5  26  1   
  9   5  27  1   
 10   6   8  ar  
 11   6  28  1   
 12   7   8  ar  
 13   7   9  1   
 14   8  10  1   
 15   9  11  2   
 16   9  12  am  
 17  10  13  1   
 18  12  14  1   
 19  12  29  1   
 20  13  15  1   
 21  13  30  1   
 22  13  31  1   
 23  14  16  1   
 24  14  17  1   
 25  14  32  1   
 26  15  18  1   
 27  15  19  1   
 28  15  33  1   
 29  16  20  1   
 30  16  21  1   
 31  16  34  1   
 32  17  22  1   
 33  17  35  1   
 34  17  36  1   
 35  18  19  1   
 36  18  37  1   
 37  18  38  1   
 38  19  39  1   
 39  19  40  1   
 40  20  23  1   
 41  20  41  1   
 42  20  42  1   
 43  21  24  1   
 44  21  43  1   
 45  21  44  1   
 46  22  23  1   
 47  22  24  1   
 48  22  45  1   
 49  23  46  1   
 50  23  47  1   
 51  24  48  1   
 52  24  49  1   
@<TRIPOS>SUBSTRUCTURE
  1 ****  12 GROUP 4 **** **** 0

# MOE 2024.06 (io_trps.svl 2023.06)
