@<TRIPOS>MOLECULE
NONAME
57 59 1 0 0 
SMALL
USER_CHARGES


@<TRIPOS>ATOM
  1 S       -0.4080    -0.0470    -1.1460 S.3   1 <1>  -0.0800 
  2 C       -1.0750     1.5220    -1.5720 C.2   1 <1>   0.0600 
  3 C       -1.5070    -0.8820    -2.2330 C.2   1 <1>  -0.1400 
  4 C       -0.5340     2.6710    -0.9250 C.1   1 <1>  -0.0200 
  5 C       -2.0490     1.3620    -2.4920 C.2   1 <1>  -0.1500 
  6 C       -2.2940     0.0060    -2.8710 C.2   1 <1>  -0.1500 
  7 C       -1.4090    -2.3890    -2.2980 C.3   1 <1>   0.5230 
  8 C       -0.0850     3.6240    -0.3690 C.1   1 <1>  -0.2000 
  9 N       -2.2920    -2.9680    -1.2440 N.4   1 <1>  -0.9590 
 10 C        0.4770     4.8080     0.3350 C.3   1 <1>   0.4800 
 11 C       -2.7170    -4.3830    -1.5100 C.3   1 <1>   0.3430 
 12 C       -1.7700    -2.7180     0.1350 C.3   1 <1>   0.3430 
 13 O       -0.3830     5.1310     1.3490 O.3   1 <1>  -0.6800 
 14 C        0.5570     6.0130    -0.5940 C.3   1 <1>  -0.2400 
 15 C        1.8240     4.4820     0.9690 C.3   1 <1>  -0.2400 
 16 C       -3.7350    -4.9600    -0.4680 C.3   1 <1>   0.4230 
 17 C       -2.5310    -3.5220     1.2040 C.3   1 <1>  -0.1600 
 18 N       -5.0450    -5.5270    -1.0100 N.4   1 <1>  -0.9590 
 19 C       -3.9280    -4.0590     0.7890 C.3   1 <1>   0.0000 
 20 C       -6.0390    -5.8540     0.0730 C.3   1 <1>   0.3430 
 21 C       -5.7280    -4.6990    -2.0610 C.3   1 <1>   0.2630 
 22 C       -4.4610    -4.9820     1.9210 C.3   1 <1>  -0.1600 
 23 C       -4.9370    -2.8730     0.6470 C.3   1 <1>   0.1200 
 24 C       -5.3440    -6.1450     1.4090 C.3   1 <1>  -0.1600 
 25 O       -4.7920    -2.1590    -0.5370 O.3   1 <1>  -0.6800 
 26 H       -2.6130     2.1720    -2.9230 H     1 <1>   0.1500 
 27 H       -3.0510    -0.2180    -3.6050 H     1 <1>   0.1500 
 28 H       -0.3860    -2.7030    -2.1640 H     1 <1>   0.0800 
 29 H       -1.7420    -2.7110    -3.2720 H     1 <1>   0.0800 
 30 H       -3.1610    -2.3940    -1.2720 H     1 <1>   0.4500 
 31 H       -3.1440    -4.4500    -2.4950 H     1 <1>   0.0800 
 32 H       -1.8380    -5.0070    -1.4930 H     1 <1>   0.0800 
 33 H       -0.7200    -2.9590     0.1880 H     1 <1>   0.0800 
 34 H       -1.8720    -1.6670     0.3590 H     1 <1>   0.0800 
 35 H       -0.0370     5.9060     1.8220 H     1 <1>   0.4000 
 36 H        1.2100     5.7920    -1.4190 H     1 <1>   0.0800 
 37 H        0.9440     6.8710    -0.0750 H     1 <1>   0.0800 
 38 H       -0.4170     6.2410    -0.9880 H     1 <1>   0.0800 
 39 H        2.5260     4.2020     0.2040 H     1 <1>   0.0800 
 40 H        1.7210     3.6550     1.6490 H     1 <1>   0.0800 
 41 H        2.2160     5.3330     1.4950 H     1 <1>   0.0800 
 42 H       -3.2130    -5.8190    -0.0790 H     1 <1>   0.0800 
 43 H       -1.8970    -4.3480     1.4780 H     1 <1>   0.0800 
 44 H       -2.6170    -2.9110     2.0870 H     1 <1>   0.0800 
 45 H       -4.8190    -6.4350    -1.4460 H     1 <1>   0.4500 
 46 H       -6.7110    -5.0230     0.2130 H     1 <1>   0.0800 
 47 H       -6.6340    -6.7050    -0.2190 H     1 <1>   0.0800 
 48 H       -6.0540    -3.7580    -1.6510 H     1 <1>   0.0800 
 49 H       -6.5960    -5.2190    -2.4370 H     1 <1>   0.0800 
 50 H       -5.0680    -4.5060    -2.8900 H     1 <1>   0.0800 
 51 H       -3.6460    -5.4220     2.4730 H     1 <1>   0.0800 
 52 H       -5.0190    -4.4000     2.6370 H     1 <1>   0.0800 
 53 H       -4.8070    -2.1820     1.4650 H     1 <1>   0.0800 
 54 H       -5.9550    -3.2210     0.6830 H     1 <1>   0.0800 
 55 H       -6.0930    -6.3680     2.1510 H     1 <1>   0.0800 
 56 H       -4.7490    -7.0360     1.3000 H     1 <1>   0.0800 
 57 H       -5.3380    -1.3360    -0.4950 H     1 <1>   0.4000 
@<TRIPOS>BOND
  1   1   2  1   
  2   1   3  1   
  3   2   4  1   
  4   2   5  2   
  5   3   6  2   
  6   3   7  1   
  7   4   8  3   
  8   5   6  1   
  9   5  26  1   
 10   6  27  1   
 11   7   9  1   
 12   7  28  1   
 13   7  29  1   
 14   8  10  1   
 15   9  11  1   
 16   9  12  1   
 17   9  30  1   
 18  10  13  1   
 19  10  14  1   
 20  10  15  1   
 21  11  16  1   
 22  11  31  1   
 23  11  32  1   
 24  12  17  1   
 25  12  33  1   
 26  12  34  1   
 27  13  35  1   
 28  14  36  1   
 29  14  37  1   
 30  14  38  1   
 31  15  39  1   
 32  15  40  1   
 33  15  41  1   
 34  16  18  1   
 35  16  19  1   
 36  16  42  1   
 37  17  19  1   
 38  17  43  1   
 39  17  44  1   
 40  18  20  1   
 41  18  21  1   
 42  18  45  1   
 43  19  22  1   
 44  19  23  1   
 45  20  24  1   
 46  20  46  1   
 47  20  47  1   
 48  21  48  1   
 49  21  49  1   
 50  21  50  1   
 51  22  24  1   
 52  22  51  1   
 53  22  52  1   
 54  23  25  1   
 55  23  53  1   
 56  23  54  1   
 57  24  55  1   
 58  24  56  1   
 59  25  57  1   
@<TRIPOS>SUBSTRUCTURE
  1 ****  12 GROUP 4 **** **** 0

# MOE 2024.06 (io_trps.svl 2023.06)
