@<TRIPOS>MOLECULE
NONAME
48 49 1 0 0 
SMALL
USER_CHARGES


@<TRIPOS>ATOM
  1 O       -0.1390     0.4840    -0.9730 O.2   1 <1>  -0.5700 
  2 C       -1.0580     0.9250    -0.3210 C.2   1 <1>   0.5690 
  3 N       -2.0040     0.1090     0.2510 N.am  1 <1>  -0.6600 
  4 C       -1.1250     2.4350    -0.1330 C.3   1 <1>  -0.0990 
  5 C       -2.0090    -1.3550    -0.0580 C.3   1 <1>   0.2200 
  6 C       -3.0440     0.6080     1.2040 C.3   1 <1>   0.0600 
  7 C       -0.4060     3.2260    -1.2420 C.3   1 <1>  -0.0990 
  8 C       -3.4040    -1.8450    -0.4810 C.3   1 <1>  -0.1600 
  9 C       -1.4670    -2.1600     1.1310 C.3   1 <1>  -0.1600 
 10 C       -0.4500     4.7130    -0.9640 C.2   1 <1>   0.5690 
 11 C       -3.3800    -3.3470    -0.8020 C.3   1 <1>  -0.1600 
 12 C       -1.4520    -3.6640     0.8160 C.3   1 <1>  -0.1600 
 13 O       -1.5060     5.2850    -1.0940 O.2   1 <1>  -0.5700 
 14 N        0.7030     5.3170    -0.5630 N.am  1 <1>  -0.4930 
 15 C       -2.8400    -4.1570     0.3840 C.3   1 <1>  -0.1600 
 16 C        0.9290     6.6740    -0.2130 C.2   1 <1>   0.0630 
 17 C        2.1320     7.2440     0.2090 C.2   1 <1>   0.1080 
 18 C        0.0550     7.7000    -0.2050 C.2   1 <1>  -0.3020 
 19 N        2.0170     8.5110     0.4590 N.2   1 <1>  -0.7070 
 20 C        3.4450     6.5110     0.3720 C.3   1 <1>  -0.0590 
 21 N        0.7290     8.7940     0.2010 N.pl3 1 <1>   0.3140 
 22 C        0.1800    10.1440     0.3640 C.3   1 <1>   0.0160 
 23 H       -0.6860     2.6720     0.8180 H     1 <1>   0.0800 
 24 H       -2.1530     2.7480    -0.1200 H     1 <1>   0.0800 
 25 H       -1.3520    -1.5370    -0.8920 H     1 <1>   0.0800 
 26 H       -2.6800     1.4550     1.7570 H     1 <1>   0.0800 
 27 H       -3.3090    -0.1570     1.9110 H     1 <1>   0.0800 
 28 H       -3.9250     0.8950     0.6570 H     1 <1>   0.0800 
 29 H       -0.8880     3.0380    -2.1850 H     1 <1>   0.0800 
 30 H        0.6150     2.9030    -1.3250 H     1 <1>   0.0800 
 31 H       -3.7210    -1.2990    -1.3520 H     1 <1>   0.0800 
 32 H       -4.1150    -1.6810     0.3070 H     1 <1>   0.0800 
 33 H       -2.0760    -1.9960     2.0000 H     1 <1>   0.0800 
 34 H       -0.4650    -1.8340     1.3480 H     1 <1>   0.0800 
 35 H       -2.7560    -3.5180    -1.6640 H     1 <1>   0.0800 
 36 H       -4.3750    -3.6800    -1.0450 H     1 <1>   0.0800 
 37 H       -1.1260    -4.2110     1.6830 H     1 <1>   0.0800 
 38 H       -0.7460    -3.8530     0.0240 H     1 <1>   0.0800 
 39 H        1.5250     4.7210    -0.4970 H     1 <1>   0.3700 
 40 H       -2.7830    -5.1980     0.1130 H     1 <1>   0.0800 
 41 H       -3.5220    -4.0720     1.2140 H     1 <1>   0.0800 
 42 H       -0.9880     7.7030    -0.4610 H     1 <1>   0.1500 
 43 H        3.7200     6.0410    -0.5530 H     1 <1>   0.0800 
 44 H        3.3540     5.7680     1.1430 H     1 <1>   0.0800 
 45 H        4.2160     7.2060     0.6510 H     1 <1>   0.0800 
 46 H       -0.4270    10.3840    -0.4880 H     1 <1>   0.0800 
 47 H        0.9910    10.8450     0.4410 H     1 <1>   0.0800 
 48 H       -0.4110    10.1750     1.2590 H     1 <1>   0.0800 
@<TRIPOS>BOND
  1   1   2  2   
  2   2   3  am  
  3   2   4  1   
  4   3   5  1   
  5   3   6  1   
  6   4   7  1   
  7   4  23  1   
  8   4  24  1   
  9   5   8  1   
 10   5   9  1   
 11   5  25  1   
 12   6  26  1   
 13   6  27  1   
 14   6  28  1   
 15   7  10  1   
 16   7  29  1   
 17   7  30  1   
 18   8  11  1   
 19   8  31  1   
 20   8  32  1   
 21   9  12  1   
 22   9  33  1   
 23   9  34  1   
 24  10  13  2   
 25  10  14  am  
 26  11  15  1   
 27  11  35  1   
 28  11  36  1   
 29  12  15  1   
 30  12  37  1   
 31  12  38  1   
 32  14  16  1   
 33  14  39  1   
 34  15  40  1   
 35  15  41  1   
 36  16  17  1   
 37  16  18  2   
 38  17  19  2   
 39  17  20  1   
 40  18  21  1   
 41  18  42  1   
 42  19  21  1   
 43  20  43  1   
 44  20  44  1   
 45  20  45  1   
 46  21  22  1   
 47  22  46  1   
 48  22  47  1   
 49  22  48  1   
@<TRIPOS>SUBSTRUCTURE
  1 ****   4 GROUP 4 **** **** 0

# MOE 2024.06 (io_trps.svl 2023.06)
