@<TRIPOS>MOLECULE
NONAME
56 59 1 0 0 
SMALL
USER_CHARGES


@<TRIPOS>ATOM
  1 O       -1.0120     0.3220    -0.0570 O.2   1 <1>  -0.5700 
  2 C       -1.9160     1.1090    -0.1850 C.2   1 <1>   0.5690 
  3 N       -3.0710     0.7360    -0.8290 N.am  1 <1>  -0.6600 
  4 C       -1.7300     2.5030     0.4010 C.3   1 <1>   0.0690 
  5 C       -4.4190     1.3710    -0.6390 C.3   1 <1>   0.1400 
  6 C       -3.1070    -0.5200    -1.6450 C.3   1 <1>   0.1400 
  7 C       -0.3320     3.0800     0.1860 C.2   1 <1>   0.1820 
  8 C       -5.5740     0.3370    -0.5060 C.3   1 <1>   0.4230 
  9 C       -4.0160    -1.5920    -1.0080 C.3   1 <1>   0.3430 
 10 N        0.0170     4.3330     0.6670 N.pl3 1 <1>  -0.6290 
 11 C        0.7500     2.5690    -0.4450 C.2   1 <1>   0.2000 
 12 N       -5.0830    -1.0340    -0.0860 N.4   1 <1>  -0.9590 
 13 C       -6.4250     0.2310    -1.7920 C.3   1 <1>   0.1200 
 14 C        1.3100     4.5530     0.3150 C.cat 1 <1>   0.7910 
 15 C       -0.6660     5.2900     1.3880 C.2   1 <1>   0.2290 
 16 N        1.7600     3.4870    -0.3640 N.pl3 1 <1>  -0.7000 
 17 C       -6.2660    -1.9490     0.0740 C.3   1 <1>   0.4230 
 18 O       -7.4880    -0.6550    -1.5870 O.3   1 <1>  -0.5600 
 19 C        1.9750     5.7500     0.6630 C.2   1 <1>  -0.1290 
 20 C       -0.0490     6.4550     1.7390 C.2   1 <1>  -0.1500 
 21 C       -7.1360    -1.9600    -1.2100 C.3   1 <1>   0.1200 
 22 C       -5.8110    -3.3540     0.5040 C.3   1 <1>  -0.1600 
 23 C        1.2900     6.6980     1.3750 C.2   1 <1>  -0.1500 
 24 C        3.4260     5.9780     0.2550 C.3   1 <1>  -0.1020 
 25 C       -6.9760    -4.2150     1.0170 C.3   1 <1>  -0.1600 
 26 C       -6.4720    -5.5730     1.5120 C.3   1 <1>  -0.2400 
 27 H       -2.4360     3.1780    -0.0420 H     1 <1>   0.0800 
 28 H       -1.9230     2.4480     1.4560 H     1 <1>   0.0800 
 29 H       -4.4120     1.9650     0.2580 H     1 <1>   0.0800 
 30 H       -4.6200     2.0390    -1.4600 H     1 <1>   0.0800 
 31 H       -3.4750    -0.2850    -2.6280 H     1 <1>   0.0800 
 32 H       -2.1190    -0.9290    -1.7760 H     1 <1>   0.0800 
 33 H       -6.2410     0.7120     0.2530 H     1 <1>   0.0800 
 34 H       -3.3950    -2.2770    -0.4520 H     1 <1>   0.0800 
 35 H       -4.4730    -2.1560    -1.8030 H     1 <1>   0.0800 
 36 H        0.8700     1.6190    -0.9430 H     1 <1>   0.1500 
 37 H       -4.6390    -0.9240     0.8340 H     1 <1>   0.4500 
 38 H       -5.8470    -0.1090    -2.6330 H     1 <1>   0.0800 
 39 H       -6.8520     1.1890    -2.0360 H     1 <1>   0.0800 
 40 H       -1.6890     5.0960     1.6660 H     1 <1>   0.1500 
 41 H        2.7070     3.3910    -0.7360 H     1 <1>   0.4500 
 42 H       -6.8870    -1.5610     0.8660 H     1 <1>   0.0800 
 43 H       -0.5740     7.2100     2.3010 H     1 <1>   0.1500 
 44 H       -8.0520    -2.4950    -1.0340 H     1 <1>   0.0800 
 45 H       -6.6240    -2.4300    -2.0300 H     1 <1>   0.0800 
 46 H       -5.3460    -3.8680    -0.3200 H     1 <1>   0.0800 
 47 H       -5.0930    -3.2620     1.3000 H     1 <1>   0.0800 
 48 H        1.7460     7.6310     1.6690 H     1 <1>   0.1500 
 49 H        4.0590     5.2190     0.6810 H     1 <1>   0.0800 
 50 H        3.7750     6.9360     0.6000 H     1 <1>   0.0800 
 51 H        3.5220     5.9540    -0.8170 H     1 <1>   0.0800 
 52 H       -7.4760    -3.7140     1.8310 H     1 <1>   0.0800 
 53 H       -7.6980    -4.3840     0.2360 H     1 <1>   0.0800 
 54 H       -5.7740    -5.4520     2.3220 H     1 <1>   0.0800 
 55 H       -5.9900    -6.1150     0.7170 H     1 <1>   0.0800 
 56 H       -7.2990    -6.1640     1.8680 H     1 <1>   0.0800 
@<TRIPOS>BOND
  1   1   2  2   
  2   2   3  am  
  3   2   4  1   
  4   3   5  1   
  5   3   6  1   
  6   4   7  1   
  7   4  27  1   
  8   4  28  1   
  9   5   8  1   
 10   5  29  1   
 11   5  30  1   
 12   6   9  1   
 13   6  31  1   
 14   6  32  1   
 15   7  10  1   
 16   7  11  2   
 17   8  12  1   
 18   8  13  1   
 19   8  33  1   
 20   9  12  1   
 21   9  34  1   
 22   9  35  1   
 23  10  14  ar  
 24  10  15  1   
 25  11  16  1   
 26  11  36  1   
 27  12  17  1   
 28  12  37  1   
 29  13  18  1   
 30  13  38  1   
 31  13  39  1   
 32  14  16  ar  
 33  14  19  1   
 34  15  20  2   
 35  15  40  1   
 36  16  41  1   
 37  17  21  1   
 38  17  22  1   
 39  17  42  1   
 40  18  21  1   
 41  19  23  2   
 42  19  24  1   
 43  20  23  1   
 44  20  43  1   
 45  21  44  1   
 46  21  45  1   
 47  22  25  1   
 48  22  46  1   
 49  22  47  1   
 50  23  48  1   
 51  24  49  1   
 52  24  50  1   
 53  24  51  1   
 54  25  26  1   
 55  25  52  1   
 56  25  53  1   
 57  26  54  1   
 58  26  55  1   
 59  26  56  1   
@<TRIPOS>SUBSTRUCTURE
  1 ****   2 GROUP 4 **** **** 0

# MOE 2024.06 (io_trps.svl 2023.06)
