@<TRIPOS>MOLECULE
NONAME
50 53 1 0 0 
SMALL
USER_CHARGES


@<TRIPOS>ATOM
  1 CL      -1.9360    -0.8780     3.2350 Cl    1 <1>  -0.1770 
  2 C       -2.6680     0.0840     1.9750 C.ar  1 <1>   0.1770 
  3 C       -3.6540    -0.4730     1.1870 C.ar  1 <1>  -0.1500 
  4 C       -2.2450     1.3860     1.7900 C.ar  1 <1>  -0.1500 
  5 C       -4.2490     0.2830     0.1830 C.ar  1 <1>   0.1170 
  6 C       -2.8230     2.1490     0.7900 C.ar  1 <1>  -0.1500 
  7 N       -5.2610    -0.2140    -0.6550 N.am  1 <1>  -0.5470 
  8 C       -3.8210     1.6030    -0.0150 C.ar  1 <1>   0.0830 
  9 C       -6.0520    -1.3140    -0.6120 C.2   1 <1>   0.6900 
 10 O       -4.4260     2.3060    -1.0210 O.3   1 <1>  -0.3630 
 11 O       -5.9590    -2.1770     0.2440 O.2   1 <1>  -0.5700 
 12 N       -7.0580    -1.4170    -1.5250 N.am  1 <1>  -0.6600 
 13 C       -4.0210     3.6200    -1.3420 C.3   1 <1>   0.0400 
 14 C       -8.3660    -0.8090    -1.1310 C.3   1 <1>   0.1400 
 15 C       -7.2290    -2.7410    -2.2080 C.3   1 <1>   0.1400 
 16 C       -9.1500    -1.7330    -0.1550 C.3   1 <1>   0.4230 
 17 C       -8.2530    -3.6490    -1.4820 C.3   1 <1>   0.3430 
 18 N       -8.5660    -3.1280    -0.1060 N.4   1 <1>  -0.9590 
 19 C      -10.6550    -1.7740    -0.5050 C.3   1 <1>   0.1200 
 20 C       -9.3820    -4.0240     0.7680 C.3   1 <1>   0.5180 
 21 O      -11.3400    -2.6410     0.3540 O.3   1 <1>  -0.5600 
 22 C       -8.7700    -5.4380     0.7680 C.3   1 <1>  -0.1950 
 23 C      -10.8760    -3.9660     0.3650 C.3   1 <1>   0.1200 
 24 C       -9.1040    -6.5200    -0.2190 C.3   1 <1>  -0.2000 
 25 C       -9.5250    -6.6530     1.2170 C.3   1 <1>  -0.2000 
 26 H       -3.9400    -1.4910     1.3670 H     1 <1>   0.1500 
 27 H       -1.4740     1.7910     2.4220 H     1 <1>   0.1500 
 28 H       -2.4820     3.1580     0.6590 H     1 <1>   0.1500 
 29 H       -5.4730     0.4200    -1.4260 H     1 <1>   0.3700 
 30 H       -4.6120     3.9590    -2.1740 H     1 <1>   0.0800 
 31 H       -2.9810     3.6090    -1.6160 H     1 <1>   0.0800 
 32 H       -4.1910     4.2570    -0.4920 H     1 <1>   0.0800 
 33 H       -8.1980     0.1430    -0.6560 H     1 <1>   0.0800 
 34 H       -8.9450    -0.6250    -2.0200 H     1 <1>   0.0800 
 35 H       -7.5370    -2.5860    -3.2280 H     1 <1>   0.0800 
 36 H       -6.2780    -3.2470    -2.2380 H     1 <1>   0.0800 
 37 H       -9.0690    -1.2990     0.8280 H     1 <1>   0.0800 
 38 H       -7.8400    -4.6420    -1.4210 H     1 <1>   0.0800 
 39 H       -9.1560    -3.7060    -2.0650 H     1 <1>   0.0800 
 40 H       -7.6310    -3.0070     0.3350 H     1 <1>   0.4500 
 41 H      -10.8140    -2.1010    -1.5180 H     1 <1>   0.0800 
 42 H      -11.0890    -0.7960    -0.3900 H     1 <1>   0.0800 
 43 H       -9.3220    -3.6540     1.7790 H     1 <1>   0.0800 
 44 H       -7.7520    -5.4000     1.1210 H     1 <1>   0.1000 
 45 H      -11.4710    -4.5060     1.0790 H     1 <1>   0.0800 
 46 H      -11.0370    -4.3940    -0.6080 H     1 <1>   0.0800 
 47 H       -9.8860    -6.4020    -0.9490 H     1 <1>   0.1000 
 48 H       -8.3200    -7.1720    -0.5700 H     1 <1>   0.1000 
 49 H       -9.0190    -7.3800     1.8320 H     1 <1>   0.1000 
 50 H      -10.5790    -6.6110     1.4370 H     1 <1>   0.1000 
@<TRIPOS>BOND
  1   1   2  1   
  2   2   3  ar  
  3   2   4  ar  
  4   3   5  ar  
  5   3  26  1   
  6   4   6  ar  
  7   4  27  1   
  8   5   7  1   
  9   5   8  ar  
 10   6   8  ar  
 11   6  28  1   
 12   7   9  am  
 13   7  29  1   
 14   8  10  1   
 15   9  11  2   
 16   9  12  am  
 17  10  13  1   
 18  12  14  1   
 19  12  15  1   
 20  13  30  1   
 21  13  31  1   
 22  13  32  1   
 23  14  16  1   
 24  14  33  1   
 25  14  34  1   
 26  15  17  1   
 27  15  35  1   
 28  15  36  1   
 29  16  18  1   
 30  16  19  1   
 31  16  37  1   
 32  17  18  1   
 33  17  38  1   
 34  17  39  1   
 35  18  20  1   
 36  18  40  1   
 37  19  21  1   
 38  19  41  1   
 39  19  42  1   
 40  20  22  1   
 41  20  23  1   
 42  20  43  1   
 43  21  23  1   
 44  22  24  1   
 45  22  25  1   
 46  22  44  1   
 47  23  45  1   
 48  23  46  1   
 49  24  25  1   
 50  24  47  1   
 51  24  48  1   
 52  25  49  1   
 53  25  50  1   
@<TRIPOS>SUBSTRUCTURE
  1 ****   9 GROUP 4 **** **** 0

# MOE 2024.06 (io_trps.svl 2023.06)
