@<TRIPOS>MOLECULE
NONAME
48 51 1 0 0 
SMALL
USER_CHARGES


@<TRIPOS>ATOM
  1 O       -1.2720     0.2660    -0.6610 O.co2 1 <1>  -0.9000 
  2 C       -2.1900     0.1990     0.1600 C.2   1 <1>   0.9060 
  3 O       -2.0390     0.3590     1.3750 O.co2 1 <1>  -0.9000 
  4 C       -3.5370    -0.3470    -0.3130 C.3   1 <1>   0.2370 
  5 N       -3.6140    -1.8670    -0.3050 N.4   1 <1>  -0.9590 
  6 C       -3.3030    -2.4150     1.0710 C.3   1 <1>   0.4230 
  7 C       -2.7810    -2.4280    -1.4000 C.3   1 <1>   0.3430 
  8 C       -1.8220    -2.7970     1.3240 C.3   1 <1>   0.1200 
  9 C       -4.2440    -3.6270     1.3070 C.3   1 <1>   0.2090 
 10 C       -2.5770    -3.9480    -1.2990 C.3   1 <1>  -0.0800 
 11 O       -1.5410    -4.1010     0.8930 O.3   1 <1>  -0.5600 
 12 N       -4.8210    -4.1590     0.0110 N.pl3 1 <1>  -0.8380 
 13 C       -1.3240    -4.2640    -0.4660 C.3   1 <1>   0.1200 
 14 C       -3.8160    -4.8000    -0.9170 C.3   1 <1>   0.2090 
 15 C       -6.1100    -4.6830     0.0370 C.ar  1 <1>   0.4100 
 16 N       -6.2960    -5.9320    -0.4060 N.ar  1 <1>  -0.3100 
 17 C       -7.1710    -3.9290     0.5070 C.ar  1 <1>  -0.1500 
 18 N       -7.4860    -6.4780    -0.3990 N.ar  1 <1>  -0.3100 
 19 C       -8.4180    -4.5020     0.5180 C.ar  1 <1>  -0.1500 
 20 C       -8.5500    -5.8010     0.0510 C.ar  1 <1>   0.3100 
 21 C       -9.8400    -6.4560     0.0460 C.ar  1 <1>   0.0000 
 22 C      -10.9840    -5.8130    -0.4300 C.ar  1 <1>  -0.1500 
 23 C       -9.9850    -7.7590     0.5230 C.ar  1 <1>  -0.1500 
 24 C      -12.2180    -6.4380    -0.4180 C.ar  1 <1>  -0.1500 
 25 C      -11.2160    -8.3890     0.5370 C.ar  1 <1>  -0.1500 
 26 C      -12.3370    -7.7280     0.0680 C.ar  1 <1>  -0.1500 
 27 H       -3.7090     0.0270    -1.3050 H     1 <1>   0.0800 
 28 H       -4.2870     0.0590     0.3410 H     1 <1>   0.0800 
 29 H       -4.5650    -2.2280    -0.4850 H     1 <1>   0.4500 
 30 H       -3.5460    -1.6560     1.7970 H     1 <1>   0.0800 
 31 H       -3.2550    -2.2020    -2.3400 H     1 <1>   0.0800 
 32 H       -1.8160    -1.9430    -1.4020 H     1 <1>   0.0800 
 33 H       -1.6470    -2.7840     2.3850 H     1 <1>   0.0800 
 34 H       -1.1320    -2.1030     0.8760 H     1 <1>   0.0800 
 35 H       -5.0380    -3.3080     1.9560 H     1 <1>   0.0800 
 36 H       -3.7320    -4.4190     1.8270 H     1 <1>   0.0800 
 37 H       -2.3070    -4.2600    -2.2920 H     1 <1>   0.0800 
 38 H       -0.4920    -3.6410    -0.7550 H     1 <1>   0.0800 
 39 H       -1.0370    -5.2910    -0.6140 H     1 <1>   0.0800 
 40 H       -3.4890    -5.7310    -0.4820 H     1 <1>   0.0800 
 41 H       -4.3300    -5.0510    -1.8310 H     1 <1>   0.0800 
 42 H       -7.0230    -2.9240     0.8490 H     1 <1>   0.1500 
 43 H       -9.2750    -3.9670     0.8830 H     1 <1>   0.1500 
 44 H      -10.9090    -4.8150    -0.8210 H     1 <1>   0.1500 
 45 H       -9.1180    -8.2820     0.8870 H     1 <1>   0.1500 
 46 H      -13.0870    -5.9240    -0.7890 H     1 <1>   0.1500 
 47 H      -11.3010    -9.3940     0.9110 H     1 <1>   0.1500 
 48 H      -13.2960    -8.2170     0.0770 H     1 <1>   0.1500 
@<TRIPOS>BOND
  1   1   2  ar  
  2   2   3  ar  
  3   2   4  1   
  4   4   5  1   
  5   4  27  1   
  6   4  28  1   
  7   5   6  1   
  8   5   7  1   
  9   5  29  1   
 10   6   8  1   
 11   6   9  1   
 12   6  30  1   
 13   7  10  1   
 14   7  31  1   
 15   7  32  1   
 16   8  11  1   
 17   8  33  1   
 18   8  34  1   
 19   9  12  1   
 20   9  35  1   
 21   9  36  1   
 22  10  13  1   
 23  10  14  1   
 24  10  37  1   
 25  11  13  1   
 26  12  14  1   
 27  12  15  1   
 28  13  38  1   
 29  13  39  1   
 30  14  40  1   
 31  14  41  1   
 32  15  16  ar  
 33  15  17  ar  
 34  16  18  ar  
 35  17  19  ar  
 36  17  42  1   
 37  18  20  ar  
 38  19  20  ar  
 39  19  43  1   
 40  20  21  1   
 41  21  22  ar  
 42  21  23  ar  
 43  22  24  ar  
 44  22  44  1   
 45  23  25  ar  
 46  23  45  1   
 47  24  26  ar  
 48  24  46  1   
 49  25  26  ar  
 50  25  47  1   
 51  26  48  1   
@<TRIPOS>SUBSTRUCTURE
  1 ****  15 GROUP 4 **** **** 0

# MOE 2024.06 (io_trps.svl 2023.06)
