@<TRIPOS>MOLECULE
NONAME
49 52 1 0 0 
SMALL
USER_CHARGES


@<TRIPOS>ATOM
  1 F       -1.7830    -0.4380    -2.0070 F     1 <1>  -0.1900 
  2 C       -2.7610    -0.8400    -1.2360 C.ar  1 <1>   0.1900 
  3 C       -3.7880    -1.5680    -1.7870 C.ar  1 <1>  -0.1500 
  4 C       -2.7040    -0.5020     0.1200 C.ar  1 <1>  -0.1500 
  5 C       -4.8110    -1.9800    -0.9370 C.ar  1 <1>   0.2270 
  6 C       -3.7180    -0.9110     0.9580 C.ar  1 <1>  -0.1500 
  7 N       -5.9320    -2.7020    -1.2190 N.2   1 <1>  -0.5650 
  8 C       -4.7700    -1.6540     0.4100 C.ar  1 <1>  -0.1520 
  9 C       -6.5380    -2.8040    -0.0850 C.2   1 <1>   0.0060 
 10 N       -5.8940    -2.1960     0.9410 N.pl3 1 <1>   0.0330 
 11 C       -7.8520    -3.5300     0.1280 C.3   1 <1>   0.3000 
 12 O       -8.4170    -3.1280     1.3450 O.3   1 <1>  -0.5600 
 13 C       -9.7020    -3.6420     1.6090 C.3   1 <1>   0.1810 
 14 C       -9.7470    -5.1720     1.7180 C.2   1 <1>   0.5690 
 15 O       -9.4720    -5.6760     2.7810 O.2   1 <1>  -0.5700 
 16 N      -10.0910    -5.9550     0.6440 N.am  1 <1>  -0.6600 
 17 C      -10.5930    -5.5210    -0.6880 C.3   1 <1>   0.1400 
 18 C      -10.1080    -7.4380     0.7340 C.3   1 <1>   0.1400 
 19 C      -11.3450    -6.7370    -1.2230 C.3   1 <1>   0.2000 
 20 C      -10.5690    -7.9260    -0.6450 C.3   1 <1>  -0.0800 
 21 O      -12.6270    -6.7150    -0.6930 O.3   1 <1>  -0.6800 
 22 C      -11.3490    -9.2550    -0.6110 C.3   1 <1>   0.0200 
 23 C      -10.5020   -10.4330    -0.1610 C.2   1 <1>  -0.0400 
 24 O      -11.0900   -11.5810     0.0470 O.3   1 <1>  -0.0190 
 25 C       -9.1920   -10.5970     0.0900 C.2   1 <1>  -0.1500 
 26 N      -10.2500   -12.4990     0.4270 N.2   1 <1>  -0.4100 
 27 C       -9.0980   -11.9350     0.4630 C.2   1 <1>   0.1080 
 28 C       -7.8180   -12.6380     0.8580 C.3   1 <1>  -0.0590 
 29 H       -3.8200    -1.8210    -2.8290 H     1 <1>   0.1500 
 30 H       -1.8710     0.0700     0.4840 H     1 <1>   0.1500 
 31 H       -3.7110    -0.6720     2.0080 H     1 <1>   0.1500 
 32 H       -6.2340    -2.1520     1.9060 H     1 <1>   0.2700 
 33 H       -7.6710    -4.5910     0.1570 H     1 <1>   0.0800 
 34 H       -8.5280    -3.2890    -0.6720 H     1 <1>   0.0800 
 35 H      -10.0150    -3.2300     2.5510 H     1 <1>   0.0800 
 36 H      -10.3750    -3.2840     0.8530 H     1 <1>   0.0800 
 37 H      -11.2360    -4.6600    -0.6270 H     1 <1>   0.0800 
 38 H       -9.7550    -5.3070    -1.3280 H     1 <1>   0.0800 
 39 H       -9.1300    -7.8110     0.9850 H     1 <1>   0.0800 
 40 H      -10.8030    -7.7360     1.5020 H     1 <1>   0.0800 
 41 H      -11.4190    -6.7520    -2.2970 H     1 <1>   0.0800 
 42 H       -9.6920    -8.0640    -1.2540 H     1 <1>   0.0800 
 43 H      -12.5720    -6.6140     0.2780 H     1 <1>   0.4000 
 44 H      -11.7340    -9.4690    -1.5920 H     1 <1>   0.0800 
 45 H      -12.1900    -9.1710     0.0560 H     1 <1>   0.0800 
 46 H       -8.3760    -9.9020     0.0330 H     1 <1>   0.1500 
 47 H       -7.3850   -12.1550     1.7130 H     1 <1>   0.0800 
 48 H       -7.1200   -12.6120     0.0420 H     1 <1>   0.0800 
 49 H       -8.0260   -13.6640     1.1050 H     1 <1>   0.0800 
@<TRIPOS>BOND
  1   1   2  1   
  2   2   3  ar  
  3   2   4  ar  
  4   3   5  ar  
  5   3  29  1   
  6   4   6  ar  
  7   4  30  1   
  8   5   7  1   
  9   5   8  ar  
 10   6   8  ar  
 11   6  31  1   
 12   7   9  2   
 13   8  10  1   
 14   9  10  1   
 15   9  11  1   
 16  10  32  1   
 17  11  12  1   
 18  11  33  1   
 19  11  34  1   
 20  12  13  1   
 21  13  14  1   
 22  13  35  1   
 23  13  36  1   
 24  14  15  2   
 25  14  16  am  
 26  16  17  1   
 27  16  18  1   
 28  17  19  1   
 29  17  37  1   
 30  17  38  1   
 31  18  20  1   
 32  18  39  1   
 33  18  40  1   
 34  19  20  1   
 35  19  21  1   
 36  19  41  1   
 37  20  22  1   
 38  20  42  1   
 39  21  43  1   
 40  22  23  1   
 41  22  44  1   
 42  22  45  1   
 43  23  24  1   
 44  23  25  2   
 45  24  26  1   
 46  25  27  1   
 47  25  46  1   
 48  26  27  2   
 49  27  28  1   
 50  28  47  1   
 51  28  48  1   
 52  28  49  1   
@<TRIPOS>SUBSTRUCTURE
  1 ****  11 GROUP 4 **** **** 0

# MOE 2024.06 (io_trps.svl 2023.06)
