@<TRIPOS>MOLECULE
NONAME
51 54 1 0 0 
SMALL
USER_CHARGES


@<TRIPOS>ATOM
  1 S        0.0620     1.1180    -2.7060 S.3   1 <1>  -0.0800 
  2 C        0.0300     2.2830    -1.4000 C.2   1 <1>  -0.1400 
  3 C        1.7950     1.3460    -2.8920 C.2   1 <1>  -0.1100 
  4 C        1.2470     2.7770    -1.1400 C.2   1 <1>  -0.1810 
  5 C       -1.2360     2.6620    -0.6810 C.3   1 <1>   0.0200 
  6 C        2.2630     2.2440    -2.0030 C.2   1 <1>  -0.1500 
  7 C        1.4600     3.8020    -0.0220 C.3   1 <1>   0.4610 
  8 C       -0.9630     3.9850     0.0520 C.3   1 <1>   0.1200 
  9 O        0.2700     3.9460     0.7340 O.3   1 <1>  -0.5600 
 10 C        2.5250     3.3060     0.9620 C.3   1 <1>  -0.1600 
 11 C        1.8580     5.1710    -0.5930 C.3   1 <1>  -0.1600 
 12 C        2.8220     4.3450     2.0440 C.3   1 <1>   0.1400 
 13 C        2.1570     6.1760     0.5210 C.3   1 <1>   0.1400 
 14 N        3.2320     5.6250     1.3930 N.am  1 <1>  -0.6600 
 15 C        4.4920     6.1460     1.6060 C.2   1 <1>   0.5690 
 16 O        5.2870     5.5670     2.3100 O.2   1 <1>  -0.5700 
 17 C        4.9950     7.4630     0.9970 C.3   1 <1>  -0.0190 
 18 C        4.2390     8.7100     1.5070 C.3   1 <1>  -0.1600 
 19 C        5.1310     7.4280    -0.5420 C.3   1 <1>  -0.1600 
 20 C        4.7940     9.9950     0.8900 C.3   1 <1>   0.1400 
 21 C        5.6500     8.7580    -1.0920 C.3   1 <1>   0.1400 
 22 N        4.7880     9.8630    -0.5920 N.am  1 <1>  -0.6600 
 23 C        4.0490    10.6310    -1.4550 C.2   1 <1>   0.5690 
 24 O        4.0450    10.4390    -2.6470 O.2   1 <1>  -0.5700 
 25 C        3.1890    11.7610    -0.9380 C.3   1 <1>  -0.1790 
 26 H        2.2870     0.7750    -3.6590 H     1 <1>   0.1500 
 27 H       -1.5030     1.8940     0.0220 H     1 <1>   0.0800 
 28 H       -2.0420     2.7910    -1.3800 H     1 <1>   0.0800 
 29 H        3.2900     2.5540    -1.9170 H     1 <1>   0.1500 
 30 H       -1.7340     4.1730     0.7780 H     1 <1>   0.0800 
 31 H       -0.9410     4.8020    -0.6460 H     1 <1>   0.0800 
 32 H        3.4380     3.0930     0.4390 H     1 <1>   0.0800 
 33 H        2.1880     2.3910     1.4150 H     1 <1>   0.0800 
 34 H        1.0830     5.5450    -1.2330 H     1 <1>   0.0800 
 35 H        2.7390     5.0570    -1.1970 H     1 <1>   0.0800 
 36 H        3.5930     3.9740     2.6960 H     1 <1>   0.0800 
 37 H        1.9430     4.5180     2.6410 H     1 <1>   0.0800 
 38 H        1.2730     6.3350     1.1150 H     1 <1>   0.0800 
 39 H        2.4310     7.1150     0.0880 H     1 <1>   0.0800 
 40 H        6.0020     7.5770     1.3630 H     1 <1>   0.0800 
 41 H        4.3350     8.7640     2.5770 H     1 <1>   0.0800 
 42 H        3.1910     8.6540     1.2860 H     1 <1>   0.0800 
 43 H        4.1960     7.2160    -1.0210 H     1 <1>   0.0800 
 44 H        5.8140     6.6440    -0.8190 H     1 <1>   0.0800 
 45 H        5.8070    10.1520     1.2210 H     1 <1>   0.0800 
 46 H        4.2080    10.8360     1.2150 H     1 <1>   0.0800 
 47 H        5.6520     8.7290    -2.1690 H     1 <1>   0.0800 
 48 H        6.6610     8.9250    -0.7640 H     1 <1>   0.0800 
 49 H        3.8020    12.4820    -0.4310 H     1 <1>   0.0800 
 50 H        2.4430    11.3760    -0.2690 H     1 <1>   0.0800 
 51 H        2.6970    12.2470    -1.7600 H     1 <1>   0.0800 
@<TRIPOS>BOND
  1   1   2  1   
  2   1   3  1   
  3   2   4  2   
  4   2   5  1   
  5   3   6  2   
  6   3  26  1   
  7   4   6  1   
  8   4   7  1   
  9   5   8  1   
 10   5  27  1   
 11   5  28  1   
 12   6  29  1   
 13   7   9  1   
 14   7  10  1   
 15   7  11  1   
 16   8   9  1   
 17   8  30  1   
 18   8  31  1   
 19  10  12  1   
 20  10  32  1   
 21  10  33  1   
 22  11  13  1   
 23  11  34  1   
 24  11  35  1   
 25  12  14  1   
 26  12  36  1   
 27  12  37  1   
 28  13  14  1   
 29  13  38  1   
 30  13  39  1   
 31  14  15  am  
 32  15  16  2   
 33  15  17  1   
 34  17  18  1   
 35  17  19  1   
 36  17  40  1   
 37  18  20  1   
 38  18  41  1   
 39  18  42  1   
 40  19  21  1   
 41  19  43  1   
 42  19  44  1   
 43  20  22  1   
 44  20  45  1   
 45  20  46  1   
 46  21  22  1   
 47  21  47  1   
 48  21  48  1   
 49  22  23  am  
 50  23  24  2   
 51  23  25  1   
 52  25  49  1   
 53  25  50  1   
 54  25  51  1   
@<TRIPOS>SUBSTRUCTURE
  1 ****  13 GROUP 4 **** **** 0

# MOE 2024.06 (io_trps.svl 2023.06)
