@<TRIPOS>MOLECULE
NONAME
46 49 1 0 0 
SMALL
USER_CHARGES


@<TRIPOS>ATOM
  1 O       -0.1300     2.1350     0.7570 O.2   1 <1>  -0.5700 
  2 C        0.7580     2.8390     0.3570 C.2   1 <1>   0.4230 
  3 C        2.1230     2.4920     0.1150 C.ar  1 <1>   0.0860 
  4 C        0.5530     4.3010     0.0320 C.3   1 <1>  -0.0990 
  5 C        2.8530     3.5890    -0.3040 C.ar  1 <1>  -0.1440 
  6 C        2.7380     1.2540     0.2380 C.ar  1 <1>  -0.1500 
  7 C        1.9510     4.8150    -0.3730 C.3   1 <1>  -0.0160 
  8 C        4.2110     3.4970    -0.6200 C.ar  1 <1>   0.0860 
  9 C        4.0780     1.1280    -0.0750 C.ar  1 <1>  -0.1500 
 10 C        5.0180     4.6270    -1.0520 C.2   1 <1>   0.5440 
 11 C        4.7960     2.2330    -0.5010 C.ar  1 <1>  -0.1500 
 12 O        5.9250     4.4880    -1.8510 O.2   1 <1>  -0.5700 
 13 N        4.8860     5.8770    -0.5040 N.am  1 <1>  -0.6600 
 14 C        5.4370     6.0630     0.8850 C.3   1 <1>   0.2200 
 15 C        4.8370     7.0580    -1.4250 C.3   1 <1>   0.1400 
 16 C        4.8680     7.2990     1.6010 C.3   1 <1>   0.1200 
 17 C        6.9900     6.1030     0.8660 C.3   1 <1>   0.3430 
 18 C        5.8230     8.1950    -1.0920 C.3   1 <1>  -0.0800 
 19 O        5.6270     8.4320     1.3050 O.3   1 <1>  -0.5600 
 20 N        7.5550     6.3960    -0.4990 N.4   1 <1>  -0.9590 
 21 C        5.3480     9.0490     0.0940 C.3   1 <1>   0.1200 
 22 C        7.3090     7.7940    -0.9710 C.3   1 <1>   0.3430 
 23 C        8.9960     6.0300    -0.5920 C.3   1 <1>   0.2630 
 24 H       -0.1470     4.3940    -0.7780 H     1 <1>   0.0800 
 25 H        0.1780     4.8190     0.8960 H     1 <1>   0.0800 
 26 H        2.1600     0.4070     0.5690 H     1 <1>   0.1500 
 27 H        2.2810     5.5700     0.3170 H     1 <1>   0.0800 
 28 H        1.9340     5.2180    -1.3710 H     1 <1>   0.0800 
 29 H        4.5600     0.1680     0.0080 H     1 <1>   0.1500 
 30 H        5.8360     2.1110    -0.7540 H     1 <1>   0.1500 
 31 H        5.1370     5.2120     1.4710 H     1 <1>   0.0800 
 32 H        5.0280     6.7260    -2.4330 H     1 <1>   0.0800 
 33 H        3.8340     7.4500    -1.4180 H     1 <1>   0.0800 
 34 H        4.9440     7.1550     2.6650 H     1 <1>   0.0800 
 35 H        3.8330     7.4680     1.3580 H     1 <1>   0.0800 
 36 H        7.3440     5.1390     1.1890 H     1 <1>   0.0800 
 37 H        7.3410     6.8310     1.5780 H     1 <1>   0.0800 
 38 H        5.7750     8.8660    -1.9320 H     1 <1>   0.0800 
 39 H        7.0170     5.7710    -1.1430 H     1 <1>   0.4500 
 40 H        4.2920     9.2580     0.0400 H     1 <1>   0.0800 
 41 H        5.8720     9.9900     0.0980 H     1 <1>   0.0800 
 42 H        7.8040     8.4890    -0.3110 H     1 <1>   0.0800 
 43 H        7.7570     7.9000    -1.9460 H     1 <1>   0.0800 
 44 H        9.5820     6.6440     0.0720 H     1 <1>   0.0800 
 45 H        9.3500     6.1700    -1.6000 H     1 <1>   0.0800 
 46 H        9.1350     4.9950    -0.3240 H     1 <1>   0.0800 
@<TRIPOS>BOND
  1   1   2  2   
  2   2   3  1   
  3   2   4  1   
  4   3   5  ar  
  5   3   6  ar  
  6   4   7  1   
  7   4  24  1   
  8   4  25  1   
  9   5   7  1   
 10   5   8  ar  
 11   6   9  ar  
 12   6  26  1   
 13   7  27  1   
 14   7  28  1   
 15   8  10  1   
 16   8  11  ar  
 17   9  11  ar  
 18   9  29  1   
 19  10  12  2   
 20  10  13  am  
 21  11  30  1   
 22  13  14  1   
 23  13  15  1   
 24  14  16  1   
 25  14  17  1   
 26  14  31  1   
 27  15  18  1   
 28  15  32  1   
 29  15  33  1   
 30  16  19  1   
 31  16  34  1   
 32  16  35  1   
 33  17  20  1   
 34  17  36  1   
 35  17  37  1   
 36  18  21  1   
 37  18  22  1   
 38  18  38  1   
 39  19  21  1   
 40  20  22  1   
 41  20  23  1   
 42  20  39  1   
 43  21  40  1   
 44  21  41  1   
 45  22  42  1   
 46  22  43  1   
 47  23  44  1   
 48  23  45  1   
 49  23  46  1   
@<TRIPOS>SUBSTRUCTURE
  1 ****  13 GROUP 4 **** **** 0

# MOE 2024.06 (io_trps.svl 2023.06)
