@<TRIPOS>MOLECULE
NONAME
55 57 1 0 0 
SMALL
USER_CHARGES


@<TRIPOS>ATOM
  1 O        1.8850    -0.2470     0.5900 O.2   1 <1>  -0.5700 
  2 C        2.7810    -0.8610     1.1300 C.2   1 <1>   0.5690 
  3 N        3.3460    -0.4280     2.3010 N.am  1 <1>  -0.6600 
  4 C        3.2420    -2.1380     0.4280 C.3   1 <1>  -0.0190 
  5 C        4.4360    -1.1350     3.0440 C.3   1 <1>   0.1400 
  6 C        3.0470     0.9320     2.8300 C.3   1 <1>   0.1400 
  7 C        3.4360    -1.8190    -1.0610 C.3   1 <1>   0.3430 
  8 C        2.2360    -3.2940     0.6640 C.3   1 <1>  -0.1600 
  9 C        5.8400    -0.8320     2.4830 C.3   1 <1>   0.1400 
 10 C        4.0220     1.9730     2.2570 C.3   1 <1>  -0.1600 
 11 N        2.1060    -1.8130    -1.7390 N.4   1 <1>  -0.9590 
 12 C        1.9440    -4.0710    -0.6310 C.3   1 <1>  -0.1600 
 13 N        5.9160     0.4520     1.7160 N.am  1 <1>  -0.6600 
 14 C        5.5110     1.6660     2.4820 C.3   1 <1>   0.1400 
 15 C        1.4510    -3.1600    -1.7690 C.3   1 <1>   0.3430 
 16 C        2.1690    -1.1730    -3.0810 C.3   1 <1>   0.2630 
 17 C        6.1440     0.4510     0.3640 C.2   1 <1>   0.5690 
 18 O        6.0280    -0.5600    -0.2950 O.2   1 <1>  -0.5700 
 19 C        6.5270     1.7420    -0.3450 C.3   1 <1>  -0.0990 
 20 C        7.1940     1.5170    -1.7090 C.3   1 <1>   0.0210 
 21 C        7.6410     2.8390    -2.3030 C.2   1 <1>  -0.1810 
 22 C        6.8280     3.8430    -2.8230 C.2   1 <1>   0.1390 
 23 C        8.8970     3.3090    -2.4490 C.2   1 <1>  -0.3020 
 24 N        7.5120     4.8570    -3.2540 N.2   1 <1>  -0.7070 
 25 N        8.7960     4.5240    -3.0240 N.pl3 1 <1>   0.3000 
 26 H        4.2060    -2.4320     0.7900 H     1 <1>   0.0800 
 27 H        4.2640    -2.1960     3.0340 H     1 <1>   0.0800 
 28 H        4.4090    -0.8350     4.0770 H     1 <1>   0.0800 
 29 H        3.1060     0.9250     3.9040 H     1 <1>   0.0800 
 30 H        2.0390     1.2100     2.5680 H     1 <1>   0.0800 
 31 H        4.0770    -2.5560    -1.5140 H     1 <1>   0.0800 
 32 H        3.9070    -0.8540    -1.1560 H     1 <1>   0.0800 
 33 H        1.3060    -2.8970     1.0370 H     1 <1>   0.0800 
 34 H        2.6200    -3.9620     1.4160 H     1 <1>   0.0800 
 35 H        6.1460    -1.6490     1.8530 H     1 <1>   0.0800 
 36 H        6.5440    -0.7980     3.2960 H     1 <1>   0.0800 
 37 H        3.8010     2.9170     2.7220 H     1 <1>   0.0800 
 38 H        3.8280     2.0930     1.2060 H     1 <1>   0.0800 
 39 H        1.5390    -1.2010    -1.1130 H     1 <1>   0.4500 
 40 H        1.2020    -4.8280    -0.4430 H     1 <1>   0.0800 
 41 H        2.8350    -4.5800    -0.9530 H     1 <1>   0.0800 
 42 H        5.6990     1.5130     3.5320 H     1 <1>   0.0800 
 43 H        6.1010     2.5100     2.1730 H     1 <1>   0.0800 
 44 H        1.6490    -3.6460    -2.7110 H     1 <1>   0.0800 
 45 H        0.3840    -3.0290    -1.6830 H     1 <1>   0.0800 
 46 H        2.7900    -1.7530    -3.7440 H     1 <1>   0.0800 
 47 H        2.5840    -0.1810    -2.9990 H     1 <1>   0.0800 
 48 H        1.1810    -1.0960    -3.5060 H     1 <1>   0.0800 
 49 H        7.2200     2.2820     0.2730 H     1 <1>   0.0800 
 50 H        5.6470     2.3420    -0.4730 H     1 <1>   0.0800 
 51 H        6.5090     1.0350    -2.3840 H     1 <1>   0.0800 
 52 H        8.0500     0.8750    -1.5890 H     1 <1>   0.0800 
 53 H        5.7530     3.7980    -2.8680 H     1 <1>   0.1500 
 54 H        9.8370     2.8610    -2.1840 H     1 <1>   0.1500 
 55 H        9.5750     5.1460    -3.2710 H     1 <1>   0.2700 
@<TRIPOS>BOND
  1   1   2  2   
  2   2   3  am  
  3   2   4  1   
  4   3   5  1   
  5   3   6  1   
  6   4   7  1   
  7   4   8  1   
  8   4  26  1   
  9   5   9  1   
 10   5  27  1   
 11   5  28  1   
 12   6  10  1   
 13   6  29  1   
 14   6  30  1   
 15   7  11  1   
 16   7  31  1   
 17   7  32  1   
 18   8  12  1   
 19   8  33  1   
 20   8  34  1   
 21   9  13  1   
 22   9  35  1   
 23   9  36  1   
 24  10  14  1   
 25  10  37  1   
 26  10  38  1   
 27  11  15  1   
 28  11  16  1   
 29  11  39  1   
 30  12  15  1   
 31  12  40  1   
 32  12  41  1   
 33  13  14  1   
 34  13  17  am  
 35  14  42  1   
 36  14  43  1   
 37  15  44  1   
 38  15  45  1   
 39  16  46  1   
 40  16  47  1   
 41  16  48  1   
 42  17  18  2   
 43  17  19  1   
 44  19  20  1   
 45  19  49  1   
 46  19  50  1   
 47  20  21  1   
 48  20  51  1   
 49  20  52  1   
 50  21  22  1   
 51  21  23  2   
 52  22  24  2   
 53  22  53  1   
 54  23  25  1   
 55  23  54  1   
 56  24  25  1   
 57  25  55  1   
@<TRIPOS>SUBSTRUCTURE
  1 ****  17 GROUP 4 **** **** 0

# MOE 2024.06 (io_trps.svl 2023.06)
