@<TRIPOS>MOLECULE
NONAME
31 32 1 0 0 
SMALL
USER_CHARGES


@<TRIPOS>ATOM
  1 O        0.0370    -0.4180     1.0940 O.2   1 <1>  -0.5700 
  2 C        0.2590    -1.6020     0.9930 C.2   1 <1>   0.4240 
  3 C        1.3900    -2.2190     0.3830 C.ar  1 <1>   0.0860 
  4 C        2.6400    -1.6250     0.2430 C.ar  1 <1>   0.3920 
  5 C        1.3020    -3.5220    -0.1120 C.ar  1 <1>   0.4100 
  6 O        2.8260    -0.3720     0.6980 O.3   1 <1>  -0.3630 
  7 N        3.6720    -2.2350    -0.2990 N.ar  1 <1>  -0.6200 
  8 N        2.3300    -4.1550    -0.6330 N.ar  1 <1>  -0.6200 
  9 N        0.1160    -4.2230    -0.1000 N.pl3 1 <1>  -0.8380 
 10 C        4.0640     0.3040     0.5940 C.3   1 <1>   0.0400 
 11 C        3.4460    -3.4700    -0.6880 C.ar  1 <1>   0.7200 
 12 C        0.1190    -5.6860     0.2100 C.3   1 <1>   0.2090 
 13 C       -0.9550    -3.8700    -1.0810 C.3   1 <1>   0.2090 
 14 N        4.4870    -4.1020    -1.2240 N.pl3 1 <1>  -0.9000 
 15 C       -1.2940    -6.1640     0.5940 C.3   1 <1>   0.1200 
 16 C       -2.3140    -4.4350    -0.6280 C.3   1 <1>   0.1200 
 17 O       -2.2300    -5.8140    -0.3890 O.3   1 <1>  -0.5600 
 18 H       -0.4930    -2.2590     1.3900 H     1 <1>   0.0600 
 19 H        3.9500     1.2820     1.0230 H     1 <1>   0.0800 
 20 H        4.3300     0.3840    -0.4460 H     1 <1>   0.0800 
 21 H        4.8110    -0.2530     1.1320 H     1 <1>   0.0800 
 22 H        0.8010    -5.8830     1.0190 H     1 <1>   0.0800 
 23 H        0.4570    -6.2350    -0.6520 H     1 <1>   0.0800 
 24 H       -0.7050    -4.2830    -2.0430 H     1 <1>   0.0800 
 25 H       -1.0270    -2.8010    -1.1870 H     1 <1>   0.0800 
 26 H        4.3000    -4.9520    -1.7480 H     1 <1>   0.4000 
 27 H        5.2880    -3.5400    -1.4990 H     1 <1>   0.4000 
 28 H       -1.5960    -5.7250     1.5290 H     1 <1>   0.0800 
 29 H       -1.3070    -7.2340     0.6940 H     1 <1>   0.0800 
 30 H       -3.0530    -4.2800    -1.3940 H     1 <1>   0.0800 
 31 H       -2.6430    -3.9490     0.2740 H     1 <1>   0.0800 
@<TRIPOS>BOND
  1   1   2  2   
  2   2   3  1   
  3   2  18  1   
  4   3   4  ar  
  5   3   5  ar  
  6   4   6  1   
  7   4   7  ar  
  8   5   8  ar  
  9   5   9  1   
 10   6  10  1   
 11   7  11  ar  
 12   8  11  ar  
 13   9  12  1   
 14   9  13  1   
 15  10  19  1   
 16  10  20  1   
 17  10  21  1   
 18  11  14  1   
 19  12  15  1   
 20  12  22  1   
 21  12  23  1   
 22  13  16  1   
 23  13  24  1   
 24  13  25  1   
 25  14  26  1   
 26  14  27  1   
 27  15  17  1   
 28  15  28  1   
 29  15  29  1   
 30  16  17  1   
 31  16  30  1   
 32  16  31  1   
@<TRIPOS>SUBSTRUCTURE
  1 ****   5 GROUP 4 **** **** 0

# MOE 2024.06 (io_trps.svl 2023.06)
