@<TRIPOS>MOLECULE
NONAME
50 53 1 0 0 
SMALL
USER_CHARGES


@<TRIPOS>ATOM
  1 O       -0.2790    -0.6890     1.4590 O.3   1 <1>  -0.5600 
  2 C        0.7290     0.1120     0.9120 C.3   1 <1>   0.1200 
  3 C       -1.5290    -0.2090     1.0850 C.3   1 <1>   0.1200 
  4 C        0.0690     1.4130     0.4510 C.3   1 <1>   0.2890 
  5 C       -1.3560     1.3010     0.9720 C.3   1 <1>  -0.0800 
  6 N        0.7380     2.6110     1.0010 N.pl3 1 <1>  -0.8690 
  7 C       -2.3820     1.9870     0.0510 C.3   1 <1>  -0.0170 
  8 C        0.7080     3.8360     0.4330 C.ar  1 <1>   0.7200 
  9 C       -3.8550     1.8530     0.4590 C.ar  1 <1>  -0.1440 
 10 N        0.9900     4.8210     1.2660 N.ar  1 <1>  -0.6200 
 11 N        0.3930     3.9290    -0.8520 N.ar  1 <1>  -0.6200 
 12 C       -4.8840     2.0930    -0.4860 C.ar  1 <1>   0.0000 
 13 C       -4.2450     1.5190     1.7260 C.ar  1 <1>  -0.1500 
 14 C        0.9710     6.0330     0.7620 C.ar  1 <1>   0.1670 
 15 C        0.3830     5.1470    -1.3340 C.ar  1 <1>   0.1600 
 16 C       -6.2260     1.9160    -0.0660 C.ar  1 <1>   0.3100 
 17 C       -4.6650     2.5100    -1.8210 C.ar  1 <1>  -0.1500 
 18 C       -5.6020     1.3850     2.0410 C.ar  1 <1>   0.1600 
 19 C        0.6680     6.2580    -0.5700 C.ar  1 <1>  -0.1430 
 20 C        1.3060     7.1600     1.7320 C.3   1 <1>  -0.0170 
 21 N       -6.5680     1.5600     1.1980 N.ar  1 <1>  -0.6200 
 22 C       -7.2640     2.1220    -0.9890 C.ar  1 <1>  -0.1500 
 23 C       -5.6990     2.7080    -2.6940 C.ar  1 <1>  -0.1500 
 24 C        0.6410     7.6440    -1.2030 C.3   1 <1>  -0.0970 
 25 C        2.8190     7.3910     1.8230 C.3   1 <1>  -0.2400 
 26 C       -7.0170     2.5080    -2.2780 C.ar  1 <1>  -0.1500 
 27 H        1.4720     0.2840     1.6710 H     1 <1>   0.0800 
 28 H        1.1630    -0.4140     0.0810 H     1 <1>   0.0800 
 29 H       -1.7830    -0.6500     0.1360 H     1 <1>   0.0800 
 30 H       -2.2510    -0.4970     1.8280 H     1 <1>   0.0800 
 31 H        0.0880     1.4350    -0.6260 H     1 <1>   0.0800 
 32 H       -1.4020     1.7220     1.9600 H     1 <1>   0.0800 
 33 H        0.8380     2.6550     2.0120 H     1 <1>   0.4000 
 34 H       -2.2550     1.5670    -0.9300 H     1 <1>   0.0800 
 35 H       -2.1470     3.0360    -0.0120 H     1 <1>   0.0800 
 36 H       -3.5460     1.3500     2.5220 H     1 <1>   0.1500 
 37 H        0.1380     5.2630    -2.3760 H     1 <1>   0.1500 
 38 H       -3.6640     2.6840    -2.1660 H     1 <1>   0.1500 
 39 H       -5.8590     1.1150     3.0510 H     1 <1>   0.1500 
 40 H        0.8160     8.0700     1.4390 H     1 <1>   0.0800 
 41 H        0.9300     6.9000     2.7070 H     1 <1>   0.0800 
 42 H       -8.2690     1.9680    -0.6420 H     1 <1>   0.1500 
 43 H       -5.5140     3.0210    -3.7080 H     1 <1>   0.1500 
 44 H        0.5160     7.5790    -2.2690 H     1 <1>   0.0800 
 45 H        1.5630     8.1620    -1.0060 H     1 <1>   0.0800 
 46 H       -0.1760     8.2170    -0.8010 H     1 <1>   0.0800 
 47 H        3.2160     7.6610     0.8610 H     1 <1>   0.0800 
 48 H        3.3060     6.4910     2.1550 H     1 <1>   0.0800 
 49 H        3.0330     8.1790     2.5230 H     1 <1>   0.0800 
 50 H       -7.8230     2.6630    -2.9740 H     1 <1>   0.1500 
@<TRIPOS>BOND
  1   1   2  1   
  2   1   3  1   
  3   2   4  1   
  4   2  27  1   
  5   2  28  1   
  6   3   5  1   
  7   3  29  1   
  8   3  30  1   
  9   4   5  1   
 10   4   6  1   
 11   4  31  1   
 12   5   7  1   
 13   5  32  1   
 14   6   8  1   
 15   6  33  1   
 16   7   9  1   
 17   7  34  1   
 18   7  35  1   
 19   8  10  ar  
 20   8  11  ar  
 21   9  12  ar  
 22   9  13  ar  
 23  10  14  ar  
 24  11  15  ar  
 25  12  16  ar  
 26  12  17  ar  
 27  13  18  ar  
 28  13  36  1   
 29  14  19  ar  
 30  14  20  1   
 31  15  19  ar  
 32  15  37  1   
 33  16  21  ar  
 34  16  22  ar  
 35  17  23  ar  
 36  17  38  1   
 37  18  21  ar  
 38  18  39  1   
 39  19  24  1   
 40  20  25  1   
 41  20  40  1   
 42  20  41  1   
 43  22  26  ar  
 44  22  42  1   
 45  23  26  ar  
 46  23  43  1   
 47  24  44  1   
 48  24  45  1   
 49  24  46  1   
 50  25  47  1   
 51  25  48  1   
 52  25  49  1   
 53  26  50  1   
@<TRIPOS>SUBSTRUCTURE
  1 ****   7 GROUP 4 **** **** 0

# MOE 2024.06 (io_trps.svl 2023.06)
