@<TRIPOS>MOLECULE
NONAME
50 52 1 0 0 
SMALL
USER_CHARGES


@<TRIPOS>ATOM
  1 CL       1.4060     0.7610    -1.9130 Cl    1 <1>  -0.1770 
  2 C        0.6460     1.7860    -0.7170 C.ar  1 <1>   0.1770 
  3 C        1.3760     2.3650     0.3190 C.ar  1 <1>  -0.1440 
  4 C       -0.7150     1.9970    -0.8480 C.ar  1 <1>  -0.1500 
  5 C        0.6950     3.1690     1.2260 C.ar  1 <1>  -0.1500 
  6 C        2.8770     2.1620     0.5000 C.3   1 <1>   0.3640 
  7 C       -1.3750     2.8000     0.0640 C.ar  1 <1>  -0.1500 
  8 C       -0.6680     3.3840     1.1000 C.ar  1 <1>  -0.1500 
  9 N        3.1650     0.7250     0.7130 N.am  1 <1>  -0.7300 
 10 C        3.7120     2.7840    -0.6530 C.3   1 <1>   0.2610 
 11 C        4.1080     0.0410     0.0270 C.2   1 <1>   0.5690 
 12 O        4.9830     2.1580    -0.8130 O.3   1 <1>  -0.5600 
 13 C        3.8610     4.2930    -0.4170 C.2   1 <1>   0.5690 
 14 O        4.3300    -1.1170     0.2700 O.2   1 <1>  -0.5700 
 15 C        4.8980     0.7680    -1.0620 C.3   1 <1>   0.1810 
 16 O        3.1730     5.0200    -1.0930 O.2   1 <1>  -0.5700 
 17 N        4.7520     4.8310     0.4910 N.am  1 <1>  -0.6600 
 18 C        5.0900     6.2890     0.4340 C.3   1 <1>   0.1400 
 19 C        5.7620     4.0650     1.2780 C.3   1 <1>   0.1400 
 20 C        6.4880     6.5230    -0.2140 C.3   1 <1>   0.5030 
 21 C        7.1470     4.2360     0.6250 C.3   1 <1>   0.3430 
 22 N        7.5420     5.6900     0.4790 N.4   1 <1>  -0.9590 
 23 C        6.4370     6.1830    -1.7120 C.3   1 <1>  -0.2400 
 24 C        6.8590     7.9990    -0.0460 C.3   1 <1>  -0.2400 
 25 C        8.9100     5.7750    -0.1320 C.3   1 <1>   0.2630 
 26 H       -1.2500     1.5360    -1.6580 H     1 <1>   0.1500 
 27 H        1.2140     3.6410     2.0420 H     1 <1>   0.1500 
 28 H        3.1640     2.6650     1.4070 H     1 <1>   0.0800 
 29 H       -2.4340     2.9700    -0.0320 H     1 <1>   0.1500 
 30 H       -1.1820     4.0110     1.8090 H     1 <1>   0.1500 
 31 H        2.5770     0.2100     1.3720 H     1 <1>   0.3700 
 32 H        3.1880     2.6620    -1.5820 H     1 <1>   0.0800 
 33 H        4.4240     0.6160    -2.0150 H     1 <1>   0.0800 
 34 H        5.8970     0.3750    -1.1030 H     1 <1>   0.0800 
 35 H        4.3450     6.8300    -0.1240 H     1 <1>   0.0800 
 36 H        5.0790     6.6890     1.4320 H     1 <1>   0.0800 
 37 H        5.7880     4.4380     2.2870 H     1 <1>   0.0800 
 38 H        5.5120     3.0220     1.3360 H     1 <1>   0.0800 
 39 H        7.1200     3.7670    -0.3450 H     1 <1>   0.0800 
 40 H        7.8800     3.7160     1.2190 H     1 <1>   0.0800 
 41 H        7.6060     6.0790     1.4270 H     1 <1>   0.4500 
 42 H        5.6280     6.7210    -2.1750 H     1 <1>   0.0800 
 43 H        6.2540     5.1360    -1.8730 H     1 <1>   0.0800 
 44 H        7.3400     6.4670    -2.2210 H     1 <1>   0.0800 
 45 H        6.0850     8.6170    -0.4680 H     1 <1>   0.0800 
 46 H        7.7710     8.2440    -0.5590 H     1 <1>   0.0800 
 47 H        6.9550     8.2590     0.9930 H     1 <1>   0.0800 
 48 H        8.9000     5.3710    -1.1310 H     1 <1>   0.0800 
 49 H        9.6180     5.2140     0.4560 H     1 <1>   0.0800 
 50 H        9.2430     6.7990    -0.1780 H     1 <1>   0.0800 
@<TRIPOS>BOND
  1   1   2  1   
  2   2   3  ar  
  3   2   4  ar  
  4   3   5  ar  
  5   3   6  1   
  6   4   7  ar  
  7   4  26  1   
  8   5   8  ar  
  9   5  27  1   
 10   6   9  1   
 11   6  10  1   
 12   6  28  1   
 13   7   8  ar  
 14   7  29  1   
 15   8  30  1   
 16   9  11  am  
 17   9  31  1   
 18  10  12  1   
 19  10  13  1   
 20  10  32  1   
 21  11  14  2   
 22  11  15  1   
 23  12  15  1   
 24  13  16  2   
 25  13  17  am  
 26  15  33  1   
 27  15  34  1   
 28  17  18  1   
 29  17  19  1   
 30  18  20  1   
 31  18  35  1   
 32  18  36  1   
 33  19  21  1   
 34  19  37  1   
 35  19  38  1   
 36  20  22  1   
 37  20  23  1   
 38  20  24  1   
 39  21  22  1   
 40  21  39  1   
 41  21  40  1   
 42  22  25  1   
 43  22  41  1   
 44  23  42  1   
 45  23  43  1   
 46  23  44  1   
 47  24  45  1   
 48  24  46  1   
 49  24  47  1   
 50  25  48  1   
 51  25  49  1   
 52  25  50  1   
@<TRIPOS>SUBSTRUCTURE
  1 ****  10 GROUP 4 **** **** 0

# MOE 2024.06 (io_trps.svl 2023.06)
