@<TRIPOS>MOLECULE
NONAME
48 51 1 0 0 
SMALL
USER_CHARGES


@<TRIPOS>ATOM
  1 S       -0.3560    -0.1700    -0.7290 S.3   1 <1>  -0.0800 
  2 C       -1.5800    -1.1240     0.0280 C.2   1 <1>   0.4420 
  3 C       -0.6270     1.0560     0.4780 C.2   1 <1>   0.3250 
  4 N       -2.0830    -0.5370     1.0490 N.2   1 <1>  -0.3380 
  5 N       -1.8480    -2.3510    -0.5400 N.am  1 <1>  -0.4940 
  6 N       -1.5460     0.6880     1.3000 N.2   1 <1>  -0.3380 
  7 C        0.1390     2.2830     0.4610 C.ar  1 <1>   0.0530 
  8 C       -2.7610    -3.2960    -0.1630 C.2   1 <1>   0.5690 
  9 C       -0.0720     3.2480     1.4480 C.ar  1 <1>  -0.1500 
 10 C        1.1040     2.5750    -0.5080 C.ar  1 <1>  -0.1500 
 11 O       -3.5230    -3.1480     0.7560 O.2   1 <1>  -0.5700 
 12 C       -2.8290    -4.5840    -0.9730 C.3   1 <1>  -0.0190 
 13 C        0.6370     4.4340     1.4720 C.ar  1 <1>  -0.1500 
 14 C        1.8160     3.7610    -0.4870 C.ar  1 <1>  -0.1500 
 15 C       -3.5800    -5.7190    -0.2560 C.3   1 <1>   0.1400 
 16 C       -1.4610    -5.1880    -1.3450 C.3   1 <1>  -0.0990 
 17 C        1.5890     4.6990     0.5040 C.ar  1 <1>  -0.1430 
 18 N       -2.9010    -6.9430    -0.7300 N.am  1 <1>  -0.6600 
 19 C       -1.7260    -6.6660    -1.3350 C.2   1 <1>   0.5690 
 20 C        2.3690     6.0010     0.5260 C.3   1 <1>  -0.0970 
 21 C       -3.4120    -8.3190    -0.4930 C.3   1 <1>   0.2200 
 22 O       -0.9590    -7.4640    -1.8140 O.2   1 <1>  -0.5700 
 23 C       -4.8060    -8.5050    -1.0890 C.3   1 <1>  -0.1600 
 24 C       -3.5930    -8.5970     0.9970 C.3   1 <1>  -0.1600 
 25 C       -5.8200    -8.2460     0.0340 C.3   1 <1>  -0.1600 
 26 C       -5.0290    -8.1950     1.3450 C.3   1 <1>  -0.1600 
 27 H       -1.2790    -2.5760    -1.3500 H     1 <1>   0.3700 
 28 H       -0.8070     3.0650     2.2130 H     1 <1>   0.1500 
 29 H        1.3140     1.8770    -1.2960 H     1 <1>   0.1500 
 30 H       -3.3690    -4.3740    -1.8780 H     1 <1>   0.0800 
 31 H        0.4440     5.1530     2.2500 H     1 <1>   0.1500 
 32 H        2.5510     3.9530    -1.2500 H     1 <1>   0.1500 
 33 H       -4.6230    -5.7170    -0.5170 H     1 <1>   0.0800 
 34 H       -3.4700    -5.6480     0.8130 H     1 <1>   0.0800 
 35 H       -0.7150    -4.9800    -0.6000 H     1 <1>   0.0800 
 36 H       -1.1240    -4.8730    -2.3150 H     1 <1>   0.0800 
 37 H        2.4850     6.3530     1.5360 H     1 <1>   0.0800 
 38 H        1.8450     6.7480    -0.0430 H     1 <1>   0.0800 
 39 H        3.3470     5.8620     0.1010 H     1 <1>   0.0800 
 40 H       -2.7220    -9.0270    -0.9240 H     1 <1>   0.0800 
 41 H       -4.9010    -9.5290    -1.4040 H     1 <1>   0.0800 
 42 H       -4.9660    -7.8730    -1.9450 H     1 <1>   0.0800 
 43 H       -2.8600    -8.0880     1.5980 H     1 <1>   0.0800 
 44 H       -3.4870    -9.6560     1.1550 H     1 <1>   0.0800 
 45 H       -6.5520    -9.0360     0.0620 H     1 <1>   0.0800 
 46 H       -6.3320    -7.3130    -0.1260 H     1 <1>   0.0800 
 47 H       -5.0430    -7.1930     1.7370 H     1 <1>   0.0800 
 48 H       -5.4480    -8.8560     2.0850 H     1 <1>   0.0800 
@<TRIPOS>BOND
  1   1   2  1   
  2   1   3  1   
  3   2   4  2   
  4   2   5  1   
  5   3   6  2   
  6   3   7  1   
  7   4   6  1   
  8   5   8  am  
  9   5  27  1   
 10   7   9  ar  
 11   7  10  ar  
 12   8  11  2   
 13   8  12  1   
 14   9  13  ar  
 15   9  28  1   
 16  10  14  ar  
 17  10  29  1   
 18  12  15  1   
 19  12  16  1   
 20  12  30  1   
 21  13  17  ar  
 22  13  31  1   
 23  14  17  ar  
 24  14  32  1   
 25  15  18  1   
 26  15  33  1   
 27  15  34  1   
 28  16  19  1   
 29  16  35  1   
 30  16  36  1   
 31  17  20  1   
 32  18  19  am  
 33  18  21  1   
 34  19  22  2   
 35  20  37  1   
 36  20  38  1   
 37  20  39  1   
 38  21  23  1   
 39  21  24  1   
 40  21  40  1   
 41  23  25  1   
 42  23  41  1   
 43  23  42  1   
 44  24  26  1   
 45  24  43  1   
 46  24  44  1   
 47  25  26  1   
 48  25  45  1   
 49  25  46  1   
 50  26  47  1   
 51  26  48  1   
@<TRIPOS>SUBSTRUCTURE
  1 ****   5 GROUP 4 **** **** 0

# MOE 2024.06 (io_trps.svl 2023.06)
