@<TRIPOS>MOLECULE
NONAME
44 45 1 0 0 
SMALL
USER_CHARGES


@<TRIPOS>ATOM
  1 CL       1.7380    -0.8950     0.8360 Cl    1 <1>  -0.1770 
  2 C        0.8860    -2.3620     0.4240 C.ar  1 <1>   0.1770 
  3 C        0.6920    -2.7150    -0.9030 C.ar  1 <1>  -0.1440 
  4 C        0.4110    -3.1570     1.4500 C.ar  1 <1>  -0.1500 
  5 C        0.0110    -3.8900    -1.1810 C.ar  1 <1>  -0.1500 
  6 C        1.2090    -1.8390    -2.0340 C.3   1 <1>  -0.0960 
  7 C       -0.2660    -4.3250     1.1520 C.ar  1 <1>  -0.1500 
  8 C       -0.4780    -4.7240    -0.1720 C.ar  1 <1>   0.0860 
  9 C       -1.1810    -5.9520    -0.5040 C.2   1 <1>   0.5440 
 10 O       -1.7530    -6.0760    -1.5690 O.2   1 <1>  -0.5700 
 11 N       -1.2270    -6.9980     0.3720 N.am  1 <1>  -0.7300 
 12 C       -1.9330    -8.2750     0.1170 C.3   1 <1>   0.2200 
 13 C       -3.4130    -8.1080     0.4700 C.3   1 <1>  -0.0800 
 14 C       -1.4630    -9.3510     1.0930 C.3   1 <1>   0.1200 
 15 C       -3.6150    -9.0460     1.6670 C.3   1 <1>   0.1200 
 16 C       -4.3560    -8.2960    -0.7410 C.3   1 <1>  -0.0550 
 17 O       -2.3380    -9.2640     2.1710 O.3   1 <1>  -0.5600 
 18 S       -4.4780    -9.9420    -1.4590 S.o2  1 <1>   1.3330 
 19 O       -3.1940   -10.6010    -1.3670 O.2   1 <1>  -0.6500 
 20 O       -5.1390    -9.8480    -2.7410 O.2   1 <1>  -0.6500 
 21 N       -5.5520   -10.7470    -0.4150 N.am  1 <1>  -0.8490 
 22 C       -5.3160   -12.1940    -0.3850 C.3   1 <1>   0.1160 
 23 C       -6.9640   -10.4830    -0.7110 C.3   1 <1>   0.1160 
 24 H        0.5720    -2.8550     2.4700 H     1 <1>   0.1500 
 25 H       -0.1530    -4.1830    -2.2050 H     1 <1>   0.1500 
 26 H        0.9680    -2.2620    -2.9930 H     1 <1>   0.0800 
 27 H        2.2780    -1.7400    -1.9640 H     1 <1>   0.0800 
 28 H        0.7660    -0.8610    -1.9730 H     1 <1>   0.0800 
 29 H       -0.6410    -4.9280     1.9600 H     1 <1>   0.1500 
 30 H       -0.8200    -6.9180     1.3040 H     1 <1>   0.3700 
 31 H       -1.7640    -8.5820    -0.9020 H     1 <1>   0.0800 
 32 H       -3.5760    -7.1080     0.8310 H     1 <1>   0.0800 
 33 H       -0.4520    -9.2060     1.4290 H     1 <1>   0.0800 
 34 H       -1.5690   -10.3310     0.6580 H     1 <1>   0.0800 
 35 H       -4.0110   -10.0050     1.3890 H     1 <1>   0.0800 
 36 H       -4.2260    -8.6080     2.4360 H     1 <1>   0.0800 
 37 H       -4.0170    -7.6260    -1.5080 H     1 <1>   0.0800 
 38 H       -5.3380    -7.9690    -0.4620 H     1 <1>   0.0800 
 39 H       -6.0060   -12.6730     0.2890 H     1 <1>   0.0800 
 40 H       -4.3160   -12.4000    -0.0420 H     1 <1>   0.0800 
 41 H       -5.4360   -12.6130    -1.3720 H     1 <1>   0.0800 
 42 H       -7.5910   -10.9380     0.0370 H     1 <1>   0.0800 
 43 H       -7.2280   -10.8820    -1.6780 H     1 <1>   0.0800 
 44 H       -7.1540    -9.4240    -0.7140 H     1 <1>   0.0800 
@<TRIPOS>BOND
  1   1   2  1   
  2   2   3  ar  
  3   2   4  ar  
  4   3   5  ar  
  5   3   6  1   
  6   4   7  ar  
  7   4  24  1   
  8   5   8  ar  
  9   5  25  1   
 10   6  26  1   
 11   6  27  1   
 12   6  28  1   
 13   7   8  ar  
 14   7  29  1   
 15   8   9  1   
 16   9  10  2   
 17   9  11  am  
 18  11  12  1   
 19  11  30  1   
 20  12  13  1   
 21  12  14  1   
 22  12  31  1   
 23  13  15  1   
 24  13  16  1   
 25  13  32  1   
 26  14  17  1   
 27  14  33  1   
 28  14  34  1   
 29  15  17  1   
 30  15  35  1   
 31  15  36  1   
 32  16  18  1   
 33  16  37  1   
 34  16  38  1   
 35  18  19  2   
 36  18  20  2   
 37  18  21  am  
 38  21  22  1   
 39  21  23  1   
 40  22  39  1   
 41  22  40  1   
 42  22  41  1   
 43  23  42  1   
 44  23  43  1   
 45  23  44  1   
@<TRIPOS>SUBSTRUCTURE
  1 ****  11 GROUP 4 **** **** 0

# MOE 2024.06 (io_trps.svl 2023.06)
