@<TRIPOS>MOLECULE
NONAME
33 35 1 0 0 
SMALL
USER_CHARGES


@<TRIPOS>ATOM
  1 CL      -0.8000     0.5710    -1.4100 Cl    1 <1>  -0.1770 
  2 C       -0.3940     2.2640    -1.2280 C.ar  1 <1>   0.1770 
  3 C        0.8060     2.7540    -1.7200 C.ar  1 <1>   0.1770 
  4 C       -1.2860     3.1010    -0.5860 C.ar  1 <1>  -0.1500 
  5 CL       1.9420     1.7000    -2.5340 Cl    1 <1>  -0.1770 
  6 C        1.1220     4.0920    -1.5740 C.ar  1 <1>  -0.1500 
  7 C       -0.9800     4.4510    -0.4290 C.ar  1 <1>   0.1170 
  8 C        0.2270     4.9300    -0.9300 C.ar  1 <1>  -0.1500 
  9 N       -1.8170     5.3750     0.2040 N.am  1 <1>  -0.5470 
 10 C       -3.0690     5.3170     0.7400 C.2   1 <1>   0.5690 
 11 O       -3.6550     4.2660     0.8700 O.2   1 <1>  -0.5700 
 12 C       -3.7680     6.5810     1.2770 C.3   1 <1>  -0.0190 
 13 C       -3.3480     8.0550     0.8870 C.3   1 <1>  -0.1860 
 14 C       -5.2670     6.5630     0.8820 C.3   1 <1>   0.0580 
 15 C       -2.0720     8.3320     0.1110 C.2   1 <1>   0.9060 
 16 C       -4.6250     8.6210     0.2340 C.3   1 <1>   0.0580 
 17 C       -5.3080     6.5960    -0.6320 C.2   1 <1>  -0.2880 
 18 C       -5.6780     8.0080     1.1520 C.3   1 <1>  -0.1600 
 19 O       -2.0830     8.9790    -0.9370 O.co2 1 <1>  -0.9000 
 20 O       -1.0130     7.9160     0.5960 O.co2 1 <1>  -0.9000 
 21 C       -4.9140     7.8070    -1.0130 C.2   1 <1>  -0.2880 
 22 H       -2.2080     2.6990    -0.2150 H     1 <1>   0.1500 
 23 H        2.0510     4.4740    -1.9570 H     1 <1>   0.1500 
 24 H        0.4570     5.9790    -0.8110 H     1 <1>   0.1500 
 25 H       -1.3900     6.3170     0.2760 H     1 <1>   0.3700 
 26 H       -3.7080     6.5080     2.3470 H     1 <1>   0.0800 
 27 H       -3.2060     8.5930     1.8050 H     1 <1>   0.0800 
 28 H       -5.8820     5.8120     1.3470 H     1 <1>   0.0800 
 29 H       -4.6720     9.6900     0.1160 H     1 <1>   0.0800 
 30 H       -5.5780     5.7220    -1.1980 H     1 <1>   0.1500 
 31 H       -5.5660     8.2970     2.1830 H     1 <1>   0.0800 
 32 H       -6.6790     8.2150     0.8120 H     1 <1>   0.0800 
 33 H       -4.7510     8.2390    -1.9850 H     1 <1>   0.1500 
@<TRIPOS>BOND
  1   1   2  1   
  2   2   3  ar  
  3   2   4  ar  
  4   3   5  1   
  5   3   6  ar  
  6   4   7  ar  
  7   4  22  1   
  8   6   8  ar  
  9   6  23  1   
 10   7   8  ar  
 11   7   9  1   
 12   8  24  1   
 13   9  10  am  
 14   9  25  1   
 15  10  11  2   
 16  10  12  1   
 17  12  13  1   
 18  12  14  1   
 19  12  26  1   
 20  13  15  1   
 21  13  16  1   
 22  13  27  1   
 23  14  17  1   
 24  14  18  1   
 25  14  28  1   
 26  15  19  ar  
 27  15  20  ar  
 28  16  18  1   
 29  16  21  1   
 30  16  29  1   
 31  17  21  2   
 32  17  30  1   
 33  18  31  1   
 34  18  32  1   
 35  21  33  1   
@<TRIPOS>SUBSTRUCTURE
  1 ****   9 GROUP 4 **** **** 0

# MOE 2024.06 (io_trps.svl 2023.06)
