@<TRIPOS>MOLECULE
NONAME
43 44 1 0 0 
SMALL
USER_CHARGES


@<TRIPOS>ATOM
  1 O       -1.0340    -0.4350    -2.3230 O.2   1 <1>  -0.5700 
  2 C       -1.4440     0.3080    -1.4610 C.2   1 <1>   0.5690 
  3 N       -1.9140    -0.1810    -0.2620 N.am  1 <1>  -0.6600 
  4 C       -1.3970     1.7990    -1.7770 C.3   1 <1>   0.0440 
  5 C       -1.7480    -1.6360     0.0240 C.3   1 <1>   0.3200 
  6 C       -2.2430     0.6770     0.9290 C.3   1 <1>   0.1400 
  7 C       -0.3080     2.5400    -0.9980 C.ar  1 <1>  -0.1440 
  8 C       -2.9870    -2.4140    -0.3720 C.2   1 <1>  -0.3320 
  9 C       -3.6190     1.3580     0.8430 C.3   1 <1>   0.1200 
 10 C       -0.5890     3.6340    -0.1800 C.ar  1 <1>   0.0820 
 11 C        1.0020     2.1030    -1.1230 C.ar  1 <1>  -0.1500 
 12 N       -4.1780    -2.3390     0.2480 N.pl3 1 <1>   0.0330 
 13 C       -3.1410    -3.3130    -1.3680 C.2   1 <1>   0.0770 
 14 O       -4.5760     0.4460     0.4370 O.3   1 <1>  -0.6800 
 15 O       -1.8810     4.0420    -0.0740 O.3   1 <1>  -0.3630 
 16 C        0.4480     4.2670     0.5030 C.ar  1 <1>  -0.1500 
 17 C        2.0270     2.7360    -0.4440 C.ar  1 <1>  -0.1500 
 18 C       -4.9810    -3.1990    -0.4120 C.2   1 <1>   0.0070 
 19 N       -4.3930    -3.8100    -1.3860 N.2   1 <1>  -0.5650 
 20 C       -2.2190     5.2810     0.5110 C.3   1 <1>   0.0400 
 21 C        1.7490     3.8180     0.3700 C.ar  1 <1>  -0.1500 
 22 C       -6.4340    -3.4030    -0.0440 C.3   1 <1>  -0.0600 
 23 H       -2.3690     2.2200    -1.6250 H     1 <1>   0.0800 
 24 H       -1.1850     1.9110    -2.8240 H     1 <1>   0.0800 
 25 H       -1.5370    -1.7940     1.0670 H     1 <1>   0.0800 
 26 H       -0.9050    -2.0210    -0.5250 H     1 <1>   0.0800 
 27 H       -1.4840     1.4270     1.0570 H     1 <1>   0.0800 
 28 H       -2.2280     0.0790     1.8230 H     1 <1>   0.0800 
 29 H       -3.6110     2.1690     0.1400 H     1 <1>   0.0800 
 30 H       -3.9080     1.7460     1.8040 H     1 <1>   0.0800 
 31 H        1.2320     1.2610    -1.7570 H     1 <1>   0.1500 
 32 H       -4.4490    -1.7000     1.0050 H     1 <1>   0.2700 
 33 H       -2.4030    -3.6320    -2.0860 H     1 <1>   0.1500 
 34 H       -4.2560     0.0110    -0.3880 H     1 <1>   0.4000 
 35 H        0.2660     5.1080     1.1430 H     1 <1>   0.1500 
 36 H        3.0390     2.3860    -0.5500 H     1 <1>   0.1500 
 37 H       -3.2750     5.4360     0.3820 H     1 <1>   0.0800 
 38 H       -1.6720     6.0630     0.0140 H     1 <1>   0.0800 
 39 H       -1.9810     5.2510     1.5600 H     1 <1>   0.0800 
 40 H        2.5470     4.3100     0.8980 H     1 <1>   0.1500 
 41 H       -6.9650    -2.4710    -0.1110 H     1 <1>   0.0800 
 42 H       -6.5110    -3.7880     0.9560 H     1 <1>   0.0800 
 43 H       -6.8850    -4.1070    -0.7210 H     1 <1>   0.0800 
@<TRIPOS>BOND
  1   1   2  2   
  2   2   3  am  
  3   2   4  1   
  4   3   5  1   
  5   3   6  1   
  6   4   7  1   
  7   4  23  1   
  8   4  24  1   
  9   5   8  1   
 10   5  25  1   
 11   5  26  1   
 12   6   9  1   
 13   6  27  1   
 14   6  28  1   
 15   7  10  ar  
 16   7  11  ar  
 17   8  12  1   
 18   8  13  2   
 19   9  14  1   
 20   9  29  1   
 21   9  30  1   
 22  10  15  1   
 23  10  16  ar  
 24  11  17  ar  
 25  11  31  1   
 26  12  18  1   
 27  12  32  1   
 28  13  19  1   
 29  13  33  1   
 30  14  34  1   
 31  15  20  1   
 32  16  21  ar  
 33  16  35  1   
 34  17  21  ar  
 35  17  36  1   
 36  18  19  2   
 37  18  22  1   
 38  20  37  1   
 39  20  38  1   
 40  20  39  1   
 41  21  40  1   
 42  22  41  1   
 43  22  42  1   
 44  22  43  1   
@<TRIPOS>SUBSTRUCTURE
  1 ****   3 GROUP 4 **** **** 0

# MOE 2024.06 (io_trps.svl 2023.06)
