@<TRIPOS>MOLECULE
NONAME
56 59 1 0 0 
SMALL
USER_CHARGES


@<TRIPOS>ATOM
  1 O       -3.9420    -1.5610    -2.3920 O.2   1 <1>  -0.5700 
  2 C       -3.3180    -1.4470    -1.3620 C.2   1 <1>   0.5690 
  3 N       -3.4790    -0.3590    -0.5400 N.am  1 <1>  -0.6600 
  4 C       -2.3230    -2.5420    -1.0070 C.3   1 <1>  -0.0190 
  5 C       -2.8540    -0.3150     0.8230 C.3   1 <1>   0.2200 
  6 C       -4.2540     0.8430    -0.9560 C.3   1 <1>   0.0600 
  7 C       -0.9100    -1.9630    -0.8370 C.3   1 <1>   0.1200 
  8 C       -2.7650    -3.4010     0.1930 C.3   1 <1>   0.2090 
  9 C       -1.3190    -0.2150     0.7120 C.3   1 <1>   0.1200 
 10 C       -3.3100    -1.4840     1.7450 C.3   1 <1>   0.2090 
 11 O       -0.7110    -1.4440     0.4420 O.3   1 <1>  -0.5600 
 12 N       -3.7990    -2.7150     1.0300 N.pl3 1 <1>  -0.8380 
 13 C       -5.1050    -3.0730     0.9340 C.ar  1 <1>   0.4100 
 14 N       -5.3830    -4.3590     0.8590 N.ar  1 <1>  -0.6200 
 15 C       -6.1190    -2.1000     0.8710 C.ar  1 <1>  -0.1500 
 16 C       -6.6460    -4.7290     0.7070 C.ar  1 <1>   0.7710 
 17 C       -7.4040    -2.4920     0.7050 C.ar  1 <1>   0.2180 
 18 N       -7.6340    -3.8220     0.6250 N.ar  1 <1>  -0.1790 
 19 N       -6.9580    -6.0530     0.6240 N.pl3 1 <1>  -0.8380 
 20 C       -8.5750    -1.5250     0.5940 C.3   1 <1>  -0.0170 
 21 C       -8.3230    -6.6620     0.5710 C.3   1 <1>   0.2090 
 22 C       -5.8920    -7.1060     0.5390 C.3   1 <1>   0.2090 
 23 C       -9.2350    -1.5810    -0.7900 C.3   1 <1>  -0.2400 
 24 C       -8.5050    -7.3710    -0.7740 C.3   1 <1>  -0.1600 
 25 C       -6.0210    -7.8400    -0.8000 C.3   1 <1>  -0.1600 
 26 C       -7.4220    -8.4380    -0.9930 C.3   1 <1>  -0.1600 
 27 H       -2.2700    -3.1950    -1.8580 H     1 <1>   0.0800 
 28 H       -3.1710     0.5960     1.2990 H     1 <1>   0.0800 
 29 H       -5.0700     1.0090    -0.2760 H     1 <1>   0.0800 
 30 H       -4.6550     0.7130    -1.9480 H     1 <1>   0.0800 
 31 H       -3.6120     1.7060    -0.9610 H     1 <1>   0.0800 
 32 H       -0.7070    -1.1990    -1.5700 H     1 <1>   0.0800 
 33 H       -0.1870    -2.7510    -0.9640 H     1 <1>   0.0800 
 34 H       -1.9190    -3.6580     0.8090 H     1 <1>   0.0800 
 35 H       -3.1610    -4.3250    -0.1900 H     1 <1>   0.0800 
 36 H       -0.9210     0.1190     1.6540 H     1 <1>   0.0800 
 37 H       -1.0320     0.4960    -0.0430 H     1 <1>   0.0800 
 38 H       -4.0890    -1.1220     2.3910 H     1 <1>   0.0800 
 39 H       -2.4950    -1.7630     2.3920 H     1 <1>   0.0800 
 40 H       -5.8460    -1.0660     0.9250 H     1 <1>   0.1500 
 41 H       -8.5560    -4.1970     0.4590 H     1 <1>   0.4570 
 42 H       -9.3030    -1.7440     1.3550 H     1 <1>   0.0800 
 43 H       -8.2240    -0.5210     0.7660 H     1 <1>   0.0800 
 44 H       -8.4160    -7.3830     1.3680 H     1 <1>   0.0800 
 45 H       -9.1000    -5.9330     0.7060 H     1 <1>   0.0800 
 46 H       -4.9010    -6.6940     0.6190 H     1 <1>   0.0800 
 47 H       -6.0160    -7.8040     1.3510 H     1 <1>   0.0800 
 48 H       -9.6690    -2.5460    -0.9840 H     1 <1>   0.0800 
 49 H       -8.5130    -1.3650    -1.5600 H     1 <1>   0.0800 
 50 H      -10.0180    -0.8440    -0.8520 H     1 <1>   0.0800 
 51 H       -9.4740    -7.8380    -0.8060 H     1 <1>   0.0800 
 52 H       -8.4630    -6.6470    -1.5690 H     1 <1>   0.0800 
 53 H       -5.8060    -7.1480    -1.5950 H     1 <1>   0.0800 
 54 H       -5.2860    -8.6240    -0.8450 H     1 <1>   0.0800 
 55 H       -7.5090    -8.8510    -1.9830 H     1 <1>   0.0800 
 56 H       -7.5650    -9.2400    -0.2880 H     1 <1>   0.0800 
@<TRIPOS>BOND
  1   1   2  2   
  2   2   3  am  
  3   2   4  1   
  4   3   5  1   
  5   3   6  1   
  6   4   7  1   
  7   4   8  1   
  8   4  27  1   
  9   5   9  1   
 10   5  10  1   
 11   5  28  1   
 12   6  29  1   
 13   6  30  1   
 14   6  31  1   
 15   7  11  1   
 16   7  32  1   
 17   7  33  1   
 18   8  12  1   
 19   8  34  1   
 20   8  35  1   
 21   9  11  1   
 22   9  36  1   
 23   9  37  1   
 24  10  12  1   
 25  10  38  1   
 26  10  39  1   
 27  12  13  1   
 28  13  14  ar  
 29  13  15  ar  
 30  14  16  ar  
 31  15  17  ar  
 32  15  40  1   
 33  16  18  ar  
 34  16  19  1   
 35  17  18  ar  
 36  17  20  1   
 37  18  41  1   
 38  19  21  1   
 39  19  22  1   
 40  20  23  1   
 41  20  42  1   
 42  20  43  1   
 43  21  24  1   
 44  21  44  1   
 45  21  45  1   
 46  22  25  1   
 47  22  46  1   
 48  22  47  1   
 49  23  48  1   
 50  23  49  1   
 51  23  50  1   
 52  24  26  1   
 53  24  51  1   
 54  24  52  1   
 55  25  26  1   
 56  25  53  1   
 57  25  54  1   
 58  26  55  1   
 59  26  56  1   
@<TRIPOS>SUBSTRUCTURE
  1 ****  13 GROUP 4 **** **** 0

# MOE 2024.06 (io_trps.svl 2023.06)
