@<TRIPOS>MOLECULE
NONAME
51 54 1 0 0 
SMALL
USER_CHARGES


@<TRIPOS>ATOM
  1 O        0.5090     2.1230    -1.7860 O.2   1 <1>  -0.5700 
  2 C       -0.0130     3.1740    -1.4950 C.2   1 <1>   0.5690 
  3 N       -0.7260     3.3740    -0.3420 N.am  1 <1>  -0.5090 
  4 C        0.1350     4.3430    -2.4590 C.3   1 <1>   0.1810 
  5 C       -1.3430     4.7080    -0.0390 C.3   1 <1>   0.3640 
  6 C       -0.6940     2.3970     0.7770 C.3   1 <1>   0.0490 
  7 O        0.2680     5.5510    -1.7560 O.3   1 <1>  -0.5600 
  8 C       -2.8650     4.6200    -0.1540 C.ar  1 <1>  -0.1440 
  9 C       -0.8420     5.8820    -0.9330 C.3   1 <1>   0.2610 
 10 C       -1.1590     0.9980     0.5220 C.3   1 <1>  -0.2000 
 11 C       -1.9630     1.8990     1.4010 C.3   1 <1>  -0.2000 
 12 C       -3.4790     3.8810    -1.1580 C.ar  1 <1>   0.1600 
 13 C       -3.6670     5.2960     0.7460 C.ar  1 <1>  -0.1500 
 14 C       -0.5110     7.0950    -0.0540 C.2   1 <1>   0.5690 
 15 N       -4.7850     3.7770    -1.3370 N.ar  1 <1>  -0.6200 
 16 C       -5.0310     5.1920     0.5790 C.ar  1 <1>  -0.1500 
 17 O       -1.3150     7.4700     0.7670 O.2   1 <1>  -0.5700 
 18 N        0.6790     7.7270    -0.2050 N.am  1 <1>  -0.7300 
 19 C       -5.5310     4.4330    -0.4630 C.ar  1 <1>   0.1600 
 20 C        1.1590     8.8610     0.6010 C.3   1 <1>   0.2840 
 21 C        2.6760     8.8110     0.6450 C.ar  1 <1>  -0.1440 
 22 C        3.4340     9.7700    -0.0090 C.ar  1 <1>  -0.1500 
 23 C        3.3180     7.8010     1.3450 C.ar  1 <1>  -0.1500 
 24 C        4.8190     9.7280     0.0310 C.ar  1 <1>  -0.1440 
 25 C        4.7000     7.7520     1.3910 C.ar  1 <1>  -0.1500 
 26 C        5.4490     8.7140     0.7360 C.ar  1 <1>  -0.1500 
 27 C        5.6360    10.7880    -0.6860 C.3   1 <1>   0.2630 
 28 O        5.5380    11.9540     0.0460 O.3   1 <1>  -0.6800 
 29 H       -0.7190     4.4050    -3.1090 H     1 <1>   0.0800 
 30 H        1.0210     4.2080    -3.0520 H     1 <1>   0.0800 
 31 H       -1.1010     4.9390     0.9840 H     1 <1>   0.0800 
 32 H        0.1710     2.5260     1.4060 H     1 <1>   0.1000 
 33 H       -1.6350     6.1830    -1.5940 H     1 <1>   0.0800 
 34 H       -1.5330     0.7510    -0.4570 H     1 <1>   0.1000 
 35 H       -0.6170     0.1860     0.9730 H     1 <1>   0.1000 
 36 H       -1.9760     1.6900     2.4550 H     1 <1>   0.1000 
 37 H       -2.9280     2.2010     1.0340 H     1 <1>   0.1000 
 38 H       -2.8680     3.3380    -1.8590 H     1 <1>   0.1500 
 39 H       -3.2560     5.8880     1.5480 H     1 <1>   0.1500 
 40 H       -5.7030     5.6980     1.2490 H     1 <1>   0.1500 
 41 H        1.3470     7.3580    -0.8900 H     1 <1>   0.3700 
 42 H       -6.5980     4.3610    -0.5850 H     1 <1>   0.1500 
 43 H        0.8240     9.7810     0.1540 H     1 <1>   0.0800 
 44 H        0.7570     8.8000     1.5980 H     1 <1>   0.0800 
 45 H        2.9480    10.5620    -0.5550 H     1 <1>   0.1500 
 46 H        2.7410     7.0480     1.8550 H     1 <1>   0.1500 
 47 H        5.1920     6.9650     1.9350 H     1 <1>   0.1500 
 48 H        6.5230     8.6670     0.7800 H     1 <1>   0.1500 
 49 H        5.2600    10.9760    -1.6770 H     1 <1>   0.0800 
 50 H        6.6740    10.5110    -0.7420 H     1 <1>   0.0800 
 51 H        5.4340    11.7150     0.9870 H     1 <1>   0.4000 
@<TRIPOS>BOND
  1   1   2  2   
  2   2   3  am  
  3   2   4  1   
  4   3   5  1   
  5   3   6  1   
  6   4   7  1   
  7   4  29  1   
  8   4  30  1   
  9   5   8  1   
 10   5   9  1   
 11   5  31  1   
 12   6  10  1   
 13   6  11  1   
 14   6  32  1   
 15   7   9  1   
 16   8  12  ar  
 17   8  13  ar  
 18   9  14  1   
 19   9  33  1   
 20  10  11  1   
 21  10  34  1   
 22  10  35  1   
 23  11  36  1   
 24  11  37  1   
 25  12  15  ar  
 26  12  38  1   
 27  13  16  ar  
 28  13  39  1   
 29  14  17  2   
 30  14  18  am  
 31  15  19  ar  
 32  16  19  ar  
 33  16  40  1   
 34  18  20  1   
 35  18  41  1   
 36  19  42  1   
 37  20  21  1   
 38  20  43  1   
 39  20  44  1   
 40  21  22  ar  
 41  21  23  ar  
 42  22  24  ar  
 43  22  45  1   
 44  23  25  ar  
 45  23  46  1   
 46  24  26  ar  
 47  24  27  1   
 48  25  26  ar  
 49  25  47  1   
 50  26  48  1   
 51  27  28  1   
 52  27  49  1   
 53  27  50  1   
 54  28  51  1   
@<TRIPOS>SUBSTRUCTURE
  1 ****  14 GROUP 4 **** **** 0

# MOE 2024.06 (io_trps.svl 2023.06)
