@<TRIPOS>MOLECULE
NONAME
47 49 1 0 0 
SMALL
USER_CHARGES


@<TRIPOS>ATOM
  1 F       -0.4780    -0.7940     0.1690 F     1 <1>  -0.1900 
  2 C       -0.5130    -2.0970     0.0870 C.ar  1 <1>   0.1900 
  3 C       -0.8260    -2.6810    -1.1260 C.ar  1 <1>  -0.1500 
  4 C       -0.2370    -2.8440     1.2150 C.ar  1 <1>  -0.1500 
  5 C       -0.8630    -4.0630    -1.2060 C.ar  1 <1>  -0.1500 
  6 C       -0.2760    -4.2260     1.1230 C.ar  1 <1>  -0.1500 
  7 C       -0.5890    -4.8380    -0.0850 C.ar  1 <1>  -0.1430 
  8 C       -0.6360    -6.3540    -0.1870 C.3   1 <1>  -0.0160 
  9 C       -2.0710    -6.8530    -0.0240 C.3   1 <1>   0.1400 
 10 N       -2.1050    -8.3330    -0.0880 N.am  1 <1>  -0.7300 
 11 C       -2.3800    -9.0500    -1.2150 C.2   1 <1>   0.5690 
 12 O       -2.5490    -8.5040    -2.2790 O.2   1 <1>  -0.5700 
 13 C       -2.4200   -10.5850    -1.1490 C.3   1 <1>   0.1710 
 14 N       -3.6820   -11.1900    -0.6270 N.3   1 <1>  -0.8100 
 15 C       -3.7170   -12.6350    -0.8980 C.3   1 <1>   0.2900 
 16 C       -3.8980   -10.9040     0.8020 C.3   1 <1>   0.0300 
 17 C       -5.1310   -13.1380    -0.7250 C.2   1 <1>  -0.3320 
 18 N       -6.1940   -12.4310    -1.1510 N.pl3 1 <1>   0.3000 
 19 C       -5.6170   -14.2680    -0.1690 C.2   1 <1>  -0.1500 
 20 N       -7.3540   -13.0680    -0.8940 N.2   1 <1>  -0.7070 
 21 C       -6.9980   -14.1700    -0.3080 C.2   1 <1>   0.2030 
 22 C       -7.9960   -15.2100     0.1680 C.3   1 <1>  -0.0140 
 23 C       -7.7280   -16.6760     0.0020 C.3   1 <1>  -0.2000 
 24 C       -8.7700   -16.0060    -0.8370 C.3   1 <1>  -0.2000 
 25 H       -1.0360    -2.0660    -1.9820 H     1 <1>   0.1500 
 26 H        0.0030    -2.3530     2.1410 H     1 <1>   0.1500 
 27 H       -1.1060    -4.5340    -2.1440 H     1 <1>   0.1500 
 28 H       -0.0630    -4.8190     1.9940 H     1 <1>   0.1500 
 29 H       -0.0110    -6.7890     0.5720 H     1 <1>   0.0800 
 30 H       -0.2620    -6.6590    -1.1490 H     1 <1>   0.0800 
 31 H       -2.6850    -6.4430    -0.8100 H     1 <1>   0.0800 
 32 H       -2.4730    -6.5250     0.9190 H     1 <1>   0.0800 
 33 H       -1.9720    -8.8240     0.7960 H     1 <1>   0.3700 
 34 H       -1.5880   -10.9250    -0.5600 H     1 <1>   0.0800 
 35 H       -2.2630   -10.9310    -2.1550 H     1 <1>   0.0800 
 36 H       -3.0440   -13.1610    -0.2420 H     1 <1>   0.0800 
 37 H       -3.4190   -12.8200    -1.9170 H     1 <1>   0.0800 
 38 H       -4.0130    -9.8450     0.9540 H     1 <1>   0.0800 
 39 H       -3.0730   -11.2650     1.3910 H     1 <1>   0.0800 
 40 H       -4.8020   -11.3780     1.1480 H     1 <1>   0.0800 
 41 H       -6.1370   -11.5020    -1.5890 H     1 <1>   0.2700 
 42 H       -5.0900   -15.0860     0.2870 H     1 <1>   0.1500 
 43 H       -8.5270   -14.8850     1.0450 H     1 <1>   0.1000 
 44 H       -8.0410   -17.3470     0.7820 H     1 <1>   0.1000 
 45 H       -6.8180   -16.9920    -0.4760 H     1 <1>   0.1000 
 46 H       -8.5730   -15.8170    -1.8780 H     1 <1>   0.1000 
 47 H       -9.8110   -16.1940    -0.6410 H     1 <1>   0.1000 
@<TRIPOS>BOND
  1   1   2  1   
  2   2   3  ar  
  3   2   4  ar  
  4   3   5  ar  
  5   3  25  1   
  6   4   6  ar  
  7   4  26  1   
  8   5   7  ar  
  9   5  27  1   
 10   6   7  ar  
 11   6  28  1   
 12   7   8  1   
 13   8   9  1   
 14   8  29  1   
 15   8  30  1   
 16   9  10  1   
 17   9  31  1   
 18   9  32  1   
 19  10  11  am  
 20  10  33  1   
 21  11  12  2   
 22  11  13  1   
 23  13  14  1   
 24  13  34  1   
 25  13  35  1   
 26  14  15  1   
 27  14  16  1   
 28  15  17  1   
 29  15  36  1   
 30  15  37  1   
 31  16  38  1   
 32  16  39  1   
 33  16  40  1   
 34  17  18  1   
 35  17  19  2   
 36  18  20  1   
 37  18  41  1   
 38  19  21  1   
 39  19  42  1   
 40  20  21  2   
 41  21  22  1   
 42  22  23  1   
 43  22  24  1   
 44  22  43  1   
 45  23  24  1   
 46  23  44  1   
 47  23  45  1   
 48  24  46  1   
 49  24  47  1   
@<TRIPOS>SUBSTRUCTURE
  1 ****  11 GROUP 4 **** **** 0

# MOE 2024.06 (io_trps.svl 2023.06)
