@<TRIPOS>MOLECULE
NONAME
53 56 1 0 0 
SMALL
USER_CHARGES


@<TRIPOS>ATOM
  1 S       -0.3670    -1.0850    -0.9830 S.o2  1 <1>   1.0900 
  2 O       -0.4660     0.3260    -0.6960 O.2   1 <1>  -0.6500 
  3 O        0.9080    -1.7570    -1.0790 O.2   1 <1>  -0.6500 
  4 C       -1.3810    -2.0190     0.1260 C.3   1 <1>  -0.0550 
  5 C       -1.3160    -1.4980    -2.4410 C.3   1 <1>  -0.0550 
  6 C       -1.8590    -3.2020    -0.7110 C.3   1 <1>   0.1760 
  7 C       -2.2790    -2.6440    -2.0860 C.3   1 <1>  -0.1600 
  8 N       -2.9700    -3.9210    -0.0430 N.pl3 1 <1>   0.3140 
  9 N       -4.0590    -3.2630     0.3930 N.2   1 <1>  -0.7070 
 10 C       -3.0590    -5.2510     0.2100 C.2   1 <1>  -0.3320 
 11 C       -4.8150    -4.1750     0.9220 C.2   1 <1>   0.1080 
 12 C       -4.2370    -5.4480     0.8420 C.2   1 <1>   0.0630 
 13 C       -1.9980    -6.2770    -0.1690 C.3   1 <1>  -0.0600 
 14 C       -6.1600    -3.8230     1.5160 C.3   1 <1>  -0.0590 
 15 N       -4.7160    -6.7120     1.2670 N.am  1 <1>  -0.4930 
 16 C       -5.4530    -7.0690     2.3540 C.2   1 <1>   0.5690 
 17 O       -5.8820    -6.2910     3.1700 O.2   1 <1>  -0.5700 
 18 C       -5.7510    -8.5380     2.5490 C.3   1 <1>  -0.0990 
 19 C       -6.6110    -9.0850     1.4000 C.3   1 <1>   0.1400 
 20 N       -5.9960   -10.3030     0.8060 N.am  1 <1>  -0.4200 
 21 C       -4.8830   -10.2140    -0.0020 C.2   1 <1>   0.5440 
 22 C       -6.5640   -11.5330     1.0390 C.2   1 <1>   0.4500 
 23 O       -4.3480    -9.1280    -0.1780 O.2   1 <1>  -0.5700 
 24 C       -4.3770   -11.4200    -0.5960 C.ar  1 <1>   0.0860 
 25 N       -6.1410   -12.6330     0.5450 N.2   1 <1>  -0.6290 
 26 C       -5.0410   -12.6140    -0.2900 C.ar  1 <1>   0.1790 
 27 C       -3.2710   -11.4620    -1.4510 C.ar  1 <1>  -0.1500 
 28 C       -4.5870   -13.8090    -0.8360 C.ar  1 <1>  -0.1500 
 29 C       -2.8330   -12.6560    -1.9860 C.ar  1 <1>  -0.1500 
 30 C       -3.4940   -13.8360    -1.6770 C.ar  1 <1>  -0.1500 
 31 H       -2.2210    -1.4240     0.4320 H     1 <1>   0.0800 
 32 H       -0.8300    -2.3410     0.9880 H     1 <1>   0.0800 
 33 H       -0.6530    -1.7970    -3.2310 H     1 <1>   0.0800 
 34 H       -1.8770    -0.6450    -2.7740 H     1 <1>   0.0800 
 35 H       -1.0340    -3.8780    -0.8450 H     1 <1>   0.0800 
 36 H       -2.2600    -3.4150    -2.8370 H     1 <1>   0.0800 
 37 H       -3.2790    -2.2450    -2.0210 H     1 <1>   0.0800 
 38 H       -1.0650    -6.0430     0.3110 H     1 <1>   0.0800 
 39 H       -1.8560    -6.2890    -1.2350 H     1 <1>   0.0800 
 40 H       -2.2930    -7.2640     0.1410 H     1 <1>   0.0800 
 41 H       -6.5190    -2.9040     1.0910 H     1 <1>   0.0800 
 42 H       -6.0620    -3.7010     2.5780 H     1 <1>   0.0800 
 43 H       -6.8700    -4.6020     1.3120 H     1 <1>   0.0800 
 44 H       -4.4000    -7.4900     0.6710 H     1 <1>   0.3700 
 45 H       -6.2770    -8.6630     3.4780 H     1 <1>   0.0800 
 46 H       -4.8160    -9.0630     2.6270 H     1 <1>   0.0800 
 47 H       -6.7240    -8.3460     0.6230 H     1 <1>   0.0800 
 48 H       -7.5970    -9.3120     1.7670 H     1 <1>   0.0800 
 49 H       -7.4240   -11.5470     1.6850 H     1 <1>   0.0600 
 50 H       -2.7600   -10.5460    -1.6900 H     1 <1>   0.1500 
 51 H       -5.1070   -14.7180    -0.5900 H     1 <1>   0.1500 
 52 H       -1.9800   -12.6780    -2.6440 H     1 <1>   0.1500 
 53 H       -3.1520   -14.7680    -2.0940 H     1 <1>   0.1500 
@<TRIPOS>BOND
  1   1   2  2   
  2   1   3  2   
  3   1   4  1   
  4   1   5  1   
  5   4   6  1   
  6   4  31  1   
  7   4  32  1   
  8   5   7  1   
  9   5  33  1   
 10   5  34  1   
 11   6   7  1   
 12   6   8  1   
 13   6  35  1   
 14   7  36  1   
 15   7  37  1   
 16   8   9  1   
 17   8  10  1   
 18   9  11  2   
 19  10  12  2   
 20  10  13  1   
 21  11  12  1   
 22  11  14  1   
 23  12  15  1   
 24  13  38  1   
 25  13  39  1   
 26  13  40  1   
 27  14  41  1   
 28  14  42  1   
 29  14  43  1   
 30  15  16  am  
 31  15  44  1   
 32  16  17  2   
 33  16  18  1   
 34  18  19  1   
 35  18  45  1   
 36  18  46  1   
 37  19  20  1   
 38  19  47  1   
 39  19  48  1   
 40  20  21  am  
 41  20  22  1   
 42  21  23  2   
 43  21  24  1   
 44  22  25  2   
 45  22  49  1   
 46  24  26  ar  
 47  24  27  ar  
 48  25  26  1   
 49  26  28  ar  
 50  27  29  ar  
 51  27  50  1   
 52  28  30  ar  
 53  28  51  1   
 54  29  30  ar  
 55  29  52  1   
 56  30  53  1   
@<TRIPOS>SUBSTRUCTURE
  1 ****  15 GROUP 4 **** **** 0

# MOE 2024.06 (io_trps.svl 2023.06)
