@<TRIPOS>MOLECULE
NONAME
52 55 1 0 0 
SMALL
USER_CHARGES


@<TRIPOS>ATOM
  1 O       -1.2900     0.2250     0.8200 O.2   1 <1>  -0.5700 
  2 C       -2.1180     1.1200     0.8550 C.2   1 <1>   0.5440 
  3 N       -3.4360     0.7640     1.0370 N.am  1 <1>  -0.6600 
  4 C       -1.7110     2.5020     0.6790 C.ar  1 <1>   0.0860 
  5 C       -3.7770    -0.5960     1.5420 C.3   1 <1>   0.1400 
  6 C       -4.5320     1.3790     0.2350 C.3   1 <1>   0.1400 
  7 C       -0.6580     2.8370    -0.1750 C.ar  1 <1>  -0.1500 
  8 C       -2.3480     3.5460     1.3530 C.ar  1 <1>  -0.1500 
  9 C       -4.0020    -1.5250     0.3270 C.3   1 <1>   0.4230 
 10 C       -4.8360     0.4650    -0.9620 C.3   1 <1>  -0.1600 
 11 C       -0.2620     4.1490    -0.3690 C.ar  1 <1>  -0.1440 
 12 C       -1.9650     4.8600     1.1700 C.ar  1 <1>  -0.1500 
 13 N       -4.2240    -2.9680     0.6800 N.4   1 <1>  -0.9590 
 14 C       -5.1740    -0.9910    -0.5270 C.3   1 <1>  -0.1060 
 15 C       -0.9240     5.1680     0.3120 C.ar  1 <1>   0.0830 
 16 C        0.8830     4.4710    -1.3140 C.3   1 <1>  -0.0170 
 17 C       -4.3110    -3.8250    -0.5280 C.3   1 <1>   0.3430 
 18 C       -3.2900    -3.5160     1.6980 C.3   1 <1>   0.2630 
 19 C       -6.4570    -1.0220     0.3270 C.2   1 <1>   0.9060 
 20 C       -5.3340    -1.8650    -1.7940 C.3   1 <1>  -0.1600 
 21 O       -0.5890     6.4680     0.1590 O.3   1 <1>  -0.3630 
 22 C        0.8360     5.9460    -1.7210 C.3   1 <1>  -0.1600 
 23 C       -5.4480    -3.3550    -1.4390 C.3   1 <1>  -0.1600 
 24 O       -6.5930    -1.9220     1.1730 O.co2 1 <1>  -0.9000 
 25 O       -7.3120    -0.1520     0.1710 O.co2 1 <1>  -0.9000 
 26 C        0.6210     6.8190    -0.4830 C.3   1 <1>   0.1200 
 27 H       -2.9660    -0.9520     2.1490 H     1 <1>   0.0800 
 28 H       -4.6590    -0.5360     2.1570 H     1 <1>   0.0800 
 29 H       -5.4100     1.4920     0.8520 H     1 <1>   0.0800 
 30 H       -4.2500     2.3540    -0.1220 H     1 <1>   0.0800 
 31 H       -0.1470     2.0430    -0.6920 H     1 <1>   0.1500 
 32 H       -3.1530     3.3190     2.0300 H     1 <1>   0.1500 
 33 H       -3.1050    -1.4670    -0.2660 H     1 <1>   0.0800 
 34 H       -5.6680     0.8810    -1.5060 H     1 <1>   0.0800 
 35 H       -3.9860     0.4730    -1.6210 H     1 <1>   0.0800 
 36 H       -2.4660     5.6570     1.6900 H     1 <1>   0.1500 
 37 H       -5.2000    -2.9220     1.0820 H     1 <1>   0.4500 
 38 H        1.8110     4.2660    -0.8090 H     1 <1>   0.0800 
 39 H        0.8300     3.8500    -2.1910 H     1 <1>   0.0800 
 40 H       -3.3780    -3.7830    -1.0670 H     1 <1>   0.0800 
 41 H       -4.4930    -4.8470    -0.2380 H     1 <1>   0.0800 
 42 H       -2.2730    -3.4470     1.3460 H     1 <1>   0.0800 
 43 H       -3.5240    -4.5480     1.8980 H     1 <1>   0.0800 
 44 H       -3.3790    -2.9640     2.6190 H     1 <1>   0.0800 
 45 H       -6.2160    -1.5550    -2.3300 H     1 <1>   0.0800 
 46 H       -4.4870    -1.7240    -2.4430 H     1 <1>   0.0800 
 47 H        0.0260     6.1120    -2.4100 H     1 <1>   0.0800 
 48 H        1.7530     6.2200    -2.2100 H     1 <1>   0.0800 
 49 H       -5.4420    -3.9390    -2.3420 H     1 <1>   0.0800 
 50 H       -6.3890    -3.5420    -0.9480 H     1 <1>   0.0800 
 51 H        0.5590     7.8590    -0.7510 H     1 <1>   0.0800 
 52 H        1.4190     6.6820     0.2260 H     1 <1>   0.0800 
@<TRIPOS>BOND
  1   1   2  2   
  2   2   3  am  
  3   2   4  1   
  4   3   5  1   
  5   3   6  1   
  6   4   7  ar  
  7   4   8  ar  
  8   5   9  1   
  9   5  27  1   
 10   5  28  1   
 11   6  10  1   
 12   6  29  1   
 13   6  30  1   
 14   7  11  ar  
 15   7  31  1   
 16   8  12  ar  
 17   8  32  1   
 18   9  13  1   
 19   9  14  1   
 20   9  33  1   
 21  10  14  1   
 22  10  34  1   
 23  10  35  1   
 24  11  15  ar  
 25  11  16  1   
 26  12  15  ar  
 27  12  36  1   
 28  13  17  1   
 29  13  18  1   
 30  13  37  1   
 31  14  19  1   
 32  14  20  1   
 33  15  21  1   
 34  16  22  1   
 35  16  38  1   
 36  16  39  1   
 37  17  23  1   
 38  17  40  1   
 39  17  41  1   
 40  18  42  1   
 41  18  43  1   
 42  18  44  1   
 43  19  24  ar  
 44  19  25  ar  
 45  20  23  1   
 46  20  45  1   
 47  20  46  1   
 48  21  26  1   
 49  22  26  1   
 50  22  47  1   
 51  22  48  1   
 52  23  49  1   
 53  23  50  1   
 54  26  51  1   
 55  26  52  1   
@<TRIPOS>SUBSTRUCTURE
  1 ****   3 GROUP 4 **** **** 0

# MOE 2024.06 (io_trps.svl 2023.06)
