@<TRIPOS>MOLECULE
NONAME
40 41 1 0 0 
SMALL
USER_CHARGES


@<TRIPOS>ATOM
  1 S       -0.5120     0.3610     1.0490 S.3   1 <1>  -0.0800 
  2 C        0.2750     1.6640     0.1770 C.2   1 <1>  -0.1400 
  3 C       -1.3560    -0.1610    -0.3960 C.2   1 <1>  -0.1400 
  4 C       -0.1000     1.6600    -1.1180 C.2   1 <1>  -0.1500 
  5 C        1.1970     2.5310     1.0030 C.3   1 <1>   0.5230 
  6 C       -1.0300     0.6210    -1.4400 C.2   1 <1>  -0.1500 
  7 C       -2.2770    -1.3570    -0.2690 C.3   1 <1>  -0.0600 
  8 N        1.0760     3.9410     0.5380 N.4   1 <1>  -0.9590 
  9 C        2.3780     4.6560     0.6750 C.3   1 <1>   0.4860 
 10 C       -0.0400     4.6850     1.2290 C.3   1 <1>   0.3430 
 11 C        2.3200     5.9610    -0.0850 C.ar  1 <1>  -0.1430 
 12 C       -1.4500     4.1630     0.9110 C.3   1 <1>   0.1200 
 13 C        2.4350     5.9960    -1.4580 C.ar  1 <1>   0.1600 
 14 C        2.1540     7.1680     0.5610 C.ar  1 <1>   0.1600 
 15 O       -2.3480     5.0270     1.5080 O.3   1 <1>  -0.6800 
 16 N        2.3600     7.1130    -2.1370 N.ar  1 <1>  -0.6200 
 17 N        2.0780     8.3040    -0.0890 N.ar  1 <1>  -0.6200 
 18 C        2.1860     8.2010    -1.4060 C.ar  1 <1>   0.7220 
 19 S        2.0790     9.7230    -2.3320 S.3   1 <1>  -0.3320 
 20 C        1.8520    11.0490    -1.0640 C.3   1 <1>  -0.0100 
 21 H        0.2240     2.3300    -1.8960 H     1 <1>   0.1500 
 22 H        2.2060     2.1700     0.8820 H     1 <1>   0.0800 
 23 H        0.9320     2.4590     2.0460 H     1 <1>   0.0800 
 24 H       -1.4100     0.5060    -2.4420 H     1 <1>   0.1500 
 25 H       -3.0520    -1.1520     0.4480 H     1 <1>   0.0800 
 26 H       -1.7190    -2.2170     0.0580 H     1 <1>   0.0800 
 27 H       -2.7310    -1.5800    -1.2170 H     1 <1>   0.0800 
 28 H        0.8410     3.8950    -0.4610 H     1 <1>   0.4500 
 29 H        3.1750     4.0520     0.2710 H     1 <1>   0.0800 
 30 H        2.5920     4.8440     1.7150 H     1 <1>   0.0800 
 31 H       -0.0160     5.7190     0.9270 H     1 <1>   0.0800 
 32 H        0.1030     4.6480     2.2970 H     1 <1>   0.0800 
 33 H       -1.6170     3.1820     1.3220 H     1 <1>   0.0800 
 34 H       -1.6400     4.1660    -0.1490 H     1 <1>   0.0800 
 35 H        2.5900     5.0940    -2.0270 H     1 <1>   0.1500 
 36 H        2.0760     7.2170     1.6350 H     1 <1>   0.1500 
 37 H       -3.2770     4.7590     1.3370 H     1 <1>   0.4000 
 38 H        1.7820    11.9890    -1.5820 H     1 <1>   0.0800 
 39 H        2.7050    11.0320    -0.4100 H     1 <1>   0.0800 
 40 H        0.9470    10.8390    -0.5230 H     1 <1>   0.0800 
@<TRIPOS>BOND
  1   1   2  1   
  2   1   3  1   
  3   2   4  2   
  4   2   5  1   
  5   3   6  2   
  6   3   7  1   
  7   4   6  1   
  8   4  21  1   
  9   5   8  1   
 10   5  22  1   
 11   5  23  1   
 12   6  24  1   
 13   7  25  1   
 14   7  26  1   
 15   7  27  1   
 16   8   9  1   
 17   8  10  1   
 18   8  28  1   
 19   9  11  1   
 20   9  29  1   
 21   9  30  1   
 22  10  12  1   
 23  10  31  1   
 24  10  32  1   
 25  11  13  ar  
 26  11  14  ar  
 27  12  15  1   
 28  12  33  1   
 29  12  34  1   
 30  13  16  ar  
 31  13  35  1   
 32  14  17  ar  
 33  14  36  1   
 34  15  37  1   
 35  16  18  ar  
 36  17  18  ar  
 37  18  19  1   
 38  19  20  1   
 39  20  38  1   
 40  20  39  1   
 41  20  40  1   
@<TRIPOS>SUBSTRUCTURE
  1 ****   8 GROUP 4 **** **** 0

# MOE 2024.06 (io_trps.svl 2023.06)
