@<TRIPOS>MOLECULE
NONAME
42 44 1 0 0 
SMALL
USER_CHARGES


@<TRIPOS>ATOM
  1 F       -1.3220    -0.0830    -1.8260 F     1 <1>  -0.3400 
  2 C       -2.0920    -0.9600    -2.4600 C.3   1 <1>   1.3000 
  3 F       -3.3610    -0.6470    -2.2280 F     1 <1>  -0.3400 
  4 F       -1.8740    -0.8190    -3.7600 F     1 <1>  -0.3400 
  5 O       -1.8030    -2.2840    -2.0640 O.3   1 <1>  -0.3630 
  6 C       -1.9700    -2.5900    -0.7610 C.ar  1 <1>   0.0820 
  7 C       -3.1960    -3.0580    -0.3140 C.ar  1 <1>  -0.1500 
  8 C       -0.9100    -2.4530     0.1200 C.ar  1 <1>  -0.1500 
  9 C       -3.3730    -3.3750     1.0240 C.ar  1 <1>  -0.1440 
 10 C       -1.0830    -2.7720     1.4550 C.ar  1 <1>  -0.1500 
 11 C       -2.3110    -3.2300     1.9050 C.ar  1 <1>  -0.1500 
 12 C       -4.7180    -3.8830     1.5110 C.3   1 <1>   0.2840 
 13 N       -4.8540    -5.2870     1.1040 N.am  1 <1>  -0.7300 
 14 C       -5.9990    -5.8950     0.6840 C.2   1 <1>   0.7160 
 15 O       -7.0460    -5.2740     0.7520 O.2   1 <1>  -0.5700 
 16 C       -5.9350    -7.2540     0.1660 C.2   1 <1>   0.2030 
 17 N       -4.8370    -7.9830     0.0660 N.2   1 <1>  -0.7070 
 18 C       -7.0250    -7.9790    -0.3030 C.2   1 <1>  -0.1500 
 19 N       -5.2270    -9.1490    -0.4580 N.pl3 1 <1>   0.3140 
 20 C       -6.5590    -9.1930    -0.6970 C.2   1 <1>  -0.2370 
 21 C       -4.2410   -10.2110    -0.6980 C.3   1 <1>   0.0960 
 22 C       -7.2940   -10.2830    -1.2680 C.2   1 <1>   0.7150 
 23 C       -4.6960   -11.4910    -0.0010 C.3   1 <1>   0.2000 
 24 O       -8.4240   -10.1040    -1.6670 O.2   1 <1>  -0.5700 
 25 N       -6.8300   -11.5500    -1.4210 N.am  1 <1>  -0.7300 
 26 O       -3.5810   -12.2870     0.2320 O.3   1 <1>  -0.6800 
 27 C       -5.7020   -12.3140    -0.8210 C.3   1 <1>   0.1400 
 28 H       -4.0080    -3.1780    -1.0100 H     1 <1>   0.1500 
 29 H        0.0430    -2.1010    -0.2340 H     1 <1>   0.1500 
 30 H       -0.2630    -2.6650     2.1450 H     1 <1>   0.1500 
 31 H       -2.4320    -3.4760     2.9460 H     1 <1>   0.1500 
 32 H       -5.5130    -3.2940     1.0850 H     1 <1>   0.0800 
 33 H       -4.7830    -3.8160     2.5840 H     1 <1>   0.0800 
 34 H       -3.9860    -5.8130     0.9780 H     1 <1>   0.3700 
 35 H       -8.0400    -7.6200    -0.3410 H     1 <1>   0.1500 
 36 H       -3.3030    -9.8850    -0.2860 H     1 <1>   0.0800 
 37 H       -4.1390   -10.3560    -1.7560 H     1 <1>   0.0800 
 38 H       -5.1100   -11.2570     0.9660 H     1 <1>   0.0800 
 39 H       -7.5250   -12.1390    -1.8870 H     1 <1>   0.3700 
 40 H       -3.1090   -12.5080    -0.5960 H     1 <1>   0.4000 
 41 H       -6.1110   -13.0790    -0.1830 H     1 <1>   0.0800 
 42 H       -5.1770   -12.7990    -1.6260 H     1 <1>   0.0800 
@<TRIPOS>BOND
  1   1   2  1   
  2   2   3  1   
  3   2   4  1   
  4   2   5  1   
  5   5   6  1   
  6   6   7  ar  
  7   6   8  ar  
  8   7   9  ar  
  9   7  28  1   
 10   8  10  ar  
 11   8  29  1   
 12   9  11  ar  
 13   9  12  1   
 14  10  11  ar  
 15  10  30  1   
 16  11  31  1   
 17  12  13  1   
 18  12  32  1   
 19  12  33  1   
 20  13  14  am  
 21  13  34  1   
 22  14  15  2   
 23  14  16  1   
 24  16  17  2   
 25  16  18  1   
 26  17  19  1   
 27  18  20  2   
 28  18  35  1   
 29  19  20  1   
 30  19  21  1   
 31  20  22  1   
 32  21  23  1   
 33  21  36  1   
 34  21  37  1   
 35  22  24  2   
 36  22  25  am  
 37  23  26  1   
 38  23  27  1   
 39  23  38  1   
 40  25  27  1   
 41  25  39  1   
 42  26  40  1   
 43  27  41  1   
 44  27  42  1   
@<TRIPOS>SUBSTRUCTURE
  1 ****  13 GROUP 4 **** **** 0

# MOE 2024.06 (io_trps.svl 2023.06)
