@<TRIPOS>MOLECULE
NONAME
41 42 1 0 0 
SMALL
USER_CHARGES


@<TRIPOS>ATOM
  1 O        0.2560     2.0070    -1.3080 O.3   1 <1>  -0.0190 
  2 N        1.2720     2.7780    -1.0470 N.2   1 <1>  -0.4100 
  3 C       -0.3690     1.6460    -0.2210 C.2   1 <1>  -0.0100 
  4 C        1.2990     2.9160     0.2340 C.2   1 <1>   0.1080 
  5 C        0.2560     2.2040     0.8270 C.2   1 <1>  -0.1500 
  6 C        2.3440     3.7520     0.9630 C.3   1 <1>   0.5240 
  7 N        2.8650     4.8180     0.0490 N.4   1 <1>  -0.9590 
  8 C        4.2010     5.3210     0.4700 C.3   1 <1>   0.3430 
  9 C        1.8520     5.9040    -0.1510 C.3   1 <1>   0.2630 
 10 C        4.8480     6.1180    -0.6580 C.3   1 <1>  -0.1600 
 11 C        6.2570     6.5550    -0.2610 C.3   1 <1>   0.1200 
 12 O        6.7100     7.4490    -1.2470 O.3   1 <1>  -0.3630 
 13 C        7.2120     8.6460    -0.8470 C.ar  1 <1>   0.0820 
 14 C        6.4810     9.5670    -0.0840 C.ar  1 <1>   0.0820 
 15 C        8.5040     8.9430    -1.2480 C.ar  1 <1>  -0.1500 
 16 O        5.1910     9.2730     0.2650 O.3   1 <1>  -0.3620 
 17 C        7.0910    10.7640     0.2870 C.ar  1 <1>  -0.1500 
 18 C        9.0940    10.1390    -0.8790 C.ar  1 <1>  -0.1500 
 19 C        4.3160    10.2960     0.6910 C.3   1 <1>   0.0400 
 20 C        8.3880    11.0450    -0.1090 C.ar  1 <1>  -0.1500 
 21 H       -1.2310     1.0040    -0.2920 H     1 <1>   0.1500 
 22 H        0.0200     2.1240     1.8740 H     1 <1>   0.1500 
 23 H        3.1480     3.1000     1.2600 H     1 <1>   0.0800 
 24 H        1.9140     4.1930     1.8470 H     1 <1>   0.0800 
 25 H        2.9610     4.3340    -0.8620 H     1 <1>   0.4500 
 26 H        4.8410     4.4880     0.7150 H     1 <1>   0.0800 
 27 H        4.1050     5.9440     1.3460 H     1 <1>   0.0800 
 28 H        1.6900     6.4450     0.7670 H     1 <1>   0.0800 
 29 H        0.9140     5.4830    -0.4790 H     1 <1>   0.0800 
 30 H        2.1890     6.5970    -0.9050 H     1 <1>   0.0800 
 31 H        4.2720     7.0020    -0.8610 H     1 <1>   0.0800 
 32 H        4.9140     5.5190    -1.5480 H     1 <1>   0.0800 
 33 H        6.9380     5.7220    -0.2380 H     1 <1>   0.0800 
 34 H        6.2670     7.0440     0.6990 H     1 <1>   0.0800 
 35 H        9.0450     8.2360    -1.8490 H     1 <1>   0.1500 
 36 H        6.5780    11.4930     0.8840 H     1 <1>   0.1500 
 37 H       10.0990    10.3620    -1.1920 H     1 <1>   0.1500 
 38 H        3.3250     9.8860     0.7610 H     1 <1>   0.0800 
 39 H        4.3300    11.0930    -0.0320 H     1 <1>   0.0800 
 40 H        4.6320    10.6490     1.6570 H     1 <1>   0.0800 
 41 H        8.8490    11.9740     0.1810 H     1 <1>   0.1500 
@<TRIPOS>BOND
  1   1   2  1   
  2   1   3  1   
  3   2   4  2   
  4   3   5  2   
  5   3  21  1   
  6   4   5  1   
  7   4   6  1   
  8   5  22  1   
  9   6   7  1   
 10   6  23  1   
 11   6  24  1   
 12   7   8  1   
 13   7   9  1   
 14   7  25  1   
 15   8  10  1   
 16   8  26  1   
 17   8  27  1   
 18   9  28  1   
 19   9  29  1   
 20   9  30  1   
 21  10  11  1   
 22  10  31  1   
 23  10  32  1   
 24  11  12  1   
 25  11  33  1   
 26  11  34  1   
 27  12  13  1   
 28  13  14  ar  
 29  13  15  ar  
 30  14  16  1   
 31  14  17  ar  
 32  15  18  ar  
 33  15  35  1   
 34  16  19  1   
 35  17  20  ar  
 36  17  36  1   
 37  18  20  ar  
 38  18  37  1   
 39  19  38  1   
 40  19  39  1   
 41  19  40  1   
 42  20  41  1   
@<TRIPOS>SUBSTRUCTURE
  1 ****  10 GROUP 4 **** **** 0

# MOE 2024.06 (io_trps.svl 2023.06)
