@<TRIPOS>MOLECULE
NONAME
43 45 1 0 0 
SMALL
USER_CHARGES


@<TRIPOS>ATOM
  1 O        1.6930    -2.0550    -2.3310 O.3   1 <1>  -0.0190 
  2 N        1.7910    -3.2990    -1.9700 N.2   1 <1>  -0.4100 
  3 C        1.3820    -1.4230    -1.2260 C.2   1 <1>   0.2980 
  4 C        1.5530    -3.3450    -0.7220 C.2   1 <1>   0.3350 
  5 N        1.2860    -2.1610    -0.1870 N.2   1 <1>  -0.5650 
  6 C        1.1670     0.0820    -1.2910 C.3   1 <1>   0.3000 
  7 C        1.5040    -4.6370     0.0970 C.3   1 <1>   0.5240 
  8 O       -0.0540     0.3530    -1.9180 O.3   1 <1>  -0.5600 
  9 N        0.1000    -5.1650     0.2600 N.4   1 <1>  -0.9590 
 10 C       -0.3330     1.7100    -2.0620 C.3   1 <1>   0.0400 
 11 C       -0.5430    -5.3780    -1.0700 C.3   1 <1>   0.4860 
 12 C       -0.7310    -4.2520     1.1110 C.3   1 <1>   0.2630 
 13 C       -1.8290    -6.1500    -0.8520 C.ar  1 <1>  -0.1440 
 14 C       -1.7790    -7.4610    -0.4080 C.ar  1 <1>  -0.1500 
 15 C       -3.0600    -5.5530    -1.0750 C.ar  1 <1>  -0.1500 
 16 C       -2.9410    -8.1840    -0.1530 C.ar  1 <1>  -0.0230 
 17 C       -4.2250    -6.2610    -0.8380 C.ar  1 <1>  -0.1500 
 18 N       -2.8550    -9.5200     0.3370 N.pl3 1 <1>   0.5930 
 19 C       -4.1670    -7.5630    -0.3760 C.ar  1 <1>  -0.1500 
 20 N       -1.8110    -9.9550     1.0920 N.2   1 <1>  -0.7070 
 21 C       -3.7350   -10.5340     0.1490 C.2   1 <1>  -0.3020 
 22 C       -2.0650   -11.1990     1.3550 C.2   1 <1>   0.1390 
 23 C       -3.2610   -11.6220     0.7890 C.2   1 <1>  -0.1500 
 24 H        1.9590     0.5420    -1.8550 H     1 <1>   0.0800 
 25 H        1.1390     0.4910    -0.2970 H     1 <1>   0.0800 
 26 H        1.9400    -4.4480     1.0630 H     1 <1>   0.0800 
 27 H        2.1090    -5.3730    -0.4050 H     1 <1>   0.0800 
 28 H        0.1330    -6.0840     0.7210 H     1 <1>   0.4500 
 29 H       -1.2880     1.8050    -2.5490 H     1 <1>   0.0800 
 30 H        0.4270     2.1700    -2.6700 H     1 <1>   0.0800 
 31 H       -0.3760     2.1730    -1.0910 H     1 <1>   0.0800 
 32 H        0.1070    -5.9450    -1.7160 H     1 <1>   0.0800 
 33 H       -0.7520    -4.4310    -1.5440 H     1 <1>   0.0800 
 34 H       -0.8390    -3.2890     0.6380 H     1 <1>   0.0800 
 35 H       -0.2690    -4.1100     2.0750 H     1 <1>   0.0800 
 36 H       -1.7140    -4.6720     1.2620 H     1 <1>   0.0800 
 37 H       -0.8310    -7.9490    -0.2470 H     1 <1>   0.1500 
 38 H       -3.1300    -4.5380    -1.4330 H     1 <1>   0.1500 
 39 H       -5.1820    -5.7970    -1.0120 H     1 <1>   0.1500 
 40 H       -5.0850    -8.0930    -0.1860 H     1 <1>   0.1500 
 41 H       -4.6340   -10.4220    -0.4270 H     1 <1>   0.1500 
 42 H       -1.4180   -11.8290     1.9450 H     1 <1>   0.1500 
 43 H       -3.6840   -12.6080     0.8630 H     1 <1>   0.1500 
@<TRIPOS>BOND
  1   1   2  1   
  2   1   3  1   
  3   2   4  2   
  4   3   5  2   
  5   3   6  1   
  6   4   5  1   
  7   4   7  1   
  8   6   8  1   
  9   6  24  1   
 10   6  25  1   
 11   7   9  1   
 12   7  26  1   
 13   7  27  1   
 14   8  10  1   
 15   9  11  1   
 16   9  12  1   
 17   9  28  1   
 18  10  29  1   
 19  10  30  1   
 20  10  31  1   
 21  11  13  1   
 22  11  32  1   
 23  11  33  1   
 24  12  34  1   
 25  12  35  1   
 26  12  36  1   
 27  13  14  ar  
 28  13  15  ar  
 29  14  16  ar  
 30  14  37  1   
 31  15  17  ar  
 32  15  38  1   
 33  16  18  1   
 34  16  19  ar  
 35  17  19  ar  
 36  17  39  1   
 37  18  20  1   
 38  18  21  1   
 39  19  40  1   
 40  20  22  2   
 41  21  23  2   
 42  21  41  1   
 43  22  23  1   
 44  22  42  1   
 45  23  43  1   
@<TRIPOS>SUBSTRUCTURE
  1 ****  11 GROUP 4 **** **** 0

# MOE 2024.06 (io_trps.svl 2023.06)
