@<TRIPOS>MOLECULE
NONAME
48 50 1 0 0 
SMALL
USER_CHARGES


@<TRIPOS>ATOM
  1 CL       0.3750    -1.9070    -2.0550 Cl    1 <1>  -0.1770 
  2 C        0.0510    -2.7640    -0.5620 C.ar  1 <1>   0.1770 
  3 C        1.0630    -3.2840     0.2500 C.ar  1 <1>   0.0820 
  4 C       -1.2790    -2.9320    -0.2270 C.ar  1 <1>  -0.1500 
  5 O        2.3980    -3.1710     0.0300 O.3   1 <1>  -0.3630 
  6 C        0.6950    -3.9890     1.3850 C.ar  1 <1>  -0.1500 
  7 C       -1.6520    -3.6310     0.9150 C.ar  1 <1>  -0.0090 
  8 C        2.9590    -1.9680    -0.4460 C.3   1 <1>   0.0400 
  9 C       -0.6400    -4.1560     1.7120 C.ar  1 <1>  -0.1500 
 10 S       -3.4020    -3.8450     1.3410 S.o2  1 <1>   1.4470 
 11 O       -3.5350    -4.8980     2.3260 O.2   1 <1>  -0.6500 
 12 O       -3.9710    -2.5430     1.6130 O.2   1 <1>  -0.6500 
 13 N       -4.0650    -4.3990    -0.1200 N.am  1 <1>  -0.8490 
 14 C       -5.5200    -4.2760    -0.1770 C.3   1 <1>   0.1960 
 15 C       -3.7940    -5.8120    -0.3860 C.3   1 <1>   0.1960 
 16 C       -6.0680    -5.5520     0.4640 C.3   1 <1>  -0.0800 
 17 C       -5.0270    -6.6120     0.0610 C.3   1 <1>  -0.0800 
 18 C       -7.5490    -5.9100     0.1570 C.3   1 <1>   0.2800 
 19 C       -5.5290    -7.5450    -1.0540 C.3   1 <1>  -0.1600 
 20 O       -7.8630    -5.5460    -1.1390 O.3   1 <1>  -0.6800 
 21 C       -7.7400    -7.4350     0.2640 C.3   1 <1>  -0.1600 
 22 C       -8.5600    -5.2020     1.0880 C.3   1 <1>  -0.1600 
 23 C       -6.8340    -8.2610    -0.6730 C.3   1 <1>  -0.1600 
 24 C       -8.5510    -3.6640     1.0660 C.3   1 <1>  -0.2400 
 25 H       -2.0400    -2.5180    -0.8660 H     1 <1>   0.1500 
 26 H        1.4640    -4.4030     2.0140 H     1 <1>   0.1500 
 27 H        3.9730    -1.9120    -0.0960 H     1 <1>   0.0800 
 28 H        2.3940    -1.1340    -0.0660 H     1 <1>   0.0800 
 29 H        2.9510    -1.9800    -1.5210 H     1 <1>   0.0800 
 30 H       -0.9000    -4.7040     2.6040 H     1 <1>   0.1500 
 31 H       -5.8680    -3.3820     0.3080 H     1 <1>   0.0800 
 32 H       -5.8100    -4.2290    -1.2130 H     1 <1>   0.0800 
 33 H       -3.6460    -5.9300    -1.4460 H     1 <1>   0.0800 
 34 H       -2.9030    -6.1510     0.1160 H     1 <1>   0.0800 
 35 H       -5.9900    -5.4330     1.5300 H     1 <1>   0.0800 
 36 H       -4.7720    -7.2060     0.9220 H     1 <1>   0.0800 
 37 H       -5.7110    -6.9570    -1.9380 H     1 <1>   0.0800 
 38 H       -4.7750    -8.2740    -1.2990 H     1 <1>   0.0800 
 39 H       -8.7750    -5.8240    -1.3380 H     1 <1>   0.4000 
 40 H       -7.5110    -7.7180     1.2760 H     1 <1>   0.0800 
 41 H       -8.7690    -7.7000     0.0950 H     1 <1>   0.0800 
 42 H       -9.5510    -5.5370     0.8370 H     1 <1>   0.0800 
 43 H       -8.3760    -5.5200     2.1000 H     1 <1>   0.0800 
 44 H       -6.6040    -9.1960    -0.1910 H     1 <1>   0.0800 
 45 H       -7.3700    -8.4890    -1.5780 H     1 <1>   0.0800 
 46 H       -8.6100    -3.2920     0.0580 H     1 <1>   0.0800 
 47 H       -7.6630    -3.2810     1.5340 H     1 <1>   0.0800 
 48 H       -9.3970    -3.2890     1.6150 H     1 <1>   0.0800 
@<TRIPOS>BOND
  1   1   2  1   
  2   2   3  ar  
  3   2   4  ar  
  4   3   5  1   
  5   3   6  ar  
  6   4   7  ar  
  7   4  25  1   
  8   5   8  1   
  9   6   9  ar  
 10   6  26  1   
 11   7   9  ar  
 12   7  10  1   
 13   8  27  1   
 14   8  28  1   
 15   8  29  1   
 16   9  30  1   
 17  10  11  2   
 18  10  12  2   
 19  10  13  am  
 20  13  14  1   
 21  13  15  1   
 22  14  16  1   
 23  14  31  1   
 24  14  32  1   
 25  15  17  1   
 26  15  33  1   
 27  15  34  1   
 28  16  17  1   
 29  16  18  1   
 30  16  35  1   
 31  17  19  1   
 32  17  36  1   
 33  18  20  1   
 34  18  21  1   
 35  18  22  1   
 36  19  23  1   
 37  19  37  1   
 38  19  38  1   
 39  20  39  1   
 40  21  23  1   
 41  21  40  1   
 42  21  41  1   
 43  22  24  1   
 44  22  42  1   
 45  22  43  1   
 46  23  44  1   
 47  23  45  1   
 48  24  46  1   
 49  24  47  1   
 50  24  48  1   
@<TRIPOS>SUBSTRUCTURE
  1 ****  13 GROUP 4 **** **** 0

# MOE 2024.06 (io_trps.svl 2023.06)
