@<TRIPOS>MOLECULE
NONAME
55 59 1 0 0 
SMALL
USER_CHARGES


@<TRIPOS>ATOM
  1 F       -3.1240    -1.6680     1.3980 F     1 <1>  -0.1900 
  2 C       -2.5310    -2.5090     0.5960 C.ar  1 <1>   0.1900 
  3 C       -2.0080    -3.6730     1.1200 C.ar  1 <1>  -0.1500 
  4 C       -2.4520    -2.2000    -0.7480 C.ar  1 <1>  -0.1500 
  5 C       -1.3790    -4.5890     0.2800 C.ar  1 <1>   0.0860 
  6 C       -1.8180    -3.0950    -1.5920 C.ar  1 <1>  -0.1500 
  7 C       -0.8330    -5.8240     0.8100 C.2   1 <1>   0.5440 
  8 C       -1.2890    -4.2690    -1.0780 C.ar  1 <1>  -0.1500 
  9 O       -0.1540    -5.8030     1.8190 O.2   1 <1>  -0.5700 
 10 N       -1.0720    -7.0300     0.2030 N.am  1 <1>  -0.6600 
 11 C       -0.6690    -8.3460     0.6940 C.3   1 <1>   0.2200 
 12 C       -2.1560    -7.4270    -0.6750 C.3   1 <1>   0.2200 
 13 C       -0.3660    -9.0850    -0.6410 C.3   1 <1>   0.0610 
 14 C       -2.0170    -8.7760     1.3050 C.3   1 <1>  -0.1600 
 15 C       -1.4210    -8.4180    -1.5860 C.3   1 <1>  -0.1600 
 16 C       -3.0410    -8.2050     0.3070 C.3   1 <1>  -0.1600 
 17 C       -0.5370   -10.6080    -0.4820 C.2   1 <1>   0.5690 
 18 C        1.0920    -8.8590    -1.1450 C.3   1 <1>  -0.1600 
 19 O       -0.1540   -11.1540     0.5260 O.2   1 <1>  -0.5700 
 20 N       -1.1030   -11.3390    -1.4750 N.am  1 <1>  -0.7300 
 21 C        1.6090    -7.4130    -1.2470 C.3   1 <1>  -0.2400 
 22 C       -1.5900   -12.7220    -1.3110 C.3   1 <1>   0.3200 
 23 C       -3.0630   -12.6550    -0.9760 C.2   1 <1>   0.0060 
 24 N       -4.0100   -12.6330    -1.8580 N.2   1 <1>  -0.3380 
 25 N       -3.5310   -12.5730     0.2740 N.pl3 1 <1>   0.3340 
 26 N       -5.1590   -12.5320    -1.2020 N.2   1 <1>  -0.3380 
 27 C       -4.8690   -12.4950     0.0730 C.2   1 <1>   0.1410 
 28 C       -2.9900   -12.5400     1.5570 C.2   1 <1>  -0.1810 
 29 C       -5.7320   -12.3850     1.1940 C.2   1 <1>  -0.1050 
 30 C       -3.8070   -12.4310     2.6380 C.2   1 <1>  -0.1500 
 31 C       -5.2130   -12.3530     2.4540 C.2   1 <1>  -0.1500 
 32 H       -2.0840    -3.8740     2.1740 H     1 <1>   0.1500 
 33 H       -2.8720    -1.2820    -1.1170 H     1 <1>   0.1500 
 34 H       -1.7350    -2.8770    -2.6430 H     1 <1>   0.1500 
 35 H       -0.7890    -4.9560    -1.7390 H     1 <1>   0.1500 
 36 H        0.1500    -8.3250     1.3940 H     1 <1>   0.0800 
 37 H       -2.6530    -6.6190    -1.1840 H     1 <1>   0.0800 
 38 H       -2.1190    -9.8340     1.4450 H     1 <1>   0.0800 
 39 H       -2.1280    -8.3010     2.2650 H     1 <1>   0.0800 
 40 H       -2.1300    -9.0990    -2.0170 H     1 <1>   0.0800 
 41 H       -0.9510    -7.8830    -2.3900 H     1 <1>   0.0800 
 42 H       -3.7210    -7.5350     0.8050 H     1 <1>   0.0800 
 43 H       -3.6070    -8.9770    -0.1860 H     1 <1>   0.0800 
 44 H        1.7580    -9.3880    -0.4830 H     1 <1>   0.0800 
 45 H        1.1900    -9.3200    -2.1130 H     1 <1>   0.0800 
 46 H       -1.4650   -10.8700    -2.3060 H     1 <1>   0.3700 
 47 H        1.6420    -6.9540    -0.2740 H     1 <1>   0.0800 
 48 H        0.9910    -6.8160    -1.8900 H     1 <1>   0.0800 
 49 H        2.6080    -7.4130    -1.6440 H     1 <1>   0.0800 
 50 H       -1.4500   -13.2610    -2.2320 H     1 <1>   0.0800 
 51 H       -1.0440   -13.2270    -0.5330 H     1 <1>   0.0800 
 52 H       -1.9190   -12.5990     1.6360 H     1 <1>   0.1500 
 53 H       -6.7890   -12.3300     1.0040 H     1 <1>   0.1500 
 54 H       -3.4180   -12.3990     3.6420 H     1 <1>   0.1500 
 55 H       -5.8440   -12.2690     3.3230 H     1 <1>   0.1500 
@<TRIPOS>BOND
  1   1   2  1   
  2   2   3  ar  
  3   2   4  ar  
  4   3   5  ar  
  5   3  32  1   
  6   4   6  ar  
  7   4  33  1   
  8   5   7  1   
  9   5   8  ar  
 10   6   8  ar  
 11   6  34  1   
 12   7   9  2   
 13   7  10  am  
 14   8  35  1   
 15  10  11  1   
 16  10  12  1   
 17  11  13  1   
 18  11  14  1   
 19  11  36  1   
 20  12  15  1   
 21  12  16  1   
 22  12  37  1   
 23  13  15  1   
 24  13  17  1   
 25  13  18  1   
 26  14  16  1   
 27  14  38  1   
 28  14  39  1   
 29  15  40  1   
 30  15  41  1   
 31  16  42  1   
 32  16  43  1   
 33  17  19  2   
 34  17  20  am  
 35  18  21  1   
 36  18  44  1   
 37  18  45  1   
 38  20  22  1   
 39  20  46  1   
 40  21  47  1   
 41  21  48  1   
 42  21  49  1   
 43  22  23  1   
 44  22  50  1   
 45  22  51  1   
 46  23  24  2   
 47  23  25  1   
 48  24  26  1   
 49  25  27  1   
 50  25  28  1   
 51  26  27  2   
 52  27  29  1   
 53  28  30  2   
 54  28  52  1   
 55  29  31  2   
 56  29  53  1   
 57  30  31  1   
 58  30  54  1   
 59  31  55  1   
@<TRIPOS>SUBSTRUCTURE
  1 ****  16 GROUP 4 **** **** 0

# MOE 2024.06 (io_trps.svl 2023.06)
