@<TRIPOS>MOLECULE
NONAME
44 47 1 0 0 
SMALL
USER_CHARGES


@<TRIPOS>ATOM
  1 F       -0.3210     0.2770     0.7760 F     1 <1>  -0.3400 
  2 C       -1.5370    -0.2070     0.9960 C.3   1 <1>   1.1640 
  3 F       -2.3530     0.4320     0.1710 F     1 <1>  -0.3400 
  4 F       -1.8720     0.1580     2.2240 F     1 <1>  -0.3400 
  5 C       -1.6060    -1.7360     0.8090 C.ar  1 <1>  -0.1440 
  6 C       -0.5070    -2.5040     0.4850 C.ar  1 <1>  -0.1500 
  7 C       -2.8270    -2.3930     0.9860 C.ar  1 <1>  -0.1500 
  8 C       -0.6010    -3.8950     0.3220 C.ar  1 <1>   0.3610 
  9 C       -2.9330    -3.7480     0.8080 C.ar  1 <1>  -0.1500 
 10 N        0.5380    -4.6340     0.1100 N.ar  1 <1>  -0.1790 
 11 C       -1.8460    -4.5520     0.4140 C.ar  1 <1>   0.0000 
 12 C        0.5100    -5.9680    -0.0170 C.ar  1 <1>   0.2180 
 13 C       -1.9180    -5.9660     0.1550 C.ar  1 <1>   0.1000 
 14 C       -0.6910    -6.6270     0.0060 C.ar  1 <1>  -0.1500 
 15 C        1.8270    -6.7060    -0.2010 C.3   1 <1>  -0.0970 
 16 N       -3.0860    -6.6620    -0.0010 N.pl3 1 <1>  -0.8380 
 17 C       -4.3020    -6.1700    -0.6960 C.3   1 <1>   0.2890 
 18 C       -3.2620    -8.1380    -0.0090 C.3   1 <1>   0.2890 
 19 C       -5.5100    -6.3410     0.2520 C.3   1 <1>  -0.1600 
 20 C       -4.3770    -7.1050    -1.9070 C.3   1 <1>  -0.1600 
 21 C       -4.3400    -8.4790     1.0330 C.3   1 <1>  -0.1600 
 22 C       -3.6960    -8.4070    -1.4520 C.3   1 <1>  -0.1600 
 23 C       -5.6800    -7.7630     0.8080 C.3   1 <1>   0.2000 
 24 O       -6.4370    -8.4990    -0.0800 O.3   1 <1>  -0.6800 
 25 H        0.4530    -2.0320     0.3610 H     1 <1>   0.1500 
 26 H       -3.6990    -1.8230     1.2730 H     1 <1>   0.1500 
 27 H       -3.8810    -4.2070     0.9910 H     1 <1>   0.1500 
 28 H        1.4300    -4.1380     0.0760 H     1 <1>   0.4570 
 29 H       -0.6740    -7.6880    -0.1320 H     1 <1>   0.1500 
 30 H        1.6610    -7.7650    -0.2910 H     1 <1>   0.0800 
 31 H        2.4720    -6.5410     0.6440 H     1 <1>   0.0800 
 32 H        2.3250    -6.3700    -1.0940 H     1 <1>   0.0800 
 33 H       -4.2030    -5.1490    -1.0220 H     1 <1>   0.0800 
 34 H       -2.3700    -8.6810     0.2370 H     1 <1>   0.0800 
 35 H       -6.4150    -6.0270    -0.2360 H     1 <1>   0.0800 
 36 H       -5.3760    -5.6930     1.0940 H     1 <1>   0.0800 
 37 H       -5.3890    -7.2510    -2.2410 H     1 <1>   0.0800 
 38 H       -3.8190    -6.6700    -2.7170 H     1 <1>   0.0800 
 39 H       -3.9590    -8.1790     1.9920 H     1 <1>   0.0800 
 40 H       -4.4970    -9.5420     1.0770 H     1 <1>   0.0800 
 41 H       -2.8220    -8.5860    -2.0530 H     1 <1>   0.0800 
 42 H       -4.3340    -9.2700    -1.5250 H     1 <1>   0.0800 
 43 H       -6.2400    -7.7340     1.7290 H     1 <1>   0.0800 
 44 H       -5.9780    -8.5400    -0.9390 H     1 <1>   0.4000 
@<TRIPOS>BOND
  1   1   2  1   
  2   2   3  1   
  3   2   4  1   
  4   2   5  1   
  5   5   6  ar  
  6   5   7  ar  
  7   6   8  ar  
  8   6  25  1   
  9   7   9  ar  
 10   7  26  1   
 11   8  10  ar  
 12   8  11  ar  
 13   9  11  ar  
 14   9  27  1   
 15  10  12  ar  
 16  10  28  1   
 17  11  13  ar  
 18  12  14  ar  
 19  12  15  1   
 20  13  14  ar  
 21  13  16  1   
 22  14  29  1   
 23  15  30  1   
 24  15  31  1   
 25  15  32  1   
 26  16  17  1   
 27  16  18  1   
 28  17  19  1   
 29  17  20  1   
 30  17  33  1   
 31  18  21  1   
 32  18  22  1   
 33  18  34  1   
 34  19  23  1   
 35  19  35  1   
 36  19  36  1   
 37  20  22  1   
 38  20  37  1   
 39  20  38  1   
 40  21  23  1   
 41  21  39  1   
 42  21  40  1   
 43  22  41  1   
 44  22  42  1   
 45  23  24  1   
 46  23  43  1   
 47  24  44  1   
@<TRIPOS>SUBSTRUCTURE
  1 ****  11 GROUP 4 **** **** 0

# MOE 2024.06 (io_trps.svl 2023.06)
