@<TRIPOS>MOLECULE
NONAME
49 51 1 0 0 
SMALL
USER_CHARGES


@<TRIPOS>ATOM
  1 O        0.0980     1.1320    -0.9690 O.2   1 <1>  -0.5700 
  2 C       -0.0570     2.3220    -0.8310 C.2   1 <1>   0.5690 
  3 N       -0.8930     2.8470     0.1200 N.am  1 <1>  -0.6600 
  4 C        0.7000     3.2610    -1.7720 C.3   1 <1>   0.1810 
  5 C       -1.0690     4.3280     0.2630 C.3   1 <1>   0.3640 
  6 C       -1.5950     1.9970     1.1260 C.3   1 <1>   0.0600 
  7 O        0.8800     4.5470    -1.2310 O.3   1 <1>  -0.5600 
  8 C       -2.5510     4.7270     0.3320 C.ar  1 <1>  -0.1430 
  9 C       -0.3230     5.1630    -0.8080 C.3   1 <1>   0.2610 
 10 C       -3.5280     4.3280    -0.5870 C.ar  1 <1>  -0.1430 
 11 C       -2.9220     5.5520     1.3880 C.ar  1 <1>  -0.1500 
 12 C       -0.0780     6.5850    -0.2860 C.2   1 <1>   0.5690 
 13 C       -4.8360     4.7590    -0.4190 C.ar  1 <1>  -0.1500 
 14 C       -3.2490     3.4210    -1.7830 C.3   1 <1>  -0.0960 
 15 C       -4.2280     5.9760     1.5420 C.ar  1 <1>  -0.1500 
 16 O       -0.7070     7.4740    -0.8140 O.2   1 <1>  -0.5700 
 17 N        0.8100     6.8710     0.7290 N.am  1 <1>  -0.6600 
 18 C       -5.1880     5.5770     0.6360 C.ar  1 <1>  -0.1500 
 19 C        0.9590     8.2710     1.2340 C.3   1 <1>   0.3200 
 20 C        1.8190     5.9230     1.2960 C.3   1 <1>   0.0600 
 21 C        2.3120     8.8460     0.8480 C.2   1 <1>   0.0070 
 22 N        3.2590     9.0870     1.6910 N.2   1 <1>  -0.3380 
 23 N        2.6740     9.1570    -0.4010 N.pl3 1 <1>   0.0480 
 24 N        4.2880     9.5720     0.9940 N.2   1 <1>  -0.3380 
 25 C        3.9200     9.6040    -0.2390 C.2   1 <1>   0.0360 
 26 C        1.9140     9.0360    -1.6600 C.3   1 <1>   0.0160 
 27 H        0.1660     3.3500    -2.7010 H     1 <1>   0.0800 
 28 H        1.6730     2.8510    -1.9720 H     1 <1>   0.0800 
 29 H       -0.6320     4.5790     1.2120 H     1 <1>   0.0800 
 30 H       -1.3230     2.3060     2.1200 H     1 <1>   0.0800 
 31 H       -1.3270     0.9610     1.0030 H     1 <1>   0.0800 
 32 H       -2.6600     2.0900     1.0080 H     1 <1>   0.0800 
 33 H       -0.9480     5.2550    -1.6760 H     1 <1>   0.0800 
 34 H       -2.1930     5.8820     2.1070 H     1 <1>   0.1500 
 35 H       -5.6000     4.4570    -1.1150 H     1 <1>   0.1500 
 36 H       -4.0700     3.4390    -2.4770 H     1 <1>   0.0800 
 37 H       -3.1160     2.4070    -1.4520 H     1 <1>   0.0800 
 38 H       -2.3720     3.7330    -2.3140 H     1 <1>   0.0800 
 39 H       -4.4960     6.6160     2.3650 H     1 <1>   0.1500 
 40 H       -6.2070     5.9030     0.7500 H     1 <1>   0.1500 
 41 H        0.1800     8.9080     0.8550 H     1 <1>   0.0800 
 42 H        0.8750     8.2650     2.3070 H     1 <1>   0.0800 
 43 H        1.8970     6.0640     2.3610 H     1 <1>   0.0800 
 44 H        2.7830     6.1180     0.8550 H     1 <1>   0.0800 
 45 H        1.5610     4.8980     1.1080 H     1 <1>   0.0800 
 46 H        4.5330     9.9480    -1.0520 H     1 <1>   0.1500 
 47 H        2.4180     9.5730    -2.4420 H     1 <1>   0.0800 
 48 H        0.9280     9.4430    -1.5260 H     1 <1>   0.0800 
 49 H        1.8370     7.9980    -1.9290 H     1 <1>   0.0800 
@<TRIPOS>BOND
  1   1   2  2   
  2   2   3  am  
  3   2   4  1   
  4   3   5  1   
  5   3   6  1   
  6   4   7  1   
  7   4  27  1   
  8   4  28  1   
  9   5   8  1   
 10   5   9  1   
 11   5  29  1   
 12   6  30  1   
 13   6  31  1   
 14   6  32  1   
 15   7   9  1   
 16   8  10  ar  
 17   8  11  ar  
 18   9  12  1   
 19   9  33  1   
 20  10  13  ar  
 21  10  14  1   
 22  11  15  ar  
 23  11  34  1   
 24  12  16  2   
 25  12  17  am  
 26  13  18  ar  
 27  13  35  1   
 28  14  36  1   
 29  14  37  1   
 30  14  38  1   
 31  15  18  ar  
 32  15  39  1   
 33  17  19  1   
 34  17  20  1   
 35  18  40  1   
 36  19  21  1   
 37  19  41  1   
 38  19  42  1   
 39  20  43  1   
 40  20  44  1   
 41  20  45  1   
 42  21  22  2   
 43  21  23  1   
 44  22  24  1   
 45  23  25  1   
 46  23  26  1   
 47  24  25  2   
 48  25  46  1   
 49  26  47  1   
 50  26  48  1   
 51  26  49  1   
@<TRIPOS>SUBSTRUCTURE
  1 ****  12 GROUP 4 **** **** 0

# MOE 2024.06 (io_trps.svl 2023.06)
