@<TRIPOS>MOLECULE
NONAME
32 33 1 0 0 
SMALL
USER_CHARGES


@<TRIPOS>ATOM
  1 F        1.8310    -1.1220    -1.5130 F     1 <1>  -0.3400 
  2 C        2.3600    -1.0290    -0.2990 C.3   1 <1>   1.3000 
  3 F        3.6680    -1.2430    -0.3950 F     1 <1>  -0.3400 
  4 F        2.1870     0.2160     0.1210 F     1 <1>  -0.3400 
  5 O        1.7520    -1.9300     0.6010 O.3   1 <1>  -0.3630 
  6 C        1.8560    -3.2450     0.3230 C.ar  1 <1>   0.0830 
  7 C        0.8930    -3.8650    -0.4550 C.ar  1 <1>  -0.1500 
  8 C        2.9180    -3.9740     0.8300 C.ar  1 <1>  -0.1500 
  9 C        1.0010    -5.2150    -0.7360 C.ar  1 <1>  -0.1500 
 10 C        3.0230    -5.3240     0.5470 C.ar  1 <1>  -0.1500 
 11 C        2.0650    -5.9560    -0.2370 C.ar  1 <1>  -0.1430 
 12 C        2.1580    -7.4450    -0.5460 C.3   1 <1>   0.0640 
 13 C        2.1110    -8.2470     0.7640 C.3   1 <1>   0.3430 
 14 C        3.4230    -7.7690    -1.3590 C.3   1 <1>  -0.1600 
 15 N        2.2870    -9.7120     0.5130 N.4   1 <1>  -0.9060 
 16 C        3.5860    -9.2860    -1.5440 C.3   1 <1>  -0.1600 
 17 C        3.5530   -10.0300    -0.2060 C.3   1 <1>   0.3430 
 18 H        0.0650    -3.2950    -0.8390 H     1 <1>   0.1500 
 19 H        3.6580    -3.4850     1.4400 H     1 <1>   0.1500 
 20 H        0.2450    -5.6750    -1.3490 H     1 <1>   0.1500 
 21 H        3.8640    -5.8630     0.9450 H     1 <1>   0.1500 
 22 H        1.3000    -7.7250    -1.1320 H     1 <1>   0.0800 
 23 H        1.1680    -8.0640     1.2550 H     1 <1>   0.0800 
 24 H        2.8960    -7.8970     1.4140 H     1 <1>   0.0800 
 25 H        4.2940    -7.3800    -0.8590 H     1 <1>   0.0800 
 26 H        3.3640    -7.2870    -2.3220 H     1 <1>   0.0800 
 27 H        1.4950   -10.0550    -0.0440 H     1 <1>   0.4500 
 28 H        2.2610   -10.2190     1.4080 H     1 <1>   0.4500 
 29 H        4.5260    -9.4820    -2.0300 H     1 <1>   0.0800 
 30 H        2.8100    -9.6650    -2.1870 H     1 <1>   0.0800 
 31 H        3.6250   -11.0930    -0.3800 H     1 <1>   0.0800 
 32 H        4.3980    -9.7270     0.3920 H     1 <1>   0.0800 
@<TRIPOS>BOND
  1   1   2  1   
  2   2   3  1   
  3   2   4  1   
  4   2   5  1   
  5   5   6  1   
  6   6   7  ar  
  7   6   8  ar  
  8   7   9  ar  
  9   7  18  1   
 10   8  10  ar  
 11   8  19  1   
 12   9  11  ar  
 13   9  20  1   
 14  10  11  ar  
 15  10  21  1   
 16  11  12  1   
 17  12  13  1   
 18  12  14  1   
 19  12  22  1   
 20  13  15  1   
 21  13  23  1   
 22  13  24  1   
 23  14  16  1   
 24  14  25  1   
 25  14  26  1   
 26  15  17  1   
 27  15  27  1   
 28  15  28  1   
 29  16  17  1   
 30  16  29  1   
 31  16  30  1   
 32  17  31  1   
 33  17  32  1   
@<TRIPOS>SUBSTRUCTURE
  1 ****  11 GROUP 4 **** **** 0

# MOE 2024.06 (io_trps.svl 2023.06)
