@<TRIPOS>MOLECULE
NONAME
33 35 1 0 0 
SMALL
USER_CHARGES


@<TRIPOS>ATOM
  1 F       -0.7360    -1.2130     0.2460 F     1 <1>  -0.3400 
  2 C       -0.4820    -1.9460    -0.8350 C.3   1 <1>   1.1640 
  3 F        0.6890    -1.5250    -1.3030 F     1 <1>  -0.3400 
  4 F       -1.3830    -1.5670    -1.7410 F     1 <1>  -0.3400 
  5 C       -0.5030    -3.4770    -0.5520 C.ar  1 <1>   0.1660 
  6 N        0.3300    -3.9750     0.3720 N.ar  1 <1>  -0.6200 
  7 C       -1.3780    -4.2960    -1.2630 C.ar  1 <1>  -0.1500 
  8 C        0.2760    -5.2810     0.5870 C.ar  1 <1>   0.1600 
  9 C       -1.4150    -5.6520    -1.0230 C.ar  1 <1>  -0.1500 
 10 C       -0.5720    -6.1750    -0.0550 C.ar  1 <1>   0.0860 
 11 C       -0.5390    -7.5790     0.2890 C.2   1 <1>   0.5440 
 12 O        0.5270    -8.1650     0.2570 O.2   1 <1>  -0.5700 
 13 N       -1.6680    -8.2580     0.6620 N.am  1 <1>  -0.6600 
 14 C       -3.0140    -7.6650     0.9040 C.3   1 <1>   0.2350 
 15 C       -1.8410    -9.7180     0.4190 C.3   1 <1>   0.2350 
 16 C       -3.9680    -8.5380     0.1160 C.3   1 <1>  -0.2420 
 17 C       -3.2540    -9.8450    -0.1350 C.3   1 <1>  -0.2420 
 18 C       -5.4070    -8.1530     0.4590 C.2   1 <1>   0.9470 
 19 C       -3.6840    -8.9890    -1.2980 C.3   1 <1>  -0.2000 
 20 C       -3.7510   -11.2880    -0.0380 C.2   1 <1>   0.9470 
 21 O       -6.1560    -7.7490    -0.4420 O.co2 1 <1>  -0.9000 
 22 O       -5.7320    -8.0590     1.6500 O.co2 1 <1>  -0.9000 
 23 O       -4.0930   -11.8850    -1.0680 O.co2 1 <1>  -0.9000 
 24 O       -3.6580   -11.8820     1.0450 O.co2 1 <1>  -0.9000 
 25 H       -2.0420    -3.8910    -2.0070 H     1 <1>   0.1500 
 26 H        0.9490    -5.6850     1.3250 H     1 <1>   0.1500 
 27 H       -2.0870    -6.2990    -1.5630 H     1 <1>   0.1500 
 28 H       -3.2460    -7.7380     1.9540 H     1 <1>   0.0800 
 29 H       -3.0940    -6.6390     0.6010 H     1 <1>   0.0800 
 30 H       -1.1170   -10.0940    -0.2820 H     1 <1>   0.0800 
 31 H       -1.7550   -10.2500     1.3510 H     1 <1>   0.0800 
 32 H       -2.9360    -8.5000    -1.8900 H     1 <1>   0.1000 
 33 H       -4.5140    -9.3380    -1.8910 H     1 <1>   0.1000 
@<TRIPOS>BOND
  1   1   2  1   
  2   2   3  1   
  3   2   4  1   
  4   2   5  1   
  5   5   6  ar  
  6   5   7  ar  
  7   6   8  ar  
  8   7   9  ar  
  9   7  25  1   
 10   8  10  ar  
 11   8  26  1   
 12   9  10  ar  
 13   9  27  1   
 14  10  11  1   
 15  11  12  2   
 16  11  13  am  
 17  13  14  1   
 18  13  15  1   
 19  14  16  1   
 20  14  28  1   
 21  14  29  1   
 22  15  17  1   
 23  15  30  1   
 24  15  31  1   
 25  16  17  1   
 26  16  18  1   
 27  16  19  1   
 28  17  19  1   
 29  17  20  1   
 30  18  21  ar  
 31  18  22  ar  
 32  19  32  1   
 33  19  33  1   
 34  20  23  ar  
 35  20  24  ar  
@<TRIPOS>SUBSTRUCTURE
  1 ****  14 GROUP 4 **** **** 0

# MOE 2024.06 (io_trps.svl 2023.06)
