@<TRIPOS>MOLECULE
NONAME
45 49 1 0 0 
SMALL
USER_CHARGES


@<TRIPOS>ATOM
  1 S        0.6080     0.8420    -2.5780 S.3   1 <1>  -0.0800 
  2 C        0.4380     2.0060    -1.2800 C.2   1 <1>  -0.1400 
  3 C        2.2530     1.3880    -2.8770 C.2   1 <1>  -0.1100 
  4 C        1.5550     2.7210    -1.1030 C.2   1 <1>  -0.1810 
  5 C       -0.8270     2.1670    -0.4820 C.3   1 <1>   0.0200 
  6 C        2.5980     2.3740    -2.0250 C.2   1 <1>  -0.1500 
  7 C        1.6550     3.7900    -0.0120 C.3   1 <1>   0.4610 
  8 C       -0.7540     3.5420     0.2030 C.3   1 <1>   0.1200 
  9 O        0.4990     3.7440     0.8130 O.3   1 <1>  -0.5600 
 10 C        1.7740     5.1910    -0.6260 C.3   1 <1>  -0.1600 
 11 C        2.8440     3.4980     0.9080 C.3   1 <1>  -0.1600 
 12 C        2.0070     6.2690     0.4330 C.3   1 <1>   0.1400 
 13 C        3.0220     4.5820     1.9700 C.3   1 <1>   0.1400 
 14 N        3.1590     5.9030     1.3000 N.am  1 <1>  -0.6600 
 15 C        4.3460     6.6090     1.3560 C.2   1 <1>   0.5440 
 16 O        5.1350     6.3700     2.2530 O.2   1 <1>  -0.5700 
 17 C        4.6260     7.7080     0.4600 C.ar  1 <1>   0.0860 
 18 C        5.3310     7.5650    -0.7490 C.ar  1 <1>   0.0410 
 19 C        4.1850     8.9780     0.8380 C.ar  1 <1>  -0.1500 
 20 C        5.8230     6.3000    -1.2440 C.2   1 <1>   0.6960 
 21 C        5.5600     8.7130    -1.5150 C.ar  1 <1>  -0.1500 
 22 C        4.4170    10.0940     0.0600 C.ar  1 <1>  -0.1500 
 23 N        6.9760     6.1670    -1.8390 N.2   1 <1>  -0.6190 
 24 N        5.1520     5.1800    -1.2360 N.2   1 <1>  -0.6190 
 25 C        5.1120     9.9590    -1.1270 C.ar  1 <1>  -0.1500 
 26 N        6.9980     4.9330    -2.1880 N.2   1 <1>  -0.2500 
 27 N        5.9100     4.3270    -1.8310 N.2   1 <1>  -0.2500 
 28 H        2.8020     0.9140    -3.6690 H     1 <1>   0.1500 
 29 H       -0.9010     1.3860     0.2520 H     1 <1>   0.0800 
 30 H       -1.6860     2.1250    -1.1260 H     1 <1>   0.0800 
 31 H        3.5520     2.8810    -2.0060 H     1 <1>   0.1500 
 32 H       -1.5070     3.6160     0.9670 H     1 <1>   0.0800 
 33 H       -0.9140     4.3260    -0.5160 H     1 <1>   0.0800 
 34 H        0.9000     5.4200    -1.2030 H     1 <1>   0.0800 
 35 H        2.6010     5.2000    -1.3100 H     1 <1>   0.0800 
 36 H        3.7480     3.4460     0.3290 H     1 <1>   0.0800 
 37 H        2.7060     2.5410     1.3760 H     1 <1>   0.0800 
 38 H        1.1300     6.3610     1.0500 H     1 <1>   0.0800 
 39 H        2.1750     7.2150    -0.0510 H     1 <1>   0.0800 
 40 H        3.8960     4.3600     2.5580 H     1 <1>   0.0800 
 41 H        2.1700     4.6040     2.6270 H     1 <1>   0.0800 
 42 H        3.6560     9.0790     1.7690 H     1 <1>   0.1500 
 43 H        6.1060     8.6080    -2.4380 H     1 <1>   0.1500 
 44 H        4.0670    11.0620     0.3750 H     1 <1>   0.1500 
 45 H        5.3060    10.8200    -1.7430 H     1 <1>   0.1500 
@<TRIPOS>BOND
  1   1   2  1   
  2   1   3  1   
  3   2   4  2   
  4   2   5  1   
  5   3   6  2   
  6   3  28  1   
  7   4   6  1   
  8   4   7  1   
  9   5   8  1   
 10   5  29  1   
 11   5  30  1   
 12   6  31  1   
 13   7   9  1   
 14   7  10  1   
 15   7  11  1   
 16   8   9  1   
 17   8  32  1   
 18   8  33  1   
 19  10  12  1   
 20  10  34  1   
 21  10  35  1   
 22  11  13  1   
 23  11  36  1   
 24  11  37  1   
 25  12  14  1   
 26  12  38  1   
 27  12  39  1   
 28  13  14  1   
 29  13  40  1   
 30  13  41  1   
 31  14  15  am  
 32  15  16  2   
 33  15  17  1   
 34  17  18  ar  
 35  17  19  ar  
 36  18  20  1   
 37  18  21  ar  
 38  19  22  ar  
 39  19  42  1   
 40  20  23  2   
 41  20  24  1   
 42  21  25  ar  
 43  21  43  1   
 44  22  25  ar  
 45  22  44  1   
 46  23  26  1   
 47  24  27  2   
 48  25  45  1   
 49  26  27  1   
@<TRIPOS>SUBSTRUCTURE
  1 ****  10 GROUP 4 **** **** 0

# MOE 2024.06 (io_trps.svl 2023.06)
