@<TRIPOS>MOLECULE
NONAME
51 53 1 0 0 
SMALL
USER_CHARGES


@<TRIPOS>ATOM
  1 O       -0.6270     0.2120     1.2520 O.2   1 <1>  -0.5700 
  2 C       -1.4240     0.8520     0.6040 C.2   1 <1>   0.5690 
  3 N       -2.4230     0.2120    -0.0870 N.am  1 <1>  -0.6600 
  4 C       -1.2520     2.3800     0.6170 C.3   1 <1>  -0.0190 
  5 C       -3.5160     0.7950    -0.9060 C.3   1 <1>   0.1400 
  6 C       -2.6280    -1.2500     0.0450 C.3   1 <1>   0.1400 
  7 C       -2.2810     3.0360     1.5620 C.3   1 <1>  -0.1600 
  8 C       -1.1620     2.9950    -0.8000 C.3   1 <1>  -0.1600 
  9 C       -4.5850    -0.2990    -1.0160 C.3   1 <1>   0.2000 
 10 C       -3.7790    -1.5950    -0.9040 C.3   1 <1>  -0.0800 
 11 C       -2.1650     4.5620     1.7110 C.3   1 <1>  -0.1600 
 12 C       -0.5220     4.3910    -0.8100 C.3   1 <1>  -0.1600 
 13 O       -5.4710    -0.2190     0.0660 O.3   1 <1>  -0.5600 
 14 C       -4.5850    -2.8240    -0.4520 C.3   1 <1>   0.0200 
 15 C       -2.6170     5.3130     0.4510 C.3   1 <1>  -0.1600 
 16 C       -1.5090     5.5480    -0.5870 C.3   1 <1>  -0.1600 
 17 C       -6.5280     0.6750    -0.0940 C.3   1 <1>   0.0400 
 18 C       -3.7130    -4.0640    -0.4290 C.2   1 <1>  -0.0400 
 19 O       -3.2260    -4.5450    -1.5420 O.3   1 <1>  -0.0190 
 20 C       -3.2890    -4.8420     0.5770 C.2   1 <1>  -0.1500 
 21 N       -2.4960    -5.6020    -1.3340 N.2   1 <1>  -0.4100 
 22 C       -2.5150    -5.8050    -0.0660 C.2   1 <1>   0.1080 
 23 C       -1.7860    -6.9410     0.6150 C.3   1 <1>  -0.0590 
 24 H       -0.2900     2.5420     1.0710 H     1 <1>   0.0800 
 25 H       -3.9140     1.6910    -0.4720 H     1 <1>   0.0800 
 26 H       -3.1290     1.0090    -1.8860 H     1 <1>   0.0800 
 27 H       -1.7300    -1.7880    -0.2090 H     1 <1>   0.0800 
 28 H       -2.8970    -1.4670     1.0650 H     1 <1>   0.0800 
 29 H       -3.2790     2.7890     1.2550 H     1 <1>   0.0800 
 30 H       -2.1460     2.5980     2.5370 H     1 <1>   0.0800 
 31 H       -0.5410     2.3460    -1.3940 H     1 <1>   0.0800 
 32 H       -2.1250     3.0400    -1.2730 H     1 <1>   0.0800 
 33 H       -5.1410    -0.2500    -1.9360 H     1 <1>   0.0800 
 34 H       -3.3480    -1.8000    -1.8680 H     1 <1>   0.0800 
 35 H       -2.8100     4.8570     2.5210 H     1 <1>   0.0800 
 36 H       -1.1630     4.8440     1.9860 H     1 <1>   0.0800 
 37 H        0.2580     4.4380    -0.0690 H     1 <1>   0.0800 
 38 H       -0.0470     4.5460    -1.7630 H     1 <1>   0.0800 
 39 H       -5.4090    -2.9870    -1.1240 H     1 <1>   0.0800 
 40 H       -4.9860    -2.6620     0.5330 H     1 <1>   0.0800 
 41 H       -3.4340     4.7840    -0.0080 H     1 <1>   0.0800 
 42 H       -2.9990     6.2760     0.7440 H     1 <1>   0.0800 
 43 H       -0.9400     6.4140    -0.2940 H     1 <1>   0.0800 
 44 H       -1.9790     5.7880    -1.5250 H     1 <1>   0.0800 
 45 H       -7.1280     0.6430     0.7990 H     1 <1>   0.0800 
 46 H       -7.1230     0.3740    -0.9380 H     1 <1>   0.0800 
 47 H       -6.1450     1.6700    -0.2330 H     1 <1>   0.0800 
 48 H       -3.4770    -4.7670     1.6320 H     1 <1>   0.1500 
 49 H       -1.9420    -6.9050     1.6780 H     1 <1>   0.0800 
 50 H       -0.7330    -6.8650     0.4120 H     1 <1>   0.0800 
 51 H       -2.1480    -7.8790     0.2360 H     1 <1>   0.0800 
@<TRIPOS>BOND
  1   1   2  2   
  2   2   3  am  
  3   2   4  1   
  4   3   5  1   
  5   3   6  1   
  6   4   7  1   
  7   4   8  1   
  8   4  24  1   
  9   5   9  1   
 10   5  25  1   
 11   5  26  1   
 12   6  10  1   
 13   6  27  1   
 14   6  28  1   
 15   7  11  1   
 16   7  29  1   
 17   7  30  1   
 18   8  12  1   
 19   8  31  1   
 20   8  32  1   
 21   9  10  1   
 22   9  13  1   
 23   9  33  1   
 24  10  14  1   
 25  10  34  1   
 26  11  15  1   
 27  11  35  1   
 28  11  36  1   
 29  12  16  1   
 30  12  37  1   
 31  12  38  1   
 32  13  17  1   
 33  14  18  1   
 34  14  39  1   
 35  14  40  1   
 36  15  16  1   
 37  15  41  1   
 38  15  42  1   
 39  16  43  1   
 40  16  44  1   
 41  17  45  1   
 42  17  46  1   
 43  17  47  1   
 44  18  19  1   
 45  18  20  2   
 46  19  21  1   
 47  20  22  1   
 48  20  48  1   
 49  21  22  2   
 50  22  23  1   
 51  23  49  1   
 52  23  50  1   
 53  23  51  1   
@<TRIPOS>SUBSTRUCTURE
  1 ****   3 GROUP 4 **** **** 0

# MOE 2024.06 (io_trps.svl 2023.06)
