@<TRIPOS>MOLECULE
NONAME
35 35 1 0 0 
SMALL
USER_CHARGES


@<TRIPOS>ATOM
  1 O        0.1260    -0.4300    -1.5360 O.2   1 <1>  -0.5700 
  2 C        1.1270    -0.9360    -1.0880 C.2   1 <1>   0.5690 
  3 N        2.0940    -0.2550    -0.4120 N.am  1 <1>  -0.4930 
  4 C        1.3160    -2.4280    -1.2850 C.3   1 <1>  -0.0990 
  5 C        2.1530     1.1250    -0.0870 C.2   1 <1>   0.0630 
  6 C        0.9380    -3.2230    -0.0240 C.3   1 <1>  -0.1600 
  7 C        3.1560     1.7790     0.6340 C.2   1 <1>   0.1080 
  8 C        1.2750     2.1010    -0.3920 C.2   1 <1>  -0.3020 
  9 C        1.0350    -4.7290    -0.2630 C.3   1 <1>   0.1400 
 10 N        2.9230     3.0480     0.7650 N.2   1 <1>  -0.7070 
 11 C        4.3910     1.1270     1.2160 C.3   1 <1>  -0.0590 
 12 N        1.7560     3.2470     0.1290 N.pl3 1 <1>   0.3140 
 13 N        0.6960    -5.4320     0.9900 N.am  1 <1>  -0.7300 
 14 C        1.1310     4.5700     0.0430 C.3   1 <1>   0.0160 
 15 C       -0.4360    -6.0950     1.3170 C.2   1 <1>   0.5690 
 16 O       -0.5350    -6.6130     2.3980 O.2   1 <1>  -0.5700 
 17 C       -1.5870    -6.1920     0.3470 C.3   1 <1>  -0.1790 
 18 H        2.8850    -0.7990    -0.0790 H     1 <1>   0.3700 
 19 H        2.3370    -2.6220    -1.5580 H     1 <1>   0.0800 
 20 H        0.6920    -2.7380    -2.1050 H     1 <1>   0.0800 
 21 H       -0.0730    -2.9760     0.2530 H     1 <1>   0.0800 
 22 H        1.5890    -2.9440     0.7860 H     1 <1>   0.0800 
 23 H        0.3540     2.0380    -0.9410 H     1 <1>   0.1500 
 24 H        2.0360    -4.9990    -0.5560 H     1 <1>   0.0800 
 25 H        0.3620    -5.0230    -1.0500 H     1 <1>   0.0800 
 26 H        4.1100     0.3030     1.8440 H     1 <1>   0.0800 
 27 H        4.9330     1.8430     1.8060 H     1 <1>   0.0800 
 28 H        5.0270     0.7810     0.4230 H     1 <1>   0.0800 
 29 H        1.4010    -5.4090     1.7300 H     1 <1>   0.3700 
 30 H        0.1460     4.5220     0.4670 H     1 <1>   0.0800 
 31 H        1.0750     4.8660    -0.9870 H     1 <1>   0.0800 
 32 H        1.7270     5.2770     0.5910 H     1 <1>   0.0800 
 33 H       -1.8970    -5.2090     0.0470 H     1 <1>   0.0800 
 34 H       -2.4160    -6.6880     0.8190 H     1 <1>   0.0800 
 35 H       -1.2890    -6.7590    -0.5140 H     1 <1>   0.0800 
@<TRIPOS>BOND
  1   1   2  2   
  2   2   3  am  
  3   2   4  1   
  4   3   5  1   
  5   3  18  1   
  6   4   6  1   
  7   4  19  1   
  8   4  20  1   
  9   5   7  1   
 10   5   8  2   
 11   6   9  1   
 12   6  21  1   
 13   6  22  1   
 14   7  10  2   
 15   7  11  1   
 16   8  12  1   
 17   8  23  1   
 18   9  13  1   
 19   9  24  1   
 20   9  25  1   
 21  10  12  1   
 22  11  26  1   
 23  11  27  1   
 24  11  28  1   
 25  12  14  1   
 26  13  15  am  
 27  13  29  1   
 28  14  30  1   
 29  14  31  1   
 30  14  32  1   
 31  15  16  2   
 32  15  17  1   
 33  17  33  1   
 34  17  34  1   
 35  17  35  1   
@<TRIPOS>SUBSTRUCTURE
  1 ****   2 GROUP 4 **** **** 0

# MOE 2024.06 (io_trps.svl 2023.06)
