@<TRIPOS>MOLECULE
NONAME
40 42 1 0 0 
SMALL
USER_CHARGES


@<TRIPOS>ATOM
  1 S        2.5370     0.4970     2.4680 S.3   1 <1>  -0.0800 
  2 C        2.8790    -0.7270     1.2670 C.2   1 <1>   0.2280 
  3 C        2.6620     1.7060     1.2240 C.2   1 <1>  -0.1100 
  4 N        3.0690    -0.2750     0.0910 N.2   1 <1>  -0.5650 
  5 C        2.9430     1.1080     0.0550 C.2   1 <1>   0.0460 
  6 C        3.1420     1.7900    -1.2950 C.3   1 <1>   0.3900 
  7 N        3.5500     3.2120    -1.1310 N.pl3 1 <1>  -0.8690 
  8 C        4.7050     3.6950    -0.6520 C.ar  1 <1>   0.4100 
  9 N        4.7790     5.0040    -0.6020 N.ar  1 <1>  -0.6200 
 10 C        5.7590     2.8660    -0.2240 C.ar  1 <1>  -0.1500 
 11 C        5.8970     5.5430    -0.1340 C.ar  1 <1>   0.7710 
 12 C        6.8890     3.4360     0.2570 C.ar  1 <1>   0.2180 
 13 N        6.9280     4.7900     0.2890 N.ar  1 <1>  -0.1790 
 14 N        6.0080     6.8920    -0.0760 N.pl3 1 <1>  -0.8380 
 15 C        8.0910     2.6430     0.7540 C.3   1 <1>  -0.0170 
 16 C        4.8900     7.7820    -0.5000 C.3   1 <1>   0.2090 
 17 C        7.1760     7.7120     0.3470 C.3   1 <1>   0.2090 
 18 C        9.3430     2.8960    -0.0960 C.3   1 <1>  -0.2400 
 19 C        5.3250     9.1870    -0.1060 C.3   1 <1>  -0.1600 
 20 C        6.8470     9.1290    -0.1030 C.3   1 <1>  -0.1600 
 21 H        2.9050    -1.7490     1.6040 H     1 <1>   0.1500 
 22 H        2.5100     2.7350     1.4970 H     1 <1>   0.1500 
 23 H        2.2280     1.7320    -1.8600 H     1 <1>   0.0800 
 24 H        3.9040     1.2660    -1.8450 H     1 <1>   0.0800 
 25 H        2.8370     3.8970    -1.3960 H     1 <1>   0.4000 
 26 H        5.6460     1.7990    -0.2830 H     1 <1>   0.1500 
 27 H        7.7310     5.2990     0.6320 H     1 <1>   0.4570 
 28 H        7.8610     1.5910     0.7230 H     1 <1>   0.0800 
 29 H        8.2920     2.8940     1.7820 H     1 <1>   0.0800 
 30 H        3.9650     7.5100    -0.0160 H     1 <1>   0.0800 
 31 H        4.7670     7.7150    -1.5690 H     1 <1>   0.0800 
 32 H        8.0910     7.3750    -0.1110 H     1 <1>   0.0800 
 33 H        7.2630     7.6870     1.4210 H     1 <1>   0.0800 
 34 H        9.1560     2.6460    -1.1270 H     1 <1>   0.0800 
 35 H       10.1520     2.2760     0.2540 H     1 <1>   0.0800 
 36 H        9.6610     3.9210    -0.0390 H     1 <1>   0.0800 
 37 H        4.9610     9.4020     0.8840 H     1 <1>   0.0800 
 38 H        4.9430     9.9280    -0.7860 H     1 <1>   0.0800 
 39 H        7.2190     9.2780    -1.1020 H     1 <1>   0.0800 
 40 H        7.2830     9.8690     0.5450 H     1 <1>   0.0800 
@<TRIPOS>BOND
  1   1   2  1   
  2   1   3  1   
  3   2   4  2   
  4   2  21  1   
  5   3   5  2   
  6   3  22  1   
  7   4   5  1   
  8   5   6  1   
  9   6   7  1   
 10   6  23  1   
 11   6  24  1   
 12   7   8  1   
 13   7  25  1   
 14   8   9  ar  
 15   8  10  ar  
 16   9  11  ar  
 17  10  12  ar  
 18  10  26  1   
 19  11  13  ar  
 20  11  14  1   
 21  12  13  ar  
 22  12  15  1   
 23  13  27  1   
 24  14  16  1   
 25  14  17  1   
 26  15  18  1   
 27  15  28  1   
 28  15  29  1   
 29  16  19  1   
 30  16  30  1   
 31  16  31  1   
 32  17  20  1   
 33  17  32  1   
 34  17  33  1   
 35  18  34  1   
 36  18  35  1   
 37  18  36  1   
 38  19  20  1   
 39  19  37  1   
 40  19  38  1   
 41  20  39  1   
 42  20  40  1   
@<TRIPOS>SUBSTRUCTURE
  1 ****   8 GROUP 4 **** **** 0

# MOE 2024.06 (io_trps.svl 2023.06)
