@<TRIPOS>MOLECULE
NONAME
46 48 1 0 0 
SMALL
USER_CHARGES


@<TRIPOS>ATOM
  1 O        0.6790     0.8000     0.7150 O.co2 1 <1>  -0.9000 
  2 C        1.3990     1.8080     0.8320 C.2   1 <1>   1.0330 
  3 O        2.6100     1.6640     1.0850 O.co2 1 <1>  -0.9000 
  4 C        0.8100     3.1350     0.6510 C.2   1 <1>  -0.0060 
  5 N        1.4410     4.3480     0.7880 N.2   1 <1>  -0.5650 
  6 C       -0.4680     3.3960     0.3050 C.2   1 <1>  -0.0100 
  7 C        0.5290     5.2010     0.5120 C.2   1 <1>   0.2980 
  8 O       -0.6380     4.6870     0.2180 O.3   1 <1>  -0.2800 
  9 C        0.7440     6.7070     0.5090 C.3   1 <1>   0.5230 
 10 N        2.2130     6.9940     0.6570 N.4   1 <1>  -0.9590 
 11 C        2.5120     8.2960     1.3340 C.3   1 <1>   0.3430 
 12 C        2.9330     6.7330    -0.6320 C.3   1 <1>   0.3430 
 13 C        2.9690     9.3550     0.3240 C.3   1 <1>  -0.0800 
 14 C        4.3210     7.3710    -0.5950 C.3   1 <1>  -0.1600 
 15 C        4.2500     8.8980    -0.4100 C.3   1 <1>  -0.1600 
 16 C        3.1710    10.7080     1.0190 C.3   1 <1>   0.1200 
 17 O        3.5250    11.6550     0.0410 O.3   1 <1>  -0.3630 
 18 C        3.8160    12.9430     0.3630 C.ar  1 <1>   0.0830 
 19 C        4.2230    13.7880    -0.6670 C.ar  1 <1>  -0.1430 
 20 C        3.7240    13.4370     1.6630 C.ar  1 <1>  -0.1500 
 21 C        4.5310    15.1100    -0.3870 C.ar  1 <1>  -0.1500 
 22 C        4.3330    13.2760    -2.0960 C.3   1 <1>  -0.0970 
 23 C        4.0350    14.7580     1.9300 C.ar  1 <1>  -0.1500 
 24 C        4.4380    15.5950     0.9060 C.ar  1 <1>  -0.1500 
 25 H       -1.2770     2.7130     0.1110 H     1 <1>   0.1500 
 26 H        0.1970     7.1240     1.3360 H     1 <1>   0.0800 
 27 H        0.3670     7.1270    -0.4070 H     1 <1>   0.0800 
 28 H        2.5220     6.2160     1.2730 H     1 <1>   0.4500 
 29 H        3.3070     8.1450     2.0470 H     1 <1>   0.0800 
 30 H        1.6450     8.6440     1.8720 H     1 <1>   0.0800 
 31 H        2.3800     7.1560    -1.4540 H     1 <1>   0.0800 
 32 H        3.0190     5.6680    -0.7940 H     1 <1>   0.0800 
 33 H        2.1750     9.4840    -0.3920 H     1 <1>   0.0800 
 34 H        4.8420     7.1450    -1.5100 H     1 <1>   0.0800 
 35 H        4.8830     6.9250     0.2070 H     1 <1>   0.0800 
 36 H        5.1270     9.2170     0.1290 H     1 <1>   0.0800 
 37 H        4.2820     9.3830    -1.3720 H     1 <1>   0.0800 
 38 H        3.9680    10.6580     1.7420 H     1 <1>   0.0800 
 39 H        2.2620    11.0420     1.4900 H     1 <1>   0.0800 
 40 H        3.4140    12.8180     2.4810 H     1 <1>   0.1500 
 41 H        4.8460    15.7720    -1.1740 H     1 <1>   0.1500 
 42 H        5.0370    12.4650    -2.1380 H     1 <1>   0.0800 
 43 H        4.6640    14.0520    -2.7620 H     1 <1>   0.0800 
 44 H        3.3740    12.9230    -2.4300 H     1 <1>   0.0800 
 45 H        3.9630    15.1370     2.9340 H     1 <1>   0.1500 
 46 H        4.6800    16.6230     1.1130 H     1 <1>   0.1500 
@<TRIPOS>BOND
  1   1   2  ar  
  2   2   3  ar  
  3   2   4  1   
  4   4   5  1   
  5   4   6  2   
  6   5   7  2   
  7   6   8  1   
  8   6  25  1   
  9   7   8  1   
 10   7   9  1   
 11   9  10  1   
 12   9  26  1   
 13   9  27  1   
 14  10  11  1   
 15  10  12  1   
 16  10  28  1   
 17  11  13  1   
 18  11  29  1   
 19  11  30  1   
 20  12  14  1   
 21  12  31  1   
 22  12  32  1   
 23  13  15  1   
 24  13  16  1   
 25  13  33  1   
 26  14  15  1   
 27  14  34  1   
 28  14  35  1   
 29  15  36  1   
 30  15  37  1   
 31  16  17  1   
 32  16  38  1   
 33  16  39  1   
 34  17  18  1   
 35  18  19  ar  
 36  18  20  ar  
 37  19  21  ar  
 38  19  22  1   
 39  20  23  ar  
 40  20  40  1   
 41  21  24  ar  
 42  21  41  1   
 43  22  42  1   
 44  22  43  1   
 45  22  44  1   
 46  23  24  ar  
 47  23  45  1   
 48  24  46  1   
@<TRIPOS>SUBSTRUCTURE
  1 ****  11 GROUP 4 **** **** 0

# MOE 2024.06 (io_trps.svl 2023.06)
