@<TRIPOS>MOLECULE
NONAME
45 47 1 0 0 
SMALL
USER_CHARGES


@<TRIPOS>ATOM
  1 F       -0.4630    -0.8730    -0.3050 F     1 <1>  -0.1900 
  2 C       -1.2570    -1.9030    -0.4460 C.ar  1 <1>   0.1900 
  3 C       -2.4940    -1.8780     0.1530 C.ar  1 <1>  -0.1500 
  4 C       -0.7970    -2.9830    -1.2060 C.ar  1 <1>  -0.1500 
  5 C       -3.3130    -2.9910    -0.0170 C.ar  1 <1>   0.2270 
  6 C       -1.6110    -4.0830    -1.3740 C.ar  1 <1>  -0.1500 
  7 N       -4.5660    -3.2240     0.4650 N.2   1 <1>  -0.5650 
  8 C       -2.8720    -4.0690    -0.7700 C.ar  1 <1>  -0.1520 
  9 C       -4.8640    -4.3960     0.0180 C.2   1 <1>   0.0060 
 10 N       -3.8920    -4.9630    -0.7350 N.pl3 1 <1>   0.0330 
 11 C       -6.1700    -5.1310     0.2740 C.3   1 <1>   0.2900 
 12 N       -5.9470    -6.5910     0.3590 N.3   1 <1>  -0.8100 
 13 C       -7.2180    -7.3190     0.2480 C.3   1 <1>   0.2900 
 14 C       -5.2520    -6.9370     1.6150 C.3   1 <1>   0.0300 
 15 C       -6.9680    -8.7840    -0.0660 C.2   1 <1>  -0.3320 
 16 N       -7.8790    -9.7670     0.0970 N.pl3 1 <1>   0.0480 
 17 C       -5.8570    -9.3770    -0.5600 C.2   1 <1>   0.0770 
 18 C       -7.2450   -10.8920    -0.3060 C.2   1 <1>   0.0360 
 19 C       -9.2630    -9.6820     0.6160 C.3   1 <1>   0.0960 
 20 N       -6.0320   -10.7030    -0.7070 N.2   1 <1>  -0.5650 
 21 C      -10.2460    -9.1320    -0.4360 C.3   1 <1>  -0.0800 
 22 C      -11.6400    -8.9770     0.1830 C.3   1 <1>  -0.2400 
 23 C      -10.3320   -10.0350    -1.6750 C.3   1 <1>  -0.2400 
 24 H       -2.8350    -1.0440     0.7350 H     1 <1>   0.1500 
 25 H        0.1820    -2.9350    -1.6470 H     1 <1>   0.1500 
 26 H       -1.2930    -4.9340    -1.9510 H     1 <1>   0.1500 
 27 H       -3.9350    -5.9100    -1.1230 H     1 <1>   0.2700 
 28 H       -6.8310    -4.9100    -0.5460 H     1 <1>   0.0800 
 29 H       -6.6210    -4.7630     1.1800 H     1 <1>   0.0800 
 30 H       -7.8080    -6.9050    -0.5520 H     1 <1>   0.0800 
 31 H       -7.7730    -7.2200     1.1660 H     1 <1>   0.0800 
 32 H       -4.3040    -6.4310     1.6720 H     1 <1>   0.0800 
 33 H       -5.0670    -7.9960     1.6630 H     1 <1>   0.0800 
 34 H       -5.8450    -6.6510     2.4680 H     1 <1>   0.0800 
 35 H       -4.9260    -8.9030    -0.8190 H     1 <1>   0.1500 
 36 H       -7.7260   -11.8540    -0.2880 H     1 <1>   0.1500 
 37 H       -9.2600    -9.0490     1.4840 H     1 <1>   0.0800 
 38 H       -9.5740   -10.6650     0.9240 H     1 <1>   0.0800 
 39 H       -9.9120    -8.1560    -0.7450 H     1 <1>   0.0800 
 40 H      -12.0240    -9.9310     0.5020 H     1 <1>   0.0800 
 41 H      -12.3230    -8.5590    -0.5360 H     1 <1>   0.0800 
 42 H      -11.6060    -8.3180     1.0330 H     1 <1>   0.0800 
 43 H      -10.6360   -11.0310    -1.4040 H     1 <1>   0.0800 
 44 H       -9.3800   -10.0900    -2.1740 H     1 <1>   0.0800 
 45 H      -11.0470    -9.6400    -2.3760 H     1 <1>   0.0800 
@<TRIPOS>BOND
  1   1   2  1   
  2   2   3  ar  
  3   2   4  ar  
  4   3   5  ar  
  5   3  24  1   
  6   4   6  ar  
  7   4  25  1   
  8   5   7  1   
  9   5   8  ar  
 10   6   8  ar  
 11   6  26  1   
 12   7   9  2   
 13   8  10  1   
 14   9  10  1   
 15   9  11  1   
 16  10  27  1   
 17  11  12  1   
 18  11  28  1   
 19  11  29  1   
 20  12  13  1   
 21  12  14  1   
 22  13  15  1   
 23  13  30  1   
 24  13  31  1   
 25  14  32  1   
 26  14  33  1   
 27  14  34  1   
 28  15  16  1   
 29  15  17  2   
 30  16  18  1   
 31  16  19  1   
 32  17  20  1   
 33  17  35  1   
 34  18  20  2   
 35  18  36  1   
 36  19  21  1   
 37  19  37  1   
 38  19  38  1   
 39  21  22  1   
 40  21  23  1   
 41  21  39  1   
 42  22  40  1   
 43  22  41  1   
 44  22  42  1   
 45  23  43  1   
 46  23  44  1   
 47  23  45  1   
@<TRIPOS>SUBSTRUCTURE
  1 ****  12 GROUP 4 **** **** 0

# MOE 2024.06 (io_trps.svl 2023.06)
