@<TRIPOS>MOLECULE
NONAME
42 43 1 0 0 
SMALL
USER_CHARGES


@<TRIPOS>ATOM
  1 F       -1.1750    -1.9350     2.5690 F     1 <1>  -0.1900 
  2 C       -1.8590    -1.9860     1.4560 C.ar  1 <1>   0.1900 
  3 C       -2.4840    -3.1680     1.0820 C.ar  1 <1>  -0.1440 
  4 C       -1.9190    -0.8300     0.7010 C.ar  1 <1>  -0.1500 
  5 C       -3.2070    -3.1780    -0.1150 C.ar  1 <1>   0.1170 
  6 C       -2.3880    -4.4280     1.9460 C.3   1 <1>  -0.0970 
  7 C       -2.6340    -0.8490    -0.4810 C.ar  1 <1>  -0.1500 
  8 N       -3.8470    -4.3630    -0.5110 N.am  1 <1>  -0.5470 
  9 C       -3.2680    -2.0130    -0.8800 C.ar  1 <1>  -0.1500 
 10 C       -4.6380    -4.7240    -1.5640 C.2   1 <1>   0.5690 
 11 O       -4.9950    -3.9860    -2.4480 O.2   1 <1>  -0.5700 
 12 C       -5.0800    -6.1880    -1.5870 C.3   1 <1>   0.1710 
 13 N       -5.0510    -6.8320    -0.2340 N.3   1 <1>  -0.8100 
 14 C       -4.8230    -8.3150    -0.3130 C.3   1 <1>   0.2510 
 15 C       -6.2630    -6.4660     0.5390 C.3   1 <1>   0.1100 
 16 C       -5.4980    -9.1520     0.8100 C.2   1 <1>   0.5690 
 17 C       -3.2950    -8.5140    -0.3310 C.3   1 <1>  -0.1600 
 18 C       -6.2460    -7.0690     1.9550 C.3   1 <1>   0.1400 
 19 O       -5.5660   -10.3530     0.7160 O.2   1 <1>  -0.5700 
 20 N       -6.0510    -8.5340     1.8810 N.am  1 <1>  -0.7300 
 21 C       -2.8710    -9.9640    -0.5770 C.3   1 <1>   0.1200 
 22 O       -1.4990    -9.9870    -0.7430 O.3   1 <1>  -0.6800 
 23 H       -1.4170     0.0600     1.0350 H     1 <1>   0.1500 
 24 H       -1.8020    -4.2630     2.8330 H     1 <1>   0.0800 
 25 H       -1.9240    -5.2220     1.3880 H     1 <1>   0.0800 
 26 H       -3.3700    -4.7410     2.2530 H     1 <1>   0.0800 
 27 H       -2.6980     0.0360    -1.0910 H     1 <1>   0.1500 
 28 H       -3.7370    -5.1490     0.1350 H     1 <1>   0.3700 
 29 H       -3.8170    -2.0050    -1.8030 H     1 <1>   0.1500 
 30 H       -4.4120    -6.7010    -2.2540 H     1 <1>   0.0800 
 31 H       -6.0690    -6.2490    -2.0090 H     1 <1>   0.0800 
 32 H       -5.2340    -8.6790    -1.2390 H     1 <1>   0.0800 
 33 H       -7.1430    -6.8130     0.0240 H     1 <1>   0.0800 
 34 H       -6.3300    -5.3940     0.6220 H     1 <1>   0.0800 
 35 H       -2.8970    -8.2000     0.6180 H     1 <1>   0.0800 
 36 H       -2.8690    -7.9020    -1.1040 H     1 <1>   0.0800 
 37 H       -7.1800    -6.8560     2.4460 H     1 <1>   0.0800 
 38 H       -5.4490    -6.6300     2.5300 H     1 <1>   0.0800 
 39 H       -6.4630    -9.1250     2.6070 H     1 <1>   0.3700 
 40 H       -3.3280   -10.3680    -1.4650 H     1 <1>   0.0800 
 41 H       -3.1100   -10.5930     0.2640 H     1 <1>   0.0800 
 42 H       -1.2340    -9.4850    -1.5370 H     1 <1>   0.4000 
@<TRIPOS>BOND
  1   1   2  1   
  2   2   3  ar  
  3   2   4  ar  
  4   3   5  ar  
  5   3   6  1   
  6   4   7  ar  
  7   4  23  1   
  8   5   8  1   
  9   5   9  ar  
 10   6  24  1   
 11   6  25  1   
 12   6  26  1   
 13   7   9  ar  
 14   7  27  1   
 15   8  10  am  
 16   8  28  1   
 17   9  29  1   
 18  10  11  2   
 19  10  12  1   
 20  12  13  1   
 21  12  30  1   
 22  12  31  1   
 23  13  14  1   
 24  13  15  1   
 25  14  16  1   
 26  14  17  1   
 27  14  32  1   
 28  15  18  1   
 29  15  33  1   
 30  15  34  1   
 31  16  19  2   
 32  16  20  am  
 33  17  21  1   
 34  17  35  1   
 35  17  36  1   
 36  18  20  1   
 37  18  37  1   
 38  18  38  1   
 39  20  39  1   
 40  21  22  1   
 41  21  40  1   
 42  21  41  1   
 43  22  42  1   
@<TRIPOS>SUBSTRUCTURE
  1 ****   8 GROUP 4 **** **** 0

# MOE 2024.06 (io_trps.svl 2023.06)
