@<TRIPOS>MOLECULE
NONAME
56 58 1 0 0 
SMALL
USER_CHARGES


@<TRIPOS>ATOM
  1 O        3.5110    -0.5090     4.3130 O.2   1 <1>  -0.5700 
  2 C        2.7000    -0.5680     3.4190 C.2   1 <1>   0.5690 
  3 N        2.1520     0.5340     2.8580 N.am  1 <1>  -0.7300 
  4 C        2.2960    -1.9240     2.8290 C.3   1 <1>   0.1710 
  5 C        2.7570     1.8720     2.8740 C.3   1 <1>   0.2840 
  6 N        2.1460    -1.9000     1.3410 N.3   1 <1>  -0.8100 
  7 C        3.2390     2.1090     1.4560 C.ar  1 <1>  -0.1430 
  8 C        3.4280    -1.6510     0.6580 C.3   1 <1>   0.1100 
  9 C        1.6330    -3.1700     0.7970 C.3   1 <1>   0.1100 
 10 C        2.3280     2.4370     0.4630 C.ar  1 <1>  -0.1500 
 11 C        4.5760     1.9400     1.1300 C.ar  1 <1>  -0.1500 
 12 C        3.2180    -2.1730    -0.7560 C.3   1 <1>   0.2000 
 13 C        2.3960    -3.4370    -0.5110 C.3   1 <1>  -0.0800 
 14 C        2.7340     2.5650    -0.8540 C.ar  1 <1>   0.0830 
 15 C        4.9900     2.0520    -0.1870 C.ar  1 <1>  -0.1500 
 16 O        2.4610    -1.2360    -1.4390 O.3   1 <1>  -0.6800 
 17 C        1.4960    -3.8800    -1.6790 C.3   1 <1>   0.0210 
 18 O        1.7820     2.9110    -1.7580 O.3   1 <1>  -0.3630 
 19 C        4.0730     2.3290    -1.1860 C.ar  1 <1>   0.0830 
 20 C        0.7680    -5.1710    -1.3550 C.2   1 <1>   0.1080 
 21 C        2.0270     4.0510    -2.5530 C.3   1 <1>   0.0400 
 22 O        4.5180     2.3200    -2.4640 O.3   1 <1>  -0.3630 
 23 N        1.3820    -6.2900    -1.1250 N.2   1 <1>  -0.7070 
 24 C       -0.6140    -5.3020    -1.2660 C.2   1 <1>  -0.1500 
 25 C        4.0850     1.2210    -3.2380 C.3   1 <1>   0.0400 
 26 N        0.3970    -7.1770    -0.8890 N.pl3 1 <1>   0.3000 
 27 C       -0.8220    -6.6010    -0.9650 C.2   1 <1>  -0.3320 
 28 C       -2.1290    -7.3400    -0.7470 C.3   1 <1>  -0.0600 
 29 H        1.6090     0.3440     2.0100 H     1 <1>   0.3700 
 30 H        1.3590    -2.2070     3.2730 H     1 <1>   0.0800 
 31 H        3.0330    -2.6550     3.1110 H     1 <1>   0.0800 
 32 H        2.0190     2.6040     3.1540 H     1 <1>   0.0800 
 33 H        3.5740     1.9100     3.5740 H     1 <1>   0.0800 
 34 H        3.6900    -0.6070     0.6610 H     1 <1>   0.0800 
 35 H        4.2150    -2.2160     1.1300 H     1 <1>   0.0800 
 36 H        1.7970    -3.9870     1.4810 H     1 <1>   0.0800 
 37 H        0.5750    -3.0760     0.6190 H     1 <1>   0.0800 
 38 H        1.2900     2.5870     0.6990 H     1 <1>   0.1500 
 39 H        5.2950     1.6990     1.8950 H     1 <1>   0.1500 
 40 H        4.1320    -2.3470    -1.2970 H     1 <1>   0.0800 
 41 H        3.0880    -4.2370    -0.3130 H     1 <1>   0.0800 
 42 H        6.0230     1.9060    -0.4480 H     1 <1>   0.1500 
 43 H        1.7890    -0.9040    -0.8070 H     1 <1>   0.4000 
 44 H        2.0980    -4.0370    -2.5550 H     1 <1>   0.0800 
 45 H        0.7730    -3.1170    -1.9060 H     1 <1>   0.0800 
 46 H        1.0990     4.3520    -3.0040 H     1 <1>   0.0800 
 47 H        2.7390     3.8050    -3.3190 H     1 <1>   0.0800 
 48 H        2.4070     4.8400    -1.9280 H     1 <1>   0.0800 
 49 H       -1.3350    -4.5190    -1.4140 H     1 <1>   0.1500 
 50 H        4.5220     1.3020    -4.2170 H     1 <1>   0.0800 
 51 H        3.0120     1.2340    -3.3100 H     1 <1>   0.0800 
 52 H        4.4090     0.3120    -2.7620 H     1 <1>   0.0800 
 53 H        0.5880    -8.1650    -0.6840 H     1 <1>   0.2700 
 54 H       -2.9590    -6.6660    -0.8640 H     1 <1>   0.0800 
 55 H       -2.1620    -7.7560     0.2450 H     1 <1>   0.0800 
 56 H       -2.2310    -8.1350    -1.4650 H     1 <1>   0.0800 
@<TRIPOS>BOND
  1   1   2  2   
  2   2   3  am  
  3   2   4  1   
  4   3   5  1   
  5   3  29  1   
  6   4   6  1   
  7   4  30  1   
  8   4  31  1   
  9   5   7  1   
 10   5  32  1   
 11   5  33  1   
 12   6   8  1   
 13   6   9  1   
 14   7  10  ar  
 15   7  11  ar  
 16   8  12  1   
 17   8  34  1   
 18   8  35  1   
 19   9  13  1   
 20   9  36  1   
 21   9  37  1   
 22  10  14  ar  
 23  10  38  1   
 24  11  15  ar  
 25  11  39  1   
 26  12  13  1   
 27  12  16  1   
 28  12  40  1   
 29  13  17  1   
 30  13  41  1   
 31  14  18  1   
 32  14  19  ar  
 33  15  19  ar  
 34  15  42  1   
 35  16  43  1   
 36  17  20  1   
 37  17  44  1   
 38  17  45  1   
 39  18  21  1   
 40  19  22  1   
 41  20  23  2   
 42  20  24  1   
 43  21  46  1   
 44  21  47  1   
 45  21  48  1   
 46  22  25  1   
 47  23  26  1   
 48  24  27  2   
 49  24  49  1   
 50  25  50  1   
 51  25  51  1   
 52  25  52  1   
 53  26  27  1   
 54  26  53  1   
 55  27  28  1   
 56  28  54  1   
 57  28  55  1   
 58  28  56  1   
@<TRIPOS>SUBSTRUCTURE
  1 ****  16 GROUP 4 **** **** 0

# MOE 2024.06 (io_trps.svl 2023.06)
