@<TRIPOS>MOLECULE
NONAME
44 46 1 0 0 
SMALL
USER_CHARGES


@<TRIPOS>ATOM
  1 S       -1.3200    -0.4620    -1.9710 S.3   1 <1>  -0.0800 
  2 C       -0.6160     0.8510    -1.0620 C.2   1 <1>   0.1980 
  3 C       -1.9090    -1.1410    -0.4810 C.2   1 <1>  -0.1400 
  4 N       -0.8000     0.7830     0.1980 N.2   1 <1>  -0.5650 
  5 C        0.1310     1.9240    -1.8390 C.3   1 <1>   0.5230 
  6 C       -1.5340    -0.3430     0.5350 C.2   1 <1>   0.0460 
  7 C       -2.6950    -2.4350    -0.5880 C.3   1 <1>  -0.0600 
  8 N        0.8720     2.8030    -0.8820 N.4   1 <1>  -0.9590 
  9 C       -1.8250    -0.5360     2.0090 C.3   1 <1>  -0.0590 
 10 C        1.1540     4.1570    -1.4470 C.3   1 <1>   0.3430 
 11 C        2.0910     2.1220    -0.3590 C.3   1 <1>   0.3430 
 12 C        1.8070     5.0680    -0.4000 C.3   1 <1>  -0.0190 
 13 C        2.7420     2.9930     0.7170 C.3   1 <1>  -0.1600 
 14 C        2.1510     6.4110    -1.0450 C.2   1 <1>   0.4230 
 15 C        3.0620     4.4030     0.1980 C.3   1 <1>  -0.1600 
 16 O        2.3330     6.3990    -2.2390 O.2   1 <1>  -0.5700 
 17 C        2.2420     7.6090    -0.2230 C.ar  1 <1>   0.3960 
 18 N        1.9740     7.5200     1.0900 N.ar  1 <1>  -0.6200 
 19 C        2.6010     8.8250    -0.8090 C.ar  1 <1>  -0.1500 
 20 C        2.0680     8.6300     1.8000 C.ar  1 <1>   0.1600 
 21 C        2.6950     9.9760    -0.0580 C.ar  1 <1>  -0.1500 
 22 C        2.4180     9.8650     1.2850 C.ar  1 <1>  -0.1500 
 23 H       -0.5890     2.5040    -2.3920 H     1 <1>   0.0800 
 24 H        0.8130     1.4660    -2.5350 H     1 <1>   0.0800 
 25 H       -3.5650    -2.2850    -1.2020 H     1 <1>   0.0800 
 26 H       -3.0140    -2.7720     0.3810 H     1 <1>   0.0800 
 27 H       -2.0840    -3.1990    -1.0330 H     1 <1>   0.0800 
 28 H        0.2320     2.8850    -0.0740 H     1 <1>   0.4500 
 29 H       -2.3970    -1.4280     2.1770 H     1 <1>   0.0800 
 30 H       -2.3810     0.3050     2.3810 H     1 <1>   0.0800 
 31 H       -0.9020    -0.6090     2.5540 H     1 <1>   0.0800 
 32 H        0.2420     4.6150    -1.7920 H     1 <1>   0.0800 
 33 H        1.8200     4.0660    -2.2910 H     1 <1>   0.0800 
 34 H        2.7930     1.9580    -1.1610 H     1 <1>   0.0800 
 35 H        1.8260     1.1660     0.0670 H     1 <1>   0.0800 
 36 H        1.0850     5.2310     0.3800 H     1 <1>   0.0800 
 37 H        3.6510     2.5200     1.0470 H     1 <1>   0.0800 
 38 H        2.0860     3.0540     1.5690 H     1 <1>   0.0800 
 39 H        3.4440     5.0050     1.0070 H     1 <1>   0.0800 
 40 H        3.8310     4.3410    -0.5550 H     1 <1>   0.0800 
 41 H        2.8090     8.8620    -1.8640 H     1 <1>   0.1500 
 42 H        1.8540     8.5580     2.8550 H     1 <1>   0.1500 
 43 H        2.9710    10.9180    -0.5010 H     1 <1>   0.1500 
 44 H        2.4720    10.7250     1.9290 H     1 <1>   0.1500 
@<TRIPOS>BOND
  1   1   2  1   
  2   1   3  1   
  3   2   4  2   
  4   2   5  1   
  5   3   6  2   
  6   3   7  1   
  7   4   6  1   
  8   5   8  1   
  9   5  23  1   
 10   5  24  1   
 11   6   9  1   
 12   7  25  1   
 13   7  26  1   
 14   7  27  1   
 15   8  10  1   
 16   8  11  1   
 17   8  28  1   
 18   9  29  1   
 19   9  30  1   
 20   9  31  1   
 21  10  12  1   
 22  10  32  1   
 23  10  33  1   
 24  11  13  1   
 25  11  34  1   
 26  11  35  1   
 27  12  14  1   
 28  12  15  1   
 29  12  36  1   
 30  13  15  1   
 31  13  37  1   
 32  13  38  1   
 33  14  16  2   
 34  14  17  1   
 35  15  39  1   
 36  15  40  1   
 37  17  18  ar  
 38  17  19  ar  
 39  18  20  ar  
 40  19  21  ar  
 41  19  41  1   
 42  20  22  ar  
 43  20  42  1   
 44  21  22  ar  
 45  21  43  1   
 46  22  44  1   
@<TRIPOS>SUBSTRUCTURE
  1 ****   8 GROUP 4 **** **** 0

# MOE 2024.06 (io_trps.svl 2023.06)
