@<TRIPOS>MOLECULE
NONAME
46 49 1 0 0 
SMALL
USER_CHARGES


@<TRIPOS>ATOM
  1 S        1.5440     3.5170     2.2560 S.3   1 <1>  -0.2420 
  2 C        2.2770     3.5450     0.6510 C.2   1 <1>   0.6510 
  3 C        0.6520     2.0300     1.8850 C.2   1 <1>  -0.0490 
  4 N        3.1070     4.4620     0.2680 N.2   1 <1>  -0.6210 
  5 N        1.8350     2.4660    -0.0670 N.am  1 <1>  -0.2290 
  6 C        0.9320     1.6360     0.6350 C.2   1 <1>  -0.0410 
  7 C        3.5860     4.3370    -1.0100 C.2   1 <1>   0.0330 
  8 C        2.3160     2.3130    -1.3430 C.2   1 <1>   0.6160 
  9 C        3.2200     3.3000    -1.8110 C.2   1 <1>  -0.1360 
 10 C        4.5540     5.4280    -1.4650 C.3   1 <1>   0.4810 
 11 O        1.9820     1.3650    -2.0320 O.2   1 <1>  -0.5700 
 12 N        5.4890     5.7170    -0.3480 N.4   1 <1>  -0.9590 
 13 C        6.0770     7.0900    -0.4550 C.3   1 <1>   0.3430 
 14 C        6.5190     4.6570    -0.1620 C.3   1 <1>   0.3430 
 15 C        6.9430     7.4360     0.7720 C.3   1 <1>   0.2000 
 16 C        7.3590     4.9650     1.0820 C.3   1 <1>  -0.1600 
 17 O        7.6100     8.6350     0.5260 O.3   1 <1>  -0.5600 
 18 C        8.0040     6.3600     1.0160 C.3   1 <1>  -0.1600 
 19 C        7.0250     9.7820     1.0930 C.3   1 <1>   0.2630 
 20 C        5.6740    10.1070     0.4530 C.ar  1 <1>   0.1670 
 21 N        4.6000     9.5110     0.9620 N.ar  1 <1>  -0.6200 
 22 C        5.6300    10.9910    -0.6150 C.ar  1 <1>  -0.1500 
 23 C        3.4420     9.8380     0.4080 C.ar  1 <1>   0.1600 
 24 C        4.4200    11.3060    -1.1940 C.ar  1 <1>  -0.1500 
 25 C        3.3000    10.7110    -0.6560 C.ar  1 <1>  -0.1500 
 26 H        0.0190     1.6270     2.6580 H     1 <1>   0.1500 
 27 H        0.5400     0.7670     0.1290 H     1 <1>   0.1500 
 28 H        3.5770     3.1700    -2.8160 H     1 <1>   0.1500 
 29 H        3.9820     6.3130    -1.6920 H     1 <1>   0.0800 
 30 H        5.0910     5.1260    -2.3490 H     1 <1>   0.0800 
 31 H        4.8710     5.6920     0.4830 H     1 <1>   0.4500 
 32 H        5.2870     7.8150    -0.5470 H     1 <1>   0.0800 
 33 H        6.6990     7.1470    -1.3330 H     1 <1>   0.0800 
 34 H        7.1620     4.6170    -1.0260 H     1 <1>   0.0800 
 35 H        6.0430     3.6970    -0.0440 H     1 <1>   0.0800 
 36 H        6.3220     7.5390     1.6470 H     1 <1>   0.0800 
 37 H        8.1320     4.2220     1.1730 H     1 <1>   0.0800 
 38 H        6.7370     4.8890     1.9580 H     1 <1>   0.0800 
 39 H        8.5160     6.5660     1.9410 H     1 <1>   0.0800 
 40 H        8.7260     6.3820     0.2170 H     1 <1>   0.0800 
 41 H        7.7080    10.5980     0.9390 H     1 <1>   0.0800 
 42 H        6.9150     9.6330     2.1540 H     1 <1>   0.0800 
 43 H        6.5350    11.4350    -0.9910 H     1 <1>   0.1500 
 44 H        2.5560     9.3880     0.8250 H     1 <1>   0.1500 
 45 H        4.3520    11.9910    -2.0230 H     1 <1>   0.1500 
 46 H        2.3230    10.9260    -1.0530 H     1 <1>   0.1500 
@<TRIPOS>BOND
  1   1   2  1   
  2   1   3  1   
  3   2   4  2   
  4   2   5  1   
  5   3   6  2   
  6   3  26  1   
  7   4   7  1   
  8   5   6  1   
  9   5   8  am  
 10   6  27  1   
 11   7   9  2   
 12   7  10  1   
 13   8   9  1   
 14   8  11  2   
 15   9  28  1   
 16  10  12  1   
 17  10  29  1   
 18  10  30  1   
 19  12  13  1   
 20  12  14  1   
 21  12  31  1   
 22  13  15  1   
 23  13  32  1   
 24  13  33  1   
 25  14  16  1   
 26  14  34  1   
 27  14  35  1   
 28  15  17  1   
 29  15  18  1   
 30  15  36  1   
 31  16  18  1   
 32  16  37  1   
 33  16  38  1   
 34  17  19  1   
 35  18  39  1   
 36  18  40  1   
 37  19  20  1   
 38  19  41  1   
 39  19  42  1   
 40  20  21  ar  
 41  20  22  ar  
 42  21  23  ar  
 43  22  24  ar  
 44  22  43  1   
 45  23  25  ar  
 46  23  44  1   
 47  24  25  ar  
 48  24  45  1   
 49  25  46  1   
@<TRIPOS>SUBSTRUCTURE
  1 ****  12 GROUP 4 **** **** 0

# MOE 2024.06 (io_trps.svl 2023.06)
