@<TRIPOS>MOLECULE
NONAME
47 49 1 0 0 
SMALL
USER_CHARGES


@<TRIPOS>ATOM
  1 O        1.3610     2.2440    -0.4390 O.co2 1 <1>  -0.9000 
  2 C        0.4700     2.9720    -0.8890 C.2   1 <1>   0.9060 
  3 O        0.6240     3.5690    -1.9610 O.co2 1 <1>  -0.9000 
  4 C       -0.6820     3.3770     0.0410 C.3   1 <1>   0.0380 
  5 C       -1.7020     2.2710     0.3730 C.ar  1 <1>  -0.1440 
  6 C        0.0570     3.8590     1.2770 C.3   1 <1>   0.3430 
  7 C       -1.3630     4.6760    -0.4160 C.3   1 <1>  -0.1600 
  8 C       -1.6710     1.0480    -0.2870 C.ar  1 <1>  -0.1500 
  9 C       -2.6780     2.4710     1.3440 C.ar  1 <1>  -0.1500 
 10 N        0.5390     5.2450     0.9580 N.4   1 <1>  -0.9590 
 11 C       -0.2930     5.7360    -0.1890 C.3   1 <1>   0.3430 
 12 C       -2.5870     0.0550     0.0130 C.ar  1 <1>  -0.1500 
 13 C       -3.5950     1.4800     1.6460 C.ar  1 <1>  -0.1500 
 14 C        1.9820     5.1910     0.5550 C.3   1 <1>   0.4860 
 15 C       -3.5510     0.2690     0.9800 C.ar  1 <1>  -0.1500 
 16 C        2.4810     6.6020     0.3300 C.ar  1 <1>  -0.1430 
 17 C        2.7850     7.4260     1.4010 C.ar  1 <1>   0.1600 
 18 C        2.6390     7.0940    -0.9520 C.ar  1 <1>  -0.1500 
 19 N        3.1920     8.6770     1.3030 N.ar  1 <1>  -0.6200 
 20 C        3.0750     8.3920    -1.0680 C.ar  1 <1>  -0.1500 
 21 C        3.3330     9.1540     0.0700 C.ar  1 <1>   0.4100 
 22 N        3.7540    10.4660    -0.0610 N.pl3 1 <1>  -0.8380 
 23 C        2.8810    11.4380    -0.7700 C.3   1 <1>   0.1290 
 24 C        4.6120    11.0660     0.9970 C.3   1 <1>   0.1290 
 25 H        0.8680     3.1930     1.5300 H     1 <1>   0.0800 
 26 H       -0.6300     3.8950     2.1050 H     1 <1>   0.0800 
 27 H       -2.2270     4.9080     0.1780 H     1 <1>   0.0800 
 28 H       -1.6570     4.6320    -1.4500 H     1 <1>   0.0800 
 29 H       -0.9310     0.8440    -1.0450 H     1 <1>   0.1500 
 30 H       -2.7450     3.4010     1.8780 H     1 <1>   0.1500 
 31 H        0.4370     5.8660     1.7650 H     1 <1>   0.4500 
 32 H       -0.7260     6.7020     0.0150 H     1 <1>   0.0800 
 33 H        0.3130     5.8020    -1.0790 H     1 <1>   0.0800 
 34 H       -2.5440    -0.8850    -0.5090 H     1 <1>   0.1500 
 35 H       -4.3460     1.6480     2.3980 H     1 <1>   0.1500 
 36 H        2.1020     4.6200    -0.3530 H     1 <1>   0.0800 
 37 H        2.5670     4.7140     1.3240 H     1 <1>   0.0800 
 38 H       -4.2620    -0.5040     1.2130 H     1 <1>   0.1500 
 39 H        2.6860     7.0440     2.4020 H     1 <1>   0.1500 
 40 H        2.4350     6.4900    -1.8240 H     1 <1>   0.1500 
 41 H        3.2310     8.8370    -2.0320 H     1 <1>   0.1500 
 42 H        2.1130    10.9250    -1.3230 H     1 <1>   0.0800 
 43 H        3.4720    12.0220    -1.4530 H     1 <1>   0.0800 
 44 H        2.4100    12.0940    -0.0580 H     1 <1>   0.0800 
 45 H        5.2900    10.3240     1.3830 H     1 <1>   0.0800 
 46 H        3.9990    11.4290     1.8030 H     1 <1>   0.0800 
 47 H        5.1870    11.8780     0.5880 H     1 <1>   0.0800 
@<TRIPOS>BOND
  1   1   2  ar  
  2   2   3  ar  
  3   2   4  1   
  4   4   5  1   
  5   4   6  1   
  6   4   7  1   
  7   5   8  ar  
  8   5   9  ar  
  9   6  10  1   
 10   6  25  1   
 11   6  26  1   
 12   7  11  1   
 13   7  27  1   
 14   7  28  1   
 15   8  12  ar  
 16   8  29  1   
 17   9  13  ar  
 18   9  30  1   
 19  10  11  1   
 20  10  14  1   
 21  10  31  1   
 22  11  32  1   
 23  11  33  1   
 24  12  15  ar  
 25  12  34  1   
 26  13  15  ar  
 27  13  35  1   
 28  14  16  1   
 29  14  36  1   
 30  14  37  1   
 31  15  38  1   
 32  16  17  ar  
 33  16  18  ar  
 34  17  19  ar  
 35  17  39  1   
 36  18  20  ar  
 37  18  40  1   
 38  19  21  ar  
 39  20  21  ar  
 40  20  41  1   
 41  21  22  1   
 42  22  23  1   
 43  22  24  1   
 44  23  42  1   
 45  23  43  1   
 46  23  44  1   
 47  24  45  1   
 48  24  46  1   
 49  24  47  1   
@<TRIPOS>SUBSTRUCTURE
  1 ****  10 GROUP 4 **** **** 0

# MOE 2024.06 (io_trps.svl 2023.06)
