@<TRIPOS>MOLECULE
NONAME
46 48 1 0 0 
SMALL
USER_CHARGES


@<TRIPOS>ATOM
  1 F        0.9320     1.2470    -0.5430 F     1 <1>  -0.1900 
  2 C       -0.3010     1.3320    -0.1000 C.ar  1 <1>   0.1900 
  3 C       -0.8220     2.5750     0.2840 C.ar  1 <1>   0.1000 
  4 C       -1.0320     0.1620    -0.0370 C.ar  1 <1>  -0.1500 
  5 N       -0.1280     3.7910     0.2400 N.pl3 1 <1>  -0.8380 
  6 C       -2.1330     2.5880     0.7420 C.ar  1 <1>  -0.1500 
  7 C       -2.3370     0.2110     0.4250 C.ar  1 <1>  -0.1500 
  8 C        0.2460     4.2820    -1.1220 C.3   1 <1>   0.2090 
  9 C        1.0450     3.9080     1.1620 C.3   1 <1>   0.2090 
 10 C       -2.8830     1.4240     0.8130 C.ar  1 <1>  -0.1500 
 11 C        0.7430     5.7430    -1.0820 C.3   1 <1>   0.2090 
 12 C        1.5530     5.3610     1.2500 C.3   1 <1>   0.2090 
 13 N        1.8490     5.9520    -0.0930 N.pl3 1 <1>  -0.8380 
 14 C        3.1400     5.8530    -0.5540 C.ar  1 <1>   0.4100 
 15 N        3.5330     4.6600    -0.9500 N.ar  1 <1>  -0.6200 
 16 C        3.9940     6.9470    -0.6000 C.ar  1 <1>  -0.1430 
 17 C        4.7720     4.5730    -1.3830 C.ar  1 <1>   0.4770 
 18 C        5.2600     6.7230    -1.0740 C.ar  1 <1>   0.1600 
 19 C        3.5670     8.3410    -0.1520 C.3   1 <1>  -0.0170 
 20 N        5.6710     5.5350    -1.4730 N.ar  1 <1>  -0.6200 
 21 C        5.2260     3.2070    -1.8370 C.3   1 <1>  -0.0970 
 22 C        3.8420     8.5380     1.3430 C.3   1 <1>  -0.1600 
 23 C        3.4270     9.9370     1.8110 C.3   1 <1>  -0.2400 
 24 H       -0.5870    -0.7670    -0.3430 H     1 <1>   0.1500 
 25 H       -2.5590     3.5270     1.0430 H     1 <1>   0.1500 
 26 H       -2.9240    -0.6900     0.4830 H     1 <1>   0.1500 
 27 H       -0.6080     4.2140    -1.7720 H     1 <1>   0.0800 
 28 H        1.0260     3.6620    -1.5290 H     1 <1>   0.0800 
 29 H        1.8460     3.2820     0.8090 H     1 <1>   0.0800 
 30 H        0.7620     3.5680     2.1420 H     1 <1>   0.0800 
 31 H       -3.8970     1.4650     1.1720 H     1 <1>   0.1500 
 32 H       -0.0810     6.3830    -0.8240 H     1 <1>   0.0800 
 33 H        1.0860     6.0220    -2.0630 H     1 <1>   0.0800 
 34 H        2.4440     5.3830     1.8530 H     1 <1>   0.0800 
 35 H        0.8070     5.9620     1.7390 H     1 <1>   0.0800 
 36 H        5.9660     7.5330    -1.1300 H     1 <1>   0.1500 
 37 H        2.5190     8.4820    -0.3520 H     1 <1>   0.0800 
 38 H        4.1050     9.0800    -0.7190 H     1 <1>   0.0800 
 39 H        4.4570     2.4770    -1.6650 H     1 <1>   0.0800 
 40 H        6.1070     2.9240    -1.2920 H     1 <1>   0.0800 
 41 H        5.4530     3.2380    -2.8850 H     1 <1>   0.0800 
 42 H        4.8900     8.3910     1.5390 H     1 <1>   0.0800 
 43 H        3.2930     7.8010     1.9030 H     1 <1>   0.0800 
 44 H        3.9780    10.6920     1.2780 H     1 <1>   0.0800 
 45 H        3.6270    10.0470     2.8620 H     1 <1>   0.0800 
 46 H        2.3750    10.0920     1.6460 H     1 <1>   0.0800 
@<TRIPOS>BOND
  1   1   2  1   
  2   2   3  ar  
  3   2   4  ar  
  4   3   5  1   
  5   3   6  ar  
  6   4   7  ar  
  7   4  24  1   
  8   5   8  1   
  9   5   9  1   
 10   6  10  ar  
 11   6  25  1   
 12   7  10  ar  
 13   7  26  1   
 14   8  11  1   
 15   8  27  1   
 16   8  28  1   
 17   9  12  1   
 18   9  29  1   
 19   9  30  1   
 20  10  31  1   
 21  11  13  1   
 22  11  32  1   
 23  11  33  1   
 24  12  13  1   
 25  12  34  1   
 26  12  35  1   
 27  13  14  1   
 28  14  15  ar  
 29  14  16  ar  
 30  15  17  ar  
 31  16  18  ar  
 32  16  19  1   
 33  17  20  ar  
 34  17  21  1   
 35  18  20  ar  
 36  18  36  1   
 37  19  22  1   
 38  19  37  1   
 39  19  38  1   
 40  21  39  1   
 41  21  40  1   
 42  21  41  1   
 43  22  23  1   
 44  22  42  1   
 45  22  43  1   
 46  23  44  1   
 47  23  45  1   
 48  23  46  1   
@<TRIPOS>SUBSTRUCTURE
  1 ****  13 GROUP 4 **** **** 0

# MOE 2024.06 (io_trps.svl 2023.06)
