@<TRIPOS>MOLECULE
NONAME
45 48 1 0 0 
SMALL
USER_CHARGES


@<TRIPOS>ATOM
  1 CL      -2.2680     2.1480    -1.3170 Cl    1 <1>  -0.1770 
  2 C       -3.2640     1.4980    -0.0420 C.ar  1 <1>   0.1770 
  3 C       -4.0340     0.3790    -0.2970 C.ar  1 <1>  -0.1500 
  4 C       -3.2720     2.1100     1.1960 C.ar  1 <1>  -0.1500 
  5 C       -4.8400    -0.1420     0.7070 C.ar  1 <1>  -0.1440 
  6 C       -4.0690     1.5880     2.2000 C.ar  1 <1>  -0.1500 
  7 C       -4.8470     0.4680     1.9570 C.ar  1 <1>  -0.1500 
  8 C       -5.7070    -1.3570     0.4370 C.3   1 <1>   0.4870 
  9 N       -6.8770    -0.9200    -0.3680 N.4   1 <1>  -0.9590 
 10 C       -7.7880    -0.0350     0.4400 C.3   1 <1>   0.3430 
 11 C       -7.6180    -2.0780    -0.9440 C.3   1 <1>   0.3430 
 12 C       -8.9470     0.5260    -0.4020 C.3   1 <1>   0.1430 
 13 C       -8.7420    -1.5700    -1.8520 C.3   1 <1>  -0.1600 
 14 C       -9.8800     1.2720     0.5200 C.ar  1 <1>   0.1670 
 15 C       -9.7000    -0.6200    -1.1120 C.3   1 <1>  -0.1600 
 16 C       -8.4950     1.6330    -1.3930 C.3   1 <1>  -0.1600 
 17 N      -10.3190     0.8070     1.6630 N.ar  1 <1>  -0.6200 
 18 C      -10.2000     2.5030     0.0330 C.ar  1 <1>  -0.1430 
 19 C       -9.5350     2.7670    -1.2950 C.3   1 <1>  -0.0170 
 20 C      -11.1120     1.6510     2.3100 C.ar  1 <1>   0.7200 
 21 C      -11.0380     3.2870     0.7890 C.ar  1 <1>   0.1600 
 22 N      -11.5050     2.8620     1.9420 N.ar  1 <1>  -0.6200 
 23 N      -11.5920     1.2220     3.4780 N.pl3 1 <1>  -0.9000 
 24 H       -3.9830    -0.0650    -1.2750 H     1 <1>   0.1500 
 25 H       -2.6610     2.9790     1.3690 H     1 <1>   0.1500 
 26 H       -4.0790     2.0550     3.1720 H     1 <1>   0.1500 
 27 H       -5.4550     0.0800     2.7590 H     1 <1>   0.1500 
 28 H       -6.0320    -1.7980     1.3660 H     1 <1>   0.0800 
 29 H       -5.1310    -2.0880    -0.1070 H     1 <1>   0.0800 
 30 H       -6.5080    -0.3520    -1.1400 H     1 <1>   0.4500 
 31 H       -7.2350     0.7900     0.8580 H     1 <1>   0.0800 
 32 H       -8.2060    -0.5980     1.2580 H     1 <1>   0.0800 
 33 H       -8.0420    -2.6720    -0.1490 H     1 <1>   0.0800 
 34 H       -6.9490    -2.7020    -1.5150 H     1 <1>   0.0800 
 35 H       -9.3010    -2.4150    -2.2170 H     1 <1>   0.0800 
 36 H       -8.3160    -1.0820    -2.7110 H     1 <1>   0.0800 
 37 H      -10.4270    -0.2170    -1.7970 H     1 <1>   0.0800 
 38 H      -10.2440    -1.1860    -0.3730 H     1 <1>   0.0800 
 39 H       -8.4030     1.2830    -2.4050 H     1 <1>   0.0800 
 40 H       -7.5440     2.0320    -1.0830 H     1 <1>   0.0800 
 41 H      -10.2640     2.6900    -2.0850 H     1 <1>   0.0800 
 42 H       -9.0710     3.7390    -1.3230 H     1 <1>   0.0800 
 43 H      -11.3270     4.2680     0.4500 H     1 <1>   0.1500 
 44 H      -12.3780     1.7580     3.8360 H     1 <1>   0.4000 
 45 H      -11.6400     0.2150     3.6000 H     1 <1>   0.4000 
@<TRIPOS>BOND
  1   1   2  1   
  2   2   3  ar  
  3   2   4  ar  
  4   3   5  ar  
  5   3  24  1   
  6   4   6  ar  
  7   4  25  1   
  8   5   7  ar  
  9   5   8  1   
 10   6   7  ar  
 11   6  26  1   
 12   7  27  1   
 13   8   9  1   
 14   8  28  1   
 15   8  29  1   
 16   9  10  1   
 17   9  11  1   
 18   9  30  1   
 19  10  12  1   
 20  10  31  1   
 21  10  32  1   
 22  11  13  1   
 23  11  33  1   
 24  11  34  1   
 25  12  14  1   
 26  12  15  1   
 27  12  16  1   
 28  13  15  1   
 29  13  35  1   
 30  13  36  1   
 31  14  17  ar  
 32  14  18  ar  
 33  15  37  1   
 34  15  38  1   
 35  16  19  1   
 36  16  39  1   
 37  16  40  1   
 38  17  20  ar  
 39  18  19  1   
 40  18  21  ar  
 41  19  41  1   
 42  19  42  1   
 43  20  22  ar  
 44  20  23  1   
 45  21  22  ar  
 46  21  43  1   
 47  23  44  1   
 48  23  45  1   
@<TRIPOS>SUBSTRUCTURE
  1 ****  10 GROUP 4 **** **** 0

# MOE 2024.06 (io_trps.svl 2023.06)
