@<TRIPOS>MOLECULE
NONAME
40 41 1 0 0 
SMALL
USER_CHARGES


@<TRIPOS>ATOM
  1 O        0.9050     1.9150     0.4910 O.co2 1 <1>  -0.9000 
  2 C       -0.3390     1.8220     0.4590 C.2   1 <1>   0.9060 
  3 O       -0.9980     0.8090     0.6650 O.co2 1 <1>  -0.9000 
  4 C       -0.9880     3.1140     0.1550 C.3   1 <1>  -0.1860 
  5 C       -2.4640     3.4310     0.1760 C.3   1 <1>   0.2000 
  6 C       -0.4990     3.5460    -1.2130 C.3   1 <1>   0.2090 
  7 O       -2.9820     2.9830     1.3670 O.3   1 <1>  -0.6800 
  8 C       -2.5960     4.9770     0.0880 C.3   1 <1>  -0.1600 
  9 N       -0.3120     4.9820    -1.0170 N.pl3 1 <1>  -0.8380 
 10 C       -1.6440     5.6760    -0.9360 C.3   1 <1>   0.2090 
 11 C        0.8470     5.4390    -0.4650 C.ar  1 <1>   0.7710 
 12 N        1.0630     6.7430    -0.4210 N.ar  1 <1>  -0.6200 
 13 N        1.7290     4.5460     0.0540 N.ar  1 <1>  -0.1790 
 14 C        2.1990     7.1670     0.1030 C.ar  1 <1>   0.4100 
 15 C        2.8730     4.9470     0.6400 C.ar  1 <1>   0.2110 
 16 N        2.4110     8.5100     0.0670 N.pl3 1 <1>  -0.8380 
 17 C        3.1420     6.2760     0.6820 C.ar  1 <1>  -0.1430 
 18 C        3.5960     9.1130    -0.6040 C.3   1 <1>   0.1290 
 19 C        1.2990     9.4720     0.3100 C.3   1 <1>   0.1290 
 20 C        4.4040     6.7760     1.3810 C.3   1 <1>  -0.0970 
 21 H       -0.5840     3.7260     0.9400 H     1 <1>   0.0800 
 22 H       -2.9850     2.9300    -0.6250 H     1 <1>   0.0800 
 23 H       -1.2300     3.3510    -1.9820 H     1 <1>   0.0800 
 24 H        0.4170     3.0730    -1.5280 H     1 <1>   0.0800 
 25 H       -2.6840     2.0480     1.4870 H     1 <1>   0.4000 
 26 H       -3.6140     5.2350    -0.1400 H     1 <1>   0.0800 
 27 H       -2.3730     5.3870     1.0570 H     1 <1>   0.0800 
 28 H       -1.5140     6.7100    -0.6640 H     1 <1>   0.0800 
 29 H       -2.0970     5.6520    -1.9130 H     1 <1>   0.0800 
 30 H        1.4440     3.5420     0.0970 H     1 <1>   0.4570 
 31 H        3.5160     4.1920     1.0630 H     1 <1>   0.1500 
 32 H        3.2750     9.7980    -1.3700 H     1 <1>   0.0800 
 33 H        4.1960     8.3500    -1.0660 H     1 <1>   0.0800 
 34 H        4.1910     9.6470     0.1170 H     1 <1>   0.0800 
 35 H        1.6580    10.3120     0.8800 H     1 <1>   0.0800 
 36 H        0.5080     8.9950     0.8630 H     1 <1>   0.0800 
 37 H        0.9050     9.8190    -0.6290 H     1 <1>   0.0800 
 38 H        4.8380     6.0090     1.9970 H     1 <1>   0.0800 
 39 H        4.1660     7.6150     2.0130 H     1 <1>   0.0800 
 40 H        5.1370     7.0840     0.6580 H     1 <1>   0.0800 
@<TRIPOS>BOND
  1   1   2  ar  
  2   2   3  ar  
  3   2   4  1   
  4   4   5  1   
  5   4   6  1   
  6   4  21  1   
  7   5   7  1   
  8   5   8  1   
  9   5  22  1   
 10   6   9  1   
 11   6  23  1   
 12   6  24  1   
 13   7  25  1   
 14   8  10  1   
 15   8  26  1   
 16   8  27  1   
 17   9  10  1   
 18   9  11  1   
 19  10  28  1   
 20  10  29  1   
 21  11  12  ar  
 22  11  13  ar  
 23  12  14  ar  
 24  13  15  ar  
 25  13  30  1   
 26  14  16  1   
 27  14  17  ar  
 28  15  17  ar  
 29  15  31  1   
 30  16  18  1   
 31  16  19  1   
 32  17  20  1   
 33  18  32  1   
 34  18  33  1   
 35  18  34  1   
 36  19  35  1   
 37  19  36  1   
 38  19  37  1   
 39  20  38  1   
 40  20  39  1   
 41  20  40  1   
@<TRIPOS>SUBSTRUCTURE
  1 ****  11 GROUP 4 **** **** 0

# MOE 2024.06 (io_trps.svl 2023.06)
