@<TRIPOS>MOLECULE
NONAME
45 47 1 0 0 
SMALL
USER_CHARGES


@<TRIPOS>ATOM
  1 O        0.5170     5.6430     3.7760 O.co2 1 <1>  -0.9000 
  2 C       -0.4260     5.0550     3.2010 C.2   1 <1>   0.9790 
  3 O       -1.3660     4.6350     3.9080 O.co2 1 <1>  -0.9000 
  4 C       -0.5050     4.9630     1.7360 C.ar  1 <1>   0.1310 
  5 N        0.5490     4.7000     0.9560 N.ar  1 <1>  -0.6200 
  6 C       -1.7250     5.2030     1.1300 C.ar  1 <1>  -0.1500 
  7 C        0.3890     4.8050    -0.3550 C.ar  1 <1>   0.7200 
  8 C       -1.8010     5.2420    -0.2390 C.ar  1 <1>   0.1660 
  9 N       -0.7480     5.0710    -0.9950 N.ar  1 <1>  -0.6200 
 10 N        1.5120     4.6650    -1.1410 N.pl3 1 <1>  -0.8380 
 11 C       -3.1150     5.5030    -0.9400 C.3   1 <1>  -0.0970 
 12 C        1.7200     5.5800    -2.2960 C.3   1 <1>   0.2090 
 13 C        2.7140     3.9460    -0.6550 C.3   1 <1>   0.2090 
 14 C        2.0800     7.0150    -1.8580 C.3   1 <1>   0.2090 
 15 C        3.7370     4.8780     0.0050 C.3   1 <1>  -0.1600 
 16 N        3.2570     7.1540    -0.9240 N.pl3 1 <1>  -0.8380 
 17 C        4.2400     6.0340    -0.8650 C.3   1 <1>   0.2090 
 18 C        3.4360     8.2720    -0.1750 C.ar  1 <1>   0.1000 
 19 C        2.6850     8.5820     0.9780 C.ar  1 <1>  -0.1430 
 20 C        4.4400     9.1730    -0.5440 C.ar  1 <1>  -0.1500 
 21 C        2.9580     9.7240     1.6860 C.ar  1 <1>   0.2110 
 22 C        1.5870     7.6640     1.4980 C.3   1 <1>  -0.0970 
 23 C        4.6780    10.3050     0.1870 C.ar  1 <1>   0.2110 
 24 N        3.9390    10.5720     1.2910 N.ar  1 <1>  -0.1790 
 25 H       -2.5900     5.3640     1.7480 H     1 <1>   0.1500 
 26 H       -3.9120     5.6190    -0.2290 H     1 <1>   0.0800 
 27 H       -3.3430     4.6780    -1.5890 H     1 <1>   0.0800 
 28 H       -3.0370     6.3990    -1.5280 H     1 <1>   0.0800 
 29 H        0.8230     5.6140    -2.8880 H     1 <1>   0.0800 
 30 H        2.4960     5.1910    -2.9300 H     1 <1>   0.0800 
 31 H        3.1700     3.4340    -1.4840 H     1 <1>   0.0800 
 32 H        2.4130     3.1950     0.0580 H     1 <1>   0.0800 
 33 H        1.2110     7.4520    -1.4030 H     1 <1>   0.0800 
 34 H        2.2880     7.5870    -2.7440 H     1 <1>   0.0800 
 35 H        4.5830     4.2740     0.2710 H     1 <1>   0.0800 
 36 H        3.3340     5.2570     0.9240 H     1 <1>   0.0800 
 37 H        4.4730     5.6890    -1.8570 H     1 <1>   0.0800 
 38 H        5.1520     6.4060    -0.4290 H     1 <1>   0.0800 
 39 H        5.0180     8.9500    -1.4230 H     1 <1>   0.1500 
 40 H        2.3970     9.9630     2.5750 H     1 <1>   0.1500 
 41 H        0.8740     7.4390     0.7300 H     1 <1>   0.0800 
 42 H        1.0510     8.0930     2.3260 H     1 <1>   0.0800 
 43 H        2.0170     6.7450     1.8470 H     1 <1>   0.0800 
 44 H        5.4520    10.9980    -0.1020 H     1 <1>   0.1500 
 45 H        4.1210    11.4170     1.8420 H     1 <1>   0.4570 
@<TRIPOS>BOND
  1   1   2  ar  
  2   2   3  ar  
  3   2   4  1   
  4   4   5  ar  
  5   4   6  ar  
  6   5   7  ar  
  7   6   8  ar  
  8   6  25  1   
  9   7   9  ar  
 10   7  10  1   
 11   8   9  ar  
 12   8  11  1   
 13  10  12  1   
 14  10  13  1   
 15  11  26  1   
 16  11  27  1   
 17  11  28  1   
 18  12  14  1   
 19  12  29  1   
 20  12  30  1   
 21  13  15  1   
 22  13  31  1   
 23  13  32  1   
 24  14  16  1   
 25  14  33  1   
 26  14  34  1   
 27  15  17  1   
 28  15  35  1   
 29  15  36  1   
 30  16  17  1   
 31  16  18  1   
 32  17  37  1   
 33  17  38  1   
 34  18  19  ar  
 35  18  20  ar  
 36  19  21  ar  
 37  19  22  1   
 38  20  23  ar  
 39  20  39  1   
 40  21  24  ar  
 41  21  40  1   
 42  22  41  1   
 43  22  42  1   
 44  22  43  1   
 45  23  24  ar  
 46  23  44  1   
 47  24  45  1   
@<TRIPOS>SUBSTRUCTURE
  1 ****  22 GROUP 4 **** **** 0

# MOE 2024.06 (io_trps.svl 2023.06)
