@<TRIPOS>MOLECULE
NONAME
48 51 1 0 0 
SMALL
USER_CHARGES


@<TRIPOS>ATOM
  1 O        0.7670    -0.1960    -0.4700 O.2   1 <1>  -0.5700 
  2 C        1.4050    -1.1710    -0.1720 C.2   1 <1>   0.5690 
  3 N        0.8990    -2.1300     0.6290 N.am  1 <1>  -0.7300 
  4 C        2.8170    -1.3570    -0.6800 C.3   1 <1>  -0.0990 
  5 C        1.6640    -3.3020     1.0960 C.3   1 <1>   0.1400 
  6 C        3.0440    -2.8240    -1.0930 C.3   1 <1>  -0.0800 
  7 C        2.5660    -3.8500    -0.0350 C.3   1 <1>  -0.0800 
  8 C        4.5210    -3.1330    -1.3820 C.3   1 <1>  -0.1600 
  9 C        3.8400    -4.5220     0.4890 C.3   1 <1>  -0.1600 
 10 C        4.7990    -4.4680    -0.6990 C.3   1 <1>   0.4230 
 11 N        6.2470    -4.6870    -0.3870 N.4   1 <1>  -0.9590 
 12 C        6.7940    -4.1320     0.8970 C.3   1 <1>   0.4860 
 13 C        6.5760    -6.1390    -0.4950 C.3   1 <1>   0.2630 
 14 C        6.9250    -2.6260     0.7970 C.ar  1 <1>  -0.1440 
 15 C        7.8430    -2.0520    -0.1210 C.ar  1 <1>   0.0000 
 16 C        6.1290    -1.8320     1.5830 C.ar  1 <1>  -0.1500 
 17 C        7.8410    -0.6460    -0.2740 C.ar  1 <1>   0.0000 
 18 C        8.7670    -2.7950    -0.8960 C.ar  1 <1>  -0.1500 
 19 C        6.1670    -0.4420     1.4560 C.ar  1 <1>  -0.1500 
 20 C        6.9960     0.1330     0.5380 C.ar  1 <1>  -0.1500 
 21 C        8.6890    -0.0560    -1.2310 C.ar  1 <1>  -0.1500 
 22 C        9.5860    -2.1940    -1.8100 C.ar  1 <1>  -0.1500 
 23 C        9.5410    -0.8090    -1.9880 C.ar  1 <1>  -0.1500 
 24 H       -0.0440    -1.9770     0.9970 H     1 <1>   0.3700 
 25 H        2.9810    -0.7040    -1.5180 H     1 <1>   0.0800 
 26 H        3.4890    -1.0720     0.1080 H     1 <1>   0.0800 
 27 H        2.2590    -2.9920     1.9390 H     1 <1>   0.0800 
 28 H        0.9850    -4.0690     1.4290 H     1 <1>   0.0800 
 29 H        2.4690    -2.9930    -1.9910 H     1 <1>   0.0800 
 30 H        1.9930    -4.5980    -0.5590 H     1 <1>   0.0800 
 31 H        5.1350    -2.3460    -0.9910 H     1 <1>   0.0800 
 32 H        4.6900    -3.2040    -2.4420 H     1 <1>   0.0800 
 33 H        3.6470    -5.5330     0.8020 H     1 <1>   0.0800 
 34 H        4.2090    -3.9470     1.3140 H     1 <1>   0.0800 
 35 H        4.4800    -5.2290    -1.3940 H     1 <1>   0.0800 
 36 H        6.7560    -4.1760    -1.1250 H     1 <1>   0.4500 
 37 H        6.1610    -4.4000     1.7250 H     1 <1>   0.0800 
 38 H        7.7720    -4.5420     1.0850 H     1 <1>   0.0800 
 39 H        6.0540    -6.7000     0.2630 H     1 <1>   0.0800 
 40 H        7.6360    -6.2960    -0.3730 H     1 <1>   0.0800 
 41 H        6.2860    -6.5170    -1.4630 H     1 <1>   0.0800 
 42 H        5.4500    -2.2430     2.3100 H     1 <1>   0.1500 
 43 H        8.8540    -3.8560    -0.7660 H     1 <1>   0.1500 
 44 H        5.5340     0.1660     2.0820 H     1 <1>   0.1500 
 45 H        7.0210     1.2040     0.4260 H     1 <1>   0.1500 
 46 H        8.6590     1.0130    -1.3550 H     1 <1>   0.1500 
 47 H       10.2840    -2.7650    -2.4000 H     1 <1>   0.1500 
 48 H       10.1880    -0.3490    -2.7170 H     1 <1>   0.1500 
@<TRIPOS>BOND
  1   1   2  2   
  2   2   3  am  
  3   2   4  1   
  4   3   5  1   
  5   3  24  1   
  6   4   6  1   
  7   4  25  1   
  8   4  26  1   
  9   5   7  1   
 10   5  27  1   
 11   5  28  1   
 12   6   7  1   
 13   6   8  1   
 14   6  29  1   
 15   7   9  1   
 16   7  30  1   
 17   8  10  1   
 18   8  31  1   
 19   8  32  1   
 20   9  10  1   
 21   9  33  1   
 22   9  34  1   
 23  10  11  1   
 24  10  35  1   
 25  11  12  1   
 26  11  13  1   
 27  11  36  1   
 28  12  14  1   
 29  12  37  1   
 30  12  38  1   
 31  13  39  1   
 32  13  40  1   
 33  13  41  1   
 34  14  15  ar  
 35  14  16  ar  
 36  15  17  ar  
 37  15  18  ar  
 38  16  19  ar  
 39  16  42  1   
 40  17  20  ar  
 41  17  21  ar  
 42  18  22  ar  
 43  18  43  1   
 44  19  20  ar  
 45  19  44  1   
 46  20  45  1   
 47  21  23  ar  
 48  21  46  1   
 49  22  23  ar  
 50  22  47  1   
 51  23  48  1   
@<TRIPOS>SUBSTRUCTURE
  1 ****   8 GROUP 4 **** **** 0

# MOE 2024.06 (io_trps.svl 2023.06)
