@<TRIPOS>MOLECULE
NONAME
41 43 1 0 0 
SMALL
USER_CHARGES


@<TRIPOS>ATOM
  1 F       -2.8050    -0.7260    -1.7100 F     1 <1>  -0.1900 
  2 C       -2.3980     0.2590    -0.9550 C.ar  1 <1>   0.1900 
  3 C       -2.4990     0.1450     0.4310 C.ar  1 <1>   0.0860 
  4 C       -1.8810     1.3750    -1.5880 C.ar  1 <1>  -0.1500 
  5 C       -3.0590    -1.0180     1.0800 C.2   1 <1>   0.5440 
  6 C       -2.0260     1.2190     1.1840 C.ar  1 <1>  -0.1500 
  7 C       -1.4310     2.4310    -0.8150 C.ar  1 <1>  -0.1500 
  8 O       -2.3260    -1.7000     1.7710 O.2   1 <1>  -0.5700 
  9 N       -4.3980    -1.3540     0.9910 N.am  1 <1>  -0.6600 
 10 C       -1.5040     2.3430     0.5660 C.ar  1 <1>   0.0830 
 11 C       -5.4190    -0.4160     0.4330 C.3   1 <1>   0.2200 
 12 C       -4.8640    -2.6480     1.5810 C.3   1 <1>   0.0600 
 13 O       -1.0560     3.3690     1.3030 O.3   1 <1>  -0.5320 
 14 C       -6.0890    -0.9410    -0.8330 C.3   1 <1>  -0.1600 
 15 C       -6.5770    -0.1310     1.3860 C.3   1 <1>  -0.1600 
 16 C       -7.3830    -0.1250    -0.9510 C.3   1 <1>  -0.0800 
 17 C       -7.7050     0.3790     0.4790 C.3   1 <1>  -0.0800 
 18 C       -8.5140    -0.8970    -1.6590 C.3   1 <1>   0.1400 
 19 C       -9.1090    -0.0040     0.9880 C.3   1 <1>  -0.0990 
 20 N       -9.8150    -0.2730    -1.3410 N.am  1 <1>  -0.7300 
 21 C      -10.1390     0.1670    -0.1080 C.2   1 <1>   0.5690 
 22 O      -11.2080     0.6690     0.1230 O.2   1 <1>  -0.5700 
 23 H       -1.8270     1.4130    -2.6610 H     1 <1>   0.1500 
 24 H       -2.0710     1.1540     2.2570 H     1 <1>   0.1500 
 25 H       -1.0220     3.3160    -1.2700 H     1 <1>   0.1500 
 26 H       -4.9650     0.5300     0.1950 H     1 <1>   0.0800 
 27 H       -5.7630    -2.9940     1.1050 H     1 <1>   0.0800 
 28 H       -5.0480    -2.5160     2.6320 H     1 <1>   0.0800 
 29 H       -4.1050    -3.4020     1.4580 H     1 <1>   0.0800 
 30 H       -1.0910     3.2040     2.2630 H     1 <1>   0.4500 
 31 H       -5.4610    -0.8070    -1.6950 H     1 <1>   0.0800 
 32 H       -6.3220    -1.9840    -0.7260 H     1 <1>   0.0800 
 33 H       -6.8930    -1.0310     1.8790 H     1 <1>   0.0800 
 34 H       -6.3030     0.6010     2.1250 H     1 <1>   0.0800 
 35 H       -7.1660     0.7430    -1.5530 H     1 <1>   0.0800 
 36 H       -7.6540     1.4560     0.4510 H     1 <1>   0.0800 
 37 H       -8.5380    -1.9200    -1.3220 H     1 <1>   0.0800 
 38 H       -8.3550    -0.8920    -2.7240 H     1 <1>   0.0800 
 39 H       -9.3770     0.6050     1.8320 H     1 <1>   0.0800 
 40 H       -9.1330    -1.0330     1.2930 H     1 <1>   0.0800 
 41 H      -10.5220    -0.1920    -2.0750 H     1 <1>   0.3700 
@<TRIPOS>BOND
  1   1   2  1   
  2   2   3  ar  
  3   2   4  ar  
  4   3   5  1   
  5   3   6  ar  
  6   4   7  ar  
  7   4  23  1   
  8   5   8  2   
  9   5   9  am  
 10   6  10  ar  
 11   6  24  1   
 12   7  10  ar  
 13   7  25  1   
 14   9  11  1   
 15   9  12  1   
 16  10  13  1   
 17  11  14  1   
 18  11  15  1   
 19  11  26  1   
 20  12  27  1   
 21  12  28  1   
 22  12  29  1   
 23  13  30  1   
 24  14  16  1   
 25  14  31  1   
 26  14  32  1   
 27  15  17  1   
 28  15  33  1   
 29  15  34  1   
 30  16  17  1   
 31  16  18  1   
 32  16  35  1   
 33  17  19  1   
 34  17  36  1   
 35  18  20  1   
 36  18  37  1   
 37  18  38  1   
 38  19  21  1   
 39  19  39  1   
 40  19  40  1   
 41  20  21  am  
 42  20  41  1   
 43  21  22  2   
@<TRIPOS>SUBSTRUCTURE
  1 ****  11 GROUP 4 **** **** 0

# MOE 2024.06 (io_trps.svl 2023.06)
