@<TRIPOS>MOLECULE
NONAME
46 48 1 0 0 
SMALL
USER_CHARGES


@<TRIPOS>ATOM
  1 O       -3.2300     1.0940    -3.1460 O.2   1 <1>  -0.5700 
  2 C       -2.6040     1.2920    -2.1320 C.2   1 <1>   0.5690 
  3 N       -2.3100     0.2850    -1.2710 N.am  1 <1>  -0.7300 
  4 C       -2.1400     2.7110    -1.8210 C.3   1 <1>   0.1810 
  5 C       -2.6970    -1.1330    -1.4330 C.3   1 <1>   0.2200 
  6 O       -1.5520     2.7910    -0.5280 O.3   1 <1>  -0.3630 
  7 C       -3.7730    -1.4760    -0.4180 C.3   1 <1>  -0.0800 
  8 C       -1.5470    -2.0390    -1.0010 C.3   1 <1>   0.1200 
  9 C       -1.0700     3.9650    -0.0490 C.ar  1 <1>   0.0820 
 10 C       -2.9370    -1.7890     0.8250 C.3   1 <1>   0.1200 
 11 C       -4.6160    -2.6820    -0.8720 C.3   1 <1>  -0.0160 
 12 O       -1.7060    -2.2690     0.3700 O.3   1 <1>  -0.5600 
 13 C       -1.1150     5.1670    -0.7500 C.ar  1 <1>  -0.1500 
 14 C       -0.5060     3.9380     1.2160 C.ar  1 <1>  -0.1500 
 15 C       -5.7010    -3.0180     0.1400 C.ar  1 <1>  -0.1440 
 16 C       -0.5980     6.3190    -0.1830 C.ar  1 <1>  -0.1500 
 17 C        0.0100     5.0910     1.7790 C.ar  1 <1>  -0.1500 
 18 C       -5.6010    -4.1010     0.9890 C.ar  1 <1>  -0.1500 
 19 C       -6.8430    -2.2530     0.2600 C.ar  1 <1>  -0.1500 
 20 C       -0.0320     6.2880     1.0820 C.ar  1 <1>  -0.1440 
 21 C       -6.6180    -4.3570     1.8950 C.ar  1 <1>   0.1600 
 22 C       -7.8010    -2.5950     1.1990 C.ar  1 <1>   0.1600 
 23 C        0.5320     7.5540     1.7010 C.3   1 <1>  -0.0970 
 24 N       -7.7150    -3.6280     2.0220 N.ar  1 <1>  -0.6200 
 25 H       -1.7890     0.5110    -0.4180 H     1 <1>   0.3700 
 26 H       -2.9850     3.3730    -1.8510 H     1 <1>   0.0800 
 27 H       -1.4080     3.0110    -2.5470 H     1 <1>   0.0800 
 28 H       -3.0000    -1.3210    -2.4510 H     1 <1>   0.0800 
 29 H       -4.4270    -0.6400    -0.2440 H     1 <1>   0.0800 
 30 H       -0.5830    -1.5980    -1.1830 H     1 <1>   0.0800 
 31 H       -1.6090    -2.9920    -1.4960 H     1 <1>   0.0800 
 32 H       -3.3860    -2.5220     1.4700 H     1 <1>   0.0800 
 33 H       -2.7450    -0.8910     1.3870 H     1 <1>   0.0800 
 34 H       -3.9860    -3.5420    -1.0230 H     1 <1>   0.0800 
 35 H       -5.0840    -2.4550    -1.8150 H     1 <1>   0.0800 
 36 H       -1.5440     5.2310    -1.7320 H     1 <1>   0.1500 
 37 H       -0.4720     3.0100     1.7580 H     1 <1>   0.1500 
 38 H       -0.6370     7.2440    -0.7310 H     1 <1>   0.1500 
 39 H        0.4430     5.0530     2.7630 H     1 <1>   0.1500 
 40 H       -4.7430    -4.7480     0.9580 H     1 <1>   0.1500 
 41 H       -6.9970    -1.3940    -0.3680 H     1 <1>   0.1500 
 42 H       -6.5220    -5.2060     2.5500 H     1 <1>   0.1500 
 43 H       -8.6860    -1.9860     1.2790 H     1 <1>   0.1500 
 44 H        0.8980     8.2170     0.9370 H     1 <1>   0.0800 
 45 H        1.3470     7.3190     2.3620 H     1 <1>   0.0800 
 46 H       -0.2350     8.0590     2.2610 H     1 <1>   0.0800 
@<TRIPOS>BOND
  1   1   2  2   
  2   2   3  am  
  3   2   4  1   
  4   3   5  1   
  5   3  25  1   
  6   4   6  1   
  7   4  26  1   
  8   4  27  1   
  9   5   7  1   
 10   5   8  1   
 11   5  28  1   
 12   6   9  1   
 13   7  10  1   
 14   7  11  1   
 15   7  29  1   
 16   8  12  1   
 17   8  30  1   
 18   8  31  1   
 19   9  13  ar  
 20   9  14  ar  
 21  10  12  1   
 22  10  32  1   
 23  10  33  1   
 24  11  15  1   
 25  11  34  1   
 26  11  35  1   
 27  13  16  ar  
 28  13  36  1   
 29  14  17  ar  
 30  14  37  1   
 31  15  18  ar  
 32  15  19  ar  
 33  16  20  ar  
 34  16  38  1   
 35  17  20  ar  
 36  17  39  1   
 37  18  21  ar  
 38  18  40  1   
 39  19  22  ar  
 40  19  41  1   
 41  20  23  1   
 42  21  24  ar  
 43  21  42  1   
 44  22  24  ar  
 45  22  43  1   
 46  23  44  1   
 47  23  45  1   
 48  23  46  1   
@<TRIPOS>SUBSTRUCTURE
  1 ****   3 GROUP 4 **** **** 0

# MOE 2024.06 (io_trps.svl 2023.06)
