@<TRIPOS>MOLECULE
NONAME
46 49 1 0 0 
SMALL
USER_CHARGES


@<TRIPOS>ATOM
  1 O        1.1330    -0.0610    -2.1130 O.2   1 <1>  -0.5700 
  2 C        1.6790    -0.6570    -1.2170 C.2   1 <1>   0.5690 
  3 N        2.6060    -0.0620    -0.4240 N.am  1 <1>  -0.7300 
  4 C        1.3180    -2.1160    -0.9700 C.3   1 <1>  -0.0190 
  5 C        3.0910     1.3240    -0.5760 C.3   1 <1>   0.2350 
  6 C        0.4890    -2.2580     0.3150 C.3   1 <1>  -0.0160 
  7 C        2.5560    -3.0290    -0.9150 C.3   1 <1>  -0.1600 
  8 C        4.6270     1.3770    -0.7420 C.3   1 <1>  -0.1900 
  9 C        0.2920    -3.7080     0.7430 C.ar  1 <1>  -0.1440 
 10 C        2.1300    -4.4990    -0.8380 C.3   1 <1>  -0.0170 
 11 C        5.3570     0.2680    -1.4400 C.3   1 <1>  -0.2000 
 12 C        5.5180     0.4640     0.0470 C.3   1 <1>  -0.2000 
 13 C        5.1100     2.8130    -1.0200 C.3   1 <1>   0.1910 
 14 C        1.0630    -4.7420     0.2220 C.ar  1 <1>  -0.1440 
 15 C       -0.6770    -3.9890     1.6940 C.ar  1 <1>  -0.1500 
 16 N        4.7440     3.7280     0.0800 N.pl3 1 <1>   0.0480 
 17 C        0.8510    -6.0400     0.6610 C.ar  1 <1>  -0.1500 
 18 C       -0.8830    -5.2860     2.1270 C.ar  1 <1>  -0.1500 
 19 C        3.8120     4.7070     0.0610 C.2   1 <1>   0.0360 
 20 C        5.2410     3.7580     1.3310 C.2   1 <1>  -0.3020 
 21 C       -0.1170    -6.3140     1.6100 C.ar  1 <1>  -0.1500 
 22 N        3.6860     5.3370     1.1830 N.2   1 <1>  -0.5650 
 23 C        4.5880     4.7420     1.9850 C.2   1 <1>   0.0770 
 24 H        3.0740    -0.6030     0.3020 H     1 <1>   0.3700 
 25 H        0.7060    -2.4380    -1.7950 H     1 <1>   0.0800 
 26 H        2.7960     1.8850     0.2950 H     1 <1>   0.0800 
 27 H        2.6220     1.7750    -1.4340 H     1 <1>   0.0800 
 28 H       -0.4700    -1.7930     0.1630 H     1 <1>   0.0800 
 29 H        0.9790    -1.7420     1.1210 H     1 <1>   0.0800 
 30 H        3.1480    -2.7920    -0.0490 H     1 <1>   0.0800 
 31 H        3.1630    -2.8780    -1.7910 H     1 <1>   0.0800 
 32 H        2.9930    -5.1070    -0.6320 H     1 <1>   0.0800 
 33 H        1.7320    -4.8020    -1.7910 H     1 <1>   0.0800 
 34 H        6.1940     0.4990    -2.0770 H     1 <1>   0.1000 
 35 H        4.8120    -0.5910    -1.7940 H     1 <1>   0.1000 
 36 H        5.0920    -0.2690     0.7090 H     1 <1>   0.1000 
 37 H        6.4610     0.8330     0.4130 H     1 <1>   0.1000 
 38 H        4.6720     3.1740    -1.9330 H     1 <1>   0.0800 
 39 H        6.1790     2.8320    -1.1320 H     1 <1>   0.0800 
 40 H       -1.2770    -3.1960     2.1040 H     1 <1>   0.1500 
 41 H        1.4400    -6.8470     0.2620 H     1 <1>   0.1500 
 42 H       -1.6370    -5.4950     2.8650 H     1 <1>   0.1500 
 43 H        3.2330     4.9290    -0.8190 H     1 <1>   0.1500 
 44 H        6.0120     3.0960     1.6800 H     1 <1>   0.1500 
 45 H       -0.2740    -7.3240     1.9440 H     1 <1>   0.1500 
 46 H        4.7200     5.0580     3.0070 H     1 <1>   0.1500 
@<TRIPOS>BOND
  1   1   2  2   
  2   2   3  am  
  3   2   4  1   
  4   3   5  1   
  5   3  24  1   
  6   4   6  1   
  7   4   7  1   
  8   4  25  1   
  9   5   8  1   
 10   5  26  1   
 11   5  27  1   
 12   6   9  1   
 13   6  28  1   
 14   6  29  1   
 15   7  10  1   
 16   7  30  1   
 17   7  31  1   
 18   8  11  1   
 19   8  12  1   
 20   8  13  1   
 21   9  14  ar  
 22   9  15  ar  
 23  10  14  1   
 24  10  32  1   
 25  10  33  1   
 26  11  12  1   
 27  11  34  1   
 28  11  35  1   
 29  12  36  1   
 30  12  37  1   
 31  13  16  1   
 32  13  38  1   
 33  13  39  1   
 34  14  17  ar  
 35  15  18  ar  
 36  15  40  1   
 37  16  19  1   
 38  16  20  1   
 39  17  21  ar  
 40  17  41  1   
 41  18  21  ar  
 42  18  42  1   
 43  19  22  2   
 44  19  43  1   
 45  20  23  2   
 46  20  44  1   
 47  21  45  1   
 48  22  23  1   
 49  23  46  1   
@<TRIPOS>SUBSTRUCTURE
  1 ****   3 GROUP 4 **** **** 0

# MOE 2024.06 (io_trps.svl 2023.06)
