@<TRIPOS>MOLECULE
NONAME
45 47 1 0 0 
SMALL
USER_CHARGES


@<TRIPOS>ATOM
  1 CL      -0.8030     0.4630     1.9910 Cl    1 <1>  -0.1400 
  2 C       -2.0130     1.1170     0.9060 C.2   1 <1>   0.1540 
  3 C       -1.7080     2.3130     0.1830 C.2   1 <1>   0.6160 
  4 C       -3.2100     0.4860     0.7700 C.2   1 <1>  -0.1500 
  5 O       -0.6640     2.9410     0.2550 O.2   1 <1>  -0.5700 
  6 N       -2.6820     2.7860    -0.6570 N.am  1 <1>  -0.5390 
  7 C       -4.2080     1.0110    -0.1100 C.2   1 <1>   0.0140 
  8 C       -3.8920     2.1540    -0.8080 C.2   1 <1>  -0.0410 
  9 C       -5.4710     0.3230    -0.2510 C.2   1 <1>   0.6160 
 10 O       -5.4890    -0.8950    -0.2530 O.2   1 <1>  -0.5700 
 11 N       -6.6680     0.9950    -0.3850 N.am  1 <1>  -0.6600 
 12 C       -6.9010     2.3600     0.1760 C.3   1 <1>   0.1400 
 13 C       -7.8640     0.2720    -0.9120 C.3   1 <1>   0.1400 
 14 C       -8.2940     2.4200     0.8050 C.3   1 <1>  -0.1600 
 15 C       -8.9210     1.2720    -1.3840 C.3   1 <1>  -0.1600 
 16 C       -9.4060     2.2070    -0.2510 C.3   1 <1>   0.2800 
 17 O       -9.6030     3.4340    -0.8930 O.3   1 <1>  -0.5600 
 18 C      -10.7180     1.6550     0.3850 C.3   1 <1>  -0.1600 
 19 C      -10.3520     4.4820    -0.3220 C.3   1 <1>   0.1200 
 20 C      -11.9330     2.5890     0.3040 C.3   1 <1>   0.2800 
 21 C      -11.4840     4.0320     0.6190 C.3   1 <1>   0.2000 
 22 O      -12.4380     2.5450    -0.9830 O.3   1 <1>  -0.6800 
 23 C      -13.0740     2.1090     1.2060 C.3   1 <1>  -0.2400 
 24 O      -11.0280     4.1250     1.9380 O.3   1 <1>  -0.6800 
 25 H       -3.4300    -0.4180     1.3110 H     1 <1>   0.1500 
 26 H       -2.4190     3.6300    -1.1720 H     1 <1>   0.3700 
 27 H       -4.5920     2.5830    -1.5080 H     1 <1>   0.1500 
 28 H       -6.1600     2.5840     0.9240 H     1 <1>   0.0800 
 29 H       -6.8290     3.0910    -0.6120 H     1 <1>   0.0800 
 30 H       -7.5650    -0.3570    -1.7340 H     1 <1>   0.0800 
 31 H       -8.2650    -0.3580    -0.1370 H     1 <1>   0.0800 
 32 H       -8.4200     3.3620     1.3040 H     1 <1>   0.0800 
 33 H       -8.3320     1.6510     1.5550 H     1 <1>   0.0800 
 34 H       -9.7450     0.7430    -1.8250 H     1 <1>   0.0800 
 35 H       -8.4760     1.8540    -2.1720 H     1 <1>   0.0800 
 36 H      -10.9790     0.6970    -0.0250 H     1 <1>   0.0800 
 37 H      -10.5330     1.4590     1.4250 H     1 <1>   0.0800 
 38 H       -9.6800     5.1540     0.1810 H     1 <1>   0.0800 
 39 H      -10.7920     5.0100    -1.1490 H     1 <1>   0.0800 
 40 H      -12.3190     4.7060     0.5370 H     1 <1>   0.0800 
 41 H      -12.7070     1.6350    -1.2020 H     1 <1>   0.4000 
 42 H      -12.7650     2.1180     2.2360 H     1 <1>   0.0800 
 43 H      -13.3700     1.1070     0.9530 H     1 <1>   0.0800 
 44 H      -13.9210     2.7650     1.1110 H     1 <1>   0.0800 
 45 H      -10.2540     3.5440     2.0560 H     1 <1>   0.4000 
@<TRIPOS>BOND
  1   1   2  1   
  2   2   3  1   
  3   2   4  2   
  4   3   5  2   
  5   3   6  am  
  6   4   7  1   
  7   4  25  1   
  8   6   8  1   
  9   6  26  1   
 10   7   8  2   
 11   7   9  1   
 12   8  27  1   
 13   9  10  2   
 14   9  11  am  
 15  11  12  1   
 16  11  13  1   
 17  12  14  1   
 18  12  28  1   
 19  12  29  1   
 20  13  15  1   
 21  13  30  1   
 22  13  31  1   
 23  14  16  1   
 24  14  32  1   
 25  14  33  1   
 26  15  16  1   
 27  15  34  1   
 28  15  35  1   
 29  16  17  1   
 30  16  18  1   
 31  17  19  1   
 32  18  20  1   
 33  18  36  1   
 34  18  37  1   
 35  19  21  1   
 36  19  38  1   
 37  19  39  1   
 38  20  21  1   
 39  20  22  1   
 40  20  23  1   
 41  21  24  1   
 42  21  40  1   
 43  22  41  1   
 44  23  42  1   
 45  23  43  1   
 46  23  44  1   
 47  24  45  1   
@<TRIPOS>SUBSTRUCTURE
  1 ****  12 GROUP 4 **** **** 0

# MOE 2024.06 (io_trps.svl 2023.06)
