@<TRIPOS>MOLECULE
NONAME
45 48 1 0 0 
SMALL
USER_CHARGES


@<TRIPOS>ATOM
  1 O       -0.5540     0.0150     0.2890 O.2   1 <1>  -0.5700 
  2 C       -1.4940     0.7100     0.6330 C.2   1 <1>   0.7160 
  3 N       -2.6990     0.0940     0.8940 N.am  1 <1>  -0.6600 
  4 C       -1.3490     2.1490     0.7410 C.2   1 <1>  -0.0860 
  5 C       -2.8170    -1.3900     1.0380 C.3   1 <1>   0.1400 
  6 C       -4.0130     0.7510     0.6190 C.3   1 <1>   0.1400 
  7 C       -0.6710     3.0410    -0.0580 C.2   1 <1>  -0.3320 
  8 C       -1.9150     2.9370     1.7660 C.2   1 <1>  -0.1500 
  9 C       -3.6100    -1.9930    -0.1350 C.3   1 <1>   0.3440 
 10 C       -4.7560     0.0330    -0.5320 C.3   1 <1>   0.2950 
 11 N       -0.8050     4.2970     0.4280 N.pl3 1 <1>   0.0330 
 12 C        0.1390     2.7560    -1.3120 C.3   1 <1>  -0.0600 
 13 C       -1.5720     4.2290     1.5450 C.2   1 <1>  -0.3020 
 14 O       -4.8460    -1.3380    -0.2660 O.3   1 <1>  -0.5600 
 15 C       -3.8400    -3.4850     0.0850 C.ar  1 <1>  -0.1430 
 16 C       -6.1910     0.5320    -0.7820 C.3   1 <1>  -0.1950 
 17 C       -2.9050    -4.3970    -0.3870 C.ar  1 <1>  -0.1500 
 18 C       -4.9580    -3.9570     0.7600 C.ar  1 <1>  -0.1500 
 19 C       -6.6310     1.9460    -0.5470 C.3   1 <1>  -0.2000 
 20 C       -7.1710     0.8350     0.3100 C.3   1 <1>  -0.2000 
 21 C       -3.0840    -5.7550    -0.1870 C.ar  1 <1>  -0.1500 
 22 C       -5.1390    -5.3140     0.9610 C.ar  1 <1>  -0.1500 
 23 C       -4.2010    -6.2150     0.4870 C.ar  1 <1>  -0.1500 
 24 H       -1.8450    -1.8490     1.0820 H     1 <1>   0.0800 
 25 H       -3.3250    -1.6180     1.9580 H     1 <1>   0.0800 
 26 H       -4.6100     0.7240     1.5120 H     1 <1>   0.0800 
 27 H       -3.8690     1.7800     0.3440 H     1 <1>   0.0800 
 28 H       -2.5070     2.5440     2.5750 H     1 <1>   0.1500 
 29 H       -3.0610    -1.8510    -1.0500 H     1 <1>   0.0800 
 30 H       -4.1920     0.1590    -1.4400 H     1 <1>   0.0800 
 31 H       -0.3950     5.1500     0.0300 H     1 <1>   0.2700 
 32 H        0.0870     1.7140    -1.5730 H     1 <1>   0.0800 
 33 H        1.1710     3.0110    -1.1490 H     1 <1>   0.0800 
 34 H       -0.2390     3.3310    -2.1380 H     1 <1>   0.0800 
 35 H       -1.8240     5.1000     2.1240 H     1 <1>   0.1500 
 36 H       -6.5940     0.0570    -1.6590 H     1 <1>   0.1000 
 37 H       -2.0300    -4.0540    -0.9120 H     1 <1>   0.1500 
 38 H       -5.6950    -3.2640     1.1290 H     1 <1>   0.1500 
 39 H       -5.9740     2.6630    -0.0860 H     1 <1>   0.1000 
 40 H       -7.2880     2.4050    -1.2660 H     1 <1>   0.1000 
 41 H       -8.1910     0.5190     0.1740 H     1 <1>   0.1000 
 42 H       -6.8610     0.7670     1.3370 H     1 <1>   0.1000 
 43 H       -2.3550    -6.4540    -0.5570 H     1 <1>   0.1500 
 44 H       -6.0100    -5.6680     1.4830 H     1 <1>   0.1500 
 45 H       -4.3420    -7.2700     0.6420 H     1 <1>   0.1500 
@<TRIPOS>BOND
  1   1   2  2   
  2   2   3  am  
  3   2   4  1   
  4   3   5  1   
  5   3   6  1   
  6   4   7  2   
  7   4   8  1   
  8   5   9  1   
  9   5  24  1   
 10   5  25  1   
 11   6  10  1   
 12   6  26  1   
 13   6  27  1   
 14   7  11  1   
 15   7  12  1   
 16   8  13  2   
 17   8  28  1   
 18   9  14  1   
 19   9  15  1   
 20   9  29  1   
 21  10  14  1   
 22  10  16  1   
 23  10  30  1   
 24  11  13  1   
 25  11  31  1   
 26  12  32  1   
 27  12  33  1   
 28  12  34  1   
 29  13  35  1   
 30  15  17  ar  
 31  15  18  ar  
 32  16  19  1   
 33  16  20  1   
 34  16  36  1   
 35  17  21  ar  
 36  17  37  1   
 37  18  22  ar  
 38  18  38  1   
 39  19  20  1   
 40  19  39  1   
 41  19  40  1   
 42  20  41  1   
 43  20  42  1   
 44  21  23  ar  
 45  21  43  1   
 46  22  23  ar  
 47  22  44  1   
 48  23  45  1   
@<TRIPOS>SUBSTRUCTURE
  1 ****   3 GROUP 4 **** **** 0

# MOE 2024.06 (io_trps.svl 2023.06)
