@<TRIPOS>MOLECULE
NONAME
39 41 1 0 0 
SMALL
USER_CHARGES


@<TRIPOS>ATOM
  1 CL      -2.0760     1.0270     3.4030 Cl    1 <1>  -0.1770 
  2 C       -2.3480     0.0440     1.9830 C.ar  1 <1>   0.1770 
  3 C       -2.5550     0.6200     0.7360 C.ar  1 <1>  -0.1440 
  4 C       -2.3650    -1.3290     2.1650 C.ar  1 <1>  -0.1500 
  5 C       -2.8220    -0.2540    -0.3100 C.ar  1 <1>   0.1900 
  6 C       -2.5270     2.1350     0.5230 C.3   1 <1>   0.2540 
  7 C       -2.6090    -2.1700     1.0920 C.ar  1 <1>  -0.1500 
  8 F       -3.0790     0.2370    -1.4960 F     1 <1>  -0.1900 
  9 C       -2.8470    -1.6360    -0.1640 C.ar  1 <1>  -0.1440 
 10 N       -1.2020     2.6630     0.1310 N.3   1 <1>  -0.8100 
 11 C       -3.1300    -2.5520    -1.3470 C.3   1 <1>  -0.0970 
 12 C       -0.1820     2.5230     1.2010 C.3   1 <1>   0.1100 
 13 C       -0.7740     2.1990    -1.2070 C.3   1 <1>   0.1100 
 14 C        1.1430     3.3070     0.9990 C.3   1 <1>   0.2200 
 15 C        0.4180     2.9710    -1.8100 C.3   1 <1>  -0.0190 
 16 N        0.9940     4.4650     0.0800 N.am  1 <1>  -0.7300 
 17 C        2.2950     2.3920     0.5310 C.3   1 <1>   0.1200 
 18 C        0.6090     4.3490    -1.2070 C.2   1 <1>   0.5690 
 19 C        1.7330     2.1750    -1.7680 C.3   1 <1>   0.1200 
 20 O        1.9420     1.5550    -0.5340 O.3   1 <1>  -0.5600 
 21 O        0.4490     5.3330    -1.8870 O.2   1 <1>  -0.5700 
 22 H       -2.1910    -1.7350     3.1450 H     1 <1>   0.1500 
 23 H       -2.8450     2.6350     1.4220 H     1 <1>   0.0800 
 24 H       -3.2410     2.4020    -0.2370 H     1 <1>   0.0800 
 25 H       -2.6180    -3.2360     1.2440 H     1 <1>   0.1500 
 26 H       -3.1150    -3.5850    -1.0510 H     1 <1>   0.0800 
 27 H       -2.3860    -2.4040    -2.1100 H     1 <1>   0.0800 
 28 H       -4.0970    -2.3280    -1.7610 H     1 <1>   0.0800 
 29 H       -0.6140     2.8910     2.1150 H     1 <1>   0.0800 
 30 H        0.0420     1.4810     1.3530 H     1 <1>   0.0800 
 31 H       -0.5450     1.1470    -1.1720 H     1 <1>   0.0800 
 32 H       -1.6040     2.3270    -1.8800 H     1 <1>   0.0800 
 33 H        1.4370     3.6950     1.9580 H     1 <1>   0.0800 
 34 H        0.2010     3.1230    -2.8510 H     1 <1>   0.0800 
 35 H        0.9520     5.3990     0.4850 H     1 <1>   0.3700 
 36 H        2.5750     1.7440     1.3430 H     1 <1>   0.0800 
 37 H        3.1570     2.9720     0.2530 H     1 <1>   0.0800 
 38 H        2.5770     2.8050    -1.9950 H     1 <1>   0.0800 
 39 H        1.6920     1.3890    -2.5010 H     1 <1>   0.0800 
@<TRIPOS>BOND
  1   1   2  1   
  2   2   3  ar  
  3   2   4  ar  
  4   3   5  ar  
  5   3   6  1   
  6   4   7  ar  
  7   4  22  1   
  8   5   8  1   
  9   5   9  ar  
 10   6  10  1   
 11   6  23  1   
 12   6  24  1   
 13   7   9  ar  
 14   7  25  1   
 15   9  11  1   
 16  10  12  1   
 17  10  13  1   
 18  11  26  1   
 19  11  27  1   
 20  11  28  1   
 21  12  14  1   
 22  12  29  1   
 23  12  30  1   
 24  13  15  1   
 25  13  31  1   
 26  13  32  1   
 27  14  16  1   
 28  14  17  1   
 29  14  33  1   
 30  15  18  1   
 31  15  19  1   
 32  15  34  1   
 33  16  18  am  
 34  16  35  1   
 35  17  20  1   
 36  17  36  1   
 37  17  37  1   
 38  18  21  2   
 39  19  20  1   
 40  19  38  1   
 41  19  39  1   
@<TRIPOS>SUBSTRUCTURE
  1 ****  10 GROUP 4 **** **** 0

# MOE 2024.06 (io_trps.svl 2023.06)
