@<TRIPOS>MOLECULE
NONAME
48 49 1 0 0 
SMALL
USER_CHARGES


@<TRIPOS>ATOM
  1 O        3.4310    -1.4300     2.1670 O.2   1 <1>  -0.5700 
  2 C        2.7910    -1.5500     1.1500 C.2   1 <1>   0.5690 
  3 N        2.3000    -0.4990     0.4370 N.am  1 <1>  -0.4930 
  4 C        2.5210    -2.9500     0.6300 C.3   1 <1>  -0.0990 
  5 C        2.4080     0.8900     0.7000 C.2   1 <1>   0.0630 
  6 C        1.0230    -3.2960     0.6240 C.3   1 <1>  -0.1600 
  7 C        1.8560     1.8890    -0.0230 C.2   1 <1>  -0.3320 
  8 C        3.0890     1.5340     1.7340 C.2   1 <1>   0.1390 
  9 C        0.7750    -4.7400     0.1750 C.3   1 <1>  -0.0170 
 10 N        2.2170     3.0480     0.5850 N.pl3 1 <1>   0.3140 
 11 C        0.9910     1.8240    -1.2740 C.3   1 <1>  -0.0600 
 12 N        2.9770     2.8270     1.6680 N.2   1 <1>  -0.7070 
 13 C       -0.7170    -5.0180     0.1170 C.ar  1 <1>  -0.1440 
 14 C        1.8650     4.4140     0.1770 C.3   1 <1>   0.0160 
 15 C       -1.4050    -4.9200    -1.0820 C.ar  1 <1>  -0.1500 
 16 C       -1.4060    -5.3660     1.2670 C.ar  1 <1>  -0.1500 
 17 C       -2.7670    -5.1640    -1.1420 C.ar  1 <1>  -0.1440 
 18 C       -2.7660    -5.6120     1.2210 C.ar  1 <1>  -0.1500 
 19 C       -3.4570    -5.5120     0.0160 C.ar  1 <1>   0.0820 
 20 C       -3.5000    -5.0510    -2.4710 C.3   1 <1>  -0.0970 
 21 O       -4.7930    -5.7400    -0.0910 O.3   1 <1>  -0.3620 
 22 C       -5.5710    -6.1220     1.0190 C.3   1 <1>   0.1200 
 23 C       -7.0080    -6.3090     0.5440 C.3   1 <1>  -0.2400 
 24 H        1.7540    -0.7260    -0.3880 H     1 <1>   0.3700 
 25 H        3.0460    -3.6480     1.2580 H     1 <1>   0.0800 
 26 H        2.9260    -3.0330    -0.3620 H     1 <1>   0.0800 
 27 H        0.4930    -2.6300    -0.0350 H     1 <1>   0.0800 
 28 H        0.6240    -3.1630     1.6160 H     1 <1>   0.0800 
 29 H        3.6450     1.0240     2.5020 H     1 <1>   0.1500 
 30 H        1.2410    -5.4240     0.8630 H     1 <1>   0.0800 
 31 H        1.2100    -4.9050    -0.7960 H     1 <1>   0.0800 
 32 H        0.8290     0.8050    -1.5740 H     1 <1>   0.0800 
 33 H        1.4730     2.3440    -2.0840 H     1 <1>   0.0800 
 34 H        0.0350     2.2790    -1.0860 H     1 <1>   0.0800 
 35 H        2.2410     4.5960    -0.8110 H     1 <1>   0.0800 
 36 H        2.3090     5.1110     0.8650 H     1 <1>   0.0800 
 37 H        0.7970     4.5230     0.1940 H     1 <1>   0.0800 
 38 H       -0.8740    -4.6520    -1.9780 H     1 <1>   0.1500 
 39 H       -0.8840    -5.4450     2.2050 H     1 <1>   0.1500 
 40 H       -3.2660    -5.8790     2.1310 H     1 <1>   0.1500 
 41 H       -2.8320    -4.7680    -3.2640 H     1 <1>   0.0800 
 42 H       -4.2780    -4.3130    -2.3960 H     1 <1>   0.0800 
 43 H       -3.9470    -5.9970    -2.7190 H     1 <1>   0.0800 
 44 H       -5.5130    -5.3430     1.7590 H     1 <1>   0.0800 
 45 H       -5.1760    -7.0430     1.4100 H     1 <1>   0.0800 
 46 H       -7.3850    -5.3870     0.1380 H     1 <1>   0.0800 
 47 H       -7.6300    -6.6020     1.3700 H     1 <1>   0.0800 
 48 H       -7.0510    -7.0770    -0.2080 H     1 <1>   0.0800 
@<TRIPOS>BOND
  1   1   2  2   
  2   2   3  am  
  3   2   4  1   
  4   3   5  1   
  5   3  24  1   
  6   4   6  1   
  7   4  25  1   
  8   4  26  1   
  9   5   7  2   
 10   5   8  1   
 11   6   9  1   
 12   6  27  1   
 13   6  28  1   
 14   7  10  1   
 15   7  11  1   
 16   8  12  2   
 17   8  29  1   
 18   9  13  1   
 19   9  30  1   
 20   9  31  1   
 21  10  12  1   
 22  10  14  1   
 23  11  32  1   
 24  11  33  1   
 25  11  34  1   
 26  13  15  ar  
 27  13  16  ar  
 28  14  35  1   
 29  14  36  1   
 30  14  37  1   
 31  15  17  ar  
 32  15  38  1   
 33  16  18  ar  
 34  16  39  1   
 35  17  19  ar  
 36  17  20  1   
 37  18  19  ar  
 38  18  40  1   
 39  19  21  1   
 40  20  41  1   
 41  20  42  1   
 42  20  43  1   
 43  21  22  1   
 44  22  23  1   
 45  22  44  1   
 46  22  45  1   
 47  23  46  1   
 48  23  47  1   
 49  23  48  1   
@<TRIPOS>SUBSTRUCTURE
  1 ****   6 GROUP 4 **** **** 0

# MOE 2024.06 (io_trps.svl 2023.06)
