@<TRIPOS>MOLECULE
NONAME
16 16 1 0 0 
SMALL
USER_CHARGES


@<TRIPOS>ATOM
  1 O        0.3760     2.5080    -0.2390 O.3   1 <1>  -0.5600 
  2 C       -0.7500     3.1030     0.3660 C.3   1 <1>   0.4000 
  3 C        1.5940     3.1000     0.1220 C.3   1 <1>   0.1200 
  4 C       -2.0020     2.4180    -0.0840 C.1   1 <1>   0.3570 
  5 C       -0.7990     4.6070     0.0140 C.3   1 <1>   0.1100 
  6 C        1.6030     4.5970    -0.2450 C.3   1 <1>   0.1100 
  7 N       -2.9860     1.9390    -0.4030 N.1   1 <1>  -0.5570 
  8 N        0.4600     5.2950     0.3610 N.3   1 <1>  -0.9000 
  9 H       -0.6580     2.9840     1.4300 H     1 <1>   0.0800 
 10 H        1.7430     2.9720     1.1810 H     1 <1>   0.0800 
 11 H        2.3790     2.5840    -0.4020 H     1 <1>   0.0800 
 12 H       -1.6120     5.0700     0.5470 H     1 <1>   0.0800 
 13 H       -0.9910     4.7130    -1.0410 H     1 <1>   0.0800 
 14 H        1.5690     4.6970    -1.3170 H     1 <1>   0.0800 
 15 H        2.5180     5.0450     0.1030 H     1 <1>   0.0800 
 16 H        0.4300     6.2620     0.0090 H     1 <1>   0.3600 
@<TRIPOS>BOND
  1   1   2  1   
  2   1   3  1   
  3   2   4  1   
  4   2   5  1   
  5   2   9  1   
  6   3   6  1   
  7   3  10  1   
  8   3  11  1   
  9   4   7  3   
 10   5   8  1   
 11   5  12  1   
 12   5  13  1   
 13   6   8  1   
 14   6  14  1   
 15   6  15  1   
 16   8  16  1   
@<TRIPOS>SUBSTRUCTURE
  1 ****   2 GROUP 4 **** **** 0

# MOE 2024.06 (io_trps.svl 2023.06)
