@<TRIPOS>MOLECULE
NONAME
43 43 1 0 0 
SMALL
USER_CHARGES


@<TRIPOS>ATOM
  1 O       -2.9930    -1.6280     2.5720 O.co2 1 <1>  -0.9000 
  2 C       -2.3890    -1.0330     1.6610 C.2   1 <1>   0.9790 
  3 O       -1.1830    -0.7770     1.8020 O.co2 1 <1>  -0.9000 
  4 C       -3.0920    -0.7970     0.4200 C.ar  1 <1>  -0.1790 
  5 C       -3.4130     0.4340    -0.1850 C.ar  1 <1>   0.0830 
  6 C       -3.5590    -1.9530    -0.1990 C.ar  1 <1>  -0.1500 
  7 O       -3.0820     1.6730     0.2590 O.3   1 <1>  -0.3630 
  8 C       -4.1740     0.4480    -1.3460 C.ar  1 <1>  -0.1500 
  9 C       -4.3610    -1.9300    -1.3230 C.ar  1 <1>  -0.1430 
 10 C       -2.1640     1.9230     1.3000 C.3   1 <1>   0.0400 
 11 C       -4.6560    -0.7150    -1.9150 C.ar  1 <1>  -0.1500 
 12 C       -4.9440    -3.2300    -1.8310 C.3   1 <1>   0.4870 
 13 N       -5.6820    -3.8690    -0.7000 N.4   1 <1>  -0.9590 
 14 C       -6.1220    -5.2580    -1.0610 C.3   1 <1>   0.3430 
 15 C       -6.7760    -2.9800    -0.1890 C.3   1 <1>   0.2630 
 16 C       -6.6000    -6.1080     0.1340 C.3   1 <1>   0.2000 
 17 O       -6.2440    -7.4160    -0.1720 O.3   1 <1>  -0.5600 
 18 C       -8.1210    -6.0590     0.3320 C.3   1 <1>  -0.2400 
 19 C       -6.0890    -8.2820     0.9080 C.3   1 <1>   0.1200 
 20 C       -5.6340    -9.6250     0.3520 C.3   1 <1>  -0.2400 
 21 H       -3.2840    -2.8860     0.2660 H     1 <1>   0.1500 
 22 H       -4.3960     1.3990    -1.7960 H     1 <1>   0.1500 
 23 H       -2.0780     2.9860     1.4220 H     1 <1>   0.0800 
 24 H       -1.2090     1.5110     1.0270 H     1 <1>   0.0800 
 25 H       -2.5280     1.4820     2.2110 H     1 <1>   0.0800 
 26 H       -5.2600    -0.6540    -2.8040 H     1 <1>   0.1500 
 27 H       -4.1450    -3.8700    -2.1670 H     1 <1>   0.0800 
 28 H       -5.6110    -3.0400    -2.6560 H     1 <1>   0.0800 
 29 H       -4.9850    -3.9280     0.0610 H     1 <1>   0.4500 
 30 H       -5.2850    -5.7780    -1.5000 H     1 <1>   0.0800 
 31 H       -6.9070    -5.2160    -1.7970 H     1 <1>   0.0800 
 32 H       -7.5480    -2.8650    -0.9320 H     1 <1>   0.0800 
 33 H       -6.3830    -2.0050     0.0560 H     1 <1>   0.0800 
 34 H       -7.2080    -3.3940     0.7060 H     1 <1>   0.0800 
 35 H       -6.0720    -5.8120     1.0260 H     1 <1>   0.0800 
 36 H       -8.6230    -6.4490    -0.5370 H     1 <1>   0.0800 
 37 H       -8.4610    -5.0560     0.4990 H     1 <1>   0.0800 
 38 H       -8.4100    -6.6420     1.1880 H     1 <1>   0.0800 
 39 H       -7.0310    -8.3910     1.4190 H     1 <1>   0.0800 
 40 H       -5.3480    -7.8820     1.5800 H     1 <1>   0.0800 
 41 H       -6.3720   -10.0150    -0.3250 H     1 <1>   0.0800 
 42 H       -5.5030   -10.3260     1.1560 H     1 <1>   0.0800 
 43 H       -4.6960    -9.5160    -0.1630 H     1 <1>   0.0800 
@<TRIPOS>BOND
  1   1   2  ar  
  2   2   3  ar  
  3   2   4  1   
  4   4   5  ar  
  5   4   6  ar  
  6   5   7  1   
  7   5   8  ar  
  8   6   9  ar  
  9   6  21  1   
 10   7  10  1   
 11   8  11  ar  
 12   8  22  1   
 13   9  11  ar  
 14   9  12  1   
 15  10  23  1   
 16  10  24  1   
 17  10  25  1   
 18  11  26  1   
 19  12  13  1   
 20  12  27  1   
 21  12  28  1   
 22  13  14  1   
 23  13  15  1   
 24  13  29  1   
 25  14  16  1   
 26  14  30  1   
 27  14  31  1   
 28  15  32  1   
 29  15  33  1   
 30  15  34  1   
 31  16  17  1   
 32  16  18  1   
 33  16  35  1   
 34  17  19  1   
 35  18  36  1   
 36  18  37  1   
 37  18  38  1   
 38  19  20  1   
 39  19  39  1   
 40  19  40  1   
 41  20  41  1   
 42  20  42  1   
 43  20  43  1   
@<TRIPOS>SUBSTRUCTURE
  1 ****   6 GROUP 4 **** **** 0

# MOE 2024.06 (io_trps.svl 2023.06)
