@<TRIPOS>MOLECULE
NONAME
63 65 1 0 0 
SMALL
USER_CHARGES


@<TRIPOS>ATOM
  1 O       -0.2070     0.5690    -1.3860 O.2   1 <1>  -0.5700 
  2 C       -1.1170     0.6980    -0.5980 C.2   1 <1>   0.5690 
  3 N       -1.9580    -0.3280    -0.2970 N.am  1 <1>  -0.7300 
  4 C       -1.2620     2.1000     0.0560 C.3   1 <1>   0.4840 
  5 C       -1.8820    -1.6840    -0.8740 C.3   1 <1>   0.2200 
  6 N        0.0160     2.9020    -0.1190 N.4   1 <1>  -0.9590 
  7 C       -1.6740     2.0470     1.5360 C.3   1 <1>  -0.2400 
  8 C       -3.2380    -2.0350    -1.4720 C.3   1 <1>  -0.1600 
  9 C       -1.7310    -2.6870     0.2610 C.3   1 <1>  -0.1600 
 10 C        1.1390     2.3950     0.7170 C.3   1 <1>   0.3430 
 11 C       -0.1860     4.3680    -0.0230 C.3   1 <1>   0.3430 
 12 C       -4.1110    -2.4840    -0.2940 C.3   1 <1>  -0.1600 
 13 C       -3.1420    -2.9020     0.8210 C.3   1 <1>  -0.1600 
 14 C        2.4360     3.0870     0.3040 C.3   1 <1>  -0.1600 
 15 C        1.1000     5.0890    -0.4330 C.3   1 <1>  -0.1600 
 16 C        2.3200     4.6190     0.3770 C.3   1 <1>   0.4230 
 17 N        3.5740     5.2650    -0.1360 N.4   1 <1>  -0.9590 
 18 C        4.8220     4.8150     0.5970 C.3   1 <1>   0.3430 
 19 C        3.5220     6.7800    -0.0980 C.3   1 <1>   0.3430 
 20 C        6.1010     5.4900     0.0610 C.3   1 <1>   0.1100 
 21 C        4.8170     7.4330    -0.6240 C.3   1 <1>   0.1100 
 22 N        5.9970     6.9570     0.1230 N.3   1 <1>  -0.8100 
 23 C        7.2500     7.5900    -0.3490 C.3   1 <1>   0.1100 
 24 C        7.3570     9.0550     0.0930 C.3   1 <1>   0.1200 
 25 O        8.5640     9.5730    -0.3470 O.3   1 <1>  -0.6800 
 26 H       -2.7310    -0.2350     0.3650 H     1 <1>   0.3700 
 27 H       -2.0470     2.5990    -0.4870 H     1 <1>   0.0800 
 28 H       -1.0840    -1.7570    -1.5970 H     1 <1>   0.0800 
 29 H        0.2710     2.6490    -1.0930 H     1 <1>   0.4500 
 30 H       -1.0110     1.4210     2.1060 H     1 <1>   0.0800 
 31 H       -2.6610     1.6260     1.6150 H     1 <1>   0.0800 
 32 H       -1.7090     3.0300     1.9690 H     1 <1>   0.0800 
 33 H       -3.1070    -2.8670    -2.1410 H     1 <1>   0.0800 
 34 H       -3.6700    -1.2190    -2.0260 H     1 <1>   0.0800 
 35 H       -1.0290    -2.3630     1.0090 H     1 <1>   0.0800 
 36 H       -1.3790    -3.6160    -0.1540 H     1 <1>   0.0800 
 37 H        1.2440     1.3280     0.5820 H     1 <1>   0.0800 
 38 H        0.9360     2.5840     1.7600 H     1 <1>   0.0800 
 39 H       -0.4500     4.6350     0.9890 H     1 <1>   0.0800 
 40 H       -0.9930     4.6730    -0.6720 H     1 <1>   0.0800 
 41 H       -4.7500    -3.3010    -0.5830 H     1 <1>   0.0800 
 42 H       -4.7280    -1.6690     0.0440 H     1 <1>   0.0800 
 43 H       -3.2950    -2.2840     1.6890 H     1 <1>   0.0800 
 44 H       -3.2890    -3.9310     1.1010 H     1 <1>   0.0800 
 45 H        2.6900     2.7740    -0.6940 H     1 <1>   0.0800 
 46 H        3.1990     2.7350     0.9730 H     1 <1>   0.0800 
 47 H        0.9300     6.1390    -0.2770 H     1 <1>   0.0800 
 48 H        1.2640     4.9280    -1.4850 H     1 <1>   0.0800 
 49 H        2.1790     4.9030     1.4090 H     1 <1>   0.0800 
 50 H        3.7100     5.0050    -1.1220 H     1 <1>   0.4500 
 51 H        4.9440     3.7490     0.5050 H     1 <1>   0.0800 
 52 H        4.7340     5.0510     1.6450 H     1 <1>   0.0800 
 53 H        3.3690     7.1120     0.9160 H     1 <1>   0.0800 
 54 H        2.7010     7.1400    -0.6940 H     1 <1>   0.0800 
 55 H        6.2880     5.1730    -0.9510 H     1 <1>   0.0800 
 56 H        6.9340     5.1700     0.6650 H     1 <1>   0.0800 
 57 H        4.7240     8.4990    -0.5090 H     1 <1>   0.0800 
 58 H        4.9330     7.2250    -1.6740 H     1 <1>   0.0800 
 59 H        7.3120     7.5320    -1.4230 H     1 <1>   0.0800 
 60 H        8.0900     7.0610     0.0700 H     1 <1>   0.0800 
 61 H        7.3210     9.1410     1.1650 H     1 <1>   0.0800 
 62 H        6.5780     9.6500    -0.3470 H     1 <1>   0.0800 
 63 H        9.3110     9.2230     0.1770 H     1 <1>   0.4000 
@<TRIPOS>BOND
  1   1   2  2   
  2   2   3  am  
  3   2   4  1   
  4   3   5  1   
  5   3  26  1   
  6   4   6  1   
  7   4   7  1   
  8   4  27  1   
  9   5   8  1   
 10   5   9  1   
 11   5  28  1   
 12   6  10  1   
 13   6  11  1   
 14   6  29  1   
 15   7  30  1   
 16   7  31  1   
 17   7  32  1   
 18   8  12  1   
 19   8  33  1   
 20   8  34  1   
 21   9  13  1   
 22   9  35  1   
 23   9  36  1   
 24  10  14  1   
 25  10  37  1   
 26  10  38  1   
 27  11  15  1   
 28  11  39  1   
 29  11  40  1   
 30  12  13  1   
 31  12  41  1   
 32  12  42  1   
 33  13  43  1   
 34  13  44  1   
 35  14  16  1   
 36  14  45  1   
 37  14  46  1   
 38  15  16  1   
 39  15  47  1   
 40  15  48  1   
 41  16  17  1   
 42  16  49  1   
 43  17  18  1   
 44  17  19  1   
 45  17  50  1   
 46  18  20  1   
 47  18  51  1   
 48  18  52  1   
 49  19  21  1   
 50  19  53  1   
 51  19  54  1   
 52  20  22  1   
 53  20  55  1   
 54  20  56  1   
 55  21  22  1   
 56  21  57  1   
 57  21  58  1   
 58  22  23  1   
 59  23  24  1   
 60  23  59  1   
 61  23  60  1   
 62  24  25  1   
 63  24  61  1   
 64  24  62  1   
 65  25  63  1   
@<TRIPOS>SUBSTRUCTURE
  1 ****  14 GROUP 4 **** **** 0

# MOE 2024.06 (io_trps.svl 2023.06)
