@<TRIPOS>MOLECULE
NONAME
57 60 1 0 0 
SMALL
USER_CHARGES


@<TRIPOS>ATOM
  1 CL      -1.8090     0.9330     2.4760 Cl    1 <1>  -0.1770 
  2 C       -2.4550     1.4810     0.9390 C.ar  1 <1>   0.1770 
  3 C       -1.8040     2.4830     0.2060 C.ar  1 <1>   0.1000 
  4 C       -3.6240     0.8950     0.5060 C.ar  1 <1>  -0.1500 
  5 N       -0.6210     3.0840     0.6470 N.pl3 1 <1>  -0.8380 
  6 C       -2.3940     2.8530    -1.0010 C.ar  1 <1>  -0.1500 
  7 C       -4.2210     1.2880    -0.6890 C.ar  1 <1>   0.0860 
  8 C        0.6050     2.2650     0.7950 C.3   1 <1>   0.2090 
  9 C       -0.2690     4.5060     0.4060 C.3   1 <1>   0.2090 
 10 C       -3.5690     2.2700    -1.4360 C.ar  1 <1>  -0.1500 
 11 C       -5.4690     0.7010    -1.1250 C.2   1 <1>   0.5440 
 12 C        1.7440     3.1840     0.3740 C.3   1 <1>  -0.1600 
 13 C        1.2280     4.5870     0.6750 C.3   1 <1>  -0.1600 
 14 O       -5.5530    -0.5090    -1.2300 O.2   1 <1>  -0.5700 
 15 N       -6.5770     1.4780    -1.3990 N.am  1 <1>  -0.6600 
 16 C       -7.8140     0.9070    -1.9960 C.3   1 <1>   0.1400 
 17 C       -6.7600     2.8650    -0.8990 C.3   1 <1>   0.1400 
 18 C       -8.9150     0.8850    -0.9330 C.3   1 <1>  -0.1600 
 19 C       -7.8380     2.8560     0.1890 C.3   1 <1>  -0.1600 
 20 C       -9.1740     2.2720    -0.3190 C.3   1 <1>   0.2800 
 21 O       -9.6300     3.0690    -1.3750 O.3   1 <1>  -0.5600 
 22 C      -10.2440     2.1480     0.8020 C.3   1 <1>  -0.1600 
 23 C      -10.1730     4.3480    -1.1430 C.3   1 <1>   0.1200 
 24 C      -11.4520     3.0900     0.6680 C.3   1 <1>   0.2800 
 25 C      -10.9810     4.4720     0.1640 C.3   1 <1>   0.2000 
 26 O      -12.3240     2.5540    -0.2610 O.3   1 <1>  -0.6800 
 27 C      -12.2490     3.1670     1.9750 C.3   1 <1>  -0.2400 
 28 O      -10.1820     5.0960     1.1270 O.3   1 <1>  -0.6800 
 29 H       -4.0870     0.1260     1.0980 H     1 <1>   0.1500 
 30 H       -1.9240     3.5960    -1.6150 H     1 <1>   0.1500 
 31 H        0.7160     1.9860     1.8290 H     1 <1>   0.0800 
 32 H        0.5600     1.3790     0.1840 H     1 <1>   0.0800 
 33 H       -0.4670     4.7760    -0.6150 H     1 <1>   0.0800 
 34 H       -0.8230     5.1500     1.0680 H     1 <1>   0.0800 
 35 H       -4.0000     2.5730    -2.3740 H     1 <1>   0.1500 
 36 H        2.6540     2.9570     0.9000 H     1 <1>   0.0800 
 37 H        1.9090     3.0710    -0.6830 H     1 <1>   0.0800 
 38 H        1.7040     5.3400     0.0730 H     1 <1>   0.0800 
 39 H        1.3820     4.8180     1.7150 H     1 <1>   0.0800 
 40 H       -8.1190     1.5170    -2.8290 H     1 <1>   0.0800 
 41 H       -7.6360    -0.0900    -2.3620 H     1 <1>   0.0800 
 42 H       -5.8460     3.2570    -0.4910 H     1 <1>   0.0800 
 43 H       -7.0640     3.4970    -1.7160 H     1 <1>   0.0800 
 44 H       -8.6190     0.1940    -0.1640 H     1 <1>   0.0800 
 45 H       -9.8230     0.5140    -1.3730 H     1 <1>   0.0800 
 46 H       -7.9660     3.8550     0.5520 H     1 <1>   0.0800 
 47 H       -7.4770     2.2610     1.0080 H     1 <1>   0.0800 
 48 H      -10.5970     1.1360     0.8800 H     1 <1>   0.0800 
 49 H       -9.7620     2.3490     1.7410 H     1 <1>   0.0800 
 50 H       -9.3790     5.0720    -1.1750 H     1 <1>   0.0800 
 51 H      -10.8340     4.5390    -1.9690 H     1 <1>   0.0800 
 52 H      -11.8290     5.1160     0.0090 H     1 <1>   0.0800 
 53 H      -12.5860     1.6560     0.0090 H     1 <1>   0.4000 
 54 H      -11.6420     3.5790     2.7600 H     1 <1>   0.0800 
 55 H      -12.5780     2.1910     2.2820 H     1 <1>   0.0800 
 56 H      -13.1040     3.8080     1.8480 H     1 <1>   0.0800 
 57 H       -9.4100     4.5350     1.3240 H     1 <1>   0.4000 
@<TRIPOS>BOND
  1   1   2  1   
  2   2   3  ar  
  3   2   4  ar  
  4   3   5  1   
  5   3   6  ar  
  6   4   7  ar  
  7   4  29  1   
  8   5   8  1   
  9   5   9  1   
 10   6  10  ar  
 11   6  30  1   
 12   7  10  ar  
 13   7  11  1   
 14   8  12  1   
 15   8  31  1   
 16   8  32  1   
 17   9  13  1   
 18   9  33  1   
 19   9  34  1   
 20  10  35  1   
 21  11  14  2   
 22  11  15  am  
 23  12  13  1   
 24  12  36  1   
 25  12  37  1   
 26  13  38  1   
 27  13  39  1   
 28  15  16  1   
 29  15  17  1   
 30  16  18  1   
 31  16  40  1   
 32  16  41  1   
 33  17  19  1   
 34  17  42  1   
 35  17  43  1   
 36  18  20  1   
 37  18  44  1   
 38  18  45  1   
 39  19  20  1   
 40  19  46  1   
 41  19  47  1   
 42  20  21  1   
 43  20  22  1   
 44  21  23  1   
 45  22  24  1   
 46  22  48  1   
 47  22  49  1   
 48  23  25  1   
 49  23  50  1   
 50  23  51  1   
 51  24  25  1   
 52  24  26  1   
 53  24  27  1   
 54  25  28  1   
 55  25  52  1   
 56  26  53  1   
 57  27  54  1   
 58  27  55  1   
 59  27  56  1   
 60  28  57  1   
@<TRIPOS>SUBSTRUCTURE
  1 ****  17 GROUP 4 **** **** 0

# MOE 2024.06 (io_trps.svl 2023.06)
