@<TRIPOS>MOLECULE
NONAME
44 46 1 0 0 
SMALL
USER_CHARGES


@<TRIPOS>ATOM
  1 F       -1.6230    -1.0910     2.4390 F     1 <1>  -0.1900 
  2 C       -1.5760    -2.3250     2.0090 C.ar  1 <1>   0.1900 
  3 C       -0.9980    -2.5800     0.7800 C.ar  1 <1>  -0.1500 
  4 C       -2.1050    -3.3260     2.8020 C.ar  1 <1>  -0.1500 
  5 C       -0.9510    -3.8880     0.3240 C.ar  1 <1>  -0.1500 
  6 C       -2.0520    -4.6300     2.3380 C.ar  1 <1>  -0.1500 
  7 C       -1.4870    -4.9150     1.1020 C.ar  1 <1>   0.0830 
  8 O       -1.5000    -6.2150     0.7180 O.3   1 <1>  -0.3630 
  9 C       -1.1950    -6.5920    -0.6190 C.3   1 <1>   0.1810 
 10 C       -1.6410    -8.0230    -0.9230 C.2   1 <1>   0.5690 
 11 O       -0.7810    -8.7820    -1.3080 O.2   1 <1>  -0.5700 
 12 N       -2.9580    -8.4230    -0.8140 N.am  1 <1>  -0.6600 
 13 C       -4.0460    -7.5040    -0.3570 C.3   1 <1>   0.2200 
 14 C       -3.3310    -9.8390    -1.1240 C.3   1 <1>   0.0600 
 15 C       -4.4930    -7.7860     1.0740 C.3   1 <1>  -0.1600 
 16 C       -5.3350    -7.5700    -1.1730 C.3   1 <1>  -0.1600 
 17 C       -5.8640    -7.1040     1.1860 C.3   1 <1>  -0.0800 
 18 C       -6.3880    -6.9400    -0.2530 C.3   1 <1>  -0.0800 
 19 C       -5.7900    -5.6930     1.7880 C.3   1 <1>  -0.1600 
 20 C       -6.5690    -5.4310    -0.4760 C.3   1 <1>  -0.1600 
 21 C       -6.7170    -4.8540     0.9230 C.3   1 <1>   0.2000 
 22 O       -6.3160    -3.5360     0.9400 O.3   1 <1>  -0.6800 
 23 H       -0.5940    -1.7710     0.1990 H     1 <1>   0.1500 
 24 H       -2.5430    -3.0880     3.7540 H     1 <1>   0.1500 
 25 H       -0.4920    -4.0840    -0.6260 H     1 <1>   0.1500 
 26 H       -2.4490    -5.4330     2.9330 H     1 <1>   0.1500 
 27 H       -1.6970    -5.9240    -1.2920 H     1 <1>   0.0800 
 28 H       -0.1320    -6.5100    -0.7510 H     1 <1>   0.0800 
 29 H       -3.7120    -6.4840    -0.3980 H     1 <1>   0.0800 
 30 H       -4.0550   -10.2050    -0.4200 H     1 <1>   0.0800 
 31 H       -2.4670   -10.4800    -1.0770 H     1 <1>   0.0800 
 32 H       -3.7420    -9.8940    -2.1170 H     1 <1>   0.0800 
 33 H       -4.6200    -8.8420     1.2220 H     1 <1>   0.0800 
 34 H       -3.7840    -7.4150     1.7920 H     1 <1>   0.0800 
 35 H       -5.2430    -7.0520    -2.1110 H     1 <1>   0.0800 
 36 H       -5.6220    -8.5890    -1.3570 H     1 <1>   0.0800 
 37 H       -6.5420    -7.7110     1.7630 H     1 <1>   0.0800 
 38 H       -7.3380    -7.4380    -0.3620 H     1 <1>   0.0800 
 39 H       -4.7880    -5.3110     1.7160 H     1 <1>   0.0800 
 40 H       -6.1060    -5.6870     2.8160 H     1 <1>   0.0800 
 41 H       -7.4370    -5.2240    -1.0760 H     1 <1>   0.0800 
 42 H       -5.6960    -5.0160    -0.9490 H     1 <1>   0.0800 
 43 H       -7.7370    -4.9180     1.2650 H     1 <1>   0.0800 
 44 H       -5.3750    -3.4710     0.6920 H     1 <1>   0.4000 
@<TRIPOS>BOND
  1   1   2  1   
  2   2   3  ar  
  3   2   4  ar  
  4   3   5  ar  
  5   3  23  1   
  6   4   6  ar  
  7   4  24  1   
  8   5   7  ar  
  9   5  25  1   
 10   6   7  ar  
 11   6  26  1   
 12   7   8  1   
 13   8   9  1   
 14   9  10  1   
 15   9  27  1   
 16   9  28  1   
 17  10  11  2   
 18  10  12  am  
 19  12  13  1   
 20  12  14  1   
 21  13  15  1   
 22  13  16  1   
 23  13  29  1   
 24  14  30  1   
 25  14  31  1   
 26  14  32  1   
 27  15  17  1   
 28  15  33  1   
 29  15  34  1   
 30  16  18  1   
 31  16  35  1   
 32  16  36  1   
 33  17  18  1   
 34  17  19  1   
 35  17  37  1   
 36  18  20  1   
 37  18  38  1   
 38  19  21  1   
 39  19  39  1   
 40  19  40  1   
 41  20  21  1   
 42  20  41  1   
 43  20  42  1   
 44  21  22  1   
 45  21  43  1   
 46  22  44  1   
@<TRIPOS>SUBSTRUCTURE
  1 ****   8 GROUP 4 **** **** 0

# MOE 2024.06 (io_trps.svl 2023.06)
