@<TRIPOS>MOLECULE
NONAME
42 43 1 0 0 
SMALL
USER_CHARGES


@<TRIPOS>ATOM
  1 O       -0.5460     0.2320     0.6610 O.2   1 <1>  -0.5700 
  2 C       -1.5230     0.7740     0.2010 C.2   1 <1>   0.5690 
  3 N       -2.6410     0.0570    -0.1180 N.am  1 <1>  -0.6600 
  4 C       -1.5120     2.2760    -0.0160 C.3   1 <1>  -0.0990 
  5 C       -3.9580     0.5970    -0.5430 C.3   1 <1>   0.1400 
  6 C       -2.7270    -1.4120     0.0700 C.3   1 <1>   0.1400 
  7 C       -0.1150     2.8760     0.1290 C.3   1 <1>   0.1200 
  8 C       -4.9560    -0.4730    -0.1030 C.3   1 <1>   0.2000 
  9 C       -4.1760    -1.7820    -0.2720 C.3   1 <1>  -0.0800 
 10 O       -0.2130     4.2400    -0.1180 O.3   1 <1>  -0.5600 
 11 O       -5.2360    -0.2690     1.2390 O.3   1 <1>  -0.6800 
 12 C       -4.7180    -2.9810     0.5280 C.3   1 <1>  -0.0170 
 13 C        0.9930     4.9160    -0.0030 C.3   1 <1>   0.1200 
 14 C       -3.9290    -4.2430     0.2180 C.ar  1 <1>  -0.1440 
 15 C        0.7240     6.3860    -0.3010 C.3   1 <1>  -0.2400 
 16 C       -4.2100    -5.0220    -0.8870 C.ar  1 <1>  -0.1500 
 17 C       -2.8920    -4.6760     1.0190 C.ar  1 <1>  -0.1500 
 18 C       -3.4600    -6.1610    -1.1310 C.ar  1 <1>   0.1600 
 19 C       -2.2030    -5.8310     0.6850 C.ar  1 <1>   0.1600 
 20 N       -2.4630    -6.5830    -0.3720 N.ar  1 <1>  -0.6200 
 21 H       -1.8730     2.4860    -1.0040 H     1 <1>   0.0800 
 22 H       -2.1620     2.7310     0.7060 H     1 <1>   0.0800 
 23 H       -4.1770     1.5500    -0.0940 H     1 <1>   0.0800 
 24 H       -3.9680     0.6900    -1.6150 H     1 <1>   0.0800 
 25 H       -2.0270    -1.9200    -0.5730 H     1 <1>   0.0800 
 26 H       -2.4980    -1.6470     1.0960 H     1 <1>   0.0800 
 27 H        0.5610     2.4370    -0.5850 H     1 <1>   0.0800 
 28 H        0.2590     2.7260     1.1280 H     1 <1>   0.0800 
 29 H       -5.8790    -0.4470    -0.6550 H     1 <1>   0.0800 
 30 H       -4.1980    -2.0390    -1.3170 H     1 <1>   0.0800 
 31 H       -4.3910    -0.1540     1.7200 H     1 <1>   0.4000 
 32 H       -5.7530    -3.1380     0.2800 H     1 <1>   0.0800 
 33 H       -4.6690    -2.7810     1.5840 H     1 <1>   0.0800 
 34 H        1.3670     4.7930     0.9990 H     1 <1>   0.0800 
 35 H        1.6920     4.5060    -0.7130 H     1 <1>   0.0800 
 36 H        0.0140     6.7800     0.4040 H     1 <1>   0.0800 
 37 H        0.3390     6.4950    -1.2980 H     1 <1>   0.0800 
 38 H        1.6370     6.9470    -0.2200 H     1 <1>   0.0800 
 39 H       -5.0040    -4.7550    -1.5590 H     1 <1>   0.1500 
 40 H       -2.6100    -4.1290     1.9000 H     1 <1>   0.1500 
 41 H       -3.6940    -6.7560    -1.9970 H     1 <1>   0.1500 
 42 H       -1.3970    -6.1520     1.3210 H     1 <1>   0.1500 
@<TRIPOS>BOND
  1   1   2  2   
  2   2   3  am  
  3   2   4  1   
  4   3   5  1   
  5   3   6  1   
  6   4   7  1   
  7   4  21  1   
  8   4  22  1   
  9   5   8  1   
 10   5  23  1   
 11   5  24  1   
 12   6   9  1   
 13   6  25  1   
 14   6  26  1   
 15   7  10  1   
 16   7  27  1   
 17   7  28  1   
 18   8   9  1   
 19   8  11  1   
 20   8  29  1   
 21   9  12  1   
 22   9  30  1   
 23  10  13  1   
 24  11  31  1   
 25  12  14  1   
 26  12  32  1   
 27  12  33  1   
 28  13  15  1   
 29  13  34  1   
 30  13  35  1   
 31  14  16  ar  
 32  14  17  ar  
 33  15  36  1   
 34  15  37  1   
 35  15  38  1   
 36  16  18  ar  
 37  16  39  1   
 38  17  19  ar  
 39  17  40  1   
 40  18  20  ar  
 41  18  41  1   
 42  19  20  ar  
 43  19  42  1   
@<TRIPOS>SUBSTRUCTURE
  1 ****   6 GROUP 4 **** **** 0

# MOE 2024.06 (io_trps.svl 2023.06)
