@<TRIPOS>MOLECULE
NONAME
37 39 1 0 0 
SMALL
USER_CHARGES


@<TRIPOS>ATOM
  1 O        0.6560    -0.0030     0.6060 O.3   1 <1>  -0.6800 
  2 C        1.9050    -0.0640     0.0020 C.3   1 <1>   0.2000 
  3 C        2.5980    -1.3840     0.3310 C.3   1 <1>  -0.0800 
  4 C        2.8430     1.0120     0.5450 C.3   1 <1>   0.2090 
  5 C        4.0870    -1.0560     0.1910 C.3   1 <1>   0.2090 
  6 C        2.1330    -2.5570    -0.5500 C.3   1 <1>  -0.0170 
  7 N        4.1950     0.3960     0.4780 N.pl3 1 <1>  -0.8380 
  8 C        2.8540    -3.8490    -0.2010 C.ar  1 <1>   0.1660 
  9 C        5.3450     1.1140     0.2660 C.ar  1 <1>   0.7200 
 10 N        4.0290    -4.0440    -0.7790 N.ar  1 <1>  -0.6200 
 11 C        2.2740    -4.7550     0.6850 C.ar  1 <1>   0.1600 
 12 N        6.4340     0.4250    -0.0450 N.ar  1 <1>  -0.6200 
 13 N        5.2580     2.4370     0.3960 N.ar  1 <1>  -0.6200 
 14 C        4.5770    -5.1920    -0.4170 C.ar  1 <1>   0.1600 
 15 N        2.8180    -5.9050     1.0470 N.ar  1 <1>  -0.6200 
 16 C        7.5220     1.1200    -0.2430 C.ar  1 <1>   0.4100 
 17 C        6.3670     3.1070     0.1970 C.ar  1 <1>   0.1600 
 18 C        3.9910    -6.0920     0.4660 C.ar  1 <1>   0.1600 
 19 N        8.6070     0.3610    -0.5650 N.pl3 1 <1>  -0.9000 
 20 C        7.5550     2.5030    -0.1300 C.ar  1 <1>   0.0730 
 21 C        8.7450     3.2540    -0.3380 C.1   1 <1>   0.4840 
 22 N        9.7000     3.8580    -0.4910 N.1   1 <1>  -0.5570 
 23 H        0.0350    -0.6220     0.1800 H     1 <1>   0.4000 
 24 H        1.7880     0.0690    -1.0600 H     1 <1>   0.0800 
 25 H        2.4240    -1.6190     1.3680 H     1 <1>   0.0800 
 26 H        2.6120     1.2360     1.5720 H     1 <1>   0.0800 
 27 H        2.7870     1.9050    -0.0530 H     1 <1>   0.0800 
 28 H        4.4300    -1.2450    -0.8140 H     1 <1>   0.0800 
 29 H        4.6840    -1.6270     0.8810 H     1 <1>   0.0800 
 30 H        2.3100    -2.3290    -1.5870 H     1 <1>   0.0800 
 31 H        1.0750    -2.6980    -0.4260 H     1 <1>   0.0800 
 32 H        1.3170    -4.5200     1.1150 H     1 <1>   0.1500 
 33 H        5.5360    -5.4330    -0.8390 H     1 <1>   0.1500 
 34 H        6.3240     4.1790     0.3000 H     1 <1>   0.1500 
 35 H        4.5160    -7.0020     0.6980 H     1 <1>   0.1500 
 36 H        8.4790    -0.6520    -0.4970 H     1 <1>   0.4000 
 37 H        9.5680     0.6930    -0.4590 H     1 <1>   0.4000 
@<TRIPOS>BOND
  1   1   2  1   
  2   1  23  1   
  3   2   3  1   
  4   2   4  1   
  5   2  24  1   
  6   3   5  1   
  7   3   6  1   
  8   3  25  1   
  9   4   7  1   
 10   4  26  1   
 11   4  27  1   
 12   5   7  1   
 13   5  28  1   
 14   5  29  1   
 15   6   8  1   
 16   6  30  1   
 17   6  31  1   
 18   7   9  1   
 19   8  10  ar  
 20   8  11  ar  
 21   9  12  ar  
 22   9  13  ar  
 23  10  14  ar  
 24  11  15  ar  
 25  11  32  1   
 26  12  16  ar  
 27  13  17  ar  
 28  14  18  ar  
 29  14  33  1   
 30  15  18  ar  
 31  16  19  1   
 32  16  20  ar  
 33  17  20  ar  
 34  17  34  1   
 35  18  35  1   
 36  19  36  1   
 37  19  37  1   
 38  20  21  1   
 39  21  22  3   
@<TRIPOS>SUBSTRUCTURE
  1 ****   5 GROUP 4 **** **** 0

# MOE 2024.06 (io_trps.svl 2023.06)
