@<TRIPOS>MOLECULE
NONAME
52 55 1 0 0 
SMALL
USER_CHARGES


@<TRIPOS>ATOM
  1 F        2.8240     0.3150     2.4490 F     1 <1>  -0.3400 
  2 C        3.4530     0.7300     1.3510 C.3   1 <1>   0.8560 
  3 F        4.2370    -0.2860     0.9970 F     1 <1>  -0.3400 
  4 N        4.2890     1.9460     1.6520 N.pl3 1 <1>   0.3140 
  5 N        4.2930     3.0620     0.8790 N.2   1 <1>  -0.7070 
  6 C        5.1230     2.1000     2.7060 C.2   1 <1>  -0.3020 
  7 C        5.1190     3.9120     1.4660 C.2   1 <1>   0.2030 
  8 C        5.6620     3.3300     2.6180 C.2   1 <1>  -0.1500 
  9 C        5.4510     5.2570     1.0120 C.2   1 <1>   0.7160 
 10 O        6.4140     5.8660     1.4540 O.2   1 <1>  -0.5700 
 11 N        4.7810     5.8770    -0.0210 N.am  1 <1>  -0.6600 
 12 C        4.9490     5.3580    -1.4090 C.3   1 <1>   0.1400 
 13 C        4.2870     7.2760     0.0980 C.3   1 <1>   0.1400 
 14 C        6.3810     5.6250    -1.9270 C.3   1 <1>   0.3430 
 15 C        5.3790     8.3200    -0.1940 C.3   1 <1>  -0.1600 
 16 N        7.0060     6.8230    -1.2710 N.4   1 <1>  -0.9590 
 17 C        6.2170     8.0730    -1.4520 C.3   1 <1>   0.3430 
 18 C        8.4510     6.9730    -1.5860 C.3   1 <1>   0.4860 
 19 C        9.0460     8.0830    -0.7350 C.ar  1 <1>  -0.1440 
 20 C        9.1180     7.9560     0.6450 C.ar  1 <1>  -0.1500 
 21 C        9.5260     9.2400    -1.3330 C.ar  1 <1>  -0.1500 
 22 C        9.6550     8.9730     1.4140 C.ar  1 <1>  -0.1500 
 23 C       10.0660    10.2540    -0.5620 C.ar  1 <1>  -0.1500 
 24 C       10.1370    10.1350     0.8220 C.ar  1 <1>  -0.0230 
 25 N       10.6970    11.1740     1.6130 N.pl3 1 <1>   0.3260 
 26 C       10.5210    12.5170     1.4980 C.2   1 <1>   0.0360 
 27 C       11.5440    11.0590     2.6610 C.2   1 <1>  -0.3020 
 28 N       11.1710    13.2280     2.3610 N.2   1 <1>  -0.5650 
 29 C       11.8190    12.3060     3.0980 C.2   1 <1>   0.0770 
 30 H        2.7290     0.9000     0.5760 H     1 <1>   0.0800 
 31 H        5.2760     1.3330     3.4460 H     1 <1>   0.1500 
 32 H        6.3670     3.8020     3.2800 H     1 <1>   0.1500 
 33 H        4.2340     5.8310    -2.0600 H     1 <1>   0.0800 
 34 H        4.7500     4.3000    -1.4330 H     1 <1>   0.0800 
 35 H        3.9120     7.4300     1.0980 H     1 <1>   0.0800 
 36 H        3.4590     7.4130    -0.5770 H     1 <1>   0.0800 
 37 H        6.3590     5.7460    -2.9970 H     1 <1>   0.0800 
 38 H        6.9780     4.7550    -1.7090 H     1 <1>   0.0800 
 39 H        6.0330     8.4020     0.6570 H     1 <1>   0.0800 
 40 H        4.8990     9.2760    -0.2950 H     1 <1>   0.0800 
 41 H        6.9490     6.6360    -0.2480 H     1 <1>   0.4500 
 42 H        6.8790     8.9120    -1.5920 H     1 <1>   0.0800 
 43 H        5.5800     7.9980    -2.3190 H     1 <1>   0.0800 
 44 H        8.5810     7.2040    -2.6300 H     1 <1>   0.0800 
 45 H        8.9710     6.0530    -1.3730 H     1 <1>   0.0800 
 46 H        8.7600     7.0680     1.1400 H     1 <1>   0.1500 
 47 H        9.4930     9.3640    -2.4030 H     1 <1>   0.1500 
 48 H        9.6990     8.8590     2.4840 H     1 <1>   0.1500 
 49 H       10.4430    11.1420    -1.0420 H     1 <1>   0.1500 
 50 H        9.8810    12.9310     0.7400 H     1 <1>   0.1500 
 51 H       11.8980    10.1120     3.0220 H     1 <1>   0.1500 
 52 H       12.4590    12.5980     3.9160 H     1 <1>   0.1500 
@<TRIPOS>BOND
  1   1   2  1   
  2   2   3  1   
  3   2   4  1   
  4   2  30  1   
  5   4   5  1   
  6   4   6  1   
  7   5   7  2   
  8   6   8  2   
  9   6  31  1   
 10   7   8  1   
 11   7   9  1   
 12   8  32  1   
 13   9  10  2   
 14   9  11  am  
 15  11  12  1   
 16  11  13  1   
 17  12  14  1   
 18  12  33  1   
 19  12  34  1   
 20  13  15  1   
 21  13  35  1   
 22  13  36  1   
 23  14  16  1   
 24  14  37  1   
 25  14  38  1   
 26  15  17  1   
 27  15  39  1   
 28  15  40  1   
 29  16  17  1   
 30  16  18  1   
 31  16  41  1   
 32  17  42  1   
 33  17  43  1   
 34  18  19  1   
 35  18  44  1   
 36  18  45  1   
 37  19  20  ar  
 38  19  21  ar  
 39  20  22  ar  
 40  20  46  1   
 41  21  23  ar  
 42  21  47  1   
 43  22  24  ar  
 44  22  48  1   
 45  23  24  ar  
 46  23  49  1   
 47  24  25  1   
 48  25  26  1   
 49  25  27  1   
 50  26  28  2   
 51  26  50  1   
 52  27  29  2   
 53  27  51  1   
 54  28  29  1   
 55  29  52  1   
@<TRIPOS>SUBSTRUCTURE
  1 ****  10 GROUP 4 **** **** 0

# MOE 2024.06 (io_trps.svl 2023.06)
