@<TRIPOS>MOLECULE
NONAME
46 48 1 0 0 
SMALL
USER_CHARGES


@<TRIPOS>ATOM
  1 S       -1.5640    -0.6430     0.5370 S.3   1 <1>  -0.4600 
  2 C       -2.9800    -1.7420     0.9020 C.3   1 <1>   0.1310 
  3 C       -0.8500    -0.3230     2.1720 C.3   1 <1>  -0.0100 
  4 C       -3.6070    -2.3080    -0.3690 C.2   1 <1>   0.5690 
  5 O       -3.4440    -3.4880    -0.5860 O.2   1 <1>  -0.5700 
  6 N       -4.3740    -1.5330    -1.2050 N.am  1 <1>  -0.6600 
  7 C       -5.0520    -2.1420    -2.3850 C.3   1 <1>   0.1400 
  8 C       -4.6890    -0.0950    -0.9870 C.3   1 <1>   0.1400 
  9 C       -6.3950    -2.7970    -2.0100 C.3   1 <1>   0.1400 
 10 C       -6.0700     0.0880    -0.3470 C.3   1 <1>  -0.1600 
 11 N       -7.1700    -2.0490    -0.9630 N.am  1 <1>  -0.6600 
 12 C       -7.2240    -0.5670    -1.1180 C.3   1 <1>   0.1400 
 13 C       -7.7980    -2.6640     0.1050 C.2   1 <1>   0.5440 
 14 O       -8.4650    -1.9860     0.8660 O.2   1 <1>  -0.5700 
 15 C       -7.7120    -4.0900     0.3480 C.ar  1 <1>   0.0860 
 16 C       -8.8460    -4.8900     0.2660 C.ar  1 <1>  -0.1500 
 17 C       -6.4870    -4.6990     0.6850 C.ar  1 <1>  -0.1500 
 18 C       -8.7590    -6.2610     0.4930 C.ar  1 <1>   0.0000 
 19 C       -6.3860    -6.0550     0.9110 C.ar  1 <1>  -0.1500 
 20 C       -7.5360    -6.8250     0.8090 C.ar  1 <1>   0.1400 
 21 C       -9.6610    -7.3450     0.4920 C.2   1 <1>  -0.1500 
 22 O       -7.6610    -8.1390     0.9850 O.3   1 <1>  -0.2800 
 23 C       -8.9400    -8.4410     0.7930 C.2   1 <1>  -0.0400 
 24 C       -9.3540    -9.8890     0.9380 C.3   1 <1>  -0.0600 
 25 H       -3.7000    -1.1730     1.4590 H     1 <1>   0.0800 
 26 H       -2.6050    -2.5450     1.5090 H     1 <1>   0.0800 
 27 H       -0.0060     0.3300     2.0370 H     1 <1>   0.0800 
 28 H       -0.5410    -1.2640     2.5910 H     1 <1>   0.0800 
 29 H       -1.6030     0.1450     2.7810 H     1 <1>   0.0800 
 30 H       -4.4110    -2.8870    -2.8250 H     1 <1>   0.0800 
 31 H       -5.2190    -1.3890    -3.1340 H     1 <1>   0.0800 
 32 H       -4.6580     0.4170    -1.9330 H     1 <1>   0.0800 
 33 H       -3.9450     0.3640    -0.3610 H     1 <1>   0.0800 
 34 H       -6.1840    -3.7960    -1.6810 H     1 <1>   0.0800 
 35 H       -6.9990    -2.8810    -2.8960 H     1 <1>   0.0800 
 36 H       -6.2670     1.1430    -0.2880 H     1 <1>   0.0800 
 37 H       -6.0600    -0.2850     0.6620 H     1 <1>   0.0800 
 38 H       -7.1850    -0.3010    -2.1590 H     1 <1>   0.0800 
 39 H       -8.1600    -0.2030    -0.7280 H     1 <1>   0.0800 
 40 H       -9.7970    -4.4490     0.0290 H     1 <1>   0.1500 
 41 H       -5.6110    -4.0790     0.7620 H     1 <1>   0.1500 
 42 H       -5.4510    -6.5240     1.1610 H     1 <1>   0.1500 
 43 H      -10.7120    -7.2580     0.2840 H     1 <1>   0.1500 
 44 H      -10.4080    -9.9950     0.7580 H     1 <1>   0.0800 
 45 H       -9.1310   -10.2310     1.9320 H     1 <1>   0.0800 
 46 H       -8.8140   -10.4920     0.2310 H     1 <1>   0.0800 
@<TRIPOS>BOND
  1   1   2  1   
  2   1   3  1   
  3   2   4  1   
  4   2  25  1   
  5   2  26  1   
  6   3  27  1   
  7   3  28  1   
  8   3  29  1   
  9   4   5  2   
 10   4   6  am  
 11   6   7  1   
 12   6   8  1   
 13   7   9  1   
 14   7  30  1   
 15   7  31  1   
 16   8  10  1   
 17   8  32  1   
 18   8  33  1   
 19   9  11  1   
 20   9  34  1   
 21   9  35  1   
 22  10  12  1   
 23  10  36  1   
 24  10  37  1   
 25  11  12  1   
 26  11  13  am  
 27  12  38  1   
 28  12  39  1   
 29  13  14  2   
 30  13  15  1   
 31  15  16  ar  
 32  15  17  ar  
 33  16  18  ar  
 34  16  40  1   
 35  17  19  ar  
 36  17  41  1   
 37  18  20  ar  
 38  18  21  1   
 39  19  20  ar  
 40  19  42  1   
 41  20  22  1   
 42  21  23  2   
 43  21  43  1   
 44  22  23  1   
 45  23  24  1   
 46  24  44  1   
 47  24  45  1   
 48  24  46  1   
@<TRIPOS>SUBSTRUCTURE
  1 ****  17 GROUP 4 **** **** 0

# MOE 2024.06 (io_trps.svl 2023.06)
