@<TRIPOS>MOLECULE
NONAME
39 41 1 0 0 
SMALL
USER_CHARGES


@<TRIPOS>ATOM
  1 S        0.0160    -0.0990     1.8460 S.3   1 <1>  -0.0800 
  2 C        1.0910    -0.9040     0.7200 C.2   1 <1>  -0.0450 
  3 C        0.7070     1.4380     1.4040 C.2   1 <1>   0.2280 
  4 C        1.8520     0.0590     0.1470 C.2   1 <1>   0.0460 
  5 C        1.0530    -2.3400     0.5880 C.2   1 <1>   0.7150 
  6 N        1.6260     1.3660     0.5280 N.2   1 <1>  -0.5650 
  7 C        2.9440    -0.1450    -0.8840 C.3   1 <1>  -0.0590 
  8 O        2.0940    -2.9570     0.4630 O.2   1 <1>  -0.5700 
  9 N       -0.1270    -3.0500     0.5720 N.am  1 <1>  -0.6600 
 10 C       -1.4530    -2.4880     0.2080 C.3   1 <1>   0.1400 
 11 C       -0.1540    -4.5330     0.4810 C.3   1 <1>   0.1400 
 12 C       -2.2210    -3.6610    -0.3960 C.3   1 <1>   0.2000 
 13 C       -1.6210    -4.9030     0.2540 C.3   1 <1>  -0.0800 
 14 O       -3.5770    -3.5800    -0.1240 O.3   1 <1>  -0.6800 
 15 C       -1.8120    -6.1790    -0.5790 C.3   1 <1>   0.0210 
 16 C       -1.0870    -7.3540     0.0490 C.2   1 <1>   0.1080 
 17 N       -1.2980    -7.7420     1.2680 N.2   1 <1>  -0.7070 
 18 C       -0.1250    -8.1290    -0.5900 C.2   1 <1>  -0.1500 
 19 N       -0.4690    -8.7880     1.4410 N.pl3 1 <1>   0.3000 
 20 C        0.2540    -9.0410     0.3300 C.2   1 <1>  -0.3320 
 21 C        1.2780   -10.1540     0.2140 C.3   1 <1>  -0.0600 
 22 H        0.3170     2.3150     1.8900 H     1 <1>   0.1500 
 23 H        3.0320    -1.1790    -1.1610 H     1 <1>   0.0800 
 24 H        3.8840     0.1850    -0.4800 H     1 <1>   0.0800 
 25 H        2.7240     0.4320    -1.7630 H     1 <1>   0.0800 
 26 H       -1.9430    -2.1380     1.1000 H     1 <1>   0.0800 
 27 H       -1.3510    -1.6870    -0.5040 H     1 <1>   0.0800 
 28 H        0.4560    -4.8490    -0.3490 H     1 <1>   0.0800 
 29 H        0.2240    -4.9790     1.3860 H     1 <1>   0.0800 
 30 H       -2.0880    -3.6690    -1.4650 H     1 <1>   0.0800 
 31 H       -2.0600    -5.0500     1.2260 H     1 <1>   0.0800 
 32 H       -3.7420    -3.7430     0.8250 H     1 <1>   0.4000 
 33 H       -1.4440    -6.0280    -1.5780 H     1 <1>   0.0800 
 34 H       -2.8590    -6.4140    -0.6400 H     1 <1>   0.0800 
 35 H        0.2240    -8.0060    -1.6000 H     1 <1>   0.1500 
 36 H       -0.4190    -9.3060     2.3270 H     1 <1>   0.2700 
 37 H        1.7180   -10.1510    -0.7680 H     1 <1>   0.0800 
 38 H        0.8100   -11.1090     0.3760 H     1 <1>   0.0800 
 39 H        2.0600   -10.0180     0.9400 H     1 <1>   0.0800 
@<TRIPOS>BOND
  1   1   2  1   
  2   1   3  1   
  3   2   4  2   
  4   2   5  1   
  5   3   6  2   
  6   3  22  1   
  7   4   6  1   
  8   4   7  1   
  9   5   8  2   
 10   5   9  am  
 11   7  23  1   
 12   7  24  1   
 13   7  25  1   
 14   9  10  1   
 15   9  11  1   
 16  10  12  1   
 17  10  26  1   
 18  10  27  1   
 19  11  13  1   
 20  11  28  1   
 21  11  29  1   
 22  12  13  1   
 23  12  14  1   
 24  12  30  1   
 25  13  15  1   
 26  13  31  1   
 27  14  32  1   
 28  15  16  1   
 29  15  33  1   
 30  15  34  1   
 31  16  17  2   
 32  16  18  1   
 33  17  19  1   
 34  18  20  2   
 35  18  35  1   
 36  19  20  1   
 37  19  36  1   
 38  20  21  1   
 39  21  37  1   
 40  21  38  1   
 41  21  39  1   
@<TRIPOS>SUBSTRUCTURE
  1 ****  11 GROUP 4 **** **** 0

# MOE 2024.06 (io_trps.svl 2023.06)
