@<TRIPOS>MOLECULE
NONAME
26 26 1 0 0 
SMALL
USER_CHARGES


@<TRIPOS>ATOM
  1 O        0.7690     0.2840     0.9810 O.2   1 <1>  -0.5700 
  2 C        1.1950     0.5740    -0.1190 C.2   1 <1>   0.7800 
  3 O        0.9060     1.7410    -0.6960 O.3   1 <1>  -0.4300 
  4 N        1.9850    -0.2390    -0.8520 N.am  1 <1>  -0.4930 
  5 C        0.1090     2.7800    -0.1680 C.3   1 <1>   0.2800 
  6 C        2.4820    -1.5060    -0.5810 C.2   1 <1>   0.3520 
  7 C        0.1150     3.8710    -1.2390 C.3   1 <1>  -0.2400 
  8 C        0.7370     3.3300     1.1180 C.3   1 <1>  -0.2400 
  9 C       -1.3280     2.2900     0.0450 C.3   1 <1>  -0.2400 
 10 N        3.2330    -2.0900    -1.4590 N.2   1 <1>  -0.7070 
 11 C        2.2870    -2.2900     0.5550 C.2   1 <1>  -0.1500 
 12 N        3.5420    -3.2820    -0.9000 N.pl3 1 <1>   0.3000 
 13 C        2.9810    -3.4220     0.3170 C.2   1 <1>  -0.3020 
 14 H        2.2730     0.1190    -1.7550 H     1 <1>   0.3700 
 15 H        1.1190     4.2110    -1.4200 H     1 <1>   0.0800 
 16 H       -0.4740     4.7120    -0.9200 H     1 <1>   0.0800 
 17 H       -0.2990     3.4960    -2.1580 H     1 <1>   0.0800 
 18 H        1.7640     3.5980     0.9490 H     1 <1>   0.0800 
 19 H        0.6850     2.6120     1.9150 H     1 <1>   0.0800 
 20 H        0.2050     4.2080     1.4380 H     1 <1>   0.0800 
 21 H       -1.7110     1.8470    -0.8570 H     1 <1>   0.0800 
 22 H       -1.9610     3.1160     0.3130 H     1 <1>   0.0800 
 23 H       -1.3810     1.5720     0.8420 H     1 <1>   0.0800 
 24 H        1.7030    -2.0190     1.4160 H     1 <1>   0.1500 
 25 H        4.1370    -3.9710    -1.3770 H     1 <1>   0.2700 
 26 H        3.1030    -4.2970     0.9300 H     1 <1>   0.1500 
@<TRIPOS>BOND
  1   1   2  2   
  2   2   3  1   
  3   2   4  am  
  4   3   5  1   
  5   4   6  1   
  6   4  14  1   
  7   5   7  1   
  8   5   8  1   
  9   5   9  1   
 10   6  10  2   
 11   6  11  1   
 12   7  15  1   
 13   7  16  1   
 14   7  17  1   
 15   8  18  1   
 16   8  19  1   
 17   8  20  1   
 18   9  21  1   
 19   9  22  1   
 20   9  23  1   
 21  10  12  1   
 22  11  13  2   
 23  11  24  1   
 24  12  13  1   
 25  12  25  1   
 26  13  26  1   
@<TRIPOS>SUBSTRUCTURE
  1 ****   2 GROUP 4 **** **** 0

# MOE 2024.06 (io_trps.svl 2023.06)
