@<TRIPOS>MOLECULE
NONAME
51 54 1 0 0 
SMALL
USER_CHARGES


@<TRIPOS>ATOM
  1 O        0.3540    -0.5420     0.1160 O.3   1 <1>  -0.5600 
  2 C       -0.0540    -1.8650    -0.0670 C.3   1 <1>   0.2000 
  3 C       -0.6620     0.4130    -0.0540 C.3   1 <1>   0.2640 
  4 C       -0.6690    -2.4230     1.2290 C.3   1 <1>   0.2090 
  5 C        1.1870    -2.6730    -0.4690 C.3   1 <1>  -0.1600 
  6 C       -0.1590     1.8410     0.1590 C.ar  1 <1>   0.1660 
  7 N       -0.9830    -3.8720     1.0490 N.pl3 1 <1>  -0.8380 
  8 C        0.8620    -4.1760    -0.5530 C.3   1 <1>  -0.1600 
  9 N       -1.0780     2.7900     0.0300 N.ar  1 <1>  -0.6200 
 10 C        1.1720     2.1030     0.4630 C.ar  1 <1>  -0.1500 
 11 C       -2.2540    -4.3040     0.7360 C.ar  1 <1>   0.7200 
 12 C        0.2080    -4.7040     0.7320 C.3   1 <1>   0.2090 
 13 C       -0.6590     4.0330     0.2100 C.ar  1 <1>   0.1600 
 14 C        1.5940     3.4030     0.6480 C.ar  1 <1>  -0.1500 
 15 N       -3.1200    -3.3850     0.3180 N.ar  1 <1>  -0.6200 
 16 N       -2.4990    -5.6020     0.8710 N.ar  1 <1>  -0.6200 
 17 C        0.6420     4.3890     0.5150 C.ar  1 <1>  -0.1500 
 18 C       -4.3230    -3.8070     0.0190 C.ar  1 <1>   0.1670 
 19 C       -3.7070    -6.0080     0.5720 C.ar  1 <1>   0.1670 
 20 C       -4.6820    -5.1380     0.1220 C.ar  1 <1>  -0.1430 
 21 C       -5.2930    -2.7390    -0.4660 C.3   1 <1>  -0.0170 
 22 C       -3.9590    -7.4940     0.7510 C.3   1 <1>  -0.0970 
 23 C       -6.0910    -5.6160    -0.2320 C.3   1 <1>  -0.0170 
 24 C       -6.7560    -3.2000    -0.4570 C.3   1 <1>  -0.1600 
 25 C       -6.8750    -4.5980    -1.0680 C.3   1 <1>  -0.1600 
 26 H       -0.7830    -1.9060    -0.8590 H     1 <1>   0.0800 
 27 H       -1.4500     0.2120     0.6490 H     1 <1>   0.0800 
 28 H       -1.0490     0.3240    -1.0540 H     1 <1>   0.0800 
 29 H       -1.5570    -1.8770     1.4900 H     1 <1>   0.0800 
 30 H        0.0370    -2.3190     2.0330 H     1 <1>   0.0800 
 31 H        1.9580    -2.5210     0.2660 H     1 <1>   0.0800 
 32 H        1.5450    -2.3270    -1.4220 H     1 <1>   0.0800 
 33 H        1.7620    -4.7310    -0.7440 H     1 <1>   0.0800 
 34 H        0.1870    -4.3540    -1.3730 H     1 <1>   0.0800 
 35 H        1.8790     1.2980     0.5560 H     1 <1>   0.1500 
 36 H       -0.0630    -5.7380     0.6010 H     1 <1>   0.0800 
 37 H        0.9020    -4.6470     1.5520 H     1 <1>   0.0800 
 38 H       -1.3960     4.8110     0.1080 H     1 <1>   0.1500 
 39 H        2.6180     3.6320     0.8850 H     1 <1>   0.1500 
 40 H        0.9030     5.4230     0.6460 H     1 <1>   0.1500 
 41 H       -5.0100    -2.4670    -1.4670 H     1 <1>   0.0800 
 42 H       -5.1940    -1.8640     0.1520 H     1 <1>   0.0800 
 43 H       -3.2140    -7.9190     1.4000 H     1 <1>   0.0800 
 44 H       -3.9050    -7.9870    -0.2010 H     1 <1>   0.0800 
 45 H       -4.9230    -7.6670     1.1930 H     1 <1>   0.0800 
 46 H       -6.6240    -5.8010     0.6840 H     1 <1>   0.0800 
 47 H       -6.0410    -6.5400    -0.7810 H     1 <1>   0.0800 
 48 H       -7.3570    -2.5000    -1.0110 H     1 <1>   0.0800 
 49 H       -7.1170    -3.2200     0.5570 H     1 <1>   0.0800 
 50 H       -7.9100    -4.8920    -1.1160 H     1 <1>   0.0800 
 51 H       -6.4860    -4.5840    -2.0720 H     1 <1>   0.0800 
@<TRIPOS>BOND
  1   1   2  1   
  2   1   3  1   
  3   2   4  1   
  4   2   5  1   
  5   2  26  1   
  6   3   6  1   
  7   3  27  1   
  8   3  28  1   
  9   4   7  1   
 10   4  29  1   
 11   4  30  1   
 12   5   8  1   
 13   5  31  1   
 14   5  32  1   
 15   6   9  ar  
 16   6  10  ar  
 17   7  11  1   
 18   7  12  1   
 19   8  12  1   
 20   8  33  1   
 21   8  34  1   
 22   9  13  ar  
 23  10  14  ar  
 24  10  35  1   
 25  11  15  ar  
 26  11  16  ar  
 27  12  36  1   
 28  12  37  1   
 29  13  17  ar  
 30  13  38  1   
 31  14  17  ar  
 32  14  39  1   
 33  15  18  ar  
 34  16  19  ar  
 35  17  40  1   
 36  18  20  ar  
 37  18  21  1   
 38  19  20  ar  
 39  19  22  1   
 40  20  23  1   
 41  21  24  1   
 42  21  41  1   
 43  21  42  1   
 44  22  43  1   
 45  22  44  1   
 46  22  45  1   
 47  23  25  1   
 48  23  46  1   
 49  23  47  1   
 50  24  25  1   
 51  24  48  1   
 52  24  49  1   
 53  25  50  1   
 54  25  51  1   
@<TRIPOS>SUBSTRUCTURE
  1 ****   4 GROUP 4 **** **** 0

# MOE 2024.06 (io_trps.svl 2023.06)
