@<TRIPOS>MOLECULE
NONAME
45 47 1 0 0 
SMALL
USER_CHARGES


@<TRIPOS>ATOM
  1 O       -0.4600     0.0540     0.8700 O.3   1 <1>  -0.0190 
  2 N        0.2130     1.0740     0.4330 N.2   1 <1>  -0.4100 
  3 C        0.4580    -0.8390     1.1480 C.2   1 <1>   0.2980 
  4 C        1.4470     0.7550     0.4710 C.2   1 <1>   0.3350 
  5 N        1.6590    -0.4690     0.9310 N.2   1 <1>  -0.5650 
  6 C        0.0280    -2.1890     1.7220 C.3   1 <1>   0.2900 
  7 C        2.6120     1.6320     0.0510 C.3   1 <1>   0.0210 
  8 N       -0.7560    -3.0260     0.7820 N.3   1 <1>  -0.8100 
  9 C        2.1610     3.0190    -0.4040 C.3   1 <1>   0.1200 
 10 C       -2.0970    -2.5010     0.4470 C.3   1 <1>   0.1100 
 11 C       -0.9170    -4.4140     1.2260 C.3   1 <1>   0.1100 
 12 O        3.2890     3.7560    -0.7550 O.3   1 <1>  -0.5600 
 13 C       -3.0710    -3.6830     0.5220 C.3   1 <1>   0.2000 
 14 C       -2.1750    -4.9190     0.5160 C.3   1 <1>  -0.0800 
 15 C        3.0050     5.0450    -1.1920 C.3   1 <1>   0.0400 
 16 O       -3.7400    -3.6390     1.7360 O.3   1 <1>  -0.6800 
 17 C       -1.8800    -5.3810    -0.9240 C.3   1 <1>  -0.0170 
 18 C       -1.0010    -6.6220    -0.9450 C.ar  1 <1>  -0.1440 
 19 C       -1.5030    -7.8760    -0.6620 C.ar  1 <1>  -0.1500 
 20 C        0.3430    -6.5590    -1.2490 C.ar  1 <1>  -0.1500 
 21 C       -0.6600    -8.9740    -0.6920 C.ar  1 <1>   0.1600 
 22 C        1.1010    -7.7190    -1.2520 C.ar  1 <1>   0.1600 
 23 N        0.6320    -8.9260    -0.9790 N.ar  1 <1>  -0.6200 
 24 H       -0.5390    -2.0210     2.6200 H     1 <1>   0.0800 
 25 H        0.9230    -2.7230     1.9910 H     1 <1>   0.0800 
 26 H        3.1330     1.1460    -0.7530 H     1 <1>   0.0800 
 27 H        3.2800     1.7330     0.8860 H     1 <1>   0.0800 
 28 H        1.6490     3.5280     0.3950 H     1 <1>   0.0800 
 29 H        1.5150     2.9410    -1.2620 H     1 <1>   0.0800 
 30 H       -2.4060    -1.7110     1.1100 H     1 <1>   0.0800 
 31 H       -2.0680    -2.1180    -0.5580 H     1 <1>   0.0800 
 32 H       -0.0450    -4.9980     0.9870 H     1 <1>   0.0800 
 33 H       -1.0740    -4.4450     2.2910 H     1 <1>   0.0800 
 34 H       -3.8060    -3.6720    -0.2650 H     1 <1>   0.0800 
 35 H       -2.6280    -5.7320     1.0560 H     1 <1>   0.0800 
 36 H        3.9340     5.5280    -1.4380 H     1 <1>   0.0800 
 37 H        2.5120     5.5880    -0.4040 H     1 <1>   0.0800 
 38 H        2.3800     4.9950    -2.0670 H     1 <1>   0.0800 
 39 H       -3.0910    -3.5920     2.4630 H     1 <1>   0.4000 
 40 H       -1.4010    -4.5900    -1.4750 H     1 <1>   0.0800 
 41 H       -2.8060    -5.6070    -1.4230 H     1 <1>   0.0800 
 42 H       -2.5410    -8.0100    -0.4200 H     1 <1>   0.1500 
 43 H        0.8090    -5.6180    -1.4820 H     1 <1>   0.1500 
 44 H       -1.0690    -9.9450    -0.4690 H     1 <1>   0.1500 
 45 H        2.1480    -7.6490    -1.4910 H     1 <1>   0.1500 
@<TRIPOS>BOND
  1   1   2  1   
  2   1   3  1   
  3   2   4  2   
  4   3   5  2   
  5   3   6  1   
  6   4   5  1   
  7   4   7  1   
  8   6   8  1   
  9   6  24  1   
 10   6  25  1   
 11   7   9  1   
 12   7  26  1   
 13   7  27  1   
 14   8  10  1   
 15   8  11  1   
 16   9  12  1   
 17   9  28  1   
 18   9  29  1   
 19  10  13  1   
 20  10  30  1   
 21  10  31  1   
 22  11  14  1   
 23  11  32  1   
 24  11  33  1   
 25  12  15  1   
 26  13  14  1   
 27  13  16  1   
 28  13  34  1   
 29  14  17  1   
 30  14  35  1   
 31  15  36  1   
 32  15  37  1   
 33  15  38  1   
 34  16  39  1   
 35  17  18  1   
 36  17  40  1   
 37  17  41  1   
 38  18  19  ar  
 39  18  20  ar  
 40  19  21  ar  
 41  19  42  1   
 42  20  22  ar  
 43  20  43  1   
 44  21  23  ar  
 45  21  44  1   
 46  22  23  ar  
 47  22  45  1   
@<TRIPOS>SUBSTRUCTURE
  1 ****   8 GROUP 4 **** **** 0

# MOE 2024.06 (io_trps.svl 2023.06)
