@<TRIPOS>MOLECULE
NONAME
47 49 1 0 0 
SMALL
USER_CHARGES


@<TRIPOS>ATOM
  1 CL      -0.3650     0.3840     1.2410 Cl    1 <1>  -0.1770 
  2 C       -1.8930     1.1130     0.8080 C.ar  1 <1>   0.1770 
  3 C       -3.0340     0.3350     0.7820 C.ar  1 <1>  -0.1500 
  4 C       -1.9380     2.4590     0.4980 C.ar  1 <1>  -0.1500 
  5 C       -4.2420     0.9190     0.4390 C.ar  1 <1>  -0.1500 
  6 C       -3.1510     3.0330     0.1550 C.ar  1 <1>  -0.1500 
  7 C       -4.3170     2.2730     0.1180 C.ar  1 <1>   0.1170 
  8 N       -5.5220     2.9030    -0.2190 N.am  1 <1>  -0.5470 
  9 C       -6.6730     2.4130    -0.7720 C.2   1 <1>   0.6900 
 10 O       -6.7210     1.2700    -1.1880 O.2   1 <1>  -0.5700 
 11 N       -7.7620     3.2440    -0.8810 N.am  1 <1>  -0.6600 
 12 C       -8.9320     2.8750    -1.7290 C.3   1 <1>   0.1400 
 13 C       -7.9420     4.5230    -0.1420 C.3   1 <1>   0.1400 
 14 C      -10.1960     2.8040    -0.8690 C.3   1 <1>  -0.1600 
 15 C       -9.2090     4.4530     0.7170 C.3   1 <1>  -0.1600 
 16 C      -10.4660     4.1230    -0.1120 C.3   1 <1>   0.2800 
 17 O      -10.6160     5.1210    -1.1020 O.3   1 <1>  -0.5600 
 18 C      -11.7370     4.0800     0.7980 C.3   1 <1>   0.2000 
 19 C      -11.2580     6.3060    -0.7290 C.3   1 <1>   0.1200 
 20 O      -11.9770     2.8230     1.3590 O.3   1 <1>  -0.6800 
 21 C      -13.0060     4.6180     0.0860 C.3   1 <1>   0.2800 
 22 C      -12.7450     6.0410    -0.4420 C.3   1 <1>  -0.1600 
 23 O      -14.0200     4.6930     1.0270 O.3   1 <1>  -0.6800 
 24 C      -13.5510     3.7140    -1.0290 C.3   1 <1>  -0.2400 
 25 H       -2.9770    -0.7100     1.0260 H     1 <1>   0.1500 
 26 H       -1.0360     3.0430     0.5250 H     1 <1>   0.1500 
 27 H       -5.1320     0.3160     0.4220 H     1 <1>   0.1500 
 28 H       -3.1890     4.0790    -0.0900 H     1 <1>   0.1500 
 29 H       -5.5250     3.9130    -0.1640 H     1 <1>   0.3700 
 30 H       -9.0550     3.6170    -2.4990 H     1 <1>   0.0800 
 31 H       -8.7720     1.9250    -2.2100 H     1 <1>   0.0800 
 32 H       -7.1010     4.7230     0.4970 H     1 <1>   0.0800 
 33 H       -8.0280     5.3280    -0.8530 H     1 <1>   0.0800 
 34 H      -10.0710     2.0010    -0.1650 H     1 <1>   0.0800 
 35 H      -11.0300     2.5490    -1.4900 H     1 <1>   0.0800 
 36 H       -9.3360     5.3810     1.2410 H     1 <1>   0.0800 
 37 H       -9.0740     3.6880     1.4620 H     1 <1>   0.0800 
 38 H      -11.5540     4.7350     1.6310 H     1 <1>   0.0800 
 39 H      -10.7640     6.7090     0.1380 H     1 <1>   0.0800 
 40 H      -11.1520     7.0080    -1.5380 H     1 <1>   0.0800 
 41 H      -12.8660     2.8570     1.7700 H     1 <1>   0.4000 
 42 H      -13.3010     6.2100    -1.3470 H     1 <1>   0.0800 
 43 H      -13.0700     6.7740     0.2750 H     1 <1>   0.0800 
 44 H      -14.8480     4.9670     0.5900 H     1 <1>   0.4000 
 45 H      -12.8810     3.7200    -1.8690 H     1 <1>   0.0800 
 46 H      -14.5060     4.0640    -1.3770 H     1 <1>   0.0800 
 47 H      -13.6510     2.7010    -0.6850 H     1 <1>   0.0800 
@<TRIPOS>BOND
  1   1   2  1   
  2   2   3  ar  
  3   2   4  ar  
  4   3   5  ar  
  5   3  25  1   
  6   4   6  ar  
  7   4  26  1   
  8   5   7  ar  
  9   5  27  1   
 10   6   7  ar  
 11   6  28  1   
 12   7   8  1   
 13   8   9  am  
 14   8  29  1   
 15   9  10  2   
 16   9  11  am  
 17  11  12  1   
 18  11  13  1   
 19  12  14  1   
 20  12  30  1   
 21  12  31  1   
 22  13  15  1   
 23  13  32  1   
 24  13  33  1   
 25  14  16  1   
 26  14  34  1   
 27  14  35  1   
 28  15  16  1   
 29  15  36  1   
 30  15  37  1   
 31  16  17  1   
 32  16  18  1   
 33  17  19  1   
 34  18  20  1   
 35  18  21  1   
 36  18  38  1   
 37  19  22  1   
 38  19  39  1   
 39  19  40  1   
 40  20  41  1   
 41  21  22  1   
 42  21  23  1   
 43  21  24  1   
 44  22  42  1   
 45  22  43  1   
 46  23  44  1   
 47  24  45  1   
 48  24  46  1   
 49  24  47  1   
@<TRIPOS>SUBSTRUCTURE
  1 ****  11 GROUP 4 **** **** 0

# MOE 2024.06 (io_trps.svl 2023.06)
