@<TRIPOS>MOLECULE
NONAME
47 49 1 0 0 
SMALL
USER_CHARGES


@<TRIPOS>ATOM
  1 O        0.0370     1.4720    -1.3800 O.2   1 <1>  -0.5700 
  2 C       -0.8670     1.4480    -0.5780 C.2   1 <1>   0.5690 
  3 N       -1.6810     2.5270    -0.3780 N.am  1 <1>  -0.6600 
  4 C       -1.0670     0.1680     0.2150 C.3   1 <1>  -0.0990 
  5 C       -2.7780     2.5560     0.6250 C.3   1 <1>   0.1400 
  6 C       -1.5520     3.7730    -1.2180 C.3   1 <1>   0.2010 
  7 C       -2.4090    -0.5210    -0.0810 C.3   1 <1>  -0.1600 
  8 C       -3.8890     1.5720     0.2470 C.3   1 <1>  -0.1600 
  9 C       -1.0900     5.0080    -0.4300 C.2   1 <1>   0.5690 
 10 C       -3.5990     0.1180     0.6490 C.3   1 <1>  -0.1600 
 11 O       -1.9640     5.6830     0.0650 O.2   1 <1>  -0.5700 
 12 N        0.2420     5.3230    -0.2690 N.am  1 <1>  -0.6600 
 13 C        0.5920     6.5910     0.4880 C.3   1 <1>   0.4000 
 14 C        1.2610     4.2280    -0.3930 C.3   1 <1>   0.1400 
 15 C       -0.1270     7.8410    -0.0380 C.2   1 <1>   0.2980 
 16 C        2.0990     6.9110     0.4980 C.3   1 <1>  -0.1600 
 17 C        2.7130     4.7050    -0.4010 C.3   1 <1>  -0.1600 
 18 O       -0.2060     8.0240    -1.3350 O.3   1 <1>  -0.0190 
 19 N       -0.6440     8.7650     0.6750 N.2   1 <1>  -0.5650 
 20 C        2.9840     5.6910     0.7280 C.3   1 <1>  -0.1600 
 21 N       -0.8360     9.1530    -1.4560 N.2   1 <1>  -0.4100 
 22 C       -1.0910     9.5640    -0.2790 C.2   1 <1>   0.3350 
 23 C       -1.8290    10.8360     0.0570 C.3   1 <1>  -0.0590 
 24 H       -0.9670     0.3750     1.2640 H     1 <1>   0.0800 
 25 H       -0.2740    -0.5080    -0.0530 H     1 <1>   0.0800 
 26 H       -3.1970     3.5470     0.6720 H     1 <1>   0.0800 
 27 H       -2.3860     2.3270     1.6020 H     1 <1>   0.0800 
 28 H       -2.5150     3.9950    -1.6410 H     1 <1>   0.0800 
 29 H       -0.8870     3.6080    -2.0440 H     1 <1>   0.0800 
 30 H       -2.3380    -1.5480     0.2330 H     1 <1>   0.0800 
 31 H       -2.5870    -0.5220    -1.1430 H     1 <1>   0.0800 
 32 H       -4.0940     1.6400    -0.8070 H     1 <1>   0.0800 
 33 H       -4.7820     1.8780     0.7640 H     1 <1>   0.0800 
 34 H       -3.4340     0.0670     1.7120 H     1 <1>   0.0800 
 35 H       -4.4760    -0.4710     0.4380 H     1 <1>   0.0800 
 36 H        0.2800     6.4450     1.5070 H     1 <1>   0.0800 
 37 H        1.1020     3.6850    -1.3060 H     1 <1>   0.0800 
 38 H        1.1220     3.5430     0.4260 H     1 <1>   0.0800 
 39 H        2.2870     7.6410     1.2650 H     1 <1>   0.0800 
 40 H        2.3660     7.3650    -0.4410 H     1 <1>   0.0800 
 41 H        2.9280     5.1600    -1.3520 H     1 <1>   0.0800 
 42 H        3.3580     3.8500    -0.3000 H     1 <1>   0.0800 
 43 H        2.7650     5.2400     1.6820 H     1 <1>   0.0800 
 44 H        4.0200     5.9830     0.7180 H     1 <1>   0.0800 
 45 H       -1.1960    11.4750     0.6430 H     1 <1>   0.0800 
 46 H       -2.7120    10.5980     0.6200 H     1 <1>   0.0800 
 47 H       -2.1120    11.3470    -0.8450 H     1 <1>   0.0800 
@<TRIPOS>BOND
  1   1   2  2   
  2   2   3  am  
  3   2   4  1   
  4   3   5  1   
  5   3   6  1   
  6   4   7  1   
  7   4  24  1   
  8   4  25  1   
  9   5   8  1   
 10   5  26  1   
 11   5  27  1   
 12   6   9  1   
 13   6  28  1   
 14   6  29  1   
 15   7  10  1   
 16   7  30  1   
 17   7  31  1   
 18   8  10  1   
 19   8  32  1   
 20   8  33  1   
 21   9  11  2   
 22   9  12  am  
 23  10  34  1   
 24  10  35  1   
 25  12  13  1   
 26  12  14  1   
 27  13  15  1   
 28  13  16  1   
 29  13  36  1   
 30  14  17  1   
 31  14  37  1   
 32  14  38  1   
 33  15  18  1   
 34  15  19  2   
 35  16  20  1   
 36  16  39  1   
 37  16  40  1   
 38  17  20  1   
 39  17  41  1   
 40  17  42  1   
 41  18  21  1   
 42  19  22  1   
 43  20  43  1   
 44  20  44  1   
 45  21  22  2   
 46  22  23  1   
 47  23  45  1   
 48  23  46  1   
 49  23  47  1   
@<TRIPOS>SUBSTRUCTURE
  1 ****   9 GROUP 4 **** **** 0

# MOE 2024.06 (io_trps.svl 2023.06)
