@<TRIPOS>MOLECULE
NONAME
49 52 1 0 0 
SMALL
USER_CHARGES


@<TRIPOS>ATOM
  1 O       -1.5640    -0.3700    -1.0540 O.3   1 <1>  -0.6800 
  2 C       -1.9820    -1.4070    -0.2360 C.3   1 <1>   0.2000 
  3 C       -2.5320    -2.5600    -1.0960 C.3   1 <1>   0.2090 
  4 C       -3.0600    -0.8550     0.7020 C.3   1 <1>  -0.1600 
  5 N       -3.1120    -3.6400    -0.2250 N.pl3 1 <1>  -0.8380 
  6 C       -3.6910    -1.9880     1.5290 C.3   1 <1>  -0.1600 
  7 C       -2.7690    -4.9540    -0.2790 C.ar  1 <1>   0.4100 
  8 C       -4.2170    -3.1260     0.6460 C.3   1 <1>   0.2090 
  9 N       -3.6910    -5.8440     0.0440 N.ar  1 <1>  -0.6200 
 10 C       -1.4750    -5.3580    -0.6630 C.ar  1 <1>  -0.1500 
 11 C       -3.3840    -7.1180    -0.0310 C.ar  1 <1>   0.7710 
 12 C       -1.1840    -6.6790    -0.7260 C.ar  1 <1>   0.2110 
 13 N       -2.1660    -7.5600    -0.4090 N.ar  1 <1>  -0.1790 
 14 N       -4.3840    -7.9450     0.3020 N.pl3 1 <1>  -0.8690 
 15 C       -4.5770    -9.4220     0.2910 C.3   1 <1>   0.3770 
 16 C       -6.0650    -9.7590     0.1440 C.2   1 <1>   0.1820 
 17 N       -6.8810    -9.2130    -0.8200 N.pl3 1 <1>  -0.7000 
 18 C       -6.8230   -10.5960     0.8850 C.2   1 <1>   0.2000 
 19 C       -8.1190    -9.7170    -0.6630 C.cat 1 <1>   0.7910 
 20 N       -8.1070   -10.5750     0.3830 N.pl3 1 <1>  -0.6290 
 21 C       -9.3010    -9.4810    -1.3820 C.2   1 <1>  -0.1410 
 22 C       -9.2600   -11.2320     0.7570 C.2   1 <1>   0.2290 
 23 C      -10.4520   -10.1270    -1.0190 C.2   1 <1>  -0.1500 
 24 C      -10.4260   -11.0200     0.0730 C.2   1 <1>  -0.1380 
 25 C      -11.7200   -11.7240     0.4530 C.3   1 <1>  -0.1020 
 26 H       -0.7250    -0.5880    -1.5020 H     1 <1>   0.4000 
 27 H       -1.1340    -1.7440     0.3350 H     1 <1>   0.0800 
 28 H       -1.7590    -2.9460    -1.7310 H     1 <1>   0.0800 
 29 H       -3.3170    -2.1750    -1.7260 H     1 <1>   0.0800 
 30 H       -3.8280    -0.3770     0.1180 H     1 <1>   0.0800 
 31 H       -2.6250    -0.1240     1.3610 H     1 <1>   0.0800 
 32 H       -4.5020    -1.5930     2.1140 H     1 <1>   0.0800 
 33 H       -2.9620    -2.3880     2.2120 H     1 <1>   0.0800 
 34 H       -4.6060    -3.9050     1.2790 H     1 <1>   0.0800 
 35 H       -5.0200    -2.7670     0.0250 H     1 <1>   0.0800 
 36 H       -0.7340    -4.6140    -0.8830 H     1 <1>   0.1500 
 37 H       -0.2100    -7.0490    -1.0110 H     1 <1>   0.1500 
 38 H       -1.9990    -8.5590    -0.4210 H     1 <1>   0.4570 
 39 H       -5.2020    -7.4280     0.6500 H     1 <1>   0.4000 
 40 H       -4.2060    -9.8400     1.2120 H     1 <1>   0.0800 
 41 H       -4.0370    -9.8600    -0.5310 H     1 <1>   0.0800 
 42 H       -6.6370    -8.5270    -1.5390 H     1 <1>   0.4500 
 43 H       -6.5470   -11.2040     1.7320 H     1 <1>   0.1500 
 44 H       -9.2800    -8.7930    -2.2060 H     1 <1>   0.1500 
 45 H       -9.2090   -11.9080     1.5970 H     1 <1>   0.1500 
 46 H      -11.3770    -9.9670    -1.5510 H     1 <1>   0.1500 
 47 H      -12.0780   -12.3120    -0.3730 H     1 <1>   0.0800 
 48 H      -12.4730   -10.9990     0.7100 H     1 <1>   0.0800 
 49 H      -11.5760   -12.3760     1.2970 H     1 <1>   0.0800 
@<TRIPOS>BOND
  1   1   2  1   
  2   1  26  1   
  3   2   3  1   
  4   2   4  1   
  5   2  27  1   
  6   3   5  1   
  7   3  28  1   
  8   3  29  1   
  9   4   6  1   
 10   4  30  1   
 11   4  31  1   
 12   5   7  1   
 13   5   8  1   
 14   6   8  1   
 15   6  32  1   
 16   6  33  1   
 17   7   9  ar  
 18   7  10  ar  
 19   8  34  1   
 20   8  35  1   
 21   9  11  ar  
 22  10  12  ar  
 23  10  36  1   
 24  11  13  ar  
 25  11  14  1   
 26  12  13  ar  
 27  12  37  1   
 28  13  38  1   
 29  14  15  1   
 30  14  39  1   
 31  15  16  1   
 32  15  40  1   
 33  15  41  1   
 34  16  17  1   
 35  16  18  2   
 36  17  19  ar  
 37  17  42  1   
 38  18  20  1   
 39  18  43  1   
 40  19  20  ar  
 41  19  21  1   
 42  20  22  1   
 43  21  23  2   
 44  21  44  1   
 45  22  24  2   
 46  22  45  1   
 47  23  24  1   
 48  23  46  1   
 49  24  25  1   
 50  25  47  1   
 51  25  48  1   
 52  25  49  1   
@<TRIPOS>SUBSTRUCTURE
  1 ****  14 GROUP 4 **** **** 0

# MOE 2024.06 (io_trps.svl 2023.06)
