@<TRIPOS>MOLECULE
NONAME
54 58 1 0 0 
SMALL
USER_CHARGES


@<TRIPOS>ATOM
  1 O       -0.4730     0.3800    -1.4000 O.2   1 <1>  -0.5700 
  2 C       -1.2470     0.9110    -0.6260 C.2   1 <1>   0.7150 
  3 N       -2.1450     0.0870     0.0380 N.am  1 <1>  -0.6600 
  4 C       -1.2200     2.3510    -0.4490 C.2   1 <1>   0.0550 
  5 C       -2.9170     0.4730     1.2590 C.3   1 <1>   0.1400 
  6 C       -2.4130    -1.3080    -0.4220 C.3   1 <1>   0.1400 
  7 O       -2.3690     3.0200    -0.2460 O.3   1 <1>  -0.2800 
  8 C       -0.1880     3.2380    -0.4760 C.2   1 <1>  -0.1810 
  9 C       -4.4360     0.2790     1.0450 C.3   1 <1>   0.4230 
 10 C       -3.9220    -1.5120    -0.6510 C.3   1 <1>   0.3430 
 11 C       -2.0870     4.3170    -0.1400 C.ar  1 <1>   0.1400 
 12 C       -0.7280     4.5200    -0.2730 C.ar  1 <1>   0.0000 
 13 C        1.2960     2.9880    -0.6850 C.3   1 <1>  -0.0590 
 14 N       -4.7580    -1.1230     0.5500 N.4   1 <1>  -0.9590 
 15 C       -5.0080     1.3520     0.0880 C.3   1 <1>   0.1200 
 16 C       -2.9720     5.3630     0.0730 C.ar  1 <1>  -0.1500 
 17 C       -0.2210     5.8190    -0.1890 C.ar  1 <1>  -0.1500 
 18 C       -6.2330    -1.2260     0.2950 C.3   1 <1>   0.5180 
 19 O       -6.3830     1.1580    -0.0980 O.3   1 <1>  -0.5600 
 20 C       -2.4710     6.6470     0.1580 C.ar  1 <1>   0.0830 
 21 C       -1.0880     6.8710     0.0250 C.ar  1 <1>  -0.1500 
 22 C       -6.5720    -2.6160    -0.2560 C.3   1 <1>  -0.1950 
 23 C       -6.7410    -0.0910    -0.6220 C.3   1 <1>   0.1200 
 24 O       -3.3690     7.6400     0.3700 O.3   1 <1>  -0.3630 
 25 C       -7.8220    -3.3130     0.1860 C.3   1 <1>  -0.2000 
 26 C       -6.4790    -3.8450     0.5970 C.3   1 <1>  -0.2000 
 27 C       -2.9750     8.9930     0.4470 C.3   1 <1>   0.0400 
 28 H       -2.5980    -0.1480     2.0780 H     1 <1>   0.0800 
 29 H       -2.7130     1.4880     1.5500 H     1 <1>   0.0800 
 30 H       -1.8940    -1.5140    -1.3430 H     1 <1>   0.0800 
 31 H       -2.0530    -2.0050     0.3150 H     1 <1>   0.0800 
 32 H       -4.9160     0.4310     1.9980 H     1 <1>   0.0800 
 33 H       -4.0970    -2.5460    -0.8990 H     1 <1>   0.0800 
 34 H       -4.2130    -0.9170    -1.5010 H     1 <1>   0.0800 
 35 H        1.8560     3.3810     0.1450 H     1 <1>   0.0800 
 36 H        1.6240     3.4730    -1.5870 H     1 <1>   0.0800 
 37 H        1.5050     1.9370    -0.7690 H     1 <1>   0.0800 
 38 H       -4.5460    -1.7880     1.3010 H     1 <1>   0.4500 
 39 H       -4.5190     1.3290    -0.8710 H     1 <1>   0.0800 
 40 H       -4.8750     2.3330     0.5090 H     1 <1>   0.0800 
 41 H       -4.0240     5.1790     0.1680 H     1 <1>   0.1500 
 42 H        0.8360     5.9820    -0.2940 H     1 <1>   0.1500 
 43 H       -6.7460    -1.1200     1.2370 H     1 <1>   0.0800 
 44 H       -0.6880     7.8640     0.0890 H     1 <1>   0.1500 
 45 H       -6.3520    -2.7120    -1.3060 H     1 <1>   0.1000 
 46 H       -7.8150    -0.1220    -0.6830 H     1 <1>   0.0800 
 47 H       -6.3410    -0.1770    -1.6170 H     1 <1>   0.0800 
 48 H       -8.4490    -2.8790     0.9480 H     1 <1>   0.1000 
 49 H       -8.3930    -3.8780    -0.5330 H     1 <1>   0.1000 
 50 H       -6.1520    -4.7730     0.1560 H     1 <1>   0.1000 
 51 H       -6.2260    -3.7820     1.6420 H     1 <1>   0.1000 
 52 H       -3.8560     9.5880     0.6080 H     1 <1>   0.0800 
 53 H       -2.5090     9.2740    -0.4800 H     1 <1>   0.0800 
 54 H       -2.2980     9.1140     1.2740 H     1 <1>   0.0800 
@<TRIPOS>BOND
  1   1   2  2   
  2   2   3  am  
  3   2   4  1   
  4   3   5  1   
  5   3   6  1   
  6   4   7  1   
  7   4   8  2   
  8   5   9  1   
  9   5  28  1   
 10   5  29  1   
 11   6  10  1   
 12   6  30  1   
 13   6  31  1   
 14   7  11  1   
 15   8  12  1   
 16   8  13  1   
 17   9  14  1   
 18   9  15  1   
 19   9  32  1   
 20  10  14  1   
 21  10  33  1   
 22  10  34  1   
 23  11  12  ar  
 24  11  16  ar  
 25  12  17  ar  
 26  13  35  1   
 27  13  36  1   
 28  13  37  1   
 29  14  18  1   
 30  14  38  1   
 31  15  19  1   
 32  15  39  1   
 33  15  40  1   
 34  16  20  ar  
 35  16  41  1   
 36  17  21  ar  
 37  17  42  1   
 38  18  22  1   
 39  18  23  1   
 40  18  43  1   
 41  19  23  1   
 42  20  21  ar  
 43  20  24  1   
 44  21  44  1   
 45  22  25  1   
 46  22  26  1   
 47  22  45  1   
 48  23  46  1   
 49  23  47  1   
 50  24  27  1   
 51  25  26  1   
 52  25  48  1   
 53  25  49  1   
 54  26  50  1   
 55  26  51  1   
 56  27  52  1   
 57  27  53  1   
 58  27  54  1   
@<TRIPOS>SUBSTRUCTURE
  1 ****   7 GROUP 4 **** **** 0

# MOE 2024.06 (io_trps.svl 2023.06)
