@<TRIPOS>MOLECULE
NONAME
42 43 1 0 0 
SMALL
USER_CHARGES


@<TRIPOS>ATOM
  1 F        2.0020    -0.1620     2.2720 F     1 <1>  -0.3400 
  2 C        2.2210    -0.6010     1.0380 C.3   1 <1>   1.0200 
  3 F        2.9290    -1.7150     1.1630 F     1 <1>  -0.3400 
  4 F        1.0380    -0.9670     0.5590 F     1 <1>  -0.3400 
  5 C        2.9540     0.4410     0.1430 C.3   1 <1>   0.1100 
  6 N        2.3750     1.8150    -0.0750 N.3   1 <1>  -0.8100 
  7 C        2.3760     2.6270     1.1590 C.3   1 <1>   0.2540 
  8 C        1.0630     1.8460    -0.7450 C.3   1 <1>   0.1100 
  9 C        2.2560     4.1110     0.8380 C.ar  1 <1>  -0.1440 
 10 C        1.1630     1.2880    -2.1620 C.3   1 <1>  -0.2400 
 11 C        3.0830     4.6860    -0.1130 C.ar  1 <1>  -0.1500 
 12 C        1.3270     4.9040     1.4930 C.ar  1 <1>  -0.1500 
 13 C        2.9930     6.0340    -0.4150 C.ar  1 <1>  -0.1430 
 14 C        1.2300     6.2540     1.2040 C.ar  1 <1>  -0.1500 
 15 C        2.0660     6.8290     0.2500 C.ar  1 <1>   0.0820 
 16 C        3.9190     6.6230    -1.4700 C.3   1 <1>   0.2390 
 17 O        2.0300     8.1490    -0.0680 O.3   1 <1>  -0.3630 
 18 N        5.1960     7.0500    -0.8670 N.pl3 1 <1>   0.3140 
 19 C        1.1370     9.0380     0.5670 C.3   1 <1>   0.0400 
 20 N        6.3830     6.6950    -1.3500 N.2   1 <1>  -0.7070 
 21 C        5.3900     7.8370     0.1960 C.2   1 <1>   0.0360 
 22 C        7.1990     7.2910    -0.5440 C.2   1 <1>   0.3660 
 23 N        6.6390     8.0160     0.4330 N.2   1 <1>  -0.5650 
 24 H        3.1020    -0.0200    -0.8150 H     1 <1>   0.0800 
 25 H        3.9350     0.5670     0.5630 H     1 <1>   0.0800 
 26 H        3.3020     2.4790     1.6880 H     1 <1>   0.0800 
 27 H        1.5680     2.3210     1.8020 H     1 <1>   0.0800 
 28 H        0.7280     2.8680    -0.8200 H     1 <1>   0.0800 
 29 H        0.3270     1.3050    -0.1740 H     1 <1>   0.0800 
 30 H        1.9590     1.7770    -2.6960 H     1 <1>   0.0800 
 31 H        0.2410     1.4740    -2.6820 H     1 <1>   0.0800 
 32 H        1.3270     0.2270    -2.1530 H     1 <1>   0.0800 
 33 H        3.8030     4.0640    -0.6210 H     1 <1>   0.1500 
 34 H        0.6750     4.4740     2.2330 H     1 <1>   0.1500 
 35 H        0.5010     6.8370     1.7330 H     1 <1>   0.1500 
 36 H        3.4680     7.4700    -1.9520 H     1 <1>   0.0800 
 37 H        4.1310     5.8850    -2.2210 H     1 <1>   0.0800 
 38 H        1.2960    10.0210     0.1600 H     1 <1>   0.0800 
 39 H        1.3410     9.0430     1.6240 H     1 <1>   0.0800 
 40 H        0.1280     8.7210     0.3700 H     1 <1>   0.0800 
 41 H        4.5780     8.2540     0.7650 H     1 <1>   0.1500 
 42 H        8.2710     7.2250    -0.6330 H     1 <1>   0.1500 
@<TRIPOS>BOND
  1   1   2  1   
  2   2   3  1   
  3   2   4  1   
  4   2   5  1   
  5   5   6  1   
  6   5  24  1   
  7   5  25  1   
  8   6   7  1   
  9   6   8  1   
 10   7   9  1   
 11   7  26  1   
 12   7  27  1   
 13   8  10  1   
 14   8  28  1   
 15   8  29  1   
 16   9  11  ar  
 17   9  12  ar  
 18  10  30  1   
 19  10  31  1   
 20  10  32  1   
 21  11  13  ar  
 22  11  33  1   
 23  12  14  ar  
 24  12  34  1   
 25  13  15  ar  
 26  13  16  1   
 27  14  15  ar  
 28  14  35  1   
 29  15  17  1   
 30  16  18  1   
 31  16  36  1   
 32  16  37  1   
 33  17  19  1   
 34  18  20  1   
 35  18  21  1   
 36  19  38  1   
 37  19  39  1   
 38  19  40  1   
 39  20  22  2   
 40  21  23  2   
 41  21  41  1   
 42  22  23  1   
 43  22  42  1   
@<TRIPOS>SUBSTRUCTURE
  1 ****  11 GROUP 4 **** **** 0

# MOE 2024.06 (io_trps.svl 2023.06)
