@<TRIPOS>MOLECULE
NONAME
57 60 1 0 0 
SMALL
USER_CHARGES


@<TRIPOS>ATOM
  1 O       -2.2860    -0.0880     0.2420 O.3   1 <1>  -0.3630 
  2 C       -2.0410    -1.0860    -0.6430 C.ar  1 <1>   0.0820 
  3 C       -2.0380     1.2730    -0.0330 C.3   1 <1>   0.2000 
  4 C       -2.2110    -2.3750    -0.1690 C.ar  1 <1>  -0.1500 
  5 C       -1.6470    -0.8900    -1.9630 C.ar  1 <1>  -0.1500 
  6 C       -0.5380     1.5430     0.1060 C.3   1 <1>  -0.2400 
  7 C       -2.8380     2.0860     0.9820 C.3   1 <1>  -0.2400 
  8 C       -2.0050    -3.4700    -0.9940 C.ar  1 <1>  -0.1440 
  9 C       -1.4280    -1.9800    -2.7870 C.ar  1 <1>  -0.1500 
 10 C       -1.6060    -3.2660    -2.3070 C.ar  1 <1>  -0.1500 
 11 C       -2.2240    -4.8690    -0.4580 C.3   1 <1>   0.4860 
 12 N       -3.5310    -5.3670    -0.9670 N.4   1 <1>  -0.9590 
 13 C       -4.6650    -4.6140    -0.3350 C.3   1 <1>   0.3430 
 14 C       -3.7230    -6.8090    -0.6190 C.3   1 <1>   0.3430 
 15 C       -5.1640    -5.5020     0.8070 C.3   1 <1>   0.2000 
 16 C       -5.0090    -6.9000     0.2100 C.3   1 <1>  -0.0800 
 17 O       -4.3000    -5.3530     1.8880 O.3   1 <1>  -0.6800 
 18 C       -5.0060    -8.0800     1.2060 C.3   1 <1>  -0.0170 
 19 C       -4.6270    -9.3730     0.4910 C.ar  1 <1>  -0.1440 
 20 C       -5.5060   -10.0380    -0.3970 C.ar  1 <1>   0.0000 
 21 C       -3.3890    -9.9170     0.6800 C.ar  1 <1>  -0.1500 
 22 C       -5.0110   -11.1760    -1.0800 C.ar  1 <1>   0.3100 
 23 C       -6.8440    -9.6500    -0.6460 C.ar  1 <1>  -0.1500 
 24 C       -3.0090   -11.0650    -0.0240 C.ar  1 <1>   0.1600 
 25 N       -3.7630   -11.6690    -0.8850 N.ar  1 <1>  -0.6200 
 26 C       -5.8410   -11.8320    -2.0020 C.ar  1 <1>  -0.1500 
 27 C       -7.6300   -10.3150    -1.5470 C.ar  1 <1>  -0.1500 
 28 C       -7.1220   -11.4160    -2.2400 C.ar  1 <1>  -0.1500 
 29 H       -2.3920     1.5010    -1.0230 H     1 <1>   0.0800 
 30 H       -2.5070    -2.4980     0.8590 H     1 <1>   0.1500 
 31 H       -1.5030     0.0950    -2.3640 H     1 <1>   0.1500 
 32 H       -0.2050     1.2930     1.0970 H     1 <1>   0.0800 
 33 H       -0.3360     2.5840    -0.0700 H     1 <1>   0.0800 
 34 H        0.0210     0.9680    -0.6090 H     1 <1>   0.0800 
 35 H       -2.5240     1.8500     1.9830 H     1 <1>   0.0800 
 36 H       -3.8860     1.8730     0.8780 H     1 <1>   0.0800 
 37 H       -2.6870     3.1370     0.8130 H     1 <1>   0.0800 
 38 H       -1.1170    -1.8220    -3.8070 H     1 <1>   0.1500 
 39 H       -1.4230    -4.0960    -2.9680 H     1 <1>   0.1500 
 40 H       -2.2250    -4.8570     0.6210 H     1 <1>   0.0800 
 41 H       -1.4240    -5.5080    -0.7940 H     1 <1>   0.0800 
 42 H       -3.5420    -5.2140    -1.9830 H     1 <1>   0.4500 
 43 H       -4.3700    -3.6430     0.0260 H     1 <1>   0.0800 
 44 H       -5.4570    -4.4920    -1.0560 H     1 <1>   0.0800 
 45 H       -3.7980    -7.4240    -1.5030 H     1 <1>   0.0800 
 46 H       -2.8950    -7.1570    -0.0240 H     1 <1>   0.0800 
 47 H       -6.1680    -5.2590     1.1150 H     1 <1>   0.0800 
 48 H       -5.8140    -7.0490    -0.4870 H     1 <1>   0.0800 
 49 H       -4.7280    -5.6310     2.7260 H     1 <1>   0.4000 
 50 H       -5.9700    -8.1840     1.6730 H     1 <1>   0.0800 
 51 H       -4.2940    -7.9010     1.9930 H     1 <1>   0.0800 
 52 H       -2.6750    -9.4910     1.3610 H     1 <1>   0.1500 
 53 H       -7.2660    -8.8210    -0.1110 H     1 <1>   0.1500 
 54 H       -2.0250   -11.4680     0.1550 H     1 <1>   0.1500 
 55 H       -5.4340   -12.6840    -2.5170 H     1 <1>   0.1500 
 56 H       -8.6460   -10.0100    -1.7300 H     1 <1>   0.1500 
 57 H       -7.7490   -11.9300    -2.9490 H     1 <1>   0.1500 
@<TRIPOS>BOND
  1   1   2  1   
  2   1   3  1   
  3   2   4  ar  
  4   2   5  ar  
  5   3   6  1   
  6   3   7  1   
  7   3  29  1   
  8   4   8  ar  
  9   4  30  1   
 10   5   9  ar  
 11   5  31  1   
 12   6  32  1   
 13   6  33  1   
 14   6  34  1   
 15   7  35  1   
 16   7  36  1   
 17   7  37  1   
 18   8  10  ar  
 19   8  11  1   
 20   9  10  ar  
 21   9  38  1   
 22  10  39  1   
 23  11  12  1   
 24  11  40  1   
 25  11  41  1   
 26  12  13  1   
 27  12  14  1   
 28  12  42  1   
 29  13  15  1   
 30  13  43  1   
 31  13  44  1   
 32  14  16  1   
 33  14  45  1   
 34  14  46  1   
 35  15  16  1   
 36  15  17  1   
 37  15  47  1   
 38  16  18  1   
 39  16  48  1   
 40  17  49  1   
 41  18  19  1   
 42  18  50  1   
 43  18  51  1   
 44  19  20  ar  
 45  19  21  ar  
 46  20  22  ar  
 47  20  23  ar  
 48  21  24  ar  
 49  21  52  1   
 50  22  25  ar  
 51  22  26  ar  
 52  23  27  ar  
 53  23  53  1   
 54  24  25  ar  
 55  24  54  1   
 56  26  28  ar  
 57  26  55  1   
 58  27  28  ar  
 59  27  56  1   
 60  28  57  1   
@<TRIPOS>SUBSTRUCTURE
  1 ****  12 GROUP 4 **** **** 0

# MOE 2024.06 (io_trps.svl 2023.06)
