@<TRIPOS>MOLECULE
NONAME
51 54 1 0 0 
SMALL
USER_CHARGES


@<TRIPOS>ATOM
  1 O        2.4190    -1.0430    -2.5080 O.2   1 <1>  -0.5700 
  2 C        1.7610    -1.4710    -1.5740 C.2   1 <1>   0.5440 
  3 N        1.1280    -0.5470    -0.7630 N.am  1 <1>  -0.6600 
  4 C        1.7120    -2.9160    -1.3530 C.ar  1 <1>   0.3960 
  5 C        0.4640    -0.8410     0.5260 C.3   1 <1>   0.1400 
  6 C        1.2470     0.9140    -0.9720 C.3   1 <1>   0.1400 
  7 N        0.5780    -3.5280    -0.9590 N.ar  1 <1>  -0.6200 
  8 C        2.8880    -3.6380    -1.5820 C.ar  1 <1>   0.1600 
  9 C        0.0310     0.5170     1.0700 C.3   1 <1>  -0.1600 
 10 C        0.9530     1.5250     0.3910 C.3   1 <1>  -0.1600 
 11 C        0.7030    -4.8370    -0.8350 C.ar  1 <1>   0.4100 
 12 N        3.0320    -4.9490    -1.4370 N.ar  1 <1>  -0.6200 
 13 N       -0.4490    -5.5150    -0.4810 N.pl3 1 <1>  -0.8380 
 14 C        1.9070    -5.5180    -1.0620 C.ar  1 <1>   0.1600 
 15 C       -1.4800    -5.5900    -1.5600 C.3   1 <1>   0.2090 
 16 C       -1.0050    -5.1850     0.8660 C.3   1 <1>   0.2090 
 17 C       -2.6540    -6.5100    -1.1620 C.3   1 <1>   0.3430 
 18 C       -2.1830    -6.1130     1.2340 C.3   1 <1>   0.3430 
 19 N       -3.2620    -6.1410     0.1740 N.4   1 <1>  -0.9590 
 20 C       -4.3480    -7.0930     0.5890 C.3   1 <1>   0.3430 
 21 C       -5.6100    -7.0120    -0.2830 C.3   1 <1>   0.0960 
 22 N       -6.5600    -8.0390     0.1710 N.pl3 1 <1>   0.3140 
 23 N       -6.1570    -9.1700     0.7300 N.2   1 <1>  -0.7070 
 24 C       -7.8950    -8.0380     0.1150 C.2   1 <1>   0.0360 
 25 C       -7.2770    -9.7750     0.9710 C.2   1 <1>   0.3660 
 26 N       -8.3830    -9.1150     0.6110 N.2   1 <1>  -0.5650 
 27 H        1.1720    -1.3060     1.1910 H     1 <1>   0.0800 
 28 H       -0.3850    -1.4850     0.3820 H     1 <1>   0.0800 
 29 H        0.5120     1.2240    -1.6950 H     1 <1>   0.0800 
 30 H        2.2310     1.1810    -1.3220 H     1 <1>   0.0800 
 31 H        3.7580    -3.0910    -1.9040 H     1 <1>   0.1500 
 32 H        0.0970     0.5590     2.1430 H     1 <1>   0.0800 
 33 H       -0.9880     0.7020     0.7760 H     1 <1>   0.0800 
 34 H        0.5060     2.5000     0.3040 H     1 <1>   0.0800 
 35 H        1.8740     1.6090     0.9410 H     1 <1>   0.0800 
 36 H        1.9100    -6.5840    -0.9240 H     1 <1>   0.1500 
 37 H       -1.0220    -5.9670    -2.4590 H     1 <1>   0.0800 
 38 H       -1.8480    -4.6000    -1.7740 H     1 <1>   0.0800 
 39 H       -1.3330    -4.1590     0.8790 H     1 <1>   0.0800 
 40 H       -0.2270    -5.2880     1.6040 H     1 <1>   0.0800 
 41 H       -2.2830    -7.5220    -1.1210 H     1 <1>   0.0800 
 42 H       -3.4020    -6.4660    -1.9360 H     1 <1>   0.0800 
 43 H       -2.6000    -5.7900     2.1740 H     1 <1>   0.0800 
 44 H       -1.7910    -7.1070     1.3740 H     1 <1>   0.0800 
 45 H       -3.6350    -5.1840     0.1030 H     1 <1>   0.4500 
 46 H       -4.6330    -6.8900     1.6090 H     1 <1>   0.0800 
 47 H       -3.9670    -8.1020     0.5530 H     1 <1>   0.0800 
 48 H       -5.3800    -7.2160    -1.3120 H     1 <1>   0.0800 
 49 H       -6.0750    -6.0490    -0.1910 H     1 <1>   0.0800 
 50 H       -8.4760    -7.2330    -0.2980 H     1 <1>   0.1500 
 51 H       -7.3430   -10.7500     1.4310 H     1 <1>   0.1500 
@<TRIPOS>BOND
  1   1   2  2   
  2   2   3  am  
  3   2   4  1   
  4   3   5  1   
  5   3   6  1   
  6   4   7  ar  
  7   4   8  ar  
  8   5   9  1   
  9   5  27  1   
 10   5  28  1   
 11   6  10  1   
 12   6  29  1   
 13   6  30  1   
 14   7  11  ar  
 15   8  12  ar  
 16   8  31  1   
 17   9  10  1   
 18   9  32  1   
 19   9  33  1   
 20  10  34  1   
 21  10  35  1   
 22  11  13  1   
 23  11  14  ar  
 24  12  14  ar  
 25  13  15  1   
 26  13  16  1   
 27  14  36  1   
 28  15  17  1   
 29  15  37  1   
 30  15  38  1   
 31  16  18  1   
 32  16  39  1   
 33  16  40  1   
 34  17  19  1   
 35  17  41  1   
 36  17  42  1   
 37  18  19  1   
 38  18  43  1   
 39  18  44  1   
 40  19  20  1   
 41  19  45  1   
 42  20  21  1   
 43  20  46  1   
 44  20  47  1   
 45  21  22  1   
 46  21  48  1   
 47  21  49  1   
 48  22  23  1   
 49  22  24  1   
 50  23  25  2   
 51  24  26  2   
 52  24  50  1   
 53  25  26  1   
 54  25  51  1   
@<TRIPOS>SUBSTRUCTURE
  1 ****  13 GROUP 4 **** **** 0

# MOE 2024.06 (io_trps.svl 2023.06)
