@<TRIPOS>MOLECULE
NONAME
50 52 1 0 0 
SMALL
USER_CHARGES


@<TRIPOS>ATOM
  1 O       -0.6600     0.4700    -0.7420 O.2   1 <1>  -0.5700 
  2 C       -1.4000     1.0250     0.0290 C.2   1 <1>   0.5690 
  3 N       -1.1040     2.2010     0.6610 N.am  1 <1>  -0.5470 
  4 C       -2.7440     0.3850     0.2950 C.3   1 <1>  -0.0990 
  5 C        0.0690     2.9850     0.6160 C.ar  1 <1>   0.1170 
  6 C       -2.6600    -1.1120    -0.0110 C.3   1 <1>   0.3430 
  7 C        0.0170     4.3450     0.9300 C.ar  1 <1>   0.1600 
  8 C        1.3100     2.4620     0.2850 C.ar  1 <1>  -0.1500 
  9 N       -3.9750    -1.7840     0.1900 N.4   1 <1>  -0.9590 
 10 N        1.0420     5.1820     0.9410 N.ar  1 <1>  -0.6200 
 11 C        2.3910     3.3160     0.2850 C.ar  1 <1>  -0.1500 
 12 C       -5.0380    -1.4480    -0.7990 C.3   1 <1>   0.3430 
 13 C       -3.8850    -3.2750     0.1770 C.3   1 <1>   0.3430 
 14 C        2.2080     4.6470     0.6160 C.ar  1 <1>   0.1600 
 15 C       -6.0740    -2.5470    -0.5840 C.3   1 <1>   0.2000 
 16 C       -5.1960    -3.7930    -0.4350 C.3   1 <1>  -0.0800 
 17 O       -6.6970    -2.2760     0.6390 O.3   1 <1>  -0.5600 
 18 C       -5.8220    -4.9540     0.3620 C.3   1 <1>   0.0200 
 19 C       -8.0910    -2.3720     0.6320 C.3   1 <1>   0.0400 
 20 C       -4.8930    -6.1530     0.3900 C.2   1 <1>  -0.0400 
 21 O       -3.7460    -6.0760     1.0100 O.3   1 <1>  -0.0190 
 22 C       -4.9960    -7.3850    -0.1290 C.2   1 <1>  -0.1500 
 23 N       -3.0690    -7.1790     0.9190 N.2   1 <1>  -0.4100 
 24 C       -3.7990    -7.9920     0.2440 C.2   1 <1>   0.1080 
 25 C       -3.4040    -9.4120    -0.0950 C.3   1 <1>  -0.0590 
 26 H       -1.8530     2.6090     1.2190 H     1 <1>   0.3700 
 27 H       -3.0100     0.5310     1.3250 H     1 <1>   0.0800 
 28 H       -3.4670     0.8600    -0.3400 H     1 <1>   0.0800 
 29 H       -1.9210    -1.5570     0.6360 H     1 <1>   0.0800 
 30 H       -2.3280    -1.2530    -1.0290 H     1 <1>   0.0800 
 31 H       -0.9370     4.7690     1.1870 H     1 <1>   0.1500 
 32 H        1.4400     1.4240     0.0360 H     1 <1>   0.1500 
 33 H       -4.3750    -1.5430     1.1120 H     1 <1>   0.4500 
 34 H        3.3710     2.9540     0.0310 H     1 <1>   0.1500 
 35 H       -5.4630    -0.4730    -0.6260 H     1 <1>   0.0800 
 36 H       -4.6450    -1.5050    -1.8010 H     1 <1>   0.0800 
 37 H       -3.0490    -3.6080    -0.4180 H     1 <1>   0.0800 
 38 H       -3.7620    -3.6450     1.1830 H     1 <1>   0.0800 
 39 H        3.0610     5.3050     0.6120 H     1 <1>   0.1500 
 40 H       -6.7940    -2.6080    -1.3840 H     1 <1>   0.0800 
 41 H       -4.9630    -4.1570    -1.4210 H     1 <1>   0.0800 
 42 H       -6.7510    -5.2450    -0.0950 H     1 <1>   0.0800 
 43 H       -6.0300    -4.6550     1.3750 H     1 <1>   0.0800 
 44 H       -8.4470    -2.1710     1.6280 H     1 <1>   0.0800 
 45 H       -8.3850    -3.3650     0.3400 H     1 <1>   0.0800 
 46 H       -8.4970    -1.6420    -0.0470 H     1 <1>   0.0800 
 47 H       -5.7870    -7.8360    -0.7010 H     1 <1>   0.1500 
 48 H       -4.1190   -10.0990     0.3180 H     1 <1>   0.0800 
 49 H       -2.4350    -9.6320     0.3170 H     1 <1>   0.0800 
 50 H       -3.3650    -9.5380    -1.1610 H     1 <1>   0.0800 
@<TRIPOS>BOND
  1   1   2  2   
  2   2   3  am  
  3   2   4  1   
  4   3   5  1   
  5   3  26  1   
  6   4   6  1   
  7   4  27  1   
  8   4  28  1   
  9   5   7  ar  
 10   5   8  ar  
 11   6   9  1   
 12   6  29  1   
 13   6  30  1   
 14   7  10  ar  
 15   7  31  1   
 16   8  11  ar  
 17   8  32  1   
 18   9  12  1   
 19   9  13  1   
 20   9  33  1   
 21  10  14  ar  
 22  11  14  ar  
 23  11  34  1   
 24  12  15  1   
 25  12  35  1   
 26  12  36  1   
 27  13  16  1   
 28  13  37  1   
 29  13  38  1   
 30  14  39  1   
 31  15  16  1   
 32  15  17  1   
 33  15  40  1   
 34  16  18  1   
 35  16  41  1   
 36  17  19  1   
 37  18  20  1   
 38  18  42  1   
 39  18  43  1   
 40  19  44  1   
 41  19  45  1   
 42  19  46  1   
 43  20  21  1   
 44  20  22  2   
 45  21  23  1   
 46  22  24  1   
 47  22  47  1   
 48  23  24  2   
 49  24  25  1   
 50  25  48  1   
 51  25  49  1   
 52  25  50  1   
@<TRIPOS>SUBSTRUCTURE
  1 ****   6 GROUP 4 **** **** 0

# MOE 2024.06 (io_trps.svl 2023.06)
