@<TRIPOS>MOLECULE
NONAME
47 48 1 0 0 
SMALL
USER_CHARGES


@<TRIPOS>ATOM
  1 S        0.2500     0.3630    -0.4660 S.o2  1 <1>   1.3330 
  2 O       -1.1260     0.7690    -0.6320 O.2   1 <1>  -0.6500 
  3 O        1.0080    -0.0770    -1.6180 O.2   1 <1>  -0.6500 
  4 N        0.2540    -0.9010     0.6710 N.am  1 <1>  -0.8490 
  5 C        1.1510     1.6710     0.3780 C.3   1 <1>  -0.0550 
  6 C        0.1950    -2.2210     0.0340 C.3   1 <1>   0.1160 
  7 C       -0.8110    -0.7880     1.6740 C.3   1 <1>   0.1160 
  8 C        2.6940     1.5870     0.3760 C.3   1 <1>  -0.0800 
  9 C        3.3090     1.8110    -1.0090 C.3   1 <1>   0.2200 
 10 C        3.3300     0.2780     0.8550 C.3   1 <1>   0.1200 
 11 N        4.1220     3.0430    -0.9710 N.am  1 <1>  -0.7300 
 12 C        4.2050     0.5880    -1.1930 C.3   1 <1>   0.1200 
 13 O        4.4860     0.1450     0.0970 O.3   1 <1>  -0.5600 
 14 C        3.6130     4.3080    -1.0040 C.2   1 <1>   0.5440 
 15 O        2.4400     4.4410    -1.3000 O.2   1 <1>  -0.5700 
 16 C        4.4240     5.4670    -0.6890 C.ar  1 <1>   0.0860 
 17 C        5.5030     5.4280     0.2110 C.ar  1 <1>   0.3930 
 18 C        4.1420     6.6920    -1.2800 C.ar  1 <1>  -0.1500 
 19 O        5.7890     4.2590     0.8220 O.3   1 <1>  -0.3630 
 20 N        6.2760     6.4690     0.5200 N.ar  1 <1>  -0.6200 
 21 C        4.9320     7.7740    -0.9630 C.ar  1 <1>  -0.1500 
 22 C        6.8550     4.1110     1.7340 C.3   1 <1>   0.1200 
 23 C        5.9740     7.6100    -0.0700 C.ar  1 <1>   0.1600 
 24 C        6.8690     2.6570     2.1990 C.3   1 <1>  -0.2400 
 25 H        0.8850     2.6050    -0.0800 H     1 <1>   0.0800 
 26 H        0.8140     1.7210     1.3940 H     1 <1>   0.0800 
 27 H        0.2070    -2.9970     0.7800 H     1 <1>   0.0800 
 28 H        1.0490    -2.3610    -0.6070 H     1 <1>   0.0800 
 29 H       -0.7010    -2.3100    -0.5580 H     1 <1>   0.0800 
 30 H       -0.6970    -1.5550     2.4210 H     1 <1>   0.0800 
 31 H       -1.7780    -0.8910     1.2100 H     1 <1>   0.0800 
 32 H       -0.7640     0.1700     2.1620 H     1 <1>   0.0800 
 33 H        3.0420     2.3560     1.0440 H     1 <1>   0.0800 
 34 H        2.5840     1.8810    -1.8020 H     1 <1>   0.0800 
 35 H        2.7220    -0.5840     0.6550 H     1 <1>   0.0800 
 36 H        3.5950     0.3060     1.8980 H     1 <1>   0.0800 
 37 H        5.0280     2.9200    -0.5050 H     1 <1>   0.3700 
 38 H        5.1200     0.8110    -1.7110 H     1 <1>   0.0800 
 39 H        3.6720    -0.1960    -1.7030 H     1 <1>   0.0800 
 40 H        3.3200     6.7850    -1.9700 H     1 <1>   0.1500 
 41 H        4.7430     8.7380    -1.4030 H     1 <1>   0.1500 
 42 H        7.7730     4.3660     1.2320 H     1 <1>   0.0800 
 43 H        6.6920     4.7810     2.5610 H     1 <1>   0.0800 
 44 H        6.5880     8.4620     0.1710 H     1 <1>   0.1500 
 45 H        7.0100     1.9980     1.3600 H     1 <1>   0.0800 
 46 H        5.9440     2.4160     2.6900 H     1 <1>   0.0800 
 47 H        7.6760     2.5050     2.8920 H     1 <1>   0.0800 
@<TRIPOS>BOND
  1   1   2  2   
  2   1   3  2   
  3   1   4  am  
  4   1   5  1   
  5   4   6  1   
  6   4   7  1   
  7   5   8  1   
  8   5  25  1   
  9   5  26  1   
 10   6  27  1   
 11   6  28  1   
 12   6  29  1   
 13   7  30  1   
 14   7  31  1   
 15   7  32  1   
 16   8   9  1   
 17   8  10  1   
 18   8  33  1   
 19   9  11  1   
 20   9  12  1   
 21   9  34  1   
 22  10  13  1   
 23  10  35  1   
 24  10  36  1   
 25  11  14  am  
 26  11  37  1   
 27  12  13  1   
 28  12  38  1   
 29  12  39  1   
 30  14  15  2   
 31  14  16  1   
 32  16  17  ar  
 33  16  18  ar  
 34  17  19  1   
 35  17  20  ar  
 36  18  21  ar  
 37  18  40  1   
 38  19  22  1   
 39  20  23  ar  
 40  21  23  ar  
 41  21  41  1   
 42  22  24  1   
 43  22  42  1   
 44  22  43  1   
 45  23  44  1   
 46  24  45  1   
 47  24  46  1   
 48  24  47  1   
@<TRIPOS>SUBSTRUCTURE
  1 ****  11 GROUP 4 **** **** 0

# MOE 2024.06 (io_trps.svl 2023.06)
