@<TRIPOS>MOLECULE
NONAME
18 18 1 0 0 
SMALL
USER_CHARGES


@<TRIPOS>ATOM
  1 S        0.4060     0.5170     0.0130 S.2   1 <1>  -0.3800 
  2 C       -0.8240     1.5460     0.0120 C.2   1 <1>   0.7320 
  3 S       -2.4360     0.8560     0.0150 S.3   1 <1>  -0.1410 
  4 N       -0.7010     2.8770     0.0070 N.2   1 <1>  -0.6610 
  5 S       -3.3370     2.7370     0.0110 S.3   1 <1>  -0.1410 
  6 C       -1.7840     3.5930     0.0070 C.2   1 <1>   0.8020 
  7 N       -1.7430     4.9370     0.0030 N.2   1 <1>  -0.6610 
  8 C       -2.8130     5.6470     0.0010 C.2   1 <1>   0.4400 
  9 N       -2.8030     7.0020    -0.0030 N.pl3 1 <1>  -0.7880 
 10 C       -4.0600     7.7930    -0.0060 C.3   1 <1>   0.1290 
 11 C       -1.5490     7.8100    -0.0060 C.3   1 <1>   0.1290 
 12 H       -3.7900     5.1990     0.0020 H     1 <1>   0.0600 
 13 H       -4.9170     7.1410    -0.0040 H     1 <1>   0.0800 
 14 H       -4.0980     8.4130    -0.8840 H     1 <1>   0.0800 
 15 H       -4.0980     8.4180     0.8700 H     1 <1>   0.0800 
 16 H       -0.6770     7.1780    -0.0040 H     1 <1>   0.0800 
 17 H       -1.5170     8.4350     0.8700 H     1 <1>   0.0800 
 18 H       -1.5170     8.4290    -0.8850 H     1 <1>   0.0800 
@<TRIPOS>BOND
  1   1   2  2   
  2   2   3  1   
  3   2   4  1   
  4   3   5  1   
  5   4   6  2   
  6   5   6  1   
  7   6   7  1   
  8   7   8  2   
  9   8   9  1   
 10   8  12  1   
 11   9  10  1   
 12   9  11  1   
 13  10  13  1   
 14  10  14  1   
 15  10  15  1   
 16  11  16  1   
 17  11  17  1   
 18  11  18  1   
@<TRIPOS>SUBSTRUCTURE
  1 ****   6 GROUP 4 **** **** 0

# MOE 2024.06 (io_trps.svl 2023.06)
