@<TRIPOS>MOLECULE
NONAME
54 56 1 0 0 
SMALL
USER_CHARGES


@<TRIPOS>ATOM
  1 O        0.1050    -0.3680    -0.0530 O.2   1 <1>  -0.5700 
  2 C       -0.9350     0.1910     0.2330 C.2   1 <1>   0.7160 
  3 N       -1.9960    -0.5750     0.5900 N.am  1 <1>  -0.7300 
  4 C       -1.0810     1.6160     0.1900 C.2   1 <1>  -0.0860 
  5 C       -2.1670    -2.0200     0.2940 C.3   1 <1>   0.2810 
  6 C       -2.3000     2.3120     0.2180 C.2   1 <1>   0.3720 
  7 C       -0.1560     2.6160     0.1410 C.2   1 <1>   0.0870 
  8 C       -3.5750    -2.3140    -0.2590 C.2   1 <1>   0.5690 
  9 C       -1.8830    -2.7970     1.5820 C.3   1 <1>  -0.2400 
 10 N       -2.1100     3.5840     0.2020 N.2   1 <1>  -0.4100 
 11 N       -3.5770     1.7200     0.2330 N.pl3 1 <1>  -0.8210 
 12 O       -0.8160     3.7460     0.1590 O.3   1 <1>  -0.0190 
 13 C        1.2830     2.6510     0.0950 C.ar  1 <1>   0.0530 
 14 O       -3.6930    -3.0050    -1.2430 O.2   1 <1>  -0.5700 
 15 N       -4.6610    -1.7680     0.3630 N.am  1 <1>  -0.7300 
 16 C       -4.6100     2.4010     1.0630 C.3   1 <1>   0.2090 
 17 C       -4.1410     1.4970    -1.1300 C.3   1 <1>   0.2090 
 18 C        1.9940     3.5190     0.9240 C.ar  1 <1>  -0.1500 
 19 C        2.0210     1.8500    -0.7760 C.ar  1 <1>  -0.1500 
 20 C       -6.0620    -1.9680    -0.0460 C.3   1 <1>   0.1400 
 21 C       -5.9290     2.1120     0.3670 C.3   1 <1>  -0.1600 
 22 C       -5.5570     2.0600    -1.1070 C.3   1 <1>  -0.1600 
 23 C        3.3740     3.5760     0.8940 C.ar  1 <1>  -0.1500 
 24 C        3.4030     1.8980    -0.8120 C.ar  1 <1>  -0.1500 
 25 C       -6.9140    -2.1250     1.2070 C.3   1 <1>  -0.2400 
 26 C        4.0930     2.7670     0.0290 C.ar  1 <1>   0.0830 
 27 O        5.4410     2.8770     0.0610 O.3   1 <1>  -0.3630 
 28 C        6.2650     2.0680    -0.7500 C.3   1 <1>   0.0400 
 29 H       -2.8710    -0.0360     0.6500 H     1 <1>   0.3700 
 30 H       -1.4500    -2.3150    -0.4540 H     1 <1>   0.0800 
 31 H       -2.5740    -2.5160     2.3560 H     1 <1>   0.0800 
 32 H       -0.8780    -2.6040     1.9110 H     1 <1>   0.0800 
 33 H       -1.9840    -3.8510     1.3960 H     1 <1>   0.0800 
 34 H       -4.5210    -1.1900     1.1920 H     1 <1>   0.3700 
 35 H       -4.4410     3.4650     1.0880 H     1 <1>   0.0800 
 36 H       -4.6020     2.0180     2.0690 H     1 <1>   0.0800 
 37 H       -4.1660     0.4400    -1.3330 H     1 <1>   0.0800 
 38 H       -3.5480     1.9850    -1.8880 H     1 <1>   0.0800 
 39 H        1.4530     4.1560     1.6020 H     1 <1>   0.1500 
 40 H        1.5040     1.1780    -1.4370 H     1 <1>   0.1500 
 41 H       -6.1440    -2.8480    -0.6630 H     1 <1>   0.0800 
 42 H       -6.3920    -1.1170    -0.6180 H     1 <1>   0.0800 
 43 H       -6.6660     2.8660     0.5790 H     1 <1>   0.0800 
 44 H       -6.2970     1.1550     0.6910 H     1 <1>   0.0800 
 45 H       -6.2360     1.4590    -1.6840 H     1 <1>   0.0800 
 46 H       -5.5380     3.0570    -1.5140 H     1 <1>   0.0800 
 47 H        3.9070     4.2490     1.5410 H     1 <1>   0.1500 
 48 H        3.9220     1.2560    -1.4970 H     1 <1>   0.1500 
 49 H       -6.5860    -2.9790     1.7730 H     1 <1>   0.0800 
 50 H       -7.9400    -2.2790     0.9270 H     1 <1>   0.0800 
 51 H       -6.8570    -1.2420     1.8190 H     1 <1>   0.0800 
 52 H        7.2890     2.3210    -0.5430 H     1 <1>   0.0800 
 53 H        6.0400     2.2670    -1.7830 H     1 <1>   0.0800 
 54 H        6.0860     1.0360    -0.5070 H     1 <1>   0.0800 
@<TRIPOS>BOND
  1   1   2  2   
  2   2   3  am  
  3   2   4  1   
  4   3   5  1   
  5   3  29  1   
  6   4   6  1   
  7   4   7  2   
  8   5   8  1   
  9   5   9  1   
 10   5  30  1   
 11   6  10  2   
 12   6  11  1   
 13   7  12  1   
 14   7  13  1   
 15   8  14  2   
 16   8  15  am  
 17   9  31  1   
 18   9  32  1   
 19   9  33  1   
 20  10  12  1   
 21  11  16  1   
 22  11  17  1   
 23  13  18  ar  
 24  13  19  ar  
 25  15  20  1   
 26  15  34  1   
 27  16  21  1   
 28  16  35  1   
 29  16  36  1   
 30  17  22  1   
 31  17  37  1   
 32  17  38  1   
 33  18  23  ar  
 34  18  39  1   
 35  19  24  ar  
 36  19  40  1   
 37  20  25  1   
 38  20  41  1   
 39  20  42  1   
 40  21  22  1   
 41  21  43  1   
 42  21  44  1   
 43  22  45  1   
 44  22  46  1   
 45  23  26  ar  
 46  23  47  1   
 47  24  26  ar  
 48  24  48  1   
 49  25  49  1   
 50  25  50  1   
 51  25  51  1   
 52  26  27  1   
 53  27  28  1   
 54  28  52  1   
 55  28  53  1   
 56  28  54  1   
@<TRIPOS>SUBSTRUCTURE
  1 ****   4 GROUP 4 **** **** 0

# MOE 2024.06 (io_trps.svl 2023.06)
