@<TRIPOS>MOLECULE
NONAME
47 48 1 0 0 
SMALL
USER_CHARGES


@<TRIPOS>ATOM
  1 O       -1.1340    -0.2260    -1.2070 O.2   1 <1>  -0.5700 
  2 C       -2.0730     0.5330    -1.0680 C.2   1 <1>   0.7160 
  3 N       -3.3170     0.1680    -1.5350 N.am  1 <1>  -0.6600 
  4 C       -1.9010     1.7730    -0.3520 C.2   1 <1>  -0.0860 
  5 C       -3.5380    -1.1960    -2.1070 C.3   1 <1>   0.3210 
  6 C       -4.5610     0.9290    -1.2240 C.3   1 <1>   0.1400 
  7 C       -1.5270     1.9630     0.9420 C.2   1 <1>  -0.0400 
  8 C       -2.1230     3.0770    -0.8420 C.2   1 <1>  -0.1500 
  9 C       -4.1330    -2.1360    -1.0580 C.2   1 <1>   0.0460 
 10 C       -4.8690     0.8740     0.2850 C.3   1 <1>   0.3430 
 11 O       -1.5520     3.2330     1.2580 O.3   1 <1>  -0.2800 
 12 C       -1.1090     0.9640     2.0010 C.3   1 <1>  -0.0600 
 13 C       -1.8970     3.9150     0.1880 C.2   1 <1>  -0.0400 
 14 N       -5.4390    -2.0760    -0.7020 N.2   1 <1>  -0.5650 
 15 C       -3.4970    -3.1210    -0.3800 C.2   1 <1>  -0.3320 
 16 N       -6.2560     1.3410     0.6160 N.4   1 <1>  -0.9590 
 17 C       -1.9580     5.4240     0.2800 C.3   1 <1>  -0.0600 
 18 C       -5.5680    -3.0400     0.1530 C.2   1 <1>   0.0360 
 19 N       -4.4230    -3.7100     0.3960 N.pl3 1 <1>   0.0330 
 20 C       -2.0460    -3.5750    -0.4070 C.3   1 <1>  -0.0600 
 21 C       -6.3630     1.6030     2.0830 C.3   1 <1>   0.2630 
 22 C       -7.2670     0.3180     0.1950 C.3   1 <1>   0.2630 
 23 H       -2.6130    -1.6040    -2.4740 H     1 <1>   0.0800 
 24 H       -4.2090    -1.1330    -2.9450 H     1 <1>   0.0800 
 25 H       -5.3750     0.4970    -1.7810 H     1 <1>   0.0800 
 26 H       -4.4470     1.9500    -1.5390 H     1 <1>   0.0800 
 27 H       -2.4020     3.3180    -1.8530 H     1 <1>   0.1500 
 28 H       -4.1510     1.4910     0.8000 H     1 <1>   0.0800 
 29 H       -4.7450    -0.1410     0.6270 H     1 <1>   0.0800 
 30 H       -1.1310    -0.0370     1.6100 H     1 <1>   0.0800 
 31 H       -1.7650     1.0280     2.8490 H     1 <1>   0.0800 
 32 H       -0.1060     1.1830     2.3220 H     1 <1>   0.0800 
 33 H       -6.4360     2.2230     0.1140 H     1 <1>   0.4500 
 34 H       -2.2430     5.8460    -0.6660 H     1 <1>   0.0800 
 35 H       -0.9920     5.8080     0.5550 H     1 <1>   0.0800 
 36 H       -2.6730     5.7170     1.0270 H     1 <1>   0.0800 
 37 H       -6.4910    -3.3100     0.6380 H     1 <1>   0.1500 
 38 H       -4.2910    -4.5100     1.0230 H     1 <1>   0.2700 
 39 H       -1.4580    -2.9550    -1.0590 H     1 <1>   0.0800 
 40 H       -1.9790    -4.5910    -0.7540 H     1 <1>   0.0800 
 41 H       -1.6190    -3.5160     0.5790 H     1 <1>   0.0800 
 42 H       -6.1750     0.6990     2.6390 H     1 <1>   0.0800 
 43 H       -7.3500     1.9600     2.3280 H     1 <1>   0.0800 
 44 H       -5.6430     2.3480     2.3830 H     1 <1>   0.0800 
 45 H       -7.0830    -0.6170     0.7000 H     1 <1>   0.0800 
 46 H       -7.2090     0.1400    -0.8660 H     1 <1>   0.0800 
 47 H       -8.2640     0.6510     0.4340 H     1 <1>   0.0800 
@<TRIPOS>BOND
  1   1   2  2   
  2   2   3  am  
  3   2   4  1   
  4   3   5  1   
  5   3   6  1   
  6   4   7  2   
  7   4   8  1   
  8   5   9  1   
  9   5  23  1   
 10   5  24  1   
 11   6  10  1   
 12   6  25  1   
 13   6  26  1   
 14   7  11  1   
 15   7  12  1   
 16   8  13  2   
 17   8  27  1   
 18   9  14  1   
 19   9  15  2   
 20  10  16  1   
 21  10  28  1   
 22  10  29  1   
 23  11  13  1   
 24  12  30  1   
 25  12  31  1   
 26  12  32  1   
 27  13  17  1   
 28  14  18  2   
 29  15  19  1   
 30  15  20  1   
 31  16  21  1   
 32  16  22  1   
 33  16  33  1   
 34  17  34  1   
 35  17  35  1   
 36  17  36  1   
 37  18  19  1   
 38  18  37  1   
 39  19  38  1   
 40  20  39  1   
 41  20  40  1   
 42  20  41  1   
 43  21  42  1   
 44  21  43  1   
 45  21  44  1   
 46  22  45  1   
 47  22  46  1   
 48  22  47  1   
@<TRIPOS>SUBSTRUCTURE
  1 ****   3 GROUP 4 **** **** 0

# MOE 2024.06 (io_trps.svl 2023.06)
