@<TRIPOS>MOLECULE
NONAME
41 42 1 0 0 
SMALL
USER_CHARGES


@<TRIPOS>ATOM
  1 O       -0.5660     2.2150     2.9020 O.3   1 <1>  -0.3630 
  2 C       -1.3410     1.6170     1.9530 C.ar  1 <1>   0.3920 
  3 C       -0.2380     1.5370     4.0990 C.3   1 <1>   0.0400 
  4 N       -1.7910     0.3930     2.1900 N.ar  1 <1>  -0.6200 
  5 C       -1.6110     2.3500     0.7630 C.ar  1 <1>   0.4100 
  6 C       -2.5250    -0.0650     1.1850 C.ar  1 <1>   0.1600 
  7 N       -2.3400     1.8640    -0.2310 N.ar  1 <1>  -0.6200 
  8 N       -1.1190     3.6310     0.5880 N.pl3 1 <1>  -0.8690 
  9 C       -2.7870     0.6430     0.0230 C.ar  1 <1>   0.1600 
 10 C       -0.5430     4.0350    -0.6930 C.3   1 <1>   0.4700 
 11 C        0.8730     4.5240    -0.4240 C.2   1 <1>  -0.1810 
 12 C       -1.4080     5.1330    -1.2960 C.3   1 <1>  -0.2400 
 13 C        1.9970     4.1070    -1.1320 C.2   1 <1>   0.1080 
 14 C        1.3560     5.4000     0.4940 C.2   1 <1>  -0.3320 
 15 N        3.0830     4.6640    -0.7060 N.2   1 <1>  -0.7070 
 16 C        2.0140     3.1160    -2.2750 C.3   1 <1>  -0.0590 
 17 N        2.6940     5.4660     0.2990 N.pl3 1 <1>   0.3140 
 18 C        0.6240     6.2010     1.5640 C.3   1 <1>  -0.0600 
 19 C        3.6840     6.2730     1.0440 C.3   1 <1>   0.0960 
 20 C        3.8600     7.6600     0.4110 C.3   1 <1>  -0.2400 
 21 H        0.3780     2.1830     4.6960 H     1 <1>   0.0800 
 22 H        0.3000     0.6370     3.8530 H     1 <1>   0.0800 
 23 H       -1.1460     1.3000     4.6250 H     1 <1>   0.0800 
 24 H       -2.9360    -1.0530     1.2940 H     1 <1>   0.1500 
 25 H       -0.4490     3.8840     1.3200 H     1 <1>   0.4000 
 26 H       -3.3950     0.1830    -0.7350 H     1 <1>   0.1500 
 27 H       -0.5160     3.1940    -1.3650 H     1 <1>   0.0800 
 28 H       -1.4580     5.9790    -0.6370 H     1 <1>   0.0800 
 29 H       -2.3980     4.7550    -1.4700 H     1 <1>   0.0800 
 30 H       -0.9860     5.4490    -2.2320 H     1 <1>   0.0800 
 31 H        1.3690     3.4550    -3.0640 H     1 <1>   0.0800 
 32 H        1.6850     2.1550    -1.9270 H     1 <1>   0.0800 
 33 H        3.0130     3.0220    -2.6600 H     1 <1>   0.0800 
 34 H       -0.4380     6.0520     1.5040 H     1 <1>   0.0800 
 35 H        0.8180     7.2510     1.4380 H     1 <1>   0.0800 
 36 H        0.9520     5.8980     2.5420 H     1 <1>   0.0800 
 37 H        4.6190     5.7450     1.0290 H     1 <1>   0.0800 
 38 H        3.3610     6.3630     2.0640 H     1 <1>   0.0800 
 39 H        4.1970     7.5550    -0.6060 H     1 <1>   0.0800 
 40 H        4.5940     8.2220     0.9590 H     1 <1>   0.0800 
 41 H        2.9300     8.2000     0.4220 H     1 <1>   0.0800 
@<TRIPOS>BOND
  1   1   2  1   
  2   1   3  1   
  3   2   4  ar  
  4   2   5  ar  
  5   3  21  1   
  6   3  22  1   
  7   3  23  1   
  8   4   6  ar  
  9   5   7  ar  
 10   5   8  1   
 11   6   9  ar  
 12   6  24  1   
 13   7   9  ar  
 14   8  10  1   
 15   8  25  1   
 16   9  26  1   
 17  10  11  1   
 18  10  12  1   
 19  10  27  1   
 20  11  13  1   
 21  11  14  2   
 22  12  28  1   
 23  12  29  1   
 24  12  30  1   
 25  13  15  2   
 26  13  16  1   
 27  14  17  1   
 28  14  18  1   
 29  15  17  1   
 30  16  31  1   
 31  16  32  1   
 32  16  33  1   
 33  17  19  1   
 34  18  34  1   
 35  18  35  1   
 36  18  36  1   
 37  19  20  1   
 38  19  37  1   
 39  19  38  1   
 40  20  39  1   
 41  20  40  1   
 42  20  41  1   
@<TRIPOS>SUBSTRUCTURE
  1 ****   8 GROUP 4 **** **** 0

# MOE 2024.06 (io_trps.svl 2023.06)
