@<TRIPOS>MOLECULE
NONAME
38 39 1 0 0 
SMALL
USER_CHARGES


@<TRIPOS>ATOM
  1 O       -0.1530     0.8280     0.2190 O.3   1 <1>  -0.3630 
  2 C       -1.3350     1.3800    -0.1770 C.ar  1 <1>   0.3920 
  3 C       -0.1020    -0.4960     0.7140 C.3   1 <1>   0.0400 
  4 N       -2.4370     0.6540    -0.0550 N.ar  1 <1>  -0.6200 
  5 C       -1.3070     2.7090    -0.6870 C.ar  1 <1>   0.4100 
  6 C       -3.5110     1.3140    -0.4670 C.ar  1 <1>   0.1600 
  7 N       -2.3990     3.3510    -1.0790 N.ar  1 <1>  -0.6200 
  8 N       -0.1180     3.4110    -0.8030 N.pl3 1 <1>  -0.8690 
  9 C       -3.4900     2.6100    -0.9570 C.ar  1 <1>   0.1600 
 10 C       -0.0960     4.8750    -0.7150 C.3   1 <1>   0.3890 
 11 C        1.3000     5.3030    -0.3100 C.2   1 <1>  -0.3320 
 12 N        1.5810     6.3950     0.4330 N.pl3 1 <1>   0.0480 
 13 C        2.4880     4.7260    -0.6020 C.2   1 <1>   0.0770 
 14 C        2.9290     6.3930     0.5460 C.2   1 <1>   0.0360 
 15 C        0.6560     7.3880     1.0260 C.3   1 <1>   0.0960 
 16 N        3.5110     5.4100    -0.0590 N.2   1 <1>  -0.5650 
 17 C        0.1110     8.3750    -0.0250 C.3   1 <1>  -0.0800 
 18 C        1.2300     9.1930    -0.6860 C.3   1 <1>  -0.2400 
 19 C       -0.9010     9.3260     0.6270 C.3   1 <1>  -0.2400 
 20 H        0.9190    -0.7270     0.9570 H     1 <1>   0.0800 
 21 H       -0.4620    -1.1660    -0.0470 H     1 <1>   0.0800 
 22 H       -0.7170    -0.5620     1.5950 H     1 <1>   0.0800 
 23 H       -4.4520     0.7960    -0.4090 H     1 <1>   0.1500 
 24 H        0.6570     2.9880    -0.2850 H     1 <1>   0.4000 
 25 H       -4.4180     3.0590    -1.2650 H     1 <1>   0.1500 
 26 H       -0.8170     5.1950     0.0180 H     1 <1>   0.0800 
 27 H       -0.3570     5.2990    -1.6700 H     1 <1>   0.0800 
 28 H        2.6620     3.8390    -1.1900 H     1 <1>   0.1500 
 29 H        3.4540     7.1530     1.0960 H     1 <1>   0.1500 
 30 H        1.1800     7.9280     1.7930 H     1 <1>   0.0800 
 31 H       -0.1570     6.8590     1.4900 H     1 <1>   0.0800 
 32 H       -0.4050     7.8170    -0.7890 H     1 <1>   0.0800 
 33 H        1.7880     9.7450     0.0500 H     1 <1>   0.0800 
 34 H        0.8150     9.8910    -1.3930 H     1 <1>   0.0800 
 35 H        1.9080     8.5500    -1.2200 H     1 <1>   0.0800 
 36 H       -0.4320     9.9150     1.3950 H     1 <1>   0.0800 
 37 H       -1.7120     8.7700     1.0650 H     1 <1>   0.0800 
 38 H       -1.3140     9.9930    -0.1100 H     1 <1>   0.0800 
@<TRIPOS>BOND
  1   1   2  1   
  2   1   3  1   
  3   2   4  ar  
  4   2   5  ar  
  5   3  20  1   
  6   3  21  1   
  7   3  22  1   
  8   4   6  ar  
  9   5   7  ar  
 10   5   8  1   
 11   6   9  ar  
 12   6  23  1   
 13   7   9  ar  
 14   8  10  1   
 15   8  24  1   
 16   9  25  1   
 17  10  11  1   
 18  10  26  1   
 19  10  27  1   
 20  11  12  1   
 21  11  13  2   
 22  12  14  1   
 23  12  15  1   
 24  13  16  1   
 25  13  28  1   
 26  14  16  2   
 27  14  29  1   
 28  15  17  1   
 29  15  30  1   
 30  15  31  1   
 31  17  18  1   
 32  17  19  1   
 33  17  32  1   
 34  18  33  1   
 35  18  34  1   
 36  18  35  1   
 37  19  36  1   
 38  19  37  1   
 39  19  38  1   
@<TRIPOS>SUBSTRUCTURE
  1 ****  10 GROUP 4 **** **** 0

# MOE 2024.06 (io_trps.svl 2023.06)
