@<TRIPOS>MOLECULE
NONAME
48 49 1 0 0 
SMALL
USER_CHARGES


@<TRIPOS>ATOM
  1 CL       2.2650    -0.9370    -0.3490 Cl    1 <1>  -0.1770 
  2 C        1.0840    -2.1950    -0.5890 C.ar  1 <1>   0.1770 
  3 C        1.3530    -3.4720    -0.1470 C.ar  1 <1>  -0.1500 
  4 C       -0.1050    -1.8960    -1.2210 C.ar  1 <1>  -0.1500 
  5 C        0.4140    -4.4850    -0.3340 C.ar  1 <1>   0.0830 
  6 C       -1.0390    -2.8980    -1.4010 C.ar  1 <1>  -0.1500 
  7 O        0.6740    -5.7550     0.0670 O.3   1 <1>  -0.3630 
  8 C       -0.8190    -4.2080    -0.9580 C.ar  1 <1>   0.0860 
  9 C        1.9380    -6.1620     0.5530 C.3   1 <1>   0.0400 
 10 C       -1.8650    -5.1980    -1.1670 C.2   1 <1>   0.5440 
 11 O       -2.6830    -5.0680    -2.0580 O.2   1 <1>  -0.5700 
 12 N       -2.0850    -6.2570    -0.3340 N.am  1 <1>  -0.6600 
 13 C       -1.8540    -7.6410    -0.8590 C.3   1 <1>   0.3210 
 14 C       -2.6320    -6.0480     1.0410 C.3   1 <1>   0.1400 
 15 C       -2.5450    -8.7430    -0.0550 C.2   1 <1>   0.0460 
 16 C       -4.1660    -6.2160     1.0690 C.3   1 <1>   0.3430 
 17 N       -3.8510    -9.0360    -0.2410 N.2   1 <1>  -0.5650 
 18 C       -2.0010    -9.5590     0.8800 C.2   1 <1>  -0.3320 
 19 N       -4.7980    -5.6740    -0.1770 N.4   1 <1>  -0.9590 
 20 C       -4.0640   -10.0310     0.5590 C.2   1 <1>   0.0360 
 21 N       -2.9790   -10.3950     1.2710 N.pl3 1 <1>   0.0330 
 22 C       -0.5900    -9.6340     1.4420 C.3   1 <1>  -0.0600 
 23 C       -5.1380    -4.2280    -0.0960 C.3   1 <1>   0.2630 
 24 C       -5.9450    -6.5120    -0.6240 C.3   1 <1>   0.2630 
 25 H        2.2970    -3.6430     0.3330 H     1 <1>   0.1500 
 26 H       -0.2880    -0.8930    -1.5670 H     1 <1>   0.1500 
 27 H       -1.9620    -2.6600    -1.9030 H     1 <1>   0.1500 
 28 H        1.9060    -7.2210     0.7300 H     1 <1>   0.0800 
 29 H        2.1430    -5.6450     1.4740 H     1 <1>   0.0800 
 30 H        2.6870    -5.9410    -0.1880 H     1 <1>   0.0800 
 31 H       -0.7950    -7.8270    -0.8650 H     1 <1>   0.0800 
 32 H       -2.1940    -7.6970    -1.8790 H     1 <1>   0.0800 
 33 H       -2.3840    -5.0540     1.3710 H     1 <1>   0.0800 
 34 H       -2.1730    -6.7380     1.7280 H     1 <1>   0.0800 
 35 H       -4.5770    -5.7380     1.9420 H     1 <1>   0.0800 
 36 H       -4.3820    -7.2670     1.1490 H     1 <1>   0.0800 
 37 H       -4.0510    -5.7740    -0.9070 H     1 <1>   0.4500 
 38 H       -5.0070   -10.5410     0.6600 H     1 <1>   0.1500 
 39 H       -2.9150   -11.1620     1.9490 H     1 <1>   0.2700 
 40 H        0.0250    -8.8510     1.0370 H     1 <1>   0.0800 
 41 H       -0.1440   -10.5810     1.1940 H     1 <1>   0.0800 
 42 H       -0.6100    -9.5290     2.5120 H     1 <1>   0.0800 
 43 H       -5.8980    -4.0610     0.6490 H     1 <1>   0.0800 
 44 H       -5.5020    -3.8820    -1.0510 H     1 <1>   0.0800 
 45 H       -4.2620    -3.6550     0.1600 H     1 <1>   0.0800 
 46 H       -6.7380    -6.4850     0.1050 H     1 <1>   0.0800 
 47 H       -5.6290    -7.5340    -0.7570 H     1 <1>   0.0800 
 48 H       -6.3240    -6.1500    -1.5660 H     1 <1>   0.0800 
@<TRIPOS>BOND
  1   1   2  1   
  2   2   3  ar  
  3   2   4  ar  
  4   3   5  ar  
  5   3  25  1   
  6   4   6  ar  
  7   4  26  1   
  8   5   7  1   
  9   5   8  ar  
 10   6   8  ar  
 11   6  27  1   
 12   7   9  1   
 13   8  10  1   
 14   9  28  1   
 15   9  29  1   
 16   9  30  1   
 17  10  11  2   
 18  10  12  am  
 19  12  13  1   
 20  12  14  1   
 21  13  15  1   
 22  13  31  1   
 23  13  32  1   
 24  14  16  1   
 25  14  33  1   
 26  14  34  1   
 27  15  17  1   
 28  15  18  2   
 29  16  19  1   
 30  16  35  1   
 31  16  36  1   
 32  17  20  2   
 33  18  21  1   
 34  18  22  1   
 35  19  23  1   
 36  19  24  1   
 37  19  37  1   
 38  20  21  1   
 39  20  38  1   
 40  21  39  1   
 41  22  40  1   
 42  22  41  1   
 43  22  42  1   
 44  23  43  1   
 45  23  44  1   
 46  23  45  1   
 47  24  46  1   
 48  24  47  1   
 49  24  48  1   
@<TRIPOS>SUBSTRUCTURE
  1 ****  12 GROUP 4 **** **** 0

# MOE 2024.06 (io_trps.svl 2023.06)
