@<TRIPOS>MOLECULE
NONAME
55 58 1 0 0 
SMALL
USER_CHARGES


@<TRIPOS>ATOM
  1 O        1.9240    -0.3510     1.7000 O.2   1 <1>  -0.5700 
  2 C        1.3280    -1.0440     0.8890 C.2   1 <1>   0.5440 
  3 N        0.6310    -0.3890    -0.1210 N.am  1 <1>  -0.6600 
  4 C        1.4140    -2.5060     1.0110 C.ar  1 <1>   0.3960 
  5 C        0.3800     1.0790    -0.0820 C.3   1 <1>   0.0600 
  6 C        0.0850    -1.0780    -1.3210 C.3   1 <1>   0.0600 
  7 N        0.3570    -3.2790     0.7050 N.ar  1 <1>  -0.6200 
  8 C        2.6120    -3.0620     1.4600 C.ar  1 <1>  -0.1500 
  9 C        0.4960    -4.5880     0.8430 C.ar  1 <1>   0.4100 
 10 C        2.7610    -4.4250     1.5980 C.ar  1 <1>  -0.1500 
 11 N       -0.5970    -5.3780     0.5430 N.pl3 1 <1>  -0.8380 
 12 C        1.6700    -5.1930     1.2770 C.ar  1 <1>  -0.1500 
 13 C       -1.2770    -6.0440     1.6830 C.3   1 <1>   0.2090 
 14 C       -1.5580    -4.9120    -0.4910 C.3   1 <1>   0.2090 
 15 C       -2.0150    -7.2770     1.1660 C.3   1 <1>  -0.1600 
 16 C       -2.3040    -6.1200    -1.0530 C.3   1 <1>  -0.1600 
 17 C       -3.0130    -6.9150     0.0570 C.3   1 <1>   0.4240 
 18 O       -3.9560    -6.0680     0.6730 O.3   1 <1>  -0.5600 
 19 C       -3.6780    -8.1920    -0.5070 C.ar  1 <1>  -0.1430 
 20 C       -5.2030    -5.9400     0.0660 C.3   1 <1>   0.1200 
 21 C       -5.0570    -8.3660    -0.4640 C.ar  1 <1>  -0.1430 
 22 C       -2.9020    -9.1940    -1.0800 C.ar  1 <1>  -0.1500 
 23 C       -5.9260    -7.2810     0.1410 C.3   1 <1>  -0.0170 
 24 C       -5.6430    -9.5170    -0.9680 C.ar  1 <1>  -0.1500 
 25 C       -3.4850   -10.3410    -1.5870 C.ar  1 <1>  -0.1500 
 26 C       -4.8570   -10.5140    -1.5340 C.ar  1 <1>   0.0830 
 27 O       -5.3490   -11.6680    -2.0500 O.3   1 <1>  -0.3620 
 28 C       -6.7300   -11.9510    -2.0260 C.3   1 <1>   0.0400 
 29 H        0.5930     1.4790     0.8950 H     1 <1>   0.0800 
 30 H       -0.6510     1.2800    -0.3130 H     1 <1>   0.0800 
 31 H        1.0100     1.5720    -0.8020 H     1 <1>   0.0800 
 32 H        0.6750    -1.9460    -1.5570 H     1 <1>   0.0800 
 33 H        0.1010    -0.4150    -2.1690 H     1 <1>   0.0800 
 34 H       -0.9280    -1.3850    -1.1280 H     1 <1>   0.0800 
 35 H        3.4320    -2.4090     1.7030 H     1 <1>   0.1500 
 36 H        3.6830    -4.8620     1.9400 H     1 <1>   0.1500 
 37 H        1.7040    -6.2620     1.3500 H     1 <1>   0.1500 
 38 H       -1.9710    -5.3550     2.1360 H     1 <1>   0.0800 
 39 H       -0.5570    -6.3340     2.4280 H     1 <1>   0.0800 
 40 H       -1.0250    -4.4120    -1.2820 H     1 <1>   0.0800 
 41 H       -2.2480    -4.2120    -0.0490 H     1 <1>   0.0800 
 42 H       -2.5410    -7.7540     1.9720 H     1 <1>   0.0800 
 43 H       -1.2840    -7.9710     0.7970 H     1 <1>   0.0800 
 44 H       -1.5880    -6.7500    -1.5450 H     1 <1>   0.0800 
 45 H       -3.0110    -5.8050    -1.7950 H     1 <1>   0.0800 
 46 H       -5.0720    -5.6270    -0.9550 H     1 <1>   0.0800 
 47 H       -5.7530    -5.1850     0.5990 H     1 <1>   0.0800 
 48 H       -1.8330    -9.0930    -1.1400 H     1 <1>   0.1500 
 49 H       -6.8580    -7.2100    -0.3890 H     1 <1>   0.0800 
 50 H       -6.1360    -7.5160     1.1690 H     1 <1>   0.0800 
 51 H       -6.7090    -9.6230    -0.9140 H     1 <1>   0.1500 
 52 H       -2.8790   -11.1120    -2.0270 H     1 <1>   0.1500 
 53 H       -6.8810   -12.9150    -2.4770 H     1 <1>   0.0800 
 54 H       -7.2510   -11.1980    -2.5900 H     1 <1>   0.0800 
 55 H       -7.0650   -11.9690    -1.0040 H     1 <1>   0.0800 
@<TRIPOS>BOND
  1   1   2  2   
  2   2   3  am  
  3   2   4  1   
  4   3   5  1   
  5   3   6  1   
  6   4   7  ar  
  7   4   8  ar  
  8   5  29  1   
  9   5  30  1   
 10   5  31  1   
 11   6  32  1   
 12   6  33  1   
 13   6  34  1   
 14   7   9  ar  
 15   8  10  ar  
 16   8  35  1   
 17   9  11  1   
 18   9  12  ar  
 19  10  12  ar  
 20  10  36  1   
 21  11  13  1   
 22  11  14  1   
 23  12  37  1   
 24  13  15  1   
 25  13  38  1   
 26  13  39  1   
 27  14  16  1   
 28  14  40  1   
 29  14  41  1   
 30  15  17  1   
 31  15  42  1   
 32  15  43  1   
 33  16  17  1   
 34  16  44  1   
 35  16  45  1   
 36  17  18  1   
 37  17  19  1   
 38  18  20  1   
 39  19  21  ar  
 40  19  22  ar  
 41  20  23  1   
 42  20  46  1   
 43  20  47  1   
 44  21  23  1   
 45  21  24  ar  
 46  22  25  ar  
 47  22  48  1   
 48  23  49  1   
 49  23  50  1   
 50  24  26  ar  
 51  24  51  1   
 52  25  26  ar  
 53  25  52  1   
 54  26  27  1   
 55  27  28  1   
 56  28  53  1   
 57  28  54  1   
 58  28  55  1   
@<TRIPOS>SUBSTRUCTURE
  1 ****  14 GROUP 4 **** **** 0

# MOE 2024.06 (io_trps.svl 2023.06)
