@<TRIPOS>MOLECULE
NONAME
54 57 1 0 0 
SMALL
USER_CHARGES


@<TRIPOS>ATOM
  1 O       -3.1150     1.6050    -1.5460 O.3   1 <1>  -0.3630 
  2 C       -2.0870     2.1120    -0.8060 C.ar  1 <1>   0.0830 
  3 C       -2.8980     0.7540    -2.6510 C.3   1 <1>   0.0400 
  4 C       -2.4250     2.8990     0.3270 C.ar  1 <1>   0.3100 
  5 C       -0.7650     1.8860    -1.1260 C.ar  1 <1>  -0.1500 
  6 N       -3.7330     3.1140     0.6420 N.ar  1 <1>  -0.6200 
  7 C       -1.3830     3.4480     1.1080 C.ar  1 <1>   0.0000 
  8 C        0.2560     2.4300    -0.3440 C.ar  1 <1>  -0.1500 
  9 C       -4.0220     3.8480     1.6790 C.ar  1 <1>   0.1660 
 10 C       -1.7280     4.2340     2.2210 C.ar  1 <1>  -0.1500 
 11 C       -0.0460     3.1940     0.7490 C.ar  1 <1>  -0.1500 
 12 C       -3.0460     4.4310     2.5010 C.ar  1 <1>  -0.1500 
 13 C       -5.5070     4.0620     1.9830 C.3   1 <1>   0.4860 
 14 N       -6.2820     3.8220     0.7320 N.4   1 <1>  -0.9590 
 15 C       -7.5520     3.0710     0.9410 C.3   1 <1>   0.3430 
 16 C       -6.4420     5.0360    -0.1050 C.3   1 <1>   0.3430 
 17 C       -8.1430     2.6150    -0.4110 C.3   1 <1>   0.0000 
 18 C       -7.0160     4.6410    -1.4680 C.3   1 <1>  -0.1600 
 19 C       -9.4710     1.8850    -0.1610 C.3   1 <1>   0.2000 
 20 C       -8.3210     3.8370    -1.3370 C.3   1 <1>  -0.1600 
 21 C       -7.2710     1.5160    -1.0440 C.3   1 <1>  -0.1600 
 22 O      -10.1490     2.4800     0.9040 O.3   1 <1>  -0.5600 
 23 C       -9.1010     0.4320     0.1640 C.3   1 <1>  -0.1600 
 24 C       -7.6550     0.2310    -0.3070 C.3   1 <1>  -0.1600 
 25 C      -11.4960     2.1330     1.0040 C.3   1 <1>   0.0400 
 26 H       -3.8560     0.4680    -3.0460 H     1 <1>   0.0800 
 27 H       -2.3640    -0.1190    -2.3200 H     1 <1>   0.0800 
 28 H       -2.3400     1.2880    -3.4000 H     1 <1>   0.0800 
 29 H       -0.4770     1.2960    -1.9760 H     1 <1>   0.1500 
 30 H        1.2820     2.2380    -0.6140 H     1 <1>   0.1500 
 31 H       -0.9480     4.6620     2.8280 H     1 <1>   0.1500 
 32 H        0.7410     3.6130     1.3510 H     1 <1>   0.1500 
 33 H       -3.3410     5.0280     3.3470 H     1 <1>   0.1500 
 34 H       -5.6800     5.0580     2.3530 H     1 <1>   0.0800 
 35 H       -5.8020     3.3520     2.7380 H     1 <1>   0.0800 
 36 H       -5.6350     3.2000     0.2060 H     1 <1>   0.4500 
 37 H       -7.3770     2.2040     1.5560 H     1 <1>   0.0800 
 38 H       -8.2670     3.7010     1.4440 H     1 <1>   0.0800 
 39 H       -7.1090     5.7290     0.3800 H     1 <1>   0.0800 
 40 H       -5.4860     5.5150    -0.2450 H     1 <1>   0.0800 
 41 H       -7.2050     5.5340    -2.0390 H     1 <1>   0.0800 
 42 H       -6.2810     4.0690    -2.0070 H     1 <1>   0.0800 
 43 H      -10.0830     1.9270    -1.0480 H     1 <1>   0.0800 
 44 H       -8.6520     3.5210    -2.3120 H     1 <1>   0.0800 
 45 H       -9.0870     4.4750    -0.9290 H     1 <1>   0.0800 
 46 H       -7.5330     1.4030    -2.0830 H     1 <1>   0.0800 
 47 H       -6.2130     1.7060    -0.9840 H     1 <1>   0.0800 
 48 H       -9.1720     0.2410     1.2210 H     1 <1>   0.0800 
 49 H       -9.7600    -0.2370    -0.3610 H     1 <1>   0.0800 
 50 H       -7.0110     0.0910     0.5450 H     1 <1>   0.0800 
 51 H       -7.5620    -0.6280    -0.9500 H     1 <1>   0.0800 
 52 H      -11.9140     2.6490     1.8500 H     1 <1>   0.0800 
 53 H      -11.5870     1.0710     1.1500 H     1 <1>   0.0800 
 54 H      -12.0100     2.4360     0.1070 H     1 <1>   0.0800 
@<TRIPOS>BOND
  1   1   2  1   
  2   1   3  1   
  3   2   4  ar  
  4   2   5  ar  
  5   3  26  1   
  6   3  27  1   
  7   3  28  1   
  8   4   6  ar  
  9   4   7  ar  
 10   5   8  ar  
 11   5  29  1   
 12   6   9  ar  
 13   7  10  ar  
 14   7  11  ar  
 15   8  11  ar  
 16   8  30  1   
 17   9  12  ar  
 18   9  13  1   
 19  10  12  ar  
 20  10  31  1   
 21  11  32  1   
 22  12  33  1   
 23  13  14  1   
 24  13  34  1   
 25  13  35  1   
 26  14  15  1   
 27  14  16  1   
 28  14  36  1   
 29  15  17  1   
 30  15  37  1   
 31  15  38  1   
 32  16  18  1   
 33  16  39  1   
 34  16  40  1   
 35  17  19  1   
 36  17  20  1   
 37  17  21  1   
 38  18  20  1   
 39  18  41  1   
 40  18  42  1   
 41  19  22  1   
 42  19  23  1   
 43  19  43  1   
 44  20  44  1   
 45  20  45  1   
 46  21  24  1   
 47  21  46  1   
 48  21  47  1   
 49  22  25  1   
 50  23  24  1   
 51  23  48  1   
 52  23  49  1   
 53  24  50  1   
 54  24  51  1   
 55  25  52  1   
 56  25  53  1   
 57  25  54  1   
@<TRIPOS>SUBSTRUCTURE
  1 ****   6 GROUP 4 **** **** 0

# MOE 2024.06 (io_trps.svl 2023.06)
