@<TRIPOS>MOLECULE
NONAME
60 63 1 0 0 
SMALL
USER_CHARGES


@<TRIPOS>ATOM
  1 F       -1.3720    -0.6900    -0.5750 F     1 <1>  -0.1900 
  2 C       -2.5210    -0.0730    -0.4730 C.ar  1 <1>   0.1900 
  3 C       -2.6570     1.2940    -0.7360 C.ar  1 <1>   0.0830 
  4 C       -3.6020    -0.8450    -0.0940 C.ar  1 <1>  -0.1500 
  5 O       -1.6720     2.1580    -1.1160 O.3   1 <1>  -0.3630 
  6 C       -3.9180     1.8510    -0.6030 C.ar  1 <1>  -0.1500 
  7 C       -4.8470    -0.2560     0.0290 C.ar  1 <1>  -0.1500 
  8 C       -0.3230     1.7750    -1.2580 C.3   1 <1>   0.0400 
  9 C       -5.0380     1.1060    -0.2200 C.ar  1 <1>   0.0530 
 10 C       -6.3320     1.7390    -0.1000 C.2   1 <1>   0.0870 
 11 O       -6.5570     2.8820    -0.6970 O.3   1 <1>  -0.0190 
 12 C       -7.4880     1.4010     0.5360 C.2   1 <1>  -0.0860 
 13 N       -7.7660     3.3360    -0.5030 N.2   1 <1>  -0.4100 
 14 C       -8.3460     2.4690     0.2490 C.2   1 <1>   0.3720 
 15 C       -7.8100     0.2600     1.3320 C.2   1 <1>   0.7160 
 16 N       -9.6670     2.5980     0.7140 N.pl3 1 <1>  -0.8210 
 17 O       -7.1420     0.0300     2.3240 O.2   1 <1>  -0.5700 
 18 N       -8.8310    -0.6170     1.0060 N.am  1 <1>  -0.6600 
 19 C       -9.7610     2.8400     2.1800 C.3   1 <1>   0.1290 
 20 C      -10.5210     3.5500    -0.0520 C.3   1 <1>   0.1290 
 21 C       -9.6640    -0.4690    -0.2180 C.3   1 <1>   0.1400 
 22 C       -9.3000    -1.6560     1.9620 C.3   1 <1>   0.1400 
 23 C       -9.7840    -1.8200    -0.9360 C.3   1 <1>  -0.1600 
 24 C       -9.3620    -3.0090     1.2490 C.3   1 <1>  -0.1600 
 25 C      -10.2540    -2.9670    -0.0090 C.3   1 <1>   0.0000 
 26 C      -10.2030    -4.3010    -0.7560 C.3   1 <1>   0.3430 
 27 C      -11.7480    -2.8320     0.3360 C.3   1 <1>  -0.1600 
 28 N      -11.4850    -4.3700    -1.5040 N.4   1 <1>  -0.9590 
 29 C      -12.5130    -3.7150    -0.6490 C.3   1 <1>   0.3430 
 30 C      -11.8560    -5.7610    -1.9040 C.3   1 <1>   0.2630 
 31 H       -3.4660    -1.8930     0.1050 H     1 <1>   0.1500 
 32 H       -4.0250     2.9030    -0.8010 H     1 <1>   0.1500 
 33 H       -5.6760    -0.8710     0.3230 H     1 <1>   0.1500 
 34 H        0.2440     2.6430    -1.5390 H     1 <1>   0.0800 
 35 H       -0.2490     1.0270    -2.0280 H     1 <1>   0.0800 
 36 H        0.0350     1.3960    -0.3160 H     1 <1>   0.0800 
 37 H       -9.1920     2.1060     2.7230 H     1 <1>   0.0800 
 38 H      -10.7870     2.7780     2.4980 H     1 <1>   0.0800 
 39 H       -9.3760     3.8180     2.4160 H     1 <1>   0.0800 
 40 H      -10.4390     3.3490    -1.1060 H     1 <1>   0.0800 
 41 H      -10.2040     4.5630     0.1320 H     1 <1>   0.0800 
 42 H      -11.5500     3.4410     0.2420 H     1 <1>   0.0800 
 43 H       -9.2280     0.2430    -0.8960 H     1 <1>   0.0800 
 44 H      -10.6320    -0.0940     0.0660 H     1 <1>   0.0800 
 45 H      -10.2720    -1.3780     2.3310 H     1 <1>   0.0800 
 46 H       -8.6360    -1.7290     2.8080 H     1 <1>   0.0800 
 47 H       -8.8120    -2.0570    -1.3350 H     1 <1>   0.0800 
 48 H      -10.4510    -1.7030    -1.7700 H     1 <1>   0.0800 
 49 H       -9.7180    -3.7510     1.9420 H     1 <1>   0.0800 
 50 H       -8.3570    -3.2830     0.9770 H     1 <1>   0.0800 
 51 H      -10.1560    -5.1070    -0.0410 H     1 <1>   0.0800 
 52 H       -9.3500    -4.3580    -1.4130 H     1 <1>   0.0800 
 53 H      -12.1000    -1.8170     0.2870 H     1 <1>   0.0800 
 54 H      -11.9480    -3.1950     1.3300 H     1 <1>   0.0800 
 55 H      -11.3750    -3.7930    -2.3510 H     1 <1>   0.4500 
 56 H      -13.1900    -3.1280    -1.2490 H     1 <1>   0.0800 
 57 H      -13.0770    -4.4550    -0.1040 H     1 <1>   0.0800 
 58 H      -11.9740    -6.3830    -1.0310 H     1 <1>   0.0800 
 59 H      -11.0880    -6.1880    -2.5290 H     1 <1>   0.0800 
 60 H      -12.7830    -5.7590    -2.4530 H     1 <1>   0.0800 
@<TRIPOS>BOND
  1   1   2  1   
  2   2   3  ar  
  3   2   4  ar  
  4   3   5  1   
  5   3   6  ar  
  6   4   7  ar  
  7   4  31  1   
  8   5   8  1   
  9   6   9  ar  
 10   6  32  1   
 11   7   9  ar  
 12   7  33  1   
 13   8  34  1   
 14   8  35  1   
 15   8  36  1   
 16   9  10  1   
 17  10  11  1   
 18  10  12  2   
 19  11  13  1   
 20  12  14  1   
 21  12  15  1   
 22  13  14  2   
 23  14  16  1   
 24  15  17  2   
 25  15  18  am  
 26  16  19  1   
 27  16  20  1   
 28  18  21  1   
 29  18  22  1   
 30  19  37  1   
 31  19  38  1   
 32  19  39  1   
 33  20  40  1   
 34  20  41  1   
 35  20  42  1   
 36  21  23  1   
 37  21  43  1   
 38  21  44  1   
 39  22  24  1   
 40  22  45  1   
 41  22  46  1   
 42  23  25  1   
 43  23  47  1   
 44  23  48  1   
 45  24  25  1   
 46  24  49  1   
 47  24  50  1   
 48  25  26  1   
 49  25  27  1   
 50  26  28  1   
 51  26  51  1   
 52  26  52  1   
 53  27  29  1   
 54  27  53  1   
 55  27  54  1   
 56  28  29  1   
 57  28  30  1   
 58  28  55  1   
 59  29  56  1   
 60  29  57  1   
 61  30  58  1   
 62  30  59  1   
 63  30  60  1   
@<TRIPOS>SUBSTRUCTURE
  1 ****  15 GROUP 4 **** **** 0

# MOE 2024.06 (io_trps.svl 2023.06)
