@<TRIPOS>MOLECULE
Untitled Document
47 50 1 0 0 
SMALL
USER_CHARGES


@<TRIPOS>ATOM
  1 O       -8.6230     1.0090    -0.9930 O.2   1 <1>  -0.5700 
  2 C       -7.8600     0.1810    -0.5440 C.2   1 <1>   0.7800 
  3 O       -8.3150    -1.0030    -0.1320 O.3   1 <1>  -0.4300 
  4 N       -6.5180     0.3530    -0.4130 N.am  1 <1>  -0.5470 
  5 C       -9.6610    -1.4270    -0.1610 C.3   1 <1>   0.2800 
  6 C       -5.6380     1.4060    -0.7090 C.ar  1 <1>   0.1170 
  7 C       -9.6950    -2.8520     0.4100 C.3   1 <1>  -0.1600 
  8 C      -10.5710    -0.5550     0.7210 C.3   1 <1>  -0.1600 
  9 C      -10.2260    -1.4920    -1.5920 C.3   1 <1>  -0.1600 
 10 C       -4.2750     1.2230    -0.4360 C.ar  1 <1>   0.0000 
 11 C       -6.0590     2.6160    -1.2560 C.ar  1 <1>  -0.1500 
 12 C      -11.1340    -3.3890     0.4130 C.3   1 <1>   0.3430 
 13 C      -12.0030    -1.1110     0.6980 C.3   1 <1>   0.3430 
 14 C      -11.6660    -2.0250    -1.5570 C.3   1 <1>   0.3430 
 15 C       -3.7910    -0.0130     0.1310 C.ar  1 <1>   0.0000 
 16 C       -3.3800     2.2490    -0.7180 C.ar  1 <1>  -0.1500 
 17 C       -5.1560     3.6260    -1.5310 C.ar  1 <1>  -0.1500 
 18 N      -12.0640    -2.3530    -0.1460 N.4   1 <1>  -0.9590 
 19 C       -3.4070    -1.0710    -0.6870 C.ar  1 <1>  -0.1500 
 20 C       -3.7150    -0.1840     1.5100 C.ar  1 <1>  -0.1500 
 21 C       -3.8120     3.4430    -1.2610 C.ar  1 <1>  -0.1500 
 22 C       -2.9660    -2.2650    -0.1460 C.ar  1 <1>  -0.1500 
 23 C       -3.2760    -1.3760     2.0560 C.ar  1 <1>  -0.1500 
 24 C       -2.9010    -2.4200     1.2280 C.ar  1 <1>  -0.1500 
 25 H       -6.0550    -0.4640    -0.0150 H     1 <1>   0.3700 
 26 H       -9.3140    -2.8580     1.4160 H     1 <1>   0.0800 
 27 H       -9.0750    -3.5040    -0.1790 H     1 <1>   0.0800 
 28 H      -10.6050     0.4590     0.3690 H     1 <1>   0.0800 
 29 H      -10.2090    -0.5400     1.7340 H     1 <1>   0.0800 
 30 H       -9.6200    -2.1350    -2.2050 H     1 <1>   0.0800 
 31 H      -10.2430    -0.5210    -2.0510 H     1 <1>   0.0800 
 32 H       -7.0950     2.7860    -1.4750 H     1 <1>   0.1500 
 33 H      -11.4250    -3.6380     1.4220 H     1 <1>   0.0800 
 34 H      -11.1850    -4.2870    -0.1820 H     1 <1>   0.0800 
 35 H      -12.6700    -0.3640     0.2970 H     1 <1>   0.0800 
 36 H      -12.3190    -1.3350     1.7050 H     1 <1>   0.0800 
 37 H      -11.7390    -2.9060    -2.1750 H     1 <1>   0.0800 
 38 H      -12.3330    -1.2790    -1.9600 H     1 <1>   0.0800 
 39 H       -2.3350     2.1050    -0.5080 H     1 <1>   0.1500 
 40 H       -5.4990     4.5550    -1.9540 H     1 <1>   0.1500 
 41 H      -13.0280    -2.7190    -0.1410 H     1 <1>   0.4500 
 42 H       -3.4540    -0.9520    -1.7550 H     1 <1>   0.1500 
 43 H       -4.0040     0.6270     2.1550 H     1 <1>   0.1500 
 44 H       -3.1080     4.2290    -1.4750 H     1 <1>   0.1500 
 45 H       -2.6710    -3.0740    -0.7920 H     1 <1>   0.1500 
 46 H       -3.2220    -1.4920     3.1250 H     1 <1>   0.1500 
 47 H       -2.5570    -3.3480     1.6510 H     1 <1>   0.1500 
@<TRIPOS>BOND
  1   1   2  2   
  2   2   3  1   
  3   2   4  am  
  4   3   5  1   
  5   4   6  1   
  6   4  25  1   
  7   5   7  1   
  8   5   8  1   
  9   5   9  1   
 10   6  10  ar  
 11   6  11  ar  
 12   7  12  1   
 13   7  26  1   
 14   7  27  1   
 15   8  13  1   
 16   8  28  1   
 17   8  29  1   
 18   9  14  1   
 19   9  30  1   
 20   9  31  1   
 21  10  15  1   
 22  10  16  ar  
 23  11  17  ar  
 24  11  32  1   
 25  12  18  1   
 26  12  33  1   
 27  12  34  1   
 28  13  18  1   
 29  13  35  1   
 30  13  36  1   
 31  14  18  1   
 32  14  37  1   
 33  14  38  1   
 34  15  19  ar  
 35  15  20  ar  
 36  16  21  ar  
 37  16  39  1   
 38  17  21  ar  
 39  17  40  1   
 40  18  41  1   
 41  19  22  ar  
 42  19  42  1   
 43  20  23  ar  
 44  20  43  1   
 45  21  44  1   
 46  22  24  ar  
 47  22  45  1   
 48  23  24  ar  
 49  23  46  1   
 50  24  47  1   
@<TRIPOS>SUBSTRUCTURE
  1 ****   4 GROUP 4 **** **** 0

# MOE 2024.06 (io_trps.svl 2023.06)
