@<TRIPOS>MOLECULE
NONAME
25 25 1 0 0 
SMALL
USER_CHARGES


@<TRIPOS>ATOM
  1 O        0.2860    -1.1580     0.9170 O.3   1 <1>  -0.5600 
  2 C       -0.4720    -1.7910    -0.0960 C.3   1 <1>   0.7040 
  3 C        0.0840     0.2060     1.1600 C.3   1 <1>   0.0400 
  4 O       -0.2030    -1.0920    -1.2860 O.3   1 <1>  -0.5600 
  5 C       -0.0930    -3.3070    -0.2010 C.ar  1 <1>   0.1660 
  6 C       -1.9670    -1.6310     0.2000 C.3   1 <1>  -0.2400 
  7 C        1.0700    -1.2640    -1.8370 C.3   1 <1>   0.0400 
  8 N       -0.7340    -4.0550    -1.1070 N.ar  1 <1>  -0.6200 
  9 C        0.8870    -3.8410     0.6350 C.ar  1 <1>  -0.1500 
 10 C       -0.3930    -5.3300    -1.1760 C.ar  1 <1>   0.1600 
 11 C        1.2320    -5.1730     0.5520 C.ar  1 <1>  -0.1500 
 12 C        0.5670    -5.9310    -0.3840 C.ar  1 <1>  -0.1500 
 13 H        0.8580     0.5410     1.8290 H     1 <1>   0.0800 
 14 H       -0.8730     0.3520     1.6280 H     1 <1>   0.0800 
 15 H        0.1450     0.7590     0.2390 H     1 <1>   0.0800 
 16 H       -2.2670    -0.6020     0.1500 H     1 <1>   0.0800 
 17 H       -2.1880    -2.0370     1.1680 H     1 <1>   0.0800 
 18 H       -2.5340    -2.1770    -0.5310 H     1 <1>   0.0800 
 19 H        1.1790    -0.5650    -2.6460 H     1 <1>   0.0800 
 20 H        1.1620    -2.2660    -2.2180 H     1 <1>   0.0800 
 21 H        1.8190    -1.0730    -1.0880 H     1 <1>   0.0800 
 22 H        1.3880    -3.2220     1.3570 H     1 <1>   0.1500 
 23 H       -0.9090    -5.9300    -1.9060 H     1 <1>   0.1500 
 24 H        1.9860    -5.5980     1.1910 H     1 <1>   0.1500 
 25 H        0.7880    -6.9760    -0.5000 H     1 <1>   0.1500 
@<TRIPOS>BOND
  1   1   2  1   
  2   1   3  1   
  3   2   4  1   
  4   2   5  1   
  5   2   6  1   
  6   3  13  1   
  7   3  14  1   
  8   3  15  1   
  9   4   7  1   
 10   5   8  ar  
 11   5   9  ar  
 12   6  16  1   
 13   6  17  1   
 14   6  18  1   
 15   7  19  1   
 16   7  20  1   
 17   7  21  1   
 18   8  10  ar  
 19   9  11  ar  
 20   9  22  1   
 21  10  12  ar  
 22  10  23  1   
 23  11  12  ar  
 24  11  24  1   
 25  12  25  1   
@<TRIPOS>SUBSTRUCTURE
  1 ****   5 GROUP 4 **** **** 0

# MOE 2024.06 (io_trps.svl 2023.06)
