@<TRIPOS>MOLECULE
NONAME
50 52 1 0 0 
SMALL
USER_CHARGES


@<TRIPOS>ATOM
  1 N       -1.6820    -3.0420     2.7780 N.2   1 <1>  -0.5760 
  2 C       -1.9170    -3.0930     1.4290 C.2   1 <1>   0.3120 
  3 C       -2.1660    -2.0120     3.3980 C.2   1 <1>   0.3760 
  4 N       -1.5220    -4.0340     0.6300 N.2   1 <1>  -0.5650 
  5 N       -2.6410    -2.1560     0.7500 N.pl3 1 <1>   0.6010 
  6 C       -2.9190    -0.9880     2.7530 C.2   1 <1>  -0.1360 
  7 C       -2.0460    -3.6370    -0.5300 C.2   1 <1>   0.3350 
  8 N       -2.7430    -2.5450    -0.5220 N.2   1 <1>  -0.7070 
  9 C       -3.1580    -1.0690     1.4170 C.2   1 <1>  -0.1810 
 10 C       -1.8530    -4.4930    -1.7870 C.3   1 <1>   0.5240 
 11 N       -2.8190    -5.6630    -1.8470 N.4   1 <1>  -0.9590 
 12 C       -2.8020    -6.4890    -0.5890 C.3   1 <1>   0.4230 
 13 C       -2.6320    -6.4150    -3.1320 C.3   1 <1>   0.2630 
 14 C       -1.4900    -7.2500    -0.3850 C.3   1 <1>  -0.1600 
 15 C       -3.9570    -7.4870    -0.5700 C.3   1 <1>  -0.1600 
 16 C       -1.4750    -7.9800     0.9680 C.3   1 <1>   0.5030 
 17 C       -4.0350    -8.2110     0.7830 C.3   1 <1>   0.5030 
 18 N       -2.7200    -8.7330     1.1900 N.4   1 <1>  -0.9060 
 19 C       -0.3560    -9.0190     0.9730 C.3   1 <1>  -0.2400 
 20 C       -1.2420    -7.0290     2.1440 C.3   1 <1>  -0.2400 
 21 C       -4.9450    -9.4310     0.6630 C.3   1 <1>  -0.2400 
 22 C       -4.5930    -7.3020     1.8810 C.3   1 <1>  -0.2400 
 23 H       -2.0010    -1.9160     4.4570 H     1 <1>   0.0600 
 24 H       -3.2800    -0.1720     3.3550 H     1 <1>   0.1500 
 25 H       -3.7150    -0.3560     0.8360 H     1 <1>   0.1500 
 26 H       -0.8370    -4.8490    -1.8020 H     1 <1>   0.0800 
 27 H       -1.9960    -3.8590    -2.6460 H     1 <1>   0.0800 
 28 H       -3.7440    -5.2060    -1.8830 H     1 <1>   0.4500 
 29 H       -2.9420    -5.8280     0.2500 H     1 <1>   0.0800 
 30 H       -1.6590    -6.8800    -3.1620 H     1 <1>   0.0800 
 31 H       -2.7150    -5.7450    -3.9730 H     1 <1>   0.0800 
 32 H       -3.3840    -7.1790    -3.2380 H     1 <1>   0.0800 
 33 H       -0.6550    -6.5730    -0.4080 H     1 <1>   0.0800 
 34 H       -1.3550    -7.9660    -1.1750 H     1 <1>   0.0800 
 35 H       -3.8310    -8.2140    -1.3520 H     1 <1>   0.0800 
 36 H       -4.8870    -6.9740    -0.7430 H     1 <1>   0.0800 
 37 H       -2.7700    -8.9400     2.1930 H     1 <1>   0.4500 
 38 H       -2.6030    -9.6460     0.7430 H     1 <1>   0.4500 
 39 H       -0.4780    -9.7400     0.1830 H     1 <1>   0.0800 
 40 H       -0.3090    -9.5380     1.9150 H     1 <1>   0.0800 
 41 H        0.5950    -8.5360     0.8270 H     1 <1>   0.0800 
 42 H       -1.9530    -6.2300     2.1850 H     1 <1>   0.0800 
 43 H       -0.2730    -6.5670     2.0520 H     1 <1>   0.0800 
 44 H       -1.2550    -7.5550     3.0820 H     1 <1>   0.0800 
 45 H       -4.5860   -10.1230    -0.0790 H     1 <1>   0.0800 
 46 H       -5.9350    -9.1260     0.3680 H     1 <1>   0.0800 
 47 H       -5.0340    -9.9440     1.6050 H     1 <1>   0.0800 
 48 H       -4.0840    -6.3610     1.9470 H     1 <1>   0.0800 
 49 H       -4.5580    -7.7870     2.8420 H     1 <1>   0.0800 
 50 H       -5.6260    -7.0770     1.6760 H     1 <1>   0.0800 
@<TRIPOS>BOND
  1   1   2  1   
  2   1   3  2   
  3   2   4  2   
  4   2   5  1   
  5   3   6  1   
  6   3  23  1   
  7   4   7  1   
  8   5   8  1   
  9   5   9  1   
 10   6   9  2   
 11   6  24  1   
 12   7   8  2   
 13   7  10  1   
 14   9  25  1   
 15  10  11  1   
 16  10  26  1   
 17  10  27  1   
 18  11  12  1   
 19  11  13  1   
 20  11  28  1   
 21  12  14  1   
 22  12  15  1   
 23  12  29  1   
 24  13  30  1   
 25  13  31  1   
 26  13  32  1   
 27  14  16  1   
 28  14  33  1   
 29  14  34  1   
 30  15  17  1   
 31  15  35  1   
 32  15  36  1   
 33  16  18  1   
 34  16  19  1   
 35  16  20  1   
 36  17  18  1   
 37  17  21  1   
 38  17  22  1   
 39  18  37  1   
 40  18  38  1   
 41  19  39  1   
 42  19  40  1   
 43  19  41  1   
 44  20  42  1   
 45  20  43  1   
 46  20  44  1   
 47  21  45  1   
 48  21  46  1   
 49  21  47  1   
 50  22  48  1   
 51  22  49  1   
 52  22  50  1   
@<TRIPOS>SUBSTRUCTURE
  1 ****  12 GROUP 4 **** **** 0

# MOE 2024.06 (io_trps.svl 2023.06)
