@<TRIPOS>MOLECULE
NONAME
50 52 1 0 0 
SMALL
USER_CHARGES


@<TRIPOS>ATOM
  1 F       -2.6550     1.5390    -2.0230 F     1 <1>  -0.1900 
  2 C       -1.8240     2.2470    -1.3050 C.ar  1 <1>   0.1900 
  3 C       -2.1960     2.7000    -0.0340 C.ar  1 <1>   0.0860 
  4 C       -0.5930     2.5110    -1.8790 C.ar  1 <1>  -0.1500 
  5 C       -3.4810     2.4340     0.5940 C.2   1 <1>   0.5440 
  6 C       -1.2310     3.4580     0.6380 C.ar  1 <1>  -0.1500 
  7 C        0.3310     3.2620    -1.1770 C.ar  1 <1>  -0.1500 
  8 O       -3.8380     3.0890     1.5540 O.2   1 <1>  -0.5700 
  9 N       -4.3250     1.4550     0.1480 N.am  1 <1>  -0.7300 
 10 C        0.0070     3.7350     0.0830 C.ar  1 <1>  -0.1500 
 11 C       -5.6110     1.0700     0.7780 C.3   1 <1>   0.1400 
 12 C       -6.7130     2.0280     0.3220 C.3   1 <1>  -0.0990 
 13 C       -8.0780     1.6590     0.8770 C.2   1 <1>   0.5690 
 14 O       -8.2200     0.5580     1.3570 O.2   1 <1>  -0.5700 
 15 N       -9.1180     2.5520     0.8080 N.am  1 <1>  -0.6600 
 16 C      -10.4550     2.2240     1.3880 C.3   1 <1>   0.1400 
 17 C       -9.0920     3.8660     0.1090 C.3   1 <1>   0.1400 
 18 C      -11.5150     2.1330     0.2740 C.3   1 <1>   0.0000 
 19 C      -10.1200     3.8610    -1.0300 C.3   1 <1>  -0.1600 
 20 C      -12.8880     1.7720     0.8730 C.3   1 <1>   0.2000 
 21 C      -11.5240     3.4590    -0.5390 C.3   1 <1>  -0.1600 
 22 C      -11.2730     0.9240    -0.6490 C.3   1 <1>  -0.1600 
 23 O      -13.5740     2.8700     1.3590 O.3   1 <1>  -0.6800 
 24 C      -13.6850     1.1020    -0.2450 C.3   1 <1>  -0.1600 
 25 C      -12.6430     0.5640    -1.2350 C.3   1 <1>  -0.1600 
 26 H       -0.3640     2.1350    -2.8600 H     1 <1>   0.1500 
 27 H       -1.4590     3.8390     1.6200 H     1 <1>   0.1500 
 28 H        1.2950     3.4790    -1.6070 H     1 <1>   0.1500 
 29 H       -4.0700     0.9400    -0.6990 H     1 <1>   0.3700 
 30 H        0.7220     4.3230     0.6340 H     1 <1>   0.1500 
 31 H       -5.8560     0.0580     0.5010 H     1 <1>   0.0800 
 32 H       -5.5160     1.1140     1.8510 H     1 <1>   0.0800 
 33 H       -6.7720     2.0250    -0.7490 H     1 <1>   0.0800 
 34 H       -6.4550     3.0130     0.6650 H     1 <1>   0.0800 
 35 H      -10.4150     1.2970     1.9340 H     1 <1>   0.0800 
 36 H      -10.7320     2.9970     2.0840 H     1 <1>   0.0800 
 37 H       -9.3370     4.6400     0.8160 H     1 <1>   0.0800 
 38 H       -8.1190     4.0830    -0.2930 H     1 <1>   0.0800 
 39 H      -10.1630     4.8440    -1.4650 H     1 <1>   0.0800 
 40 H       -9.7840     3.1890    -1.7980 H     1 <1>   0.0800 
 41 H      -12.7610     1.0760     1.6860 H     1 <1>   0.0800 
 42 H      -12.1900     3.3840    -1.3800 H     1 <1>   0.0800 
 43 H      -11.8790     4.2580     0.0890 H     1 <1>   0.0800 
 44 H      -10.5440     1.1090    -1.4160 H     1 <1>   0.0800 
 45 H      -10.9230     0.0930    -0.0590 H     1 <1>   0.0800 
 46 H      -13.7750     3.4790     0.6250 H     1 <1>   0.4000 
 47 H      -14.2810     0.3010     0.1560 H     1 <1>   0.0800 
 48 H      -14.3250     1.8080    -0.7450 H     1 <1>   0.0800 
 49 H      -12.7350    -0.5010    -1.3670 H     1 <1>   0.0800 
 50 H      -12.7690     1.0440    -2.1900 H     1 <1>   0.0800 
@<TRIPOS>BOND
  1   1   2  1   
  2   2   3  ar  
  3   2   4  ar  
  4   3   5  1   
  5   3   6  ar  
  6   4   7  ar  
  7   4  26  1   
  8   5   8  2   
  9   5   9  am  
 10   6  10  ar  
 11   6  27  1   
 12   7  10  ar  
 13   7  28  1   
 14   9  11  1   
 15   9  29  1   
 16  10  30  1   
 17  11  12  1   
 18  11  31  1   
 19  11  32  1   
 20  12  13  1   
 21  12  33  1   
 22  12  34  1   
 23  13  14  2   
 24  13  15  am  
 25  15  16  1   
 26  15  17  1   
 27  16  18  1   
 28  16  35  1   
 29  16  36  1   
 30  17  19  1   
 31  17  37  1   
 32  17  38  1   
 33  18  20  1   
 34  18  21  1   
 35  18  22  1   
 36  19  21  1   
 37  19  39  1   
 38  19  40  1   
 39  20  23  1   
 40  20  24  1   
 41  20  41  1   
 42  21  42  1   
 43  21  43  1   
 44  22  25  1   
 45  22  44  1   
 46  22  45  1   
 47  23  46  1   
 48  24  25  1   
 49  24  47  1   
 50  24  48  1   
 51  25  49  1   
 52  25  50  1   
@<TRIPOS>SUBSTRUCTURE
  1 ****  12 GROUP 4 **** **** 0

# MOE 2024.06 (io_trps.svl 2023.06)
