@<TRIPOS>MOLECULE
NONAME
64 66 1 0 0 
SMALL
USER_CHARGES


@<TRIPOS>ATOM
  1 CL      -2.5110     1.0550    -0.7410 Cl    1 <1>  -0.1770 
  2 C       -3.1950    -0.5210    -0.3880 C.ar  1 <1>   0.1770 
  3 C       -4.1640    -1.0420    -1.2380 C.ar  1 <1>  -0.1440 
  4 C       -2.7560    -1.2130     0.7350 C.ar  1 <1>  -0.1440 
  5 C       -4.6980    -2.2880    -0.9510 C.ar  1 <1>  -0.1500 
  6 C       -4.6380    -0.2700    -2.4610 C.3   1 <1>  -0.0960 
  7 C       -3.3020    -2.4580     1.0020 C.ar  1 <1>  -0.1500 
  8 C       -1.7020    -0.6270     1.6620 C.3   1 <1>  -0.0960 
  9 C       -4.2560    -2.9990     0.1550 C.ar  1 <1>   0.0820 
 10 O       -4.7970    -4.2030     0.4500 O.3   1 <1>  -0.3630 
 11 C       -4.3220    -5.4320    -0.1120 C.3   1 <1>   0.3410 
 12 C       -5.2560    -6.6090     0.3370 C.2   1 <1>   0.5690 
 13 C       -4.2990    -5.3520    -1.6510 C.3   1 <1>  -0.2400 
 14 C       -2.8770    -5.6300     0.3940 C.3   1 <1>  -0.2400 
 15 O       -4.7190    -7.6760     0.5550 O.2   1 <1>  -0.5700 
 16 N       -6.6370    -6.5130     0.4650 N.am  1 <1>  -0.6600 
 17 C       -7.4390    -5.3150     0.0680 C.3   1 <1>   0.2200 
 18 C       -7.3900    -7.6760     1.0370 C.3   1 <1>   0.0600 
 19 C       -7.9050    -4.4990     1.2720 C.3   1 <1>  -0.1600 
 20 C       -8.7250    -5.6140    -0.7050 C.3   1 <1>  -0.1600 
 21 C       -9.0460    -3.6360     0.7210 C.3   1 <1>  -0.0800 
 22 C       -9.5540    -4.3310    -0.5480 C.3   1 <1>  -0.0800 
 23 C      -10.2680    -3.4970     1.6400 C.3   1 <1>  -0.1600 
 24 C      -11.0620    -4.5370    -0.3380 C.3   1 <1>  -0.1600 
 25 C      -11.4780    -3.4880     0.7000 C.3   1 <1>   0.4230 
 26 N      -11.6400    -2.1400     0.0630 N.4   1 <1>  -0.9590 
 27 C      -11.9250    -1.0600     1.0630 C.3   1 <1>   0.2630 
 28 C      -12.7180    -2.1150    -0.9790 C.3   1 <1>   0.2630 
 29 H       -5.4550    -2.7140    -1.5800 H     1 <1>   0.1500 
 30 H       -5.3860    -0.8190    -3.0020 H     1 <1>   0.0800 
 31 H       -3.8080    -0.0850    -3.1200 H     1 <1>   0.0800 
 32 H       -5.0560     0.6740    -2.1600 H     1 <1>   0.0800 
 33 H       -2.9960    -3.0180     1.8670 H     1 <1>   0.1500 
 34 H       -1.4870    -1.2960     2.4750 H     1 <1>   0.0800 
 35 H       -2.0500     0.3050     2.0710 H     1 <1>   0.0800 
 36 H       -0.7920    -0.4490     1.1180 H     1 <1>   0.0800 
 37 H       -3.9780    -6.2990    -2.0480 H     1 <1>   0.0800 
 38 H       -3.6060    -4.6040    -1.9920 H     1 <1>   0.0800 
 39 H       -5.2770    -5.1480    -2.0430 H     1 <1>   0.0800 
 40 H       -2.4800    -6.5580     0.0230 H     1 <1>   0.0800 
 41 H       -2.8680    -5.6720     1.4680 H     1 <1>   0.0800 
 42 H       -2.2310    -4.8420     0.0560 H     1 <1>   0.0800 
 43 H       -6.8570    -4.6730    -0.5640 H     1 <1>   0.0800 
 44 H       -8.2240    -7.3410     1.6240 H     1 <1>   0.0800 
 45 H       -6.7530    -8.2640     1.6750 H     1 <1>   0.0800 
 46 H       -7.7440    -8.3030     0.2380 H     1 <1>   0.0800 
 47 H       -8.2570    -5.1550     2.0450 H     1 <1>   0.0800 
 48 H       -7.1080    -3.8910     1.6640 H     1 <1>   0.0800 
 49 H       -8.5150    -5.8280    -1.7380 H     1 <1>   0.0800 
 50 H       -9.2490    -6.4440    -0.2710 H     1 <1>   0.0800 
 51 H       -8.6620    -2.6630     0.4580 H     1 <1>   0.0800 
 52 H       -9.3770    -3.6850    -1.3930 H     1 <1>   0.0800 
 53 H      -10.1930    -2.6510     2.2960 H     1 <1>   0.0800 
 54 H      -10.3510    -4.3740     2.2580 H     1 <1>   0.0800 
 55 H      -11.2330    -5.5030     0.1040 H     1 <1>   0.0800 
 56 H      -11.6120    -4.5090    -1.2590 H     1 <1>   0.0800 
 57 H      -12.3820    -3.7750     1.2140 H     1 <1>   0.0800 
 58 H      -10.7400    -1.9320    -0.3920 H     1 <1>   0.4500 
 59 H      -12.8140    -1.2950     1.6260 H     1 <1>   0.0800 
 60 H      -12.0750    -0.1170     0.5610 H     1 <1>   0.0800 
 61 H      -11.1020    -0.9450     1.7480 H     1 <1>   0.0800 
 62 H      -13.6590    -2.4210    -0.5520 H     1 <1>   0.0800 
 63 H      -12.4770    -2.7750    -1.7950 H     1 <1>   0.0800 
 64 H      -12.8280    -1.1190    -1.3770 H     1 <1>   0.0800 
@<TRIPOS>BOND
  1   1   2  1   
  2   2   3  ar  
  3   2   4  ar  
  4   3   5  ar  
  5   3   6  1   
  6   4   7  ar  
  7   4   8  1   
  8   5   9  ar  
  9   5  29  1   
 10   6  30  1   
 11   6  31  1   
 12   6  32  1   
 13   7   9  ar  
 14   7  33  1   
 15   8  34  1   
 16   8  35  1   
 17   8  36  1   
 18   9  10  1   
 19  10  11  1   
 20  11  12  1   
 21  11  13  1   
 22  11  14  1   
 23  12  15  2   
 24  12  16  am  
 25  13  37  1   
 26  13  38  1   
 27  13  39  1   
 28  14  40  1   
 29  14  41  1   
 30  14  42  1   
 31  16  17  1   
 32  16  18  1   
 33  17  19  1   
 34  17  20  1   
 35  17  43  1   
 36  18  44  1   
 37  18  45  1   
 38  18  46  1   
 39  19  21  1   
 40  19  47  1   
 41  19  48  1   
 42  20  22  1   
 43  20  49  1   
 44  20  50  1   
 45  21  22  1   
 46  21  23  1   
 47  21  51  1   
 48  22  24  1   
 49  22  52  1   
 50  23  25  1   
 51  23  53  1   
 52  23  54  1   
 53  24  25  1   
 54  24  55  1   
 55  24  56  1   
 56  25  26  1   
 57  25  57  1   
 58  26  27  1   
 59  26  28  1   
 60  26  58  1   
 61  27  59  1   
 62  27  60  1   
 63  27  61  1   
 64  28  62  1   
 65  28  63  1   
 66  28  64  1   
@<TRIPOS>SUBSTRUCTURE
  1 ****  10 GROUP 4 **** **** 0

# MOE 2024.06 (io_trps.svl 2023.06)
