@<TRIPOS>MOLECULE
NONAME
54 58 1 0 0 
SMALL
USER_CHARGES


@<TRIPOS>ATOM
  1 O       -0.5080    -1.3710     2.0620 O.3   1 <1>  -0.0190 
  2 N        0.5150    -0.5730     2.0660 N.2   1 <1>  -0.4100 
  3 C       -0.2770    -2.1850     1.0610 C.2   1 <1>   0.2980 
  4 C        1.2760    -0.9320     1.1080 C.2   1 <1>   0.3350 
  5 N        0.8190    -1.9860     0.4400 N.2   1 <1>  -0.5650 
  6 C       -1.3070    -3.2730     0.7620 C.3   1 <1>   0.2900 
  7 C        2.6000    -0.2630     0.7480 C.3   1 <1>   0.3010 
  8 N       -2.3650    -2.8540    -0.1890 N.3   1 <1>  -0.8100 
  9 O        2.4220     0.7170    -0.2410 O.3   1 <1>  -0.5600 
 10 C       -3.1810    -1.7160     0.2780 C.3   1 <1>   0.1100 
 11 C       -3.2100    -3.9890    -0.6120 C.3   1 <1>   0.1100 
 12 C        3.5980     1.3420    -0.6400 C.3   1 <1>   0.0400 
 13 C       -3.9430    -1.0850    -0.9090 C.3   1 <1>   0.1430 
 14 C       -4.5340    -3.5380    -1.2620 C.3   1 <1>  -0.1600 
 15 C       -5.0830    -0.2550    -0.3420 C.ar  1 <1>   0.1670 
 16 C       -4.4100    -2.1580    -1.9260 C.3   1 <1>  -0.1600 
 17 C       -3.0720    -0.0060    -1.6040 C.3   1 <1>  -0.1600 
 18 N       -6.2130    -0.7260     0.1320 N.ar  1 <1>  -0.6200 
 19 C       -4.7890     1.0730    -0.3640 C.ar  1 <1>  -0.1440 
 20 C       -3.4230     1.3380    -0.9460 C.3   1 <1>  -0.0170 
 21 C       -7.0810     0.1850     0.5900 C.ar  1 <1>   0.6200 
 22 C       -5.7270     1.9430     0.1270 C.ar  1 <1>   0.1600 
 23 N       -6.8730     1.5100     0.6020 N.ar  1 <1>  -0.6200 
 24 C       -8.3480    -0.3040     1.1190 C.ar  1 <1>   0.0000 
 25 C       -9.5050     0.4790     1.0930 C.ar  1 <1>  -0.1500 
 26 C       -8.4660    -1.5810     1.6760 C.ar  1 <1>  -0.1500 
 27 C      -10.7100     0.0190     1.5930 C.ar  1 <1>  -0.1500 
 28 C       -9.6670    -2.0500     2.1780 C.ar  1 <1>  -0.1500 
 29 C      -10.7930    -1.2490     2.1380 C.ar  1 <1>  -0.1500 
 30 H       -1.7560    -3.5960     1.6850 H     1 <1>   0.0800 
 31 H       -0.7790    -4.1080     0.3370 H     1 <1>   0.0800 
 32 H        3.2840    -1.0050     0.3790 H     1 <1>   0.0800 
 33 H        3.0100     0.2080     1.6230 H     1 <1>   0.0800 
 34 H       -2.5700    -0.9580     0.7330 H     1 <1>   0.0800 
 35 H       -3.8820    -2.0620     1.0200 H     1 <1>   0.0800 
 36 H       -3.4370    -4.6190     0.2320 H     1 <1>   0.0800 
 37 H       -2.6500    -4.5740    -1.3230 H     1 <1>   0.0800 
 38 H        3.3490     2.0700    -1.3930 H     1 <1>   0.0800 
 39 H        4.2680     0.6090    -1.0550 H     1 <1>   0.0800 
 40 H        4.0460     1.8350     0.2050 H     1 <1>   0.0800 
 41 H       -5.2980    -3.4930    -0.5060 H     1 <1>   0.0800 
 42 H       -4.8450    -4.2710    -1.9850 H     1 <1>   0.0800 
 43 H       -3.6820    -2.2450    -2.7140 H     1 <1>   0.0800 
 44 H       -5.3470    -1.8690    -2.3700 H     1 <1>   0.0800 
 45 H       -3.3400     0.0550    -2.6440 H     1 <1>   0.0800 
 46 H       -2.0210    -0.2300    -1.5370 H     1 <1>   0.0800 
 47 H       -3.4380     2.1390    -1.6640 H     1 <1>   0.0800 
 48 H       -2.7270     1.5660    -0.1560 H     1 <1>   0.0800 
 49 H       -5.5380     3.0030     0.1310 H     1 <1>   0.1500 
 50 H       -9.4600     1.4690     0.6720 H     1 <1>   0.1500 
 51 H       -7.6000    -2.2190     1.7170 H     1 <1>   0.1500 
 52 H      -11.5820     0.6470     1.5590 H     1 <1>   0.1500 
 53 H       -9.7250    -3.0380     2.6000 H     1 <1>   0.1500 
 54 H      -11.7290    -1.6110     2.5280 H     1 <1>   0.1500 
@<TRIPOS>BOND
  1   1   2  1   
  2   1   3  1   
  3   2   4  2   
  4   3   5  2   
  5   3   6  1   
  6   4   5  1   
  7   4   7  1   
  8   6   8  1   
  9   6  30  1   
 10   6  31  1   
 11   7   9  1   
 12   7  32  1   
 13   7  33  1   
 14   8  10  1   
 15   8  11  1   
 16   9  12  1   
 17  10  13  1   
 18  10  34  1   
 19  10  35  1   
 20  11  14  1   
 21  11  36  1   
 22  11  37  1   
 23  12  38  1   
 24  12  39  1   
 25  12  40  1   
 26  13  15  1   
 27  13  16  1   
 28  13  17  1   
 29  14  16  1   
 30  14  41  1   
 31  14  42  1   
 32  15  18  ar  
 33  15  19  ar  
 34  16  43  1   
 35  16  44  1   
 36  17  20  1   
 37  17  45  1   
 38  17  46  1   
 39  18  21  ar  
 40  19  20  1   
 41  19  22  ar  
 42  20  47  1   
 43  20  48  1   
 44  21  23  ar  
 45  21  24  1   
 46  22  23  ar  
 47  22  49  1   
 48  24  25  ar  
 49  24  26  ar  
 50  25  27  ar  
 51  25  50  1   
 52  26  28  ar  
 53  26  51  1   
 54  27  29  ar  
 55  27  52  1   
 56  28  29  ar  
 57  28  53  1   
 58  29  54  1   
@<TRIPOS>SUBSTRUCTURE
  1 ****  10 GROUP 4 **** **** 0

# MOE 2024.06 (io_trps.svl 2023.06)
