@<TRIPOS>MOLECULE
NONAME
57 59 1 0 0 
SMALL
USER_CHARGES


@<TRIPOS>ATOM
  1 O       -2.4320     2.1000     1.7420 O.2   1 <1>  -0.5700 
  2 C       -2.1490     1.5820     0.6860 C.2   1 <1>   0.5690 
  3 N       -2.3270     0.2540     0.4740 N.am  1 <1>  -0.7300 
  4 C       -1.5520     2.4490    -0.4350 C.3   1 <1>   0.1710 
  5 C       -2.9520    -0.6870     1.4180 C.3   1 <1>   0.2840 
  6 N       -0.1060     2.8170    -0.2780 N.3   1 <1>  -0.8100 
  7 C       -3.9400    -1.5440     0.6460 C.ar  1 <1>  -0.1430 
  8 C        0.0640     3.6230     0.9700 C.3   1 <1>   0.1100 
  9 C        0.7240     1.5940    -0.2480 C.3   1 <1>   0.1100 
 10 C       -3.4960    -2.5080    -0.2570 C.ar  1 <1>   0.0830 
 11 C       -5.3010    -1.3640     0.8430 C.ar  1 <1>  -0.1500 
 12 C        1.2640     4.5870     0.9170 C.3   1 <1>   0.3430 
 13 C        2.1530     1.8640    -0.7350 C.3   1 <1>  -0.1600 
 14 O       -2.1530    -2.6410    -0.4310 O.3   1 <1>  -0.3620 
 15 C       -4.4250    -3.2850    -0.9440 C.ar  1 <1>  -0.1500 
 16 C       -6.2180    -2.1390     0.1560 C.ar  1 <1>  -0.1500 
 17 N        2.1460     4.2480    -0.2380 N.4   1 <1>  -0.9590 
 18 C        2.8840     2.9880    -0.0030 C.3   1 <1>   0.3430 
 19 C       -1.6110    -3.7090    -1.1780 C.3   1 <1>   0.0400 
 20 C       -5.7800    -3.1000    -0.7360 C.ar  1 <1>  -0.1500 
 21 C        2.9980     5.3410    -0.7790 C.3   1 <1>   0.4230 
 22 C        3.9790     5.8830     0.2730 C.3   1 <1>  -0.1600 
 23 C        2.1520     6.5350    -1.2290 C.3   1 <1>  -0.1600 
 24 C        3.7500     7.3960     0.3580 C.3   1 <1>  -0.1600 
 25 C        2.3400     7.6260    -0.1740 C.3   1 <1>  -0.1600 
 26 H       -2.1240    -0.1840    -0.4270 H     1 <1>   0.3700 
 27 H       -2.1370     3.3500    -0.4960 H     1 <1>   0.0800 
 28 H       -1.6830     1.9340    -1.3710 H     1 <1>   0.0800 
 29 H       -3.4490    -0.1500     2.2080 H     1 <1>   0.0800 
 30 H       -2.1930    -1.3120     1.8570 H     1 <1>   0.0800 
 31 H        0.1560     2.9750     1.8260 H     1 <1>   0.0800 
 32 H       -0.8150     4.2230     1.1400 H     1 <1>   0.0800 
 33 H        0.2960     0.8520    -0.9030 H     1 <1>   0.0800 
 34 H        0.7360     1.1720     0.7440 H     1 <1>   0.0800 
 35 H       -5.6550    -0.6170     1.5330 H     1 <1>   0.1500 
 36 H        1.8110     4.5590     1.8440 H     1 <1>   0.0800 
 37 H        0.8770     5.5830     0.7950 H     1 <1>   0.0800 
 38 H        2.1360     2.0720    -1.7900 H     1 <1>   0.0800 
 39 H        2.7210     0.9590    -0.6090 H     1 <1>   0.0800 
 40 H       -4.1170    -4.0360    -1.6470 H     1 <1>   0.1500 
 41 H       -7.2730    -1.9930     0.3160 H     1 <1>   0.1500 
 42 H        1.4390     3.9850    -0.9510 H     1 <1>   0.4500 
 43 H        3.8870     3.0690    -0.3890 H     1 <1>   0.0800 
 44 H        2.9390     2.7730     1.0510 H     1 <1>   0.0800 
 45 H       -0.5400    -3.6540    -1.1130 H     1 <1>   0.0800 
 46 H       -1.9200    -3.6110    -2.2040 H     1 <1>   0.0800 
 47 H       -1.9550    -4.6380    -0.7590 H     1 <1>   0.0800 
 48 H       -6.4950    -3.7030    -1.2690 H     1 <1>   0.1500 
 49 H        3.5490     4.9710    -1.6290 H     1 <1>   0.0800 
 50 H        4.9940     5.6860    -0.0260 H     1 <1>   0.0800 
 51 H        3.8170     5.4420     1.2390 H     1 <1>   0.0800 
 52 H        1.1160     6.2920    -1.3910 H     1 <1>   0.0800 
 53 H        2.5600     6.8960    -2.1570 H     1 <1>   0.0800 
 54 H        4.4540     7.9010    -0.2820 H     1 <1>   0.0800 
 55 H        3.8680     7.7710     1.3610 H     1 <1>   0.0800 
 56 H        1.6270     7.5080     0.6230 H     1 <1>   0.0800 
 57 H        2.2280     8.6130    -0.5920 H     1 <1>   0.0800 
@<TRIPOS>BOND
  1   1   2  2   
  2   2   3  am  
  3   2   4  1   
  4   3   5  1   
  5   3  26  1   
  6   4   6  1   
  7   4  27  1   
  8   4  28  1   
  9   5   7  1   
 10   5  29  1   
 11   5  30  1   
 12   6   8  1   
 13   6   9  1   
 14   7  10  ar  
 15   7  11  ar  
 16   8  12  1   
 17   8  31  1   
 18   8  32  1   
 19   9  13  1   
 20   9  33  1   
 21   9  34  1   
 22  10  14  1   
 23  10  15  ar  
 24  11  16  ar  
 25  11  35  1   
 26  12  17  1   
 27  12  36  1   
 28  12  37  1   
 29  13  18  1   
 30  13  38  1   
 31  13  39  1   
 32  14  19  1   
 33  15  20  ar  
 34  15  40  1   
 35  16  20  ar  
 36  16  41  1   
 37  17  18  1   
 38  17  21  1   
 39  17  42  1   
 40  18  43  1   
 41  18  44  1   
 42  19  45  1   
 43  19  46  1   
 44  19  47  1   
 45  20  48  1   
 46  21  22  1   
 47  21  23  1   
 48  21  49  1   
 49  22  24  1   
 50  22  50  1   
 51  22  51  1   
 52  23  25  1   
 53  23  52  1   
 54  23  53  1   
 55  24  25  1   
 56  24  54  1   
 57  24  55  1   
 58  25  56  1   
 59  25  57  1   
@<TRIPOS>SUBSTRUCTURE
  1 ****   4 GROUP 4 **** **** 0

# MOE 2024.06 (io_trps.svl 2023.06)
