@<TRIPOS>MOLECULE
NONAME
49 53 1 0 0 
SMALL
USER_CHARGES


@<TRIPOS>ATOM
  1 S        0.6560    -2.1300     0.8410 S.3   1 <1>  -0.0800 
  2 C       -1.0280    -1.8480     0.4630 C.ar  1 <1>   0.0400 
  3 C        0.8090    -3.0730    -0.6380 C.2   1 <1>   0.1980 
  4 C       -1.3130    -2.4820    -0.7310 C.ar  1 <1>   0.2270 
  5 C       -1.9650    -1.1290     1.1800 C.ar  1 <1>  -0.1500 
  6 N       -0.2550    -3.1660    -1.3240 N.2   1 <1>  -0.5650 
  7 C        2.1670    -3.6640    -0.9350 C.3   1 <1>  -0.0600 
  8 C       -2.6010    -2.3950    -1.2320 C.ar  1 <1>  -0.1500 
  9 C       -3.2450    -1.0580     0.6620 C.ar  1 <1>  -0.1500 
 10 C       -3.5880    -1.6920    -0.5430 C.ar  1 <1>   0.0860 
 11 C       -4.9380    -1.6180    -1.0650 C.2   1 <1>   0.5440 
 12 O       -5.1270    -1.0970    -2.1470 O.2   1 <1>  -0.5700 
 13 N       -6.0140    -2.1250    -0.3660 N.am  1 <1>  -0.6600 
 14 C       -7.4120    -1.9470    -0.8920 C.3   1 <1>   0.1400 
 15 C       -5.8560    -2.9620     0.8620 C.3   1 <1>   0.1400 
 16 C       -8.4560    -1.9280     0.2400 C.3   1 <1>   0.1430 
 17 C       -7.0220    -3.9440     1.0110 C.3   1 <1>  -0.1600 
 18 C       -9.8240    -1.6800    -0.3770 C.ar  1 <1>   0.1670 
 19 C       -8.3990    -3.2500     1.0540 C.3   1 <1>  -0.1600 
 20 C       -8.2740    -0.6680     1.1380 C.3   1 <1>  -0.1600 
 21 N      -10.5300    -2.5580    -1.0560 N.ar  1 <1>  -0.6200 
 22 C      -10.2490    -0.4020    -0.1660 C.ar  1 <1>  -0.1430 
 23 C       -9.2440     0.4050     0.6150 C.3   1 <1>  -0.0160 
 24 C      -11.6910    -2.1040    -1.5040 C.ar  1 <1>   0.4770 
 25 C      -11.4700    -0.0370    -0.6760 C.ar  1 <1>   0.1600 
 26 N      -12.2080    -0.8920    -1.3530 N.ar  1 <1>  -0.6200 
 27 C      -12.5240    -3.0910    -2.2860 C.3   1 <1>  -0.0970 
 28 H       -1.6950    -0.6450     2.1030 H     1 <1>   0.1500 
 29 H        2.4550    -4.3310    -0.1440 H     1 <1>   0.0800 
 30 H        2.8950    -2.8790    -1.0230 H     1 <1>   0.0800 
 31 H        2.1290    -4.2120    -1.8590 H     1 <1>   0.0800 
 32 H       -2.8320    -2.8760    -2.1650 H     1 <1>   0.1500 
 33 H       -4.0030    -0.5010     1.1850 H     1 <1>   0.1500 
 34 H       -7.6340    -2.7560    -1.5660 H     1 <1>   0.0800 
 35 H       -7.4770    -1.0300    -1.4530 H     1 <1>   0.0800 
 36 H       -5.8150    -2.3190     1.7230 H     1 <1>   0.0800 
 37 H       -4.9340    -3.5170     0.8090 H     1 <1>   0.0800 
 38 H       -6.8880    -4.5330     1.9010 H     1 <1>   0.0800 
 39 H       -6.9930    -4.6210     0.1740 H     1 <1>   0.0800 
 40 H       -9.1180    -3.9470     0.6580 H     1 <1>   0.0800 
 41 H       -8.6840    -3.0720     2.0750 H     1 <1>   0.0800 
 42 H       -7.2620    -0.3040     1.1420 H     1 <1>   0.0800 
 43 H       -8.5520    -0.8920     2.1510 H     1 <1>   0.0800 
 44 H       -8.7370     1.0860    -0.0470 H     1 <1>   0.0800 
 45 H       -9.7060     0.9490     1.4200 H     1 <1>   0.0800 
 46 H      -11.8460     0.9610    -0.5340 H     1 <1>   0.1500 
 47 H      -12.4650    -4.0600    -1.8290 H     1 <1>   0.0800 
 48 H      -12.1500    -3.1500    -3.2900 H     1 <1>   0.0800 
 49 H      -13.5510    -2.7770    -2.3090 H     1 <1>   0.0800 
@<TRIPOS>BOND
  1   1   2  1   
  2   1   3  1   
  3   2   4  ar  
  4   2   5  ar  
  5   3   6  2   
  6   3   7  1   
  7   4   6  1   
  8   4   8  ar  
  9   5   9  ar  
 10   5  28  1   
 11   7  29  1   
 12   7  30  1   
 13   7  31  1   
 14   8  10  ar  
 15   8  32  1   
 16   9  10  ar  
 17   9  33  1   
 18  10  11  1   
 19  11  12  2   
 20  11  13  am  
 21  13  14  1   
 22  13  15  1   
 23  14  16  1   
 24  14  34  1   
 25  14  35  1   
 26  15  17  1   
 27  15  36  1   
 28  15  37  1   
 29  16  18  1   
 30  16  19  1   
 31  16  20  1   
 32  17  19  1   
 33  17  38  1   
 34  17  39  1   
 35  18  21  ar  
 36  18  22  ar  
 37  19  40  1   
 38  19  41  1   
 39  20  23  1   
 40  20  42  1   
 41  20  43  1   
 42  21  24  ar  
 43  22  23  1   
 44  22  25  ar  
 45  23  44  1   
 46  23  45  1   
 47  24  26  ar  
 48  24  27  1   
 49  25  26  ar  
 50  25  46  1   
 51  27  47  1   
 52  27  48  1   
 53  27  49  1   
@<TRIPOS>SUBSTRUCTURE
  1 ****  13 GROUP 4 **** **** 0

# MOE 2024.06 (io_trps.svl 2023.06)
