@<TRIPOS>MOLECULE
NONAME
39 41 1 0 0 
SMALL
USER_CHARGES


@<TRIPOS>ATOM
  1 S        0.0070     0.0170     0.9300 S.3   1 <1>  -0.0800 
  2 C       -1.4480     0.7180     0.2340 C.2   1 <1>   0.4620 
  3 C        0.8670     1.4940     0.5870 C.2   1 <1>  -0.1400 
  4 N       -1.2840     1.9160    -0.1970 N.2   1 <1>  -0.5650 
  5 N       -2.6050    -0.0210     0.2010 N.pl3 1 <1>  -0.8220 
  6 C        0.0110     2.3500     0.0020 C.2   1 <1>   0.0460 
  7 C        2.3280     1.5380     0.9900 C.3   1 <1>  -0.0600 
  8 C       -3.8170     0.4760    -0.4930 C.3   1 <1>   0.2090 
  9 C       -2.6850    -1.4840     0.4160 C.3   1 <1>   0.2090 
 10 C        0.3110     3.7560    -0.4710 C.3   1 <1>  -0.0590 
 11 C       -4.8450    -0.6330    -0.2740 C.3   1 <1>   0.2000 
 12 C       -3.9940    -1.9090    -0.2630 C.3   1 <1>  -0.0800 
 13 O       -5.4140    -0.4510     0.9780 O.3   1 <1>  -0.6800 
 14 C       -4.6650    -3.1310     0.3930 C.3   1 <1>   0.0200 
 15 C       -3.8460    -4.4040     0.2530 C.2   1 <1>  -0.0400 
 16 O       -4.2130    -5.4620     0.9260 O.3   1 <1>  -0.0190 
 17 C       -2.7520    -4.7300    -0.4540 C.2   1 <1>  -0.1500 
 18 N       -3.4240    -6.4750     0.7110 N.2   1 <1>  -0.4100 
 19 C       -2.5330    -6.0630    -0.1180 C.2   1 <1>   0.1080 
 20 C       -1.4060    -6.9200    -0.6490 C.3   1 <1>  -0.0590 
 21 H        2.7660     2.4860     0.7390 H     1 <1>   0.0800 
 22 H        2.8700     0.7620     0.4800 H     1 <1>   0.0800 
 23 H        2.4180     1.3860     2.0500 H     1 <1>   0.0800 
 24 H       -4.1430     1.4210    -0.0920 H     1 <1>   0.0800 
 25 H       -3.5990     0.5870    -1.5410 H     1 <1>   0.0800 
 26 H       -1.8370    -1.9860    -0.0160 H     1 <1>   0.0800 
 27 H       -2.7190    -1.6810     1.4750 H     1 <1>   0.0800 
 28 H        1.3340     4.0200    -0.2820 H     1 <1>   0.0800 
 29 H       -0.3290     4.4500     0.0430 H     1 <1>   0.0800 
 30 H        0.1220     3.8270    -1.5260 H     1 <1>   0.0800 
 31 H       -5.6280    -0.6410    -1.0130 H     1 <1>   0.0800 
 32 H       -3.7670    -2.1510    -1.2860 H     1 <1>   0.0800 
 33 H       -4.7030    -0.1690     1.5920 H     1 <1>   0.4000 
 34 H       -5.6280    -3.2950    -0.0550 H     1 <1>   0.0800 
 35 H       -4.8230    -2.9430     1.4410 H     1 <1>   0.0800 
 36 H       -2.1560    -4.1460    -1.1300 H     1 <1>   0.1500 
 37 H       -0.4610    -6.4680    -0.4120 H     1 <1>   0.0800 
 38 H       -1.4960    -7.0210    -1.7150 H     1 <1>   0.0800 
 39 H       -1.4470    -7.8970    -0.2030 H     1 <1>   0.0800 
@<TRIPOS>BOND
  1   1   2  1   
  2   1   3  1   
  3   2   4  2   
  4   2   5  1   
  5   3   6  2   
  6   3   7  1   
  7   4   6  1   
  8   5   8  1   
  9   5   9  1   
 10   6  10  1   
 11   7  21  1   
 12   7  22  1   
 13   7  23  1   
 14   8  11  1   
 15   8  24  1   
 16   8  25  1   
 17   9  12  1   
 18   9  26  1   
 19   9  27  1   
 20  10  28  1   
 21  10  29  1   
 22  10  30  1   
 23  11  12  1   
 24  11  13  1   
 25  11  31  1   
 26  12  14  1   
 27  12  32  1   
 28  13  33  1   
 29  14  15  1   
 30  14  34  1   
 31  14  35  1   
 32  15  16  1   
 33  15  17  2   
 34  16  18  1   
 35  17  19  1   
 36  17  36  1   
 37  18  19  2   
 38  19  20  1   
 39  20  37  1   
 40  20  38  1   
 41  20  39  1   
@<TRIPOS>SUBSTRUCTURE
  1 ****   9 GROUP 4 **** **** 0

# MOE 2024.06 (io_trps.svl 2023.06)
