@<TRIPOS>MOLECULE
NONAME
51 54 1 0 0 
SMALL
USER_CHARGES


@<TRIPOS>ATOM
  1 O       -3.4210     1.2150    -1.4650 O.2   1 <1>  -0.5700 
  2 C       -2.6930     1.0220    -0.5220 C.2   1 <1>   0.5690 
  3 N       -2.2890    -0.2210    -0.1710 N.am  1 <1>  -0.7300 
  4 C       -2.2270     2.2030     0.2890 C.3   1 <1>  -0.0990 
  5 C       -2.7140    -1.4560    -0.8650 C.3   1 <1>   0.2200 
  6 C       -1.3530     3.1130    -0.5760 C.3   1 <1>   0.0960 
  7 C       -3.9600    -1.9970    -0.1880 C.3   1 <1>  -0.0800 
  8 C       -1.7090    -2.5750    -0.6150 C.3   1 <1>   0.1200 
  9 N       -0.8890     4.2670     0.2150 N.pl3 1 <1>   0.3140 
 10 C       -3.3760    -2.8280     0.9590 C.3   1 <1>   0.1200 
 11 C       -4.8060    -2.8460    -1.1570 C.3   1 <1>  -0.0170 
 12 O       -2.0600    -3.1480     0.6100 O.3   1 <1>  -0.5600 
 13 N        0.1390     4.1420     1.0740 N.2   1 <1>  -0.7070 
 14 C       -1.3960     5.5210     0.2330 C.2   1 <1>  -0.3320 
 15 C       -6.1260    -3.2660    -0.5200 C.ar  1 <1>  -0.1440 
 16 C        0.2690     5.3160     1.6110 C.2   1 <1>   0.1390 
 17 C       -0.6650     6.2220     1.1250 C.2   1 <1>  -0.1500 
 18 C       -2.5680     6.0040    -0.6060 C.3   1 <1>  -0.0600 
 19 C       -7.2040    -2.3640    -0.3540 C.ar  1 <1>   0.0000 
 20 C       -6.3020    -4.5470    -0.0860 C.ar  1 <1>  -0.1500 
 21 C       -8.3800    -2.8530     0.2680 C.ar  1 <1>   0.3100 
 22 C       -7.1890    -1.0110    -0.7670 C.ar  1 <1>  -0.1500 
 23 C       -7.5100    -4.9300     0.5110 C.ar  1 <1>   0.1600 
 24 N       -8.5160    -4.1350     0.6930 N.ar  1 <1>  -0.6200 
 25 C       -9.4620    -1.9790     0.4570 C.ar  1 <1>  -0.1500 
 26 C       -8.2630    -0.1860    -0.5690 C.ar  1 <1>  -0.1500 
 27 C       -9.4150    -0.6730     0.0520 C.ar  1 <1>  -0.1500 
 28 H       -1.7300    -0.3750     0.6720 H     1 <1>   0.3700 
 29 H       -3.0890     2.7440     0.6320 H     1 <1>   0.0800 
 30 H       -1.6660     1.8660     1.1420 H     1 <1>   0.0800 
 31 H       -2.8520    -1.2590    -1.9150 H     1 <1>   0.0800 
 32 H       -1.9040     3.4660    -1.4280 H     1 <1>   0.0800 
 33 H       -0.4890     2.5760    -0.9230 H     1 <1>   0.0800 
 34 H       -4.5660    -1.1980     0.1990 H     1 <1>   0.0800 
 35 H       -0.6940    -2.2220    -0.5730 H     1 <1>   0.0800 
 36 H       -1.7980    -3.3380    -1.3670 H     1 <1>   0.0800 
 37 H       -3.9210    -3.7370     1.1420 H     1 <1>   0.0800 
 38 H       -3.3380    -2.2480     1.8650 H     1 <1>   0.0800 
 39 H       -4.2520    -3.7200    -1.4530 H     1 <1>   0.0800 
 40 H       -5.0120    -2.2880    -2.0530 H     1 <1>   0.0800 
 41 H        1.0170     5.5500     2.3490 H     1 <1>   0.1500 
 42 H       -0.7570     7.2520     1.4200 H     1 <1>   0.1500 
 43 H       -2.7850     7.0330    -0.3810 H     1 <1>   0.0800 
 44 H       -3.4440     5.4170    -0.3970 H     1 <1>   0.0800 
 45 H       -2.3340     5.9260    -1.6530 H     1 <1>   0.0800 
 46 H       -5.5300    -5.2880    -0.1850 H     1 <1>   0.1500 
 47 H       -6.3160    -0.6110    -1.2510 H     1 <1>   0.1500 
 48 H       -7.6060    -5.9500     0.8400 H     1 <1>   0.1500 
 49 H      -10.3390    -2.3770     0.9350 H     1 <1>   0.1500 
 50 H       -8.2350     0.8420    -0.8880 H     1 <1>   0.1500 
 51 H      -10.2530    -0.0150     0.2030 H     1 <1>   0.1500 
@<TRIPOS>BOND
  1   1   2  2   
  2   2   3  am  
  3   2   4  1   
  4   3   5  1   
  5   3  28  1   
  6   4   6  1   
  7   4  29  1   
  8   4  30  1   
  9   5   7  1   
 10   5   8  1   
 11   5  31  1   
 12   6   9  1   
 13   6  32  1   
 14   6  33  1   
 15   7  10  1   
 16   7  11  1   
 17   7  34  1   
 18   8  12  1   
 19   8  35  1   
 20   8  36  1   
 21   9  13  1   
 22   9  14  1   
 23  10  12  1   
 24  10  37  1   
 25  10  38  1   
 26  11  15  1   
 27  11  39  1   
 28  11  40  1   
 29  13  16  2   
 30  14  17  2   
 31  14  18  1   
 32  15  19  ar  
 33  15  20  ar  
 34  16  17  1   
 35  16  41  1   
 36  17  42  1   
 37  18  43  1   
 38  18  44  1   
 39  18  45  1   
 40  19  21  ar  
 41  19  22  ar  
 42  20  23  ar  
 43  20  46  1   
 44  21  24  ar  
 45  21  25  ar  
 46  22  26  ar  
 47  22  47  1   
 48  23  24  ar  
 49  23  48  1   
 50  25  27  ar  
 51  25  49  1   
 52  26  27  ar  
 53  26  50  1   
 54  27  51  1   
@<TRIPOS>SUBSTRUCTURE
  1 ****   3 GROUP 4 **** **** 0

# MOE 2024.06 (io_trps.svl 2023.06)
