@<TRIPOS>MOLECULE
NONAME
42 43 1 0 0 
SMALL
USER_CHARGES


@<TRIPOS>ATOM
  1 CL       0.7710    -1.8960     1.2770 Cl    1 <1>  -0.1230 
  2 C       -0.6070    -2.6480     0.4920 C.2   1 <1>   0.1230 
  3 C       -0.5910    -3.2960    -0.7330 C.2   1 <1>   0.1390 
  4 C       -1.8720    -2.7150     0.9430 C.2   1 <1>  -0.3020 
  5 N       -1.7730    -3.7480    -1.0390 N.2   1 <1>  -0.7070 
  6 N       -2.5640    -3.3860    -0.0030 N.pl3 1 <1>   0.3140 
  7 C       -3.9940    -3.7300     0.0330 C.3   1 <1>   0.0960 
  8 C       -4.1550    -5.1920     0.4460 C.3   1 <1>   0.1100 
  9 N       -5.5780    -5.5560     0.5350 N.3   1 <1>  -0.8100 
 10 C       -6.2430    -5.6580    -0.7740 C.3   1 <1>   0.1100 
 11 C       -5.7840    -6.8470     1.2160 C.3   1 <1>   0.1100 
 12 C       -7.4470    -6.5530    -0.5150 C.3   1 <1>   0.2000 
 13 C       -6.8930    -7.5950     0.4530 C.3   1 <1>  -0.0800 
 14 O       -8.3850    -5.8010     0.1620 O.3   1 <1>  -0.6800 
 15 C       -6.3470    -8.8130    -0.3200 C.3   1 <1>  -0.0550 
 16 S       -5.8400   -10.1760     0.7300 S.o2  1 <1>   1.3330 
 17 O       -4.6100    -9.8360     1.4110 O.2   1 <1>  -0.6500 
 18 O       -6.9900   -10.5970     1.4970 O.2   1 <1>  -0.6500 
 19 N       -5.4830   -11.3920    -0.3990 N.am  1 <1>  -0.8490 
 20 C       -5.7230   -12.7370     0.1350 C.3   1 <1>   0.1160 
 21 C       -4.1210   -11.3070    -0.9390 C.3   1 <1>   0.1160 
 22 H        0.2830    -3.4130    -1.3500 H     1 <1>   0.1500 
 23 H       -2.3000    -2.3360     1.8520 H     1 <1>   0.1500 
 24 H       -4.4910    -3.0900     0.7380 H     1 <1>   0.0800 
 25 H       -4.4000    -3.5690    -0.9470 H     1 <1>   0.0800 
 26 H       -3.7020    -5.3250     1.4140 H     1 <1>   0.0800 
 27 H       -3.6520    -5.8330    -0.2590 H     1 <1>   0.0800 
 28 H       -6.5400    -4.6930    -1.1490 H     1 <1>   0.0800 
 29 H       -5.5900    -6.1330    -1.4870 H     1 <1>   0.0800 
 30 H       -4.8680    -7.4130     1.2370 H     1 <1>   0.0800 
 31 H       -6.0900    -6.6620     2.2320 H     1 <1>   0.0800 
 32 H       -7.8990    -6.9570    -1.4040 H     1 <1>   0.0800 
 33 H       -7.6620    -7.9350     1.1260 H     1 <1>   0.0800 
 34 H       -7.8990    -5.3040     0.8540 H     1 <1>   0.4000 
 35 H       -5.5220    -8.5100    -0.9330 H     1 <1>   0.0800 
 36 H       -7.1220    -9.1720    -0.9700 H     1 <1>   0.0800 
 37 H       -5.5000   -13.4810    -0.6090 H     1 <1>   0.0800 
 38 H       -6.7580   -12.8430     0.4150 H     1 <1>   0.0800 
 39 H       -5.1110   -12.9090     1.0050 H     1 <1>   0.0800 
 40 H       -3.9840   -12.0410    -1.7150 H     1 <1>   0.0800 
 41 H       -3.3960   -11.4810    -0.1600 H     1 <1>   0.0800 
 42 H       -3.9480   -10.3320    -1.3600 H     1 <1>   0.0800 
@<TRIPOS>BOND
  1   1   2  1   
  2   2   3  1   
  3   2   4  2   
  4   3   5  2   
  5   3  22  1   
  6   4   6  1   
  7   4  23  1   
  8   5   6  1   
  9   6   7  1   
 10   7   8  1   
 11   7  24  1   
 12   7  25  1   
 13   8   9  1   
 14   8  26  1   
 15   8  27  1   
 16   9  10  1   
 17   9  11  1   
 18  10  12  1   
 19  10  28  1   
 20  10  29  1   
 21  11  13  1   
 22  11  30  1   
 23  11  31  1   
 24  12  13  1   
 25  12  14  1   
 26  12  32  1   
 27  13  15  1   
 28  13  33  1   
 29  14  34  1   
 30  15  16  1   
 31  15  35  1   
 32  15  36  1   
 33  16  17  2   
 34  16  18  2   
 35  16  19  am  
 36  19  20  1   
 37  19  21  1   
 38  20  37  1   
 39  20  38  1   
 40  20  39  1   
 41  21  40  1   
 42  21  41  1   
 43  21  42  1   
@<TRIPOS>SUBSTRUCTURE
  1 ****   8 GROUP 4 **** **** 0

# MOE 2024.06 (io_trps.svl 2023.06)
