@<TRIPOS>MOLECULE
NONAME
51 53 1 0 0 
SMALL
USER_CHARGES


@<TRIPOS>ATOM
  1 O        2.2340    -0.8470    -2.6070 O.2   1 <1>  -0.5700 
  2 C        1.7180    -1.2760    -1.6040 C.2   1 <1>   0.5690 
  3 N        1.4910    -0.5370    -0.4840 N.am  1 <1>  -0.5470 
  4 C        1.2720    -2.7410    -1.5590 C.3   1 <1>   0.1710 
  5 C        1.6670     0.7860    -0.1520 C.ar  1 <1>   0.4270 
  6 N        0.3010    -3.0450    -0.4610 N.3   1 <1>  -0.8100 
  7 N        1.0970     1.1110     0.9980 N.ar  1 <1>  -0.6200 
  8 C        2.3740     1.6920    -0.9390 C.ar  1 <1>  -0.1500 
  9 C        0.2750    -4.4920    -0.1670 C.3   1 <1>   0.1100 
 10 C       -1.0370    -2.5130    -0.7730 C.3   1 <1>   0.1100 
 11 C        1.2310     2.3730     1.3730 C.ar  1 <1>   0.1600 
 12 C        2.5020     3.0000    -0.5350 C.ar  1 <1>  -0.1500 
 13 C       -0.5730    -4.8660     1.0640 C.3   1 <1>   0.2090 
 14 C       -1.8140    -2.2870     0.5250 C.3   1 <1>  -0.1600 
 15 C        1.9100     3.3490     0.6610 C.ar  1 <1>  -0.1430 
 16 N       -2.0480    -4.8180     0.7780 N.pl3 1 <1>  -0.8380 
 17 C       -2.6840    -3.4740     0.9570 C.3   1 <1>   0.2090 
 18 C        2.0130     4.7770     1.1690 C.3   1 <1>  -0.0970 
 19 C       -2.7810    -5.9400     0.5170 C.ar  1 <1>   0.1000 
 20 C       -4.1360    -6.0420     0.8690 C.ar  1 <1>  -0.1500 
 21 C       -2.2220    -7.0610    -0.1140 C.ar  1 <1>  -0.1500 
 22 C       -4.8680    -7.1710     0.6030 C.ar  1 <1>   0.2180 
 23 C       -2.9710    -8.1800    -0.3680 C.ar  1 <1>   0.2110 
 24 N       -4.2780    -8.2250    -0.0120 N.ar  1 <1>  -0.1790 
 25 C       -6.3350    -7.2860     0.9830 C.3   1 <1>  -0.0970 
 26 H        0.9930    -1.0610     0.2380 H     1 <1>   0.3700 
 27 H        2.1620    -3.3280    -1.4230 H     1 <1>   0.0800 
 28 H        0.8460    -3.0050    -2.5100 H     1 <1>   0.0800 
 29 H        2.8200     1.3730    -1.8610 H     1 <1>   0.1500 
 30 H        1.2840    -4.8110     0.0330 H     1 <1>   0.0800 
 31 H       -0.0790    -5.0350    -1.0260 H     1 <1>   0.0800 
 32 H       -1.5700    -3.1740    -1.4370 H     1 <1>   0.0800 
 33 H       -0.9400    -1.5600    -1.2660 H     1 <1>   0.0800 
 34 H        0.7700     2.6430     2.3070 H     1 <1>   0.1500 
 35 H        3.0430     3.7170    -1.1290 H     1 <1>   0.1500 
 36 H       -0.3300    -4.2100     1.8820 H     1 <1>   0.0800 
 37 H       -0.3100    -5.8610     1.3740 H     1 <1>   0.0800 
 38 H       -2.4710    -1.4490     0.3810 H     1 <1>   0.0800 
 39 H       -1.1390    -2.0110     1.3150 H     1 <1>   0.0800 
 40 H       -3.5860    -3.4430     0.3700 H     1 <1>   0.0800 
 41 H       -2.9570    -3.3480     1.9910 H     1 <1>   0.0800 
 42 H        1.5170     4.8870     2.1170 H     1 <1>   0.0800 
 43 H        1.5560     5.4490     0.4640 H     1 <1>   0.0800 
 44 H        3.0460     5.0500     1.2890 H     1 <1>   0.0800 
 45 H       -4.6010    -5.2140     1.3710 H     1 <1>   0.1500 
 46 H       -1.1910    -7.0340    -0.4110 H     1 <1>   0.1500 
 47 H       -2.5380    -9.0380    -0.8560 H     1 <1>   0.1500 
 48 H       -4.8310    -9.0650    -0.2060 H     1 <1>   0.4570 
 49 H       -6.6730    -6.3850     1.4640 H     1 <1>   0.0800 
 50 H       -6.4830    -8.1040     1.6660 H     1 <1>   0.0800 
 51 H       -6.9390    -7.4440     0.1070 H     1 <1>   0.0800 
@<TRIPOS>BOND
  1   1   2  2   
  2   2   3  am  
  3   2   4  1   
  4   3   5  1   
  5   3  26  1   
  6   4   6  1   
  7   4  27  1   
  8   4  28  1   
  9   5   7  ar  
 10   5   8  ar  
 11   6   9  1   
 12   6  10  1   
 13   7  11  ar  
 14   8  12  ar  
 15   8  29  1   
 16   9  13  1   
 17   9  30  1   
 18   9  31  1   
 19  10  14  1   
 20  10  32  1   
 21  10  33  1   
 22  11  15  ar  
 23  11  34  1   
 24  12  15  ar  
 25  12  35  1   
 26  13  16  1   
 27  13  36  1   
 28  13  37  1   
 29  14  17  1   
 30  14  38  1   
 31  14  39  1   
 32  15  18  1   
 33  16  17  1   
 34  16  19  1   
 35  17  40  1   
 36  17  41  1   
 37  18  42  1   
 38  18  43  1   
 39  18  44  1   
 40  19  20  ar  
 41  19  21  ar  
 42  20  22  ar  
 43  20  45  1   
 44  21  23  ar  
 45  21  46  1   
 46  22  24  ar  
 47  22  25  1   
 48  23  24  ar  
 49  23  47  1   
 50  24  48  1   
 51  25  49  1   
 52  25  50  1   
 53  25  51  1   
@<TRIPOS>SUBSTRUCTURE
  1 ****  10 GROUP 4 **** **** 0

# MOE 2024.06 (io_trps.svl 2023.06)
