@<TRIPOS>MOLECULE
NONAME
40 42 1 0 0 
SMALL
USER_CHARGES


@<TRIPOS>ATOM
  1 O       -0.5310     0.2220     0.2910 O.2   1 <1>  -0.5700 
  2 C       -1.5180     0.9310     0.3420 C.2   1 <1>   0.7150 
  3 N       -2.7590     0.3540     0.4750 N.am  1 <1>  -0.6600 
  4 C       -1.3920     2.3590     0.2470 C.2   1 <1>  -0.2370 
  5 C       -3.9270     0.8250    -0.3190 C.3   1 <1>   0.1400 
  6 C       -2.9380    -1.0840     0.7960 C.3   1 <1>   0.1400 
  7 N       -2.2130     3.2250     0.9170 N.pl3 1 <1>   0.0330 
  8 C       -0.4880     3.1140    -0.4550 C.2   1 <1>  -0.1500 
  9 C       -4.8600    -0.3850    -0.4670 C.3   1 <1>   0.2000 
 10 C       -3.9430    -1.5890    -0.2390 C.3   1 <1>  -0.0800 
 11 C       -1.8390     4.4930     0.6220 C.2   1 <1>  -0.3020 
 12 C       -0.7750     4.4570    -0.2230 C.2   1 <1>  -0.1500 
 13 O       -5.8260    -0.3550     0.5460 O.3   1 <1>  -0.5600 
 14 C       -4.6660    -2.8810     0.1840 C.3   1 <1>   0.0200 
 15 C       -6.9870     0.3510     0.2380 C.3   1 <1>   0.0400 
 16 C       -3.7450    -4.0890     0.2350 C.2   1 <1>  -0.0400 
 17 O       -4.2200    -5.2230     0.6770 O.3   1 <1>  -0.0190 
 18 C       -2.4590    -4.2880    -0.0970 C.2   1 <1>  -0.1500 
 19 N       -3.3240    -6.1670     0.6630 N.2   1 <1>  -0.4100 
 20 C       -2.2520    -5.6320     0.2010 C.2   1 <1>   0.1080 
 21 C       -0.9450    -6.3680     0.0120 C.3   1 <1>  -0.0590 
 22 H       -4.4230     1.6410     0.1740 H     1 <1>   0.0800 
 23 H       -3.5850     1.1420    -1.2890 H     1 <1>   0.0800 
 24 H       -2.0110    -1.6270     0.7510 H     1 <1>   0.0800 
 25 H       -3.3490    -1.1660     1.7880 H     1 <1>   0.0800 
 26 H       -2.9670     2.9360     1.5510 H     1 <1>   0.2700 
 27 H        0.3090     2.7420    -1.0760 H     1 <1>   0.1500 
 28 H       -5.3470    -0.4250    -1.4270 H     1 <1>   0.0800 
 29 H       -3.4100    -1.7730    -1.1540 H     1 <1>   0.0800 
 30 H       -2.3370     5.3560     1.0290 H     1 <1>   0.1500 
 31 H       -0.2370     5.2910    -0.6430 H     1 <1>   0.1500 
 32 H       -5.4600    -3.0890    -0.5110 H     1 <1>   0.0800 
 33 H       -5.1110    -2.7480     1.1550 H     1 <1>   0.0800 
 34 H       -7.6340     0.3210     1.0970 H     1 <1>   0.0800 
 35 H       -7.4770    -0.1190    -0.5970 H     1 <1>   0.0800 
 36 H       -6.7400     1.3730     0.0080 H     1 <1>   0.0800 
 37 H       -1.7280    -3.6120    -0.4990 H     1 <1>   0.1500 
 38 H       -0.1730    -5.8950     0.5900 H     1 <1>   0.0800 
 39 H       -0.6680    -6.3590    -1.0260 H     1 <1>   0.0800 
 40 H       -1.0490    -7.3880     0.3360 H     1 <1>   0.0800 
@<TRIPOS>BOND
  1   1   2  2   
  2   2   3  am  
  3   2   4  1   
  4   3   5  1   
  5   3   6  1   
  6   4   7  1   
  7   4   8  2   
  8   5   9  1   
  9   5  22  1   
 10   5  23  1   
 11   6  10  1   
 12   6  24  1   
 13   6  25  1   
 14   7  11  1   
 15   7  26  1   
 16   8  12  1   
 17   8  27  1   
 18   9  10  1   
 19   9  13  1   
 20   9  28  1   
 21  10  14  1   
 22  10  29  1   
 23  11  12  2   
 24  11  30  1   
 25  12  31  1   
 26  13  15  1   
 27  14  16  1   
 28  14  32  1   
 29  14  33  1   
 30  15  34  1   
 31  15  35  1   
 32  15  36  1   
 33  16  17  1   
 34  16  18  2   
 35  17  19  1   
 36  18  20  1   
 37  18  37  1   
 38  19  20  2   
 39  20  21  1   
 40  21  38  1   
 41  21  39  1   
 42  21  40  1   
@<TRIPOS>SUBSTRUCTURE
  1 ****   6 GROUP 4 **** **** 0

# MOE 2024.06 (io_trps.svl 2023.06)
