@<TRIPOS>MOLECULE
NONAME
40 41 1 0 0 
SMALL
USER_CHARGES


@<TRIPOS>ATOM
  1 O       -1.3000    -0.7300    -1.2360 O.2   1 <1>  -0.5700 
  2 C       -1.1950    -1.2230    -0.1270 C.2   1 <1>   0.7800 
  3 O       -0.3090    -2.1750     0.1460 O.3   1 <1>  -0.4300 
  4 N       -2.0880    -0.9080     0.8520 N.am  1 <1>  -0.6600 
  5 C        0.6990    -2.6780    -0.7040 C.3   1 <1>   0.2800 
  6 C       -2.8490     0.3570     0.8580 C.3   1 <1>   0.1400 
  7 C       -2.9870    -1.9410     1.3780 C.3   1 <1>   0.1400 
  8 C        1.6560    -1.5520    -1.1130 C.3   1 <1>  -0.2400 
  9 C        1.4570    -3.7060     0.1360 C.3   1 <1>  -0.2400 
 10 C        0.0690    -3.3780    -1.9150 C.3   1 <1>  -0.2400 
 11 C       -4.2940    -0.0560     0.5150 C.3   1 <1>   0.0000 
 12 C       -4.3310    -1.5890     0.7310 C.3   1 <1>  -0.0800 
 13 C       -4.5380     0.1350    -0.9850 C.3   1 <1>   0.3430 
 14 C       -5.3330     0.7230     1.3450 C.3   1 <1>   0.1200 
 15 C       -4.4470    -2.2040    -0.6680 C.3   1 <1>   0.3430 
 16 N       -4.0820    -1.1220    -1.6130 N.4   1 <1>  -0.9060 
 17 O       -5.1930     0.3880     2.6800 O.3   1 <1>  -0.6800 
 18 H       -2.7930     0.7770     1.8490 H     1 <1>   0.0800 
 19 H       -2.4380     1.0690     0.1620 H     1 <1>   0.0800 
 20 H       -2.6490    -2.9350     1.1330 H     1 <1>   0.0800 
 21 H       -3.0460    -1.8400     2.4500 H     1 <1>   0.0800 
 22 H        2.4940    -1.9610    -1.6480 H     1 <1>   0.0800 
 23 H        2.0270    -1.0420    -0.2430 H     1 <1>   0.0800 
 24 H        1.1750    -0.8440    -1.7610 H     1 <1>   0.0800 
 25 H        2.2550    -4.1430    -0.4360 H     1 <1>   0.0800 
 26 H        0.7970    -4.4930     0.4530 H     1 <1>   0.0800 
 27 H        1.8830    -3.2360     1.0050 H     1 <1>   0.0800 
 28 H        0.8350    -3.8760    -2.4820 H     1 <1>   0.0800 
 29 H       -0.4060    -2.6730    -2.5700 H     1 <1>   0.0800 
 30 H       -0.6440    -4.1140    -1.5940 H     1 <1>   0.0800 
 31 H       -5.1430    -1.9270     1.3520 H     1 <1>   0.0800 
 32 H       -4.0000     0.9860    -1.3720 H     1 <1>   0.0800 
 33 H       -5.5930     0.2660    -1.1680 H     1 <1>   0.0800 
 34 H       -6.3380     0.4700     1.0480 H     1 <1>   0.0800 
 35 H       -5.1880     1.7870     1.2470 H     1 <1>   0.0800 
 36 H       -5.4670    -2.5070    -0.8420 H     1 <1>   0.0800 
 37 H       -3.7990    -3.0590    -0.7820 H     1 <1>   0.0800 
 38 H       -4.4350    -1.2640    -2.5660 H     1 <1>   0.4500 
 39 H       -3.0420    -1.0680    -1.6660 H     1 <1>   0.4500 
 40 H       -5.8050     0.9030     3.2490 H     1 <1>   0.4000 
@<TRIPOS>BOND
  1   1   2  2   
  2   2   3  1   
  3   2   4  am  
  4   3   5  1   
  5   4   6  1   
  6   4   7  1   
  7   5   8  1   
  8   5   9  1   
  9   5  10  1   
 10   6  11  1   
 11   6  18  1   
 12   6  19  1   
 13   7  12  1   
 14   7  20  1   
 15   7  21  1   
 16   8  22  1   
 17   8  23  1   
 18   8  24  1   
 19   9  25  1   
 20   9  26  1   
 21   9  27  1   
 22  10  28  1   
 23  10  29  1   
 24  10  30  1   
 25  11  12  1   
 26  11  13  1   
 27  11  14  1   
 28  12  15  1   
 29  12  31  1   
 30  13  16  1   
 31  13  32  1   
 32  13  33  1   
 33  14  17  1   
 34  14  34  1   
 35  14  35  1   
 36  15  16  1   
 37  15  36  1   
 38  15  37  1   
 39  16  38  1   
 40  16  39  1   
 41  17  40  1   
@<TRIPOS>SUBSTRUCTURE
  1 ****   4 GROUP 4 **** **** 0

# MOE 2024.06 (io_trps.svl 2023.06)
