@<TRIPOS>MOLECULE
NONAME
41 42 1 0 0 
SMALL
USER_CHARGES


@<TRIPOS>ATOM
  1 O        0.3770    -0.2850    -1.1670 O.2   1 <1>  -0.5700 
  2 C        1.2350    -0.6960    -0.4110 C.2   1 <1>   0.5440 
  3 N        2.0230     0.2120     0.2410 N.am  1 <1>  -0.7300 
  4 C        1.4050    -2.1180    -0.1940 C.ar  1 <1>   0.0860 
  5 C        1.9640     1.6770     0.0630 C.3   1 <1>   0.1400 
  6 C        0.3480    -2.9980    -0.4250 C.ar  1 <1>   0.1600 
  7 C        2.5990    -2.6790     0.2440 C.ar  1 <1>  -0.1500 
  8 C        3.3870     2.2310     0.0260 C.3   1 <1>  -0.1600 
  9 N        0.3760    -4.3110    -0.2490 N.ar  1 <1>  -0.6200 
 10 C        2.6470    -4.0440     0.4300 C.ar  1 <1>  -0.1500 
 11 C        3.3860     3.7530    -0.1700 C.3   1 <1>  -0.1600 
 12 C        1.5220    -4.8110     0.1750 C.ar  1 <1>   0.1670 
 13 C        4.8200     4.3040    -0.1990 C.3   1 <1>  -0.1600 
 14 C        1.5540    -6.3110     0.3750 C.3   1 <1>  -0.0970 
 15 C        4.8650     5.8140    -0.4520 C.3   1 <1>   0.2000 
 16 O        6.1900     6.2150    -0.4840 O.3   1 <1>  -0.5600 
 17 C        4.2410     6.6700     0.6410 C.3   1 <1>  -0.1600 
 18 C        6.2960     7.5750    -0.2060 C.3   1 <1>   0.1200 
 19 C        5.0210     7.9680     0.5360 C.3   1 <1>  -0.1600 
 20 H        2.6550    -0.1120     0.9730 H     1 <1>   0.3700 
 21 H        1.4140     2.1120     0.8810 H     1 <1>   0.0800 
 22 H        1.4520     1.9150    -0.8550 H     1 <1>   0.0800 
 23 H       -0.5810    -2.5800    -0.7770 H     1 <1>   0.1500 
 24 H        3.4670    -2.0720     0.4260 H     1 <1>   0.1500 
 25 H        3.9210     1.7700    -0.7870 H     1 <1>   0.0800 
 26 H        3.8880     1.9930     0.9490 H     1 <1>   0.0800 
 27 H        3.5550    -4.5100     0.7690 H     1 <1>   0.1500 
 28 H        2.8360     4.2150     0.6320 H     1 <1>   0.0800 
 29 H        2.8930     3.9930    -1.0970 H     1 <1>   0.0800 
 30 H        5.3690     3.8170    -0.9860 H     1 <1>   0.0800 
 31 H        5.3100     4.0900     0.7350 H     1 <1>   0.0800 
 32 H        0.8110    -6.5920     1.0980 H     1 <1>   0.0800 
 33 H        2.5170    -6.6380     0.7200 H     1 <1>   0.0800 
 34 H        1.3330    -6.8000    -0.5560 H     1 <1>   0.0800 
 35 H        4.4340     6.0530    -1.4100 H     1 <1>   0.0800 
 36 H        4.4100     6.2140     1.6010 H     1 <1>   0.0800 
 37 H        3.1850     6.8070     0.4900 H     1 <1>   0.0800 
 38 H        6.3880     8.1040    -1.1400 H     1 <1>   0.0800 
 39 H        7.1770     7.7290     0.3930 H     1 <1>   0.0800 
 40 H        5.2430     8.3820     1.5040 H     1 <1>   0.0800 
 41 H        4.4800     8.6970    -0.0420 H     1 <1>   0.0800 
@<TRIPOS>BOND
  1   1   2  2   
  2   2   3  am  
  3   2   4  1   
  4   3   5  1   
  5   3  20  1   
  6   4   6  ar  
  7   4   7  ar  
  8   5   8  1   
  9   5  21  1   
 10   5  22  1   
 11   6   9  ar  
 12   6  23  1   
 13   7  10  ar  
 14   7  24  1   
 15   8  11  1   
 16   8  25  1   
 17   8  26  1   
 18   9  12  ar  
 19  10  12  ar  
 20  10  27  1   
 21  11  13  1   
 22  11  28  1   
 23  11  29  1   
 24  12  14  1   
 25  13  15  1   
 26  13  30  1   
 27  13  31  1   
 28  14  32  1   
 29  14  33  1   
 30  14  34  1   
 31  15  16  1   
 32  15  17  1   
 33  15  35  1   
 34  16  18  1   
 35  17  19  1   
 36  17  36  1   
 37  17  37  1   
 38  18  19  1   
 39  18  38  1   
 40  18  39  1   
 41  19  40  1   
 42  19  41  1   
@<TRIPOS>SUBSTRUCTURE
  1 ****   5 GROUP 4 **** **** 0

# MOE 2024.06 (io_trps.svl 2023.06)
