@<TRIPOS>MOLECULE
NONAME
45 46 1 0 0 
SMALL
USER_CHARGES


@<TRIPOS>ATOM
  1 O        0.8560     0.1170     1.3790 O.3   1 <1>  -0.6800 
  2 C        1.3120    -0.3170     0.1390 C.3   1 <1>   0.2000 
  3 C        2.1350    -1.5900     0.3570 C.3   1 <1>  -0.0800 
  4 C        2.3450     0.6950    -0.3550 C.3   1 <1>   0.3430 
  5 C        3.5670    -1.0860     0.6220 C.3   1 <1>   0.3430 
  6 C        2.0680    -2.5220    -0.8710 C.3   1 <1>  -0.0170 
  7 N        3.5440     0.3980     0.4720 N.4   1 <1>  -0.9590 
  8 C        2.8400    -3.8170    -0.6570 C.ar  1 <1>   0.1670 
  9 C        4.8270     0.9610    -0.0240 C.3   1 <1>   0.3430 
 10 N        4.1610    -3.7220    -0.6800 N.ar  1 <1>  -0.6200 
 11 C        2.1580    -5.0170    -0.4550 C.ar  1 <1>   0.1600 
 12 C        4.8050     2.4870     0.0610 C.3   1 <1>  -0.1600 
 13 C        4.7460    -4.8980    -0.5020 C.ar  1 <1>   0.1600 
 14 N        2.7430    -6.1850    -0.2640 N.ar  1 <1>  -0.6200 
 15 C        6.1590     3.0720    -0.3730 C.3   1 <1>  -0.1600 
 16 C        4.0600    -6.0890    -0.2990 C.ar  1 <1>   0.1600 
 17 C        6.2470     4.5990    -0.1940 C.3   1 <1>  -0.0800 
 18 C        5.2540     5.3500    -1.0920 C.3   1 <1>  -0.2400 
 19 C        7.6710     5.0720    -0.5090 C.3   1 <1>  -0.2400 
 20 H        0.0860    -0.4090     1.6840 H     1 <1>   0.4000 
 21 H        0.4730    -0.4250    -0.5270 H     1 <1>   0.0800 
 22 H        1.7770    -2.1370     1.2120 H     1 <1>   0.0800 
 23 H        1.9980     1.7060    -0.2190 H     1 <1>   0.0800 
 24 H        2.5610     0.5190    -1.3950 H     1 <1>   0.0800 
 25 H        4.2480    -1.5090    -0.0970 H     1 <1>   0.0800 
 26 H        3.8930    -1.3630     1.6110 H     1 <1>   0.0800 
 27 H        2.4660    -2.0290    -1.7410 H     1 <1>   0.0800 
 28 H        1.0390    -2.7600    -1.0810 H     1 <1>   0.0800 
 29 H        3.3290     0.7830     1.4060 H     1 <1>   0.4500 
 30 H        5.6400     0.5890     0.5790 H     1 <1>   0.0800 
 31 H        4.9970     0.6530    -1.0430 H     1 <1>   0.0800 
 32 H        1.0820    -5.0160    -0.4500 H     1 <1>   0.1500 
 33 H        4.0330     2.8720    -0.5800 H     1 <1>   0.0800 
 34 H        4.6030     2.7880     1.0740 H     1 <1>   0.0800 
 35 H        5.8220    -4.9240    -0.5160 H     1 <1>   0.1500 
 36 H        6.3490     2.8250    -1.4040 H     1 <1>   0.0800 
 37 H        6.9370     2.6190     0.2180 H     1 <1>   0.0800 
 38 H        4.6230    -6.9950    -0.1610 H     1 <1>   0.1500 
 39 H        6.0360     4.8460     0.8340 H     1 <1>   0.0800 
 40 H        5.3970     5.0840    -2.1240 H     1 <1>   0.0800 
 41 H        5.3990     6.4120    -0.9940 H     1 <1>   0.0800 
 42 H        4.2390     5.1360    -0.8130 H     1 <1>   0.0800 
 43 H        7.9290     4.8540    -1.5300 H     1 <1>   0.0800 
 44 H        8.3820     4.5860     0.1360 H     1 <1>   0.0800 
 45 H        7.7550     6.1340    -0.3550 H     1 <1>   0.0800 
@<TRIPOS>BOND
  1   1   2  1   
  2   1  20  1   
  3   2   3  1   
  4   2   4  1   
  5   2  21  1   
  6   3   5  1   
  7   3   6  1   
  8   3  22  1   
  9   4   7  1   
 10   4  23  1   
 11   4  24  1   
 12   5   7  1   
 13   5  25  1   
 14   5  26  1   
 15   6   8  1   
 16   6  27  1   
 17   6  28  1   
 18   7   9  1   
 19   7  29  1   
 20   8  10  ar  
 21   8  11  ar  
 22   9  12  1   
 23   9  30  1   
 24   9  31  1   
 25  10  13  ar  
 26  11  14  ar  
 27  11  32  1   
 28  12  15  1   
 29  12  33  1   
 30  12  34  1   
 31  13  16  ar  
 32  13  35  1   
 33  14  16  ar  
 34  15  17  1   
 35  15  36  1   
 36  15  37  1   
 37  16  38  1   
 38  17  18  1   
 39  17  19  1   
 40  17  39  1   
 41  18  40  1   
 42  18  41  1   
 43  18  42  1   
 44  19  43  1   
 45  19  44  1   
 46  19  45  1   
@<TRIPOS>SUBSTRUCTURE
  1 ****   5 GROUP 4 **** **** 0

# MOE 2024.06 (io_trps.svl 2023.06)
