@<TRIPOS>MOLECULE
NONAME
40 41 1 0 0 
SMALL
USER_CHARGES


@<TRIPOS>ATOM
  1 CL       3.5390     1.9480     3.1950 Cl    1 <1>  -0.1770 
  2 C        3.1560     0.5490     2.2130 C.ar  1 <1>   0.1770 
  3 C        3.1910     0.6490     0.8240 C.ar  1 <1>   0.0830 
  4 C        2.8240    -0.6320     2.8470 C.ar  1 <1>  -0.1500 
  5 O        3.5280     1.8500     0.2860 O.3   1 <1>  -0.3630 
  6 C        2.8830    -0.4750     0.0580 C.ar  1 <1>  -0.1500 
  7 C        2.5220    -1.7320     2.0680 C.ar  1 <1>   0.1770 
  8 C        3.5930     2.0580    -1.1200 C.3   1 <1>   0.1810 
  9 C        2.5480    -1.6660     0.6850 C.ar  1 <1>  -0.1500 
 10 CL       2.0990    -3.2370     2.8420 Cl    1 <1>  -0.1770 
 11 C        3.9940     3.4940    -1.4280 C.2   1 <1>   0.5690 
 12 O        4.0900     3.8210    -2.5830 O.2   1 <1>  -0.5700 
 13 N        4.2240     4.3350    -0.3750 N.am  1 <1>  -0.4940 
 14 C        4.5930     5.6610    -0.3640 C.2   1 <1>   0.4420 
 15 S        4.7930     6.4030     1.1910 S.3   1 <1>  -0.0800 
 16 N        4.8260     6.4830    -1.3230 N.2   1 <1>  -0.3380 
 17 C        5.2020     7.8620     0.3580 C.2   1 <1>   0.1980 
 18 N        5.1720     7.7360    -0.9040 N.2   1 <1>  -0.3380 
 19 C        5.5390     9.0930     1.1680 C.3   1 <1>   0.0200 
 20 C        5.8290    10.2510     0.2050 C.3   1 <1>   0.3430 
 21 N        6.1150    11.5460     0.9090 N.4   1 <1>  -0.9590 
 22 C        6.1110    12.6650    -0.0850 C.3   1 <1>   0.2630 
 23 C        7.4190    11.5240     1.6460 C.3   1 <1>   0.2630 
 24 H        2.8000    -0.6950     3.9190 H     1 <1>   0.1500 
 25 H        2.8960    -0.4480    -1.0160 H     1 <1>   0.1500 
 26 H        2.6260     1.8590    -1.5430 H     1 <1>   0.0800 
 27 H        4.3240     1.3870    -1.5340 H     1 <1>   0.0800 
 28 H        2.3070    -2.5430     0.1100 H     1 <1>   0.1500 
 29 H        4.0980     3.8970     0.5390 H     1 <1>   0.3700 
 30 H        6.3990     8.8760     1.7740 H     1 <1>   0.0800 
 31 H        4.7020     9.3330     1.7970 H     1 <1>   0.0800 
 32 H        4.9690    10.3750    -0.4350 H     1 <1>   0.0800 
 33 H        6.6620     9.9850    -0.4260 H     1 <1>   0.0800 
 34 H        5.3550    11.7290     1.5840 H     1 <1>   0.4500 
 35 H        6.8880    12.5180    -0.8190 H     1 <1>   0.0800 
 36 H        6.2790    13.6090     0.4100 H     1 <1>   0.0800 
 37 H        5.1620    12.7120    -0.5950 H     1 <1>   0.0800 
 38 H        8.2310    11.3220     0.9660 H     1 <1>   0.0800 
 39 H        7.4110    10.7630     2.4100 H     1 <1>   0.0800 
 40 H        7.5970    12.4770     2.1200 H     1 <1>   0.0800 
@<TRIPOS>BOND
  1   1   2  1   
  2   2   3  ar  
  3   2   4  ar  
  4   3   5  1   
  5   3   6  ar  
  6   4   7  ar  
  7   4  24  1   
  8   5   8  1   
  9   6   9  ar  
 10   6  25  1   
 11   7   9  ar  
 12   7  10  1   
 13   8  11  1   
 14   8  26  1   
 15   8  27  1   
 16   9  28  1   
 17  11  12  2   
 18  11  13  am  
 19  13  14  1   
 20  13  29  1   
 21  14  15  1   
 22  14  16  2   
 23  15  17  1   
 24  16  18  1   
 25  17  18  2   
 26  17  19  1   
 27  19  20  1   
 28  19  30  1   
 29  19  31  1   
 30  20  21  1   
 31  20  32  1   
 32  20  33  1   
 33  21  22  1   
 34  21  23  1   
 35  21  34  1   
 36  22  35  1   
 37  22  36  1   
 38  22  37  1   
 39  23  38  1   
 40  23  39  1   
 41  23  40  1   
@<TRIPOS>SUBSTRUCTURE
  1 ****  13 GROUP 4 **** **** 0

# MOE 2024.06 (io_trps.svl 2023.06)
