@<TRIPOS>MOLECULE
NONAME
43 44 1 0 0 
SMALL
USER_CHARGES


@<TRIPOS>ATOM
  1 O       -0.8020     0.1180    -0.5300 O.3   1 <1>  -0.0190 
  2 N       -0.4370     1.0900    -1.3100 N.2   1 <1>  -0.4100 
  3 C       -1.2920     0.7240     0.5220 C.2   1 <1>   0.2980 
  4 C       -0.7120     2.1780    -0.7060 C.2   1 <1>   0.3350 
  5 N       -1.2750     1.9940     0.4840 N.2   1 <1>  -0.5650 
  6 C       -1.8250    -0.1120     1.6630 C.3   1 <1>  -0.0600 
  7 C       -0.4500     3.5770    -1.2680 C.3   1 <1>   0.2910 
  8 N        0.7460     4.2520    -0.6780 N.3   1 <1>  -0.8100 
  9 C        0.8060     5.6760    -1.0230 C.3   1 <1>   0.1100 
 10 C        1.9790     3.5230    -1.0320 C.3   1 <1>   0.0300 
 11 C        1.6520     6.4190     0.0250 C.3   1 <1>   0.3430 
 12 N        1.6300     7.9120    -0.1540 N.4   1 <1>  -0.9590 
 13 C        2.7470     8.5500     0.6010 C.3   1 <1>   0.4230 
 14 C        0.2960     8.4600     0.2630 C.3   1 <1>   0.2630 
 15 C        2.7250    10.0760     0.4600 C.3   1 <1>  -0.1600 
 16 C        4.1190     8.1120     0.0640 C.3   1 <1>  -0.1600 
 17 C        4.1890    10.5030     0.4740 C.3   1 <1>  -0.1600 
 18 C        4.9030     9.3840    -0.2720 C.3   1 <1>  -0.1600 
 19 H       -1.0400    -0.7340     2.0520 H     1 <1>   0.0800 
 20 H       -2.6290    -0.7310     1.3130 H     1 <1>   0.0800 
 21 H       -2.1880     0.5270     2.4460 H     1 <1>   0.0800 
 22 H       -1.3280     4.1650    -1.0680 H     1 <1>   0.0800 
 23 H       -0.3350     3.5030    -2.3350 H     1 <1>   0.0800 
 24 H       -0.1930     6.0760    -1.0120 H     1 <1>   0.0800 
 25 H        1.2210     5.7990    -2.0090 H     1 <1>   0.0800 
 26 H        1.9260     2.5090    -0.6700 H     1 <1>   0.0800 
 27 H        2.8390     3.9840    -0.5790 H     1 <1>   0.0800 
 28 H        2.1130     3.4980    -2.1010 H     1 <1>   0.0800 
 29 H        2.6620     6.0550    -0.0480 H     1 <1>   0.0800 
 30 H        1.2800     6.1680     1.0050 H     1 <1>   0.0800 
 31 H        1.7930     8.1300    -1.1460 H     1 <1>   0.4500 
 32 H        2.6840     8.2940     1.6470 H     1 <1>   0.0800 
 33 H        0.1200     8.2600     1.3070 H     1 <1>   0.0800 
 34 H       -0.4960     8.0070    -0.3110 H     1 <1>   0.0800 
 35 H        0.2580     9.5260     0.1060 H     1 <1>   0.0800 
 36 H        2.1830    10.5450     1.2620 H     1 <1>   0.0800 
 37 H        2.3010    10.3660    -0.4860 H     1 <1>   0.0800 
 38 H        4.0580     7.4880    -0.8100 H     1 <1>   0.0800 
 39 H        4.6370     7.5760     0.8400 H     1 <1>   0.0800 
 40 H        4.5490    10.5480     1.4890 H     1 <1>   0.0800 
 41 H        4.3400    11.4620     0.0070 H     1 <1>   0.0800 
 42 H        4.8520     9.5750    -1.3320 H     1 <1>   0.0800 
 43 H        5.9400     9.3110     0.0140 H     1 <1>   0.0800 
@<TRIPOS>BOND
  1   1   2  1   
  2   1   3  1   
  3   2   4  2   
  4   3   5  2   
  5   3   6  1   
  6   4   5  1   
  7   4   7  1   
  8   6  19  1   
  9   6  20  1   
 10   6  21  1   
 11   7   8  1   
 12   7  22  1   
 13   7  23  1   
 14   8   9  1   
 15   8  10  1   
 16   9  11  1   
 17   9  24  1   
 18   9  25  1   
 19  10  26  1   
 20  10  27  1   
 21  10  28  1   
 22  11  12  1   
 23  11  29  1   
 24  11  30  1   
 25  12  13  1   
 26  12  14  1   
 27  12  31  1   
 28  13  15  1   
 29  13  16  1   
 30  13  32  1   
 31  14  33  1   
 32  14  34  1   
 33  14  35  1   
 34  15  17  1   
 35  15  36  1   
 36  15  37  1   
 37  16  18  1   
 38  16  38  1   
 39  16  39  1   
 40  17  18  1   
 41  17  40  1   
 42  17  41  1   
 43  18  42  1   
 44  18  43  1   
@<TRIPOS>SUBSTRUCTURE
  1 ****   9 GROUP 4 **** **** 0

# MOE 2024.06 (io_trps.svl 2023.06)
