@<TRIPOS>MOLECULE
NONAME
51 52 1 0 0 
SMALL
USER_CHARGES


@<TRIPOS>ATOM
  1 S        0.4240     0.1170     0.0360 S.o2  1 <1>   1.3330 
  2 O        0.1200    -0.8230    -1.0200 O.2   1 <1>  -0.6500 
  3 O        0.5740    -0.3610     1.3920 O.2   1 <1>  -0.6500 
  4 N       -0.7820     1.3110     0.0310 N.am  1 <1>  -0.8490 
  5 C        1.9060     1.0260    -0.3920 C.3   1 <1>  -0.0550 
  6 C       -1.9350     0.9300     0.8500 C.3   1 <1>   0.1160 
  7 C       -1.2290     1.6810    -1.3170 C.3   1 <1>   0.1160 
  8 C        3.1620     0.1370    -0.4730 C.3   1 <1>  -0.0800 
  9 C        4.4030     0.8330    -1.0110 C.3   1 <1>   0.2200 
 10 C        3.6380    -0.4200     0.8760 C.3   1 <1>   0.1200 
 11 N        4.5270     2.2020    -0.4540 N.am  1 <1>  -0.7300 
 12 C        5.4940    -0.0410    -0.4110 C.3   1 <1>   0.1200 
 13 O        5.0360    -0.3560     0.8680 O.3   1 <1>  -0.5600 
 14 C        4.1770     3.3550    -1.0970 C.2   1 <1>   0.5440 
 15 O        3.6500     3.2550    -2.1880 O.2   1 <1>  -0.5700 
 16 C        4.4160     4.6560    -0.4950 C.ar  1 <1>   0.0860 
 17 C        4.5940     4.8210     0.8820 C.ar  1 <1>  -0.1500 
 18 C        4.4750     5.8070    -1.2840 C.ar  1 <1>  -0.1500 
 19 C        4.8300     6.0660     1.4350 C.ar  1 <1>  -0.1500 
 20 C        4.7100     7.0560    -0.7390 C.ar  1 <1>  -0.1500 
 21 C        4.8920     7.1930     0.6330 C.ar  1 <1>   0.0820 
 22 O        5.1280     8.3720     1.2510 O.3   1 <1>  -0.3630 
 23 C        5.2040     9.5830     0.5330 C.3   1 <1>   0.1200 
 24 C        5.4770    10.7120     1.5280 C.3   1 <1>  -0.1600 
 25 C        5.5740    12.0680     0.8210 C.3   1 <1>  -0.2400 
 26 H        1.7640     1.4950    -1.3460 H     1 <1>   0.0800 
 27 H        2.0570     1.8030     0.3320 H     1 <1>   0.0800 
 28 H       -2.6730     1.7140     0.8450 H     1 <1>   0.0800 
 29 H       -1.6260     0.7660     1.8690 H     1 <1>   0.0800 
 30 H       -2.3780     0.0220     0.4730 H     1 <1>   0.0800 
 31 H       -1.9400     2.4870    -1.2610 H     1 <1>   0.0800 
 32 H       -1.6910     0.8390    -1.8060 H     1 <1>   0.0800 
 33 H       -0.3940     2.0110    -1.9100 H     1 <1>   0.0800 
 34 H        2.9460    -0.6990    -1.1150 H     1 <1>   0.0800 
 35 H        4.4390     0.8540    -2.0880 H     1 <1>   0.0800 
 36 H        3.3340    -1.4450     1.0150 H     1 <1>   0.0800 
 37 H        3.2880     0.1740     1.7030 H     1 <1>   0.0800 
 38 H        4.9660     2.2310     0.4680 H     1 <1>   0.3700 
 39 H        6.4450     0.4580    -0.3470 H     1 <1>   0.0800 
 40 H        5.5960    -0.9600    -0.9620 H     1 <1>   0.0800 
 41 H        4.5420     3.9690     1.5360 H     1 <1>   0.1500 
 42 H        4.3340     5.7130    -2.3470 H     1 <1>   0.1500 
 43 H        4.9670     6.1760     2.4960 H     1 <1>   0.1500 
 44 H        4.7470     7.9060    -1.3930 H     1 <1>   0.1500 
 45 H        6.0050     9.5050    -0.1810 H     1 <1>   0.0800 
 46 H        4.2660     9.7390     0.0290 H     1 <1>   0.0800 
 47 H        4.6800    10.7450     2.2510 H     1 <1>   0.0800 
 48 H        6.4000    10.5130     2.0430 H     1 <1>   0.0800 
 49 H        4.6530    12.2960     0.3120 H     1 <1>   0.0800 
 50 H        6.3770    12.0640     0.1040 H     1 <1>   0.0800 
 51 H        5.7650    12.8440     1.5420 H     1 <1>   0.0800 
@<TRIPOS>BOND
  1   1   2  2   
  2   1   3  2   
  3   1   4  am  
  4   1   5  1   
  5   4   6  1   
  6   4   7  1   
  7   5   8  1   
  8   5  26  1   
  9   5  27  1   
 10   6  28  1   
 11   6  29  1   
 12   6  30  1   
 13   7  31  1   
 14   7  32  1   
 15   7  33  1   
 16   8   9  1   
 17   8  10  1   
 18   8  34  1   
 19   9  11  1   
 20   9  12  1   
 21   9  35  1   
 22  10  13  1   
 23  10  36  1   
 24  10  37  1   
 25  11  14  am  
 26  11  38  1   
 27  12  13  1   
 28  12  39  1   
 29  12  40  1   
 30  14  15  2   
 31  14  16  1   
 32  16  17  ar  
 33  16  18  ar  
 34  17  19  ar  
 35  17  41  1   
 36  18  20  ar  
 37  18  42  1   
 38  19  21  ar  
 39  19  43  1   
 40  20  21  ar  
 41  20  44  1   
 42  21  22  1   
 43  22  23  1   
 44  23  24  1   
 45  23  45  1   
 46  23  46  1   
 47  24  25  1   
 48  24  47  1   
 49  24  48  1   
 50  25  49  1   
 51  25  50  1   
 52  25  51  1   
@<TRIPOS>SUBSTRUCTURE
  1 ****  14 GROUP 4 **** **** 0

# MOE 2024.06 (io_trps.svl 2023.06)
