@<TRIPOS>MOLECULE
NONAME
54 56 1 0 0 
SMALL
USER_CHARGES


@<TRIPOS>ATOM
  1 O       -0.2450    -0.3280     3.0450 O.2   1 <1>  -0.5700 
  2 C       -0.6970     0.5520     2.3520 C.2   1 <1>   0.5690 
  3 N       -1.3960     0.2620     1.2100 N.am  1 <1>  -0.6600 
  4 C       -0.4830     1.9920     2.8020 C.3   1 <1>   0.0440 
  5 C       -1.9180     1.2330     0.2140 C.3   1 <1>   0.1400 
  6 C       -1.6640    -1.1270     0.7780 C.3   1 <1>   0.1400 
  7 C        0.3420     2.8180     1.8200 C.ar  1 <1>  -0.1440 
  8 C       -2.5300     0.3770    -0.8970 C.3   1 <1>   0.2000 
  9 C       -2.7530    -1.0080    -0.2880 C.3   1 <1>  -0.0800 
 10 C       -0.1470     4.0130     1.3170 C.ar  1 <1>  -0.1500 
 11 C        1.5900     2.3750     1.4130 C.ar  1 <1>  -0.1500 
 12 O       -3.7360     0.8990    -1.3360 O.3   1 <1>  -0.6800 
 13 C       -2.7200    -2.1320    -1.3340 C.3   1 <1>  -0.0170 
 14 C        0.5850     4.7660     0.4130 C.ar  1 <1>   0.0830 
 15 C        2.3400     3.1120     0.5120 C.ar  1 <1>   0.0830 
 16 C       -2.9530    -3.4890    -0.6890 C.ar  1 <1>  -0.1430 
 17 O       -0.0190     5.9070    -0.0190 O.3   1 <1>  -0.3630 
 18 C        1.8570     4.3290     0.0210 C.ar  1 <1>   0.0830 
 19 O        3.5470     2.6050     0.1550 O.3   1 <1>  -0.3630 
 20 C       -1.9140    -4.3310    -0.3470 C.ar  1 <1>  -0.1500 
 21 C       -4.2250    -3.9460    -0.4090 C.ar  1 <1>  -0.1500 
 22 C        0.1350     6.3300    -1.3570 C.3   1 <1>   0.0400 
 23 O        2.6340     5.0840    -0.8040 O.3   1 <1>  -0.3630 
 24 C        3.6950     2.2150    -1.1920 C.3   1 <1>   0.0400 
 25 C       -2.1890    -5.5530     0.2440 C.ar  1 <1>   0.1600 
 26 C       -4.3910    -5.1870     0.1840 C.ar  1 <1>   0.1600 
 27 C        3.6670     5.7960    -0.1620 C.3   1 <1>   0.0400 
 28 N       -3.4040    -6.0010     0.5180 N.ar  1 <1>  -0.6200 
 29 H       -1.4450     2.4420     2.9550 H     1 <1>   0.0800 
 30 H        0.0220     1.9830     3.7500 H     1 <1>   0.0800 
 31 H       -2.6590     1.8610     0.6760 H     1 <1>   0.0800 
 32 H       -1.1160     1.8290    -0.1830 H     1 <1>   0.0800 
 33 H       -0.7600    -1.5410     0.3650 H     1 <1>   0.0800 
 34 H       -1.9860    -1.7350     1.6080 H     1 <1>   0.0800 
 35 H       -1.8540     0.3350    -1.7340 H     1 <1>   0.0800 
 36 H       -3.6990    -1.0260     0.2250 H     1 <1>   0.0800 
 37 H       -1.1110     4.3810     1.6190 H     1 <1>   0.1500 
 38 H        1.9920     1.4500     1.7890 H     1 <1>   0.1500 
 39 H       -4.3810     0.9290    -0.6030 H     1 <1>   0.4000 
 40 H       -1.7730    -2.1310    -1.8460 H     1 <1>   0.0800 
 41 H       -3.4840    -1.9540    -2.0710 H     1 <1>   0.0800 
 42 H       -0.8930    -4.0520    -0.5330 H     1 <1>   0.1500 
 43 H       -5.0870    -3.3510    -0.6460 H     1 <1>   0.1500 
 44 H       -0.6910     6.9720    -1.6030 H     1 <1>   0.0800 
 45 H        0.1400     5.4690    -2.0020 H     1 <1>   0.0800 
 46 H        1.0570     6.8760    -1.4450 H     1 <1>   0.0800 
 47 H        4.6320     1.6970    -1.2900 H     1 <1>   0.0800 
 48 H        3.6930     3.0880    -1.8190 H     1 <1>   0.0800 
 49 H        2.8830     1.5610    -1.4560 H     1 <1>   0.0800 
 50 H       -1.3660    -6.1960     0.5050 H     1 <1>   0.1500 
 51 H       -5.3910    -5.5270     0.3950 H     1 <1>   0.1500 
 52 H        4.1870     6.3780    -0.9010 H     1 <1>   0.0800 
 53 H        4.3430     5.0970     0.2990 H     1 <1>   0.0800 
 54 H        3.2330     6.4420     0.5810 H     1 <1>   0.0800 
@<TRIPOS>BOND
  1   1   2  2   
  2   2   3  am  
  3   2   4  1   
  4   3   5  1   
  5   3   6  1   
  6   4   7  1   
  7   4  29  1   
  8   4  30  1   
  9   5   8  1   
 10   5  31  1   
 11   5  32  1   
 12   6   9  1   
 13   6  33  1   
 14   6  34  1   
 15   7  10  ar  
 16   7  11  ar  
 17   8   9  1   
 18   8  12  1   
 19   8  35  1   
 20   9  13  1   
 21   9  36  1   
 22  10  14  ar  
 23  10  37  1   
 24  11  15  ar  
 25  11  38  1   
 26  12  39  1   
 27  13  16  1   
 28  13  40  1   
 29  13  41  1   
 30  14  17  1   
 31  14  18  ar  
 32  15  18  ar  
 33  15  19  1   
 34  16  20  ar  
 35  16  21  ar  
 36  17  22  1   
 37  18  23  1   
 38  19  24  1   
 39  20  25  ar  
 40  20  42  1   
 41  21  26  ar  
 42  21  43  1   
 43  22  44  1   
 44  22  45  1   
 45  22  46  1   
 46  23  27  1   
 47  24  47  1   
 48  24  48  1   
 49  24  49  1   
 50  25  28  ar  
 51  25  50  1   
 52  26  28  ar  
 53  26  51  1   
 54  27  52  1   
 55  27  53  1   
 56  27  54  1   
@<TRIPOS>SUBSTRUCTURE
  1 ****   3 GROUP 4 **** **** 0

# MOE 2024.06 (io_trps.svl 2023.06)
