@<TRIPOS>MOLECULE
NONAME
51 55 1 0 0 
SMALL
USER_CHARGES


@<TRIPOS>ATOM
  1 O       -1.3710     0.0220    -2.3050 O.2   1 <1>  -0.5700 
  2 C       -1.8460    -0.5250    -1.3360 C.2   1 <1>   0.5690 
  3 N       -2.0960     0.1480    -0.1700 N.am  1 <1>  -0.6600 
  4 C       -2.2090    -1.9920    -1.4690 C.3   1 <1>  -0.0190 
  5 C       -2.7280    -0.5320     1.0050 C.3   1 <1>   0.2200 
  6 C       -1.6790     1.5630     0.0330 C.3   1 <1>   0.0600 
  7 C       -1.4590    -2.9070    -0.4810 C.3   1 <1>   0.1200 
  8 C       -3.7330    -2.1700    -1.4540 C.3   1 <1>   0.2090 
  9 C       -1.8920    -1.7210     1.5450 C.3   1 <1>   0.1200 
 10 C       -4.1830    -0.9390     0.6930 C.3   1 <1>   0.2090 
 11 O       -0.9560    -2.2290     0.6320 O.3   1 <1>  -0.5600 
 12 N       -4.3130    -2.2110    -0.0850 N.pl3 1 <1>  -0.8380 
 13 C       -5.4980    -2.8980     0.0510 C.ar  1 <1>   0.4100 
 14 N       -6.6110    -2.1990     0.0190 N.ar  1 <1>  -0.6200 
 15 C       -5.5370    -4.2680     0.2070 C.ar  1 <1>  -0.1440 
 16 C       -7.7610    -2.8700     0.1330 C.ar  1 <1>   0.6200 
 17 C       -6.7510    -4.8550     0.3160 C.ar  1 <1>   0.1670 
 18 C       -4.4160    -5.2750     0.2880 C.3   1 <1>  -0.0160 
 19 N       -7.8820    -4.1940     0.2810 N.ar  1 <1>  -0.6200 
 20 C       -8.9900    -2.0870     0.0940 C.ar  1 <1>   0.0000 
 21 C       -6.6420    -6.3470     0.4800 C.3   1 <1>  -0.0170 
 22 C       -5.1310    -6.5830     0.6780 C.3   1 <1>  -0.1600 
 23 C      -10.1380    -2.4900     0.7820 C.ar  1 <1>  -0.1500 
 24 C       -9.0770    -0.8950    -0.6310 C.ar  1 <1>  -0.1500 
 25 C      -11.3050    -1.7480     0.7510 C.ar  1 <1>  -0.1500 
 26 C      -10.2390    -0.1460    -0.6660 C.ar  1 <1>  -0.1500 
 27 C      -11.3580    -0.5720     0.0260 C.ar  1 <1>  -0.1500 
 28 H       -1.9000    -2.2910    -2.4530 H     1 <1>   0.0800 
 29 H       -2.7960     0.1870     1.8020 H     1 <1>   0.0800 
 30 H       -2.5360     2.1650     0.2760 H     1 <1>   0.0800 
 31 H       -1.2230     1.9570    -0.8590 H     1 <1>   0.0800 
 32 H       -0.9620     1.6170     0.8330 H     1 <1>   0.0800 
 33 H       -0.6060    -3.3300    -0.9810 H     1 <1>   0.0800 
 34 H       -2.0800    -3.7150    -0.1410 H     1 <1>   0.0800 
 35 H       -3.9750    -3.0920    -1.9550 H     1 <1>   0.0800 
 36 H       -4.1970    -1.3730    -2.0120 H     1 <1>   0.0800 
 37 H       -2.5260    -2.5250     1.8750 H     1 <1>   0.0800 
 38 H       -1.3290    -1.3820     2.3960 H     1 <1>   0.0800 
 39 H       -4.6740    -0.1400     0.1640 H     1 <1>   0.0800 
 40 H       -4.7000    -1.0680     1.6280 H     1 <1>   0.0800 
 41 H       -3.9420    -5.3680    -0.6730 H     1 <1>   0.0800 
 42 H       -3.6930    -4.9870     1.0300 H     1 <1>   0.0800 
 43 H       -7.2100    -6.6800     1.3300 H     1 <1>   0.0800 
 44 H       -7.0000    -6.8300    -0.4110 H     1 <1>   0.0800 
 45 H       -4.9420    -6.7900     1.7170 H     1 <1>   0.0800 
 46 H       -4.7830    -7.4140     0.0890 H     1 <1>   0.0800 
 47 H      -10.1150    -3.4030     1.3520 H     1 <1>   0.1500 
 48 H       -8.2160    -0.5490    -1.1760 H     1 <1>   0.1500 
 49 H      -12.1710    -2.0860     1.2910 H     1 <1>   0.1500 
 50 H      -10.2730     0.7680    -1.2330 H     1 <1>   0.1500 
 51 H      -12.2640     0.0080     0.0000 H     1 <1>   0.1500 
@<TRIPOS>BOND
  1   1   2  2   
  2   2   3  am  
  3   2   4  1   
  4   3   5  1   
  5   3   6  1   
  6   4   7  1   
  7   4   8  1   
  8   4  28  1   
  9   5   9  1   
 10   5  10  1   
 11   5  29  1   
 12   6  30  1   
 13   6  31  1   
 14   6  32  1   
 15   7  11  1   
 16   7  33  1   
 17   7  34  1   
 18   8  12  1   
 19   8  35  1   
 20   8  36  1   
 21   9  11  1   
 22   9  37  1   
 23   9  38  1   
 24  10  12  1   
 25  10  39  1   
 26  10  40  1   
 27  12  13  1   
 28  13  14  ar  
 29  13  15  ar  
 30  14  16  ar  
 31  15  17  ar  
 32  15  18  1   
 33  16  19  ar  
 34  16  20  1   
 35  17  19  ar  
 36  17  21  1   
 37  18  22  1   
 38  18  41  1   
 39  18  42  1   
 40  20  23  ar  
 41  20  24  ar  
 42  21  22  1   
 43  21  43  1   
 44  21  44  1   
 45  22  45  1   
 46  22  46  1   
 47  23  25  ar  
 48  23  47  1   
 49  24  26  ar  
 50  24  48  1   
 51  25  27  ar  
 52  25  49  1   
 53  26  27  ar  
 54  26  50  1   
 55  27  51  1   
@<TRIPOS>SUBSTRUCTURE
  1 ****  13 GROUP 4 **** **** 0

# MOE 2024.06 (io_trps.svl 2023.06)
