@<TRIPOS>MOLECULE
NONAME
43 44 1 0 0 
SMALL
USER_CHARGES


@<TRIPOS>ATOM
  1 O       -0.7660    -0.1880    -0.7390 O.2   1 <1>  -0.5700 
  2 C       -1.5140     0.6100    -0.2060 C.2   1 <1>   0.5440 
  3 N       -2.3800     0.1760     0.7740 N.am  1 <1>  -0.6600 
  4 C       -1.4570     2.0010    -0.6010 C.ar  1 <1>   0.0860 
  5 C       -2.4720    -1.2760     1.1270 C.3   1 <1>   0.3210 
  6 C       -3.3450     1.0750     1.4860 C.3   1 <1>   0.1400 
  7 C       -0.7360     2.9300     0.1430 C.ar  1 <1>  -0.1500 
  8 C       -2.1290     2.4500    -1.7340 C.ar  1 <1>  -0.1500 
  9 C       -3.7670    -1.8830     0.5970 C.2   1 <1>   0.0460 
 10 C       -4.4690     1.6520     0.5990 C.3   1 <1>   0.1200 
 11 C       -0.6940     4.2710    -0.2200 C.ar  1 <1>   0.0830 
 12 C       -2.0960     3.7820    -2.1040 C.ar  1 <1>  -0.1500 
 13 N       -4.9190    -1.7920     1.2980 N.2   1 <1>  -0.5650 
 14 C       -3.9700    -2.5330    -0.5730 C.2   1 <1>  -0.3320 
 15 O       -4.9380     0.7190    -0.3140 O.3   1 <1>  -0.6800 
 16 O       -0.0010     5.2030     0.4870 O.3   1 <1>  -0.3630 
 17 C       -1.3830     4.7000    -1.3510 C.ar  1 <1>  -0.1430 
 18 C       -5.7870    -2.3910     0.5490 C.2   1 <1>   0.0360 
 19 N       -5.2730    -2.8640    -0.6040 N.pl3 1 <1>   0.0330 
 20 C       -3.0080    -2.8520    -1.7050 C.3   1 <1>  -0.0600 
 21 C        0.8660     4.8400     1.5390 C.3   1 <1>   0.0400 
 22 C       -1.3550     6.1630    -1.7700 C.3   1 <1>  -0.0970 
 23 H       -2.4410    -1.3880     2.1960 H     1 <1>   0.0800 
 24 H       -1.6380    -1.8190     0.7230 H     1 <1>   0.0800 
 25 H       -2.8050     1.8910     1.9320 H     1 <1>   0.0800 
 26 H       -3.8050     0.5310     2.2930 H     1 <1>   0.0800 
 27 H       -0.2140     2.5700     1.0080 H     1 <1>   0.1500 
 28 H       -2.6880     1.7400    -2.3190 H     1 <1>   0.1500 
 29 H       -4.1260     2.5100     0.0490 H     1 <1>   0.0800 
 30 H       -5.2960     1.9560     1.2150 H     1 <1>   0.0800 
 31 H       -2.6300     4.0970    -2.9840 H     1 <1>   0.1500 
 32 H       -4.8510    -0.1880     0.0780 H     1 <1>   0.4000 
 33 H       -6.8270    -2.5080     0.8010 H     1 <1>   0.1500 
 34 H       -5.7740    -3.3570    -1.3490 H     1 <1>   0.2700 
 35 H       -2.0240    -2.4770    -1.4860 H     1 <1>   0.0800 
 36 H       -3.3440    -2.3890    -2.6160 H     1 <1>   0.0800 
 37 H       -2.9430    -3.9150    -1.8530 H     1 <1>   0.0800 
 38 H        1.3540     5.7310     1.8910 H     1 <1>   0.0800 
 39 H        1.5980     4.1470     1.1650 H     1 <1>   0.0800 
 40 H        0.2880     4.4020     2.3330 H     1 <1>   0.0800 
 41 H       -0.3420     6.4640    -1.9680 H     1 <1>   0.0800 
 42 H       -1.7470     6.7760    -0.9780 H     1 <1>   0.0800 
 43 H       -1.9420     6.3280    -2.6550 H     1 <1>   0.0800 
@<TRIPOS>BOND
  1   1   2  2   
  2   2   3  am  
  3   2   4  1   
  4   3   5  1   
  5   3   6  1   
  6   4   7  ar  
  7   4   8  ar  
  8   5   9  1   
  9   5  23  1   
 10   5  24  1   
 11   6  10  1   
 12   6  25  1   
 13   6  26  1   
 14   7  11  ar  
 15   7  27  1   
 16   8  12  ar  
 17   8  28  1   
 18   9  13  1   
 19   9  14  2   
 20  10  15  1   
 21  10  29  1   
 22  10  30  1   
 23  11  16  1   
 24  11  17  ar  
 25  12  17  ar  
 26  12  31  1   
 27  13  18  2   
 28  14  19  1   
 29  14  20  1   
 30  15  32  1   
 31  16  21  1   
 32  17  22  1   
 33  18  19  1   
 34  18  33  1   
 35  19  34  1   
 36  20  35  1   
 37  20  36  1   
 38  20  37  1   
 39  21  38  1   
 40  21  39  1   
 41  21  40  1   
 42  22  41  1   
 43  22  42  1   
 44  22  43  1   
@<TRIPOS>SUBSTRUCTURE
  1 ****   2 GROUP 4 **** **** 0

# MOE 2024.06 (io_trps.svl 2023.06)
