@<TRIPOS>MOLECULE
NONAME
40 41 1 0 0 
SMALL
USER_CHARGES


@<TRIPOS>ATOM
  1 S       -1.3020    -0.1190     0.9270 S.3   1 <1>  -0.0800 
  2 C       -1.4690    -0.9880    -0.5650 C.2   1 <1>   0.4420 
  3 C       -0.7470     1.2270    -0.0050 C.2   1 <1>   0.1980 
  4 N       -1.1200    -0.2760    -1.5760 N.2   1 <1>  -0.3380 
  5 N       -1.9240    -2.2840    -0.4740 N.am  1 <1>  -0.4940 
  6 N       -0.7110     0.9860    -1.2500 N.2   1 <1>  -0.3380 
  7 C       -0.3760     2.5050     0.7120 C.3   1 <1>   0.0200 
  8 C       -2.3360    -3.1540    -1.4510 C.2   1 <1>   0.5440 
  9 C        0.0750     3.5380    -0.3280 C.3   1 <1>   0.3430 
 10 O       -2.4820    -2.7450    -2.5840 O.2   1 <1>  -0.5700 
 11 C       -2.5680    -4.5590    -1.1550 C.ar  1 <1>   0.0860 
 12 N        0.5270     4.8330     0.2840 N.4   1 <1>  -0.9590 
 13 C       -3.1040    -5.0620     0.0430 C.ar  1 <1>   0.1020 
 14 C       -2.2330    -5.5000    -2.1330 C.ar  1 <1>  -0.1500 
 15 C       -0.6030     5.6010     0.9000 C.3   1 <1>   0.2630 
 16 C        1.2020     5.6680    -0.7590 C.3   1 <1>   0.2630 
 17 S       -3.6060    -3.9320     1.3670 S.3   1 <1>  -0.3310 
 18 C       -3.2700    -6.4260     0.2440 C.ar  1 <1>  -0.1500 
 19 C       -2.4020    -6.8570    -1.9390 C.ar  1 <1>  -0.1500 
 20 C       -4.5460    -4.9070     2.6270 C.3   1 <1>  -0.0100 
 21 C       -2.9190    -7.3240    -0.7460 C.ar  1 <1>  -0.1500 
 22 H       -2.0640    -2.6320     0.4740 H     1 <1>   0.3700 
 23 H        0.4220     2.2950     1.4000 H     1 <1>   0.0800 
 24 H       -1.2380     2.8560     1.2490 H     1 <1>   0.0800 
 25 H       -0.7350     3.7200    -1.0170 H     1 <1>   0.0800 
 26 H        0.8860     3.1070    -0.8940 H     1 <1>   0.0800 
 27 H        1.2250     4.6240     1.0150 H     1 <1>   0.4500 
 28 H       -1.8300    -5.1530    -3.0700 H     1 <1>   0.1500 
 29 H       -1.3550     5.8210     0.1600 H     1 <1>   0.0800 
 30 H       -0.2420     6.5320     1.3100 H     1 <1>   0.0800 
 31 H       -1.0570     5.0340     1.6970 H     1 <1>   0.0800 
 32 H        0.5110     5.9080    -1.5520 H     1 <1>   0.0800 
 33 H        2.0390     5.1360    -1.1820 H     1 <1>   0.0800 
 34 H        1.5640     6.5870    -0.3270 H     1 <1>   0.0800 
 35 H       -3.6670    -6.8150     1.1600 H     1 <1>   0.1500 
 36 H       -2.1310    -7.5510    -2.7170 H     1 <1>   0.1500 
 37 H       -4.9400    -4.2120     3.3470 H     1 <1>   0.0800 
 38 H       -3.8660    -5.5940     3.0970 H     1 <1>   0.0800 
 39 H       -5.3450    -5.4220     2.1230 H     1 <1>   0.0800 
 40 H       -3.0490    -8.3820    -0.5920 H     1 <1>   0.1500 
@<TRIPOS>BOND
  1   1   2  1   
  2   1   3  1   
  3   2   4  2   
  4   2   5  1   
  5   3   6  2   
  6   3   7  1   
  7   4   6  1   
  8   5   8  am  
  9   5  22  1   
 10   7   9  1   
 11   7  23  1   
 12   7  24  1   
 13   8  10  2   
 14   8  11  1   
 15   9  12  1   
 16   9  25  1   
 17   9  26  1   
 18  11  13  ar  
 19  11  14  ar  
 20  12  15  1   
 21  12  16  1   
 22  12  27  1   
 23  13  17  1   
 24  13  18  ar  
 25  14  19  ar  
 26  14  28  1   
 27  15  29  1   
 28  15  30  1   
 29  15  31  1   
 30  16  32  1   
 31  16  33  1   
 32  16  34  1   
 33  17  20  1   
 34  18  21  ar  
 35  18  35  1   
 36  19  21  ar  
 37  19  36  1   
 38  20  37  1   
 39  20  38  1   
 40  20  39  1   
 41  21  40  1   
@<TRIPOS>SUBSTRUCTURE
  1 ****   2 GROUP 4 **** **** 0

# MOE 2024.06 (io_trps.svl 2023.06)
