@<TRIPOS>MOLECULE
NONAME
57 60 1 0 0 
SMALL
USER_CHARGES


@<TRIPOS>ATOM
  1 O       -0.7620    -0.3300    -1.1530 O.3   1 <1>  -0.3630 
  2 C       -1.6940     0.3850    -0.4720 C.ar  1 <1>   0.0830 
  3 C        0.3680     0.2710    -1.7430 C.3   1 <1>   0.0400 
  4 C       -2.7690    -0.3180     0.0810 C.ar  1 <1>   0.0000 
  5 C       -1.6080     1.7680    -0.3170 C.ar  1 <1>  -0.1500 
  6 C       -2.8800    -1.7480    -0.0650 C.ar  1 <1>   0.6200 
  7 C       -3.7400     0.4000     0.7810 C.ar  1 <1>  -0.1500 
  8 C       -2.5820     2.4550     0.3830 C.ar  1 <1>  -0.1500 
  9 N       -2.2740    -2.5120     0.8480 N.ar  1 <1>  -0.6200 
 10 N       -3.6010    -2.2100    -1.0900 N.ar  1 <1>  -0.6200 
 11 C       -3.6510     1.7700     0.9320 C.ar  1 <1>  -0.1500 
 12 C       -2.3580    -3.8070     0.6890 C.ar  1 <1>   0.1600 
 13 C       -3.6710    -3.5080    -1.2290 C.ar  1 <1>   0.1600 
 14 C       -3.0640    -4.3710    -0.3480 C.ar  1 <1>  -0.1430 
 15 C       -3.1740    -5.8690    -0.5080 C.3   1 <1>   0.4860 
 16 N       -4.2340    -6.3820     0.4030 N.4   1 <1>  -0.9590 
 17 C       -5.5780    -5.8210     0.1000 C.3   1 <1>   0.3430 
 18 C       -4.3820    -7.8630     0.3610 C.3   1 <1>   0.3430 
 19 C       -6.5610    -6.7930     0.7380 C.3   1 <1>  -0.0800 
 20 C       -5.8600    -8.1640     0.6280 C.3   1 <1>  -0.0800 
 21 C       -7.9860    -6.7160     0.1320 C.3   1 <1>   0.2800 
 22 C       -6.4390    -9.0460    -0.4910 C.3   1 <1>  -0.1600 
 23 O       -7.8760    -6.4590    -1.2200 O.3   1 <1>  -0.6800 
 24 C       -8.6950    -8.0720     0.2960 C.3   1 <1>  -0.1600 
 25 C       -8.8540    -5.5940     0.7440 C.3   1 <1>  -0.1600 
 26 C       -7.9520    -9.2660    -0.3370 C.3   1 <1>  -0.1600 
 27 C       -8.3200    -4.1570     0.6040 C.3   1 <1>  -0.2400 
 28 H        0.9490    -0.5010    -2.2140 H     1 <1>   0.0800 
 29 H        0.9500     0.7490    -0.9760 H     1 <1>   0.0800 
 30 H        0.0400     0.9820    -2.4810 H     1 <1>   0.0800 
 31 H       -0.7920     2.3260    -0.7320 H     1 <1>   0.1500 
 32 H       -4.5720    -0.1300     1.2090 H     1 <1>   0.1500 
 33 H       -2.5110     3.5230     0.5000 H     1 <1>   0.1500 
 34 H       -4.4100     2.3050     1.4770 H     1 <1>   0.1500 
 35 H       -1.8480    -4.4210     1.4120 H     1 <1>   0.1500 
 36 H       -4.2340    -3.8790    -2.0700 H     1 <1>   0.1500 
 37 H       -2.2270    -6.3260    -0.2700 H     1 <1>   0.0800 
 38 H       -3.4190    -6.1080    -1.5310 H     1 <1>   0.0800 
 39 H       -4.0070    -6.1050     1.3660 H     1 <1>   0.4500 
 40 H       -5.6900    -4.8220     0.4860 H     1 <1>   0.0800 
 41 H       -5.7300    -5.8060    -0.9670 H     1 <1>   0.0800 
 42 H       -4.1180    -8.2330    -0.6160 H     1 <1>   0.0800 
 43 H       -3.7520    -8.3370     1.0970 H     1 <1>   0.0800 
 44 H       -6.6320    -6.5530     1.7840 H     1 <1>   0.0800 
 45 H       -5.9570    -8.6950     1.5600 H     1 <1>   0.0800 
 46 H       -6.2630    -8.5720    -1.4430 H     1 <1>   0.0800 
 47 H       -5.9440   -10.0020    -0.5130 H     1 <1>   0.0800 
 48 H       -8.7650    -6.4960    -1.6270 H     1 <1>   0.4000 
 49 H       -8.7920    -8.2650     1.3500 H     1 <1>   0.0800 
 50 H       -9.6960    -8.0230    -0.0980 H     1 <1>   0.0800 
 51 H       -9.8310    -5.6330     0.2940 H     1 <1>   0.0800 
 52 H       -8.9960    -5.7970     1.7910 H     1 <1>   0.0800 
 53 H       -8.1310   -10.1410     0.2660 H     1 <1>   0.0800 
 54 H       -8.3660    -9.4660    -1.3120 H     1 <1>   0.0800 
 55 H       -8.0870    -3.9280    -0.4220 H     1 <1>   0.0800 
 56 H       -7.4490    -4.0020     1.2120 H     1 <1>   0.0800 
 57 H       -9.0730    -3.4620     0.9340 H     1 <1>   0.0800 
@<TRIPOS>BOND
  1   1   2  1   
  2   1   3  1   
  3   2   4  ar  
  4   2   5  ar  
  5   3  28  1   
  6   3  29  1   
  7   3  30  1   
  8   4   6  1   
  9   4   7  ar  
 10   5   8  ar  
 11   5  31  1   
 12   6   9  ar  
 13   6  10  ar  
 14   7  11  ar  
 15   7  32  1   
 16   8  11  ar  
 17   8  33  1   
 18   9  12  ar  
 19  10  13  ar  
 20  11  34  1   
 21  12  14  ar  
 22  12  35  1   
 23  13  14  ar  
 24  13  36  1   
 25  14  15  1   
 26  15  16  1   
 27  15  37  1   
 28  15  38  1   
 29  16  17  1   
 30  16  18  1   
 31  16  39  1   
 32  17  19  1   
 33  17  40  1   
 34  17  41  1   
 35  18  20  1   
 36  18  42  1   
 37  18  43  1   
 38  19  20  1   
 39  19  21  1   
 40  19  44  1   
 41  20  22  1   
 42  20  45  1   
 43  21  23  1   
 44  21  24  1   
 45  21  25  1   
 46  22  26  1   
 47  22  46  1   
 48  22  47  1   
 49  23  48  1   
 50  24  26  1   
 51  24  49  1   
 52  24  50  1   
 53  25  27  1   
 54  25  51  1   
 55  25  52  1   
 56  26  53  1   
 57  26  54  1   
 58  27  55  1   
 59  27  56  1   
 60  27  57  1   
@<TRIPOS>SUBSTRUCTURE
  1 ****  13 GROUP 4 **** **** 0

# MOE 2024.06 (io_trps.svl 2023.06)
