@<TRIPOS>MOLECULE
NONAME
45 48 1 0 0 
SMALL
USER_CHARGES


@<TRIPOS>ATOM
  1 S       -0.0300     0.2530    -1.7140 S.o2  1 <1>   1.4470 
  2 O       -0.6190    -0.8510    -2.4400 O.2   1 <1>  -0.6500 
  3 O        0.2220     1.5040    -2.3940 O.2   1 <1>  -0.6500 
  4 N       -1.0660     0.5960    -0.4180 N.am  1 <1>  -0.8490 
  5 C        1.4970    -0.2830    -0.8890 C.ar  1 <1>  -0.0090 
  6 C       -2.2460     1.3600    -0.8730 C.3   1 <1>   0.1960 
  7 C       -1.4900    -0.6170     0.2910 C.3   1 <1>   0.1960 
  8 C        2.0640    -1.5280    -1.1590 C.ar  1 <1>  -0.1500 
  9 C        2.1300     0.5450     0.0360 C.ar  1 <1>  -0.1500 
 10 C       -3.1180     1.8230     0.3100 C.3   1 <1>   0.1440 
 11 C       -2.3110    -0.2470     1.5330 C.3   1 <1>  -0.1600 
 12 C        3.2250    -1.9420    -0.5260 C.ar  1 <1>  -0.1500 
 13 C        3.2920     0.1500     0.6790 C.ar  1 <1>  -0.1500 
 14 C       -4.3110     2.5820    -0.2390 C.ar  1 <1>   0.1670 
 15 C       -3.5350     0.6020     1.1570 C.3   1 <1>  -0.1600 
 16 C       -2.3950     2.9040     1.1590 C.3   1 <1>  -0.1600 
 17 C        3.8190    -1.0920     0.3850 C.ar  1 <1>   0.1900 
 18 N       -5.3410     2.0440    -0.8540 N.ar  1 <1>  -0.6200 
 19 C       -4.1880     3.9240    -0.0360 C.ar  1 <1>  -0.1430 
 20 C       -2.9040     4.2720     0.6730 C.3   1 <1>  -0.0170 
 21 F        4.9120    -1.4740     0.9860 F     1 <1>  -0.1900 
 22 C       -6.2570     2.9150    -1.2520 C.ar  1 <1>   0.4770 
 23 C       -5.1970     4.7350    -0.4920 C.ar  1 <1>   0.1600 
 24 N       -6.2490     4.2340    -1.1070 N.ar  1 <1>  -0.6200 
 25 C       -7.4530     2.3290    -1.9610 C.3   1 <1>  -0.0970 
 26 H       -2.8370     0.7510    -1.5380 H     1 <1>   0.0800 
 27 H       -1.9290     2.2300    -1.4230 H     1 <1>   0.0800 
 28 H       -0.6260    -1.1810     0.6000 H     1 <1>   0.0800 
 29 H       -2.0810    -1.2390    -0.3630 H     1 <1>   0.0800 
 30 H        1.5900    -2.1810    -1.8750 H     1 <1>   0.1500 
 31 H        1.7040     1.5110     0.2510 H     1 <1>   0.1500 
 32 H       -1.6820     0.2910     2.2200 H     1 <1>   0.0800 
 33 H       -2.6360    -1.1470     2.0230 H     1 <1>   0.0800 
 34 H        3.6640    -2.9020    -0.7340 H     1 <1>   0.1500 
 35 H        3.7820     0.7880     1.3930 H     1 <1>   0.1500 
 36 H       -4.2120    -0.0050     0.5800 H     1 <1>   0.0800 
 37 H       -4.0620     0.9190     2.0400 H     1 <1>   0.0800 
 38 H       -1.3230     2.8330     1.0880 H     1 <1>   0.0800 
 39 H       -2.6700     2.7940     2.1930 H     1 <1>   0.0800 
 40 H       -2.2110     4.7080    -0.0260 H     1 <1>   0.0800 
 41 H       -3.0710     4.9470     1.4940 H     1 <1>   0.0800 
 42 H       -5.1460     5.8020    -0.3550 H     1 <1>   0.1500 
 43 H       -7.7940     1.4560    -1.4370 H     1 <1>   0.0800 
 44 H       -7.1730     2.0560    -2.9600 H     1 <1>   0.0800 
 45 H       -8.2530     3.0460    -2.0020 H     1 <1>   0.0800 
@<TRIPOS>BOND
  1   1   2  2   
  2   1   3  2   
  3   1   4  am  
  4   1   5  1   
  5   4   6  1   
  6   4   7  1   
  7   5   8  ar  
  8   5   9  ar  
  9   6  10  1   
 10   6  26  1   
 11   6  27  1   
 12   7  11  1   
 13   7  28  1   
 14   7  29  1   
 15   8  12  ar  
 16   8  30  1   
 17   9  13  ar  
 18   9  31  1   
 19  10  14  1   
 20  10  15  1   
 21  10  16  1   
 22  11  15  1   
 23  11  32  1   
 24  11  33  1   
 25  12  17  ar  
 26  12  34  1   
 27  13  17  ar  
 28  13  35  1   
 29  14  18  ar  
 30  14  19  ar  
 31  15  36  1   
 32  15  37  1   
 33  16  20  1   
 34  16  38  1   
 35  16  39  1   
 36  17  21  1   
 37  18  22  ar  
 38  19  20  1   
 39  19  23  ar  
 40  20  40  1   
 41  20  41  1   
 42  22  24  ar  
 43  22  25  1   
 44  23  24  ar  
 45  23  42  1   
 46  25  43  1   
 47  25  44  1   
 48  25  45  1   
@<TRIPOS>SUBSTRUCTURE
  1 ****   4 GROUP 4 **** **** 0

# MOE 2024.06 (io_trps.svl 2023.06)
