@<TRIPOS>MOLECULE
NONAME
52 55 1 0 0 
SMALL
USER_CHARGES


@<TRIPOS>ATOM
  1 S       -1.2020     0.3920    -1.4560 S.3   1 <1>  -0.2860 
  2 C        0.5740     0.1180    -1.3940 C.2   1 <1>   0.2420 
  3 C       -1.4030     2.0310    -2.3150 C.3   1 <1>   0.1310 
  4 N        1.4590     0.9420    -1.8340 N.2   1 <1>  -0.3380 
  5 N        1.0940    -0.9870    -0.8640 N.pl3 1 <1>   0.0480 
  6 C       -2.2620     2.9650    -1.4720 C.2   1 <1>   0.5690 
  7 N        2.6420     0.3700    -1.5870 N.2   1 <1>  -0.3380 
  8 C        2.4040    -0.7650    -1.0180 C.2   1 <1>   0.0360 
  9 C        0.4050    -2.1460    -0.2680 C.3   1 <1>   0.0160 
 10 O       -3.3970     3.1130    -1.8640 O.2   1 <1>  -0.5700 
 11 N       -1.7600     3.6000    -0.3510 N.am  1 <1>  -0.6600 
 12 C       -2.5370     4.4760     0.6050 C.3   1 <1>   0.2200 
 13 C       -0.3550     3.4060     0.1340 C.3   1 <1>   0.1400 
 14 C       -1.9070     5.8970     0.7670 C.3   1 <1>   0.1380 
 15 C       -4.0650     4.5490     0.4700 C.3   1 <1>  -0.1600 
 16 C        0.3320     4.7490     0.4190 C.3   1 <1>  -0.1600 
 17 C       -1.7840     6.7470    -0.5300 C.2   1 <1>  -0.2760 
 18 C       -2.7810     6.7080     1.7620 C.3   1 <1>   0.1200 
 19 C       -0.4980     5.6450     1.3570 C.3   1 <1>  -0.1600 
 20 C       -4.6780     5.3290     1.6460 C.3   1 <1>   0.1200 
 21 C       -2.2680     6.4370    -1.7400 C.2   1 <1>  -0.2880 
 22 C       -1.0290     8.0740    -0.3980 C.3   1 <1>  -0.0220 
 23 O       -3.6850     5.8950     2.4550 O.3   1 <1>  -0.5600 
 24 C       -2.0990     7.2920    -2.9880 C.3   1 <1>   0.2580 
 25 C       -1.3230     9.0040    -1.5830 C.3   1 <1>   0.1200 
 26 O       -1.1580     8.3040    -2.7760 O.3   1 <1>  -0.5600 
 27 H       -0.4390     2.4560    -2.5120 H     1 <1>   0.0800 
 28 H       -1.8910     1.8270    -3.2490 H     1 <1>   0.0800 
 29 H        3.1600    -1.4600    -0.6990 H     1 <1>   0.1500 
 30 H        1.1280    -2.8510     0.0990 H     1 <1>   0.0800 
 31 H       -0.2080    -2.6170    -1.0150 H     1 <1>   0.0800 
 32 H       -0.2160    -1.8110     0.5430 H     1 <1>   0.0800 
 33 H       -2.4060     3.9950     1.5600 H     1 <1>   0.0800 
 34 H       -0.3820     2.8200     1.0370 H     1 <1>   0.0800 
 35 H        0.2430     2.8730    -0.5780 H     1 <1>   0.0800 
 36 H       -4.4790     3.5570     0.4600 H     1 <1>   0.0800 
 37 H       -4.3480     5.0360    -0.4430 H     1 <1>   0.0800 
 38 H        1.2940     4.5610     0.8620 H     1 <1>   0.0800 
 39 H        0.5030     5.2530    -0.5160 H     1 <1>   0.0800 
 40 H       -3.3560     7.4520     1.2380 H     1 <1>   0.0800 
 41 H       -2.1670     7.2080     2.4900 H     1 <1>   0.0800 
 42 H        0.0220     6.5680     1.5330 H     1 <1>   0.0800 
 43 H       -0.5950     5.1560     2.3110 H     1 <1>   0.0800 
 44 H       -5.2580     4.6690     2.2680 H     1 <1>   0.0800 
 45 H       -5.3190     6.1180     1.2900 H     1 <1>   0.0800 
 46 H       -2.8250     5.5490    -1.9590 H     1 <1>   0.1500 
 47 H        0.0300     7.8890    -0.3680 H     1 <1>   0.0800 
 48 H       -1.3020     8.5900     0.5030 H     1 <1>   0.0800 
 49 H       -3.0340     7.7470    -3.2670 H     1 <1>   0.0800 
 50 H       -1.7430     6.6910    -3.8060 H     1 <1>   0.0800 
 51 H       -0.6420     9.8370    -1.5890 H     1 <1>   0.0800 
 52 H       -2.3340     9.3740    -1.5410 H     1 <1>   0.0800 
@<TRIPOS>BOND
  1   1   2  1   
  2   1   3  1   
  3   2   4  2   
  4   2   5  1   
  5   3   6  1   
  6   3  27  1   
  7   3  28  1   
  8   4   7  1   
  9   5   8  1   
 10   5   9  1   
 11   6  10  2   
 12   6  11  am  
 13   7   8  2   
 14   8  29  1   
 15   9  30  1   
 16   9  31  1   
 17   9  32  1   
 18  11  12  1   
 19  11  13  1   
 20  12  14  1   
 21  12  15  1   
 22  12  33  1   
 23  13  16  1   
 24  13  34  1   
 25  13  35  1   
 26  14  17  1   
 27  14  18  1   
 28  14  19  1   
 29  15  20  1   
 30  15  36  1   
 31  15  37  1   
 32  16  19  1   
 33  16  38  1   
 34  16  39  1   
 35  17  21  2   
 36  17  22  1   
 37  18  23  1   
 38  18  40  1   
 39  18  41  1   
 40  19  42  1   
 41  19  43  1   
 42  20  23  1   
 43  20  44  1   
 44  20  45  1   
 45  21  24  1   
 46  21  46  1   
 47  22  25  1   
 48  22  47  1   
 49  22  48  1   
 50  24  26  1   
 51  24  49  1   
 52  24  50  1   
 53  25  26  1   
 54  25  51  1   
 55  25  52  1   
@<TRIPOS>SUBSTRUCTURE
  1 ****  11 GROUP 4 **** **** 0

# MOE 2024.06 (io_trps.svl 2023.06)
