@<TRIPOS>MOLECULE
NONAME
46 48 1 0 0 
SMALL
USER_CHARGES


@<TRIPOS>ATOM
  1 O       -2.2330     0.5210    -2.3860 O.2   1 <1>  -0.5700 
  2 C       -1.9680     0.6800    -1.2100 C.2   1 <1>   0.5440 
  3 N       -1.8760    -0.4320    -0.4230 N.am  1 <1>  -0.7300 
  4 C       -1.7640     2.0110    -0.6620 C.ar  1 <1>   0.0860 
  5 C       -2.0460    -1.8300    -0.8850 C.3   1 <1>   0.2200 
  6 C       -1.8340     2.2730     0.7100 C.ar  1 <1>  -0.1500 
  7 C       -1.4890     3.0950    -1.4990 C.ar  1 <1>  -0.1500 
  8 C       -3.4040    -2.3850    -0.4760 C.3   1 <1>  -0.0800 
  9 C       -1.1240    -2.7280    -0.0740 C.3   1 <1>   0.1200 
 10 C       -1.6320     3.5440     1.2140 C.ar  1 <1>  -0.1500 
 11 C       -1.2870     4.3700    -1.0040 C.ar  1 <1>  -0.1500 
 12 C       -3.1630    -2.8610     0.9610 C.3   1 <1>   0.1200 
 13 C       -4.5990    -1.4280    -0.6370 C.3   1 <1>  -0.0160 
 14 O       -1.7770    -2.9070     1.1460 O.3   1 <1>  -0.5600 
 15 C       -1.3560     4.6040     0.3660 C.ar  1 <1>   0.0830 
 16 C       -5.9030    -2.1240    -0.2790 C.ar  1 <1>  -0.1430 
 17 O       -1.1710     5.8140     0.9370 O.3   1 <1>  -0.3630 
 18 C       -6.5490    -2.9550    -1.1720 C.ar  1 <1>  -0.1500 
 19 C       -6.5070    -1.9650     0.9520 C.ar  1 <1>  -0.1500 
 20 C       -0.8910     6.9620     0.1710 C.3   1 <1>   0.1200 
 21 C       -7.7310    -3.5740    -0.8000 C.ar  1 <1>   0.1600 
 22 C       -7.6910    -2.6310     1.2240 C.ar  1 <1>   0.1600 
 23 C       -0.7440     8.1430     1.1260 C.3   1 <1>  -0.2400 
 24 N       -8.3170    -3.4330     0.3790 N.ar  1 <1>  -0.6200 
 25 H       -1.6250    -0.3550     0.5640 H     1 <1>   0.3700 
 26 H       -1.8650    -1.9080    -1.9450 H     1 <1>   0.0800 
 27 H       -2.0540     1.4780     1.3980 H     1 <1>   0.1500 
 28 H       -1.4350     2.9270    -2.5610 H     1 <1>   0.1500 
 29 H       -3.5930    -3.2590    -1.0750 H     1 <1>   0.0800 
 30 H       -0.1540    -2.2930     0.0910 H     1 <1>   0.0800 
 31 H       -1.0210    -3.6920    -0.5390 H     1 <1>   0.0800 
 32 H       -1.6870     3.7300     2.2720 H     1 <1>   0.1500 
 33 H       -1.0780     5.1650    -1.6940 H     1 <1>   0.1500 
 34 H       -3.5720    -3.8430     1.1300 H     1 <1>   0.0800 
 35 H       -3.5640    -2.1710     1.6830 H     1 <1>   0.0800 
 36 H       -4.6460    -1.0840    -1.6560 H     1 <1>   0.0800 
 37 H       -4.4760    -0.5620    -0.0110 H     1 <1>   0.0800 
 38 H       -6.1450    -3.1250    -2.1530 H     1 <1>   0.1500 
 39 H       -6.0710    -1.3300     1.7010 H     1 <1>   0.1500 
 40 H        0.0240     6.7950    -0.3710 H     1 <1>   0.0800 
 41 H       -1.7070     7.1240    -0.5120 H     1 <1>   0.0800 
 42 H       -8.2210    -4.2180    -1.5100 H     1 <1>   0.1500 
 43 H       -8.1480    -2.4950     2.1900 H     1 <1>   0.1500 
 44 H        0.0620     7.9640     1.8140 H     1 <1>   0.0800 
 45 H       -1.6580     8.2910     1.6730 H     1 <1>   0.0800 
 46 H       -0.5290     9.0380     0.5700 H     1 <1>   0.0800 
@<TRIPOS>BOND
  1   1   2  2   
  2   2   3  am  
  3   2   4  1   
  4   3   5  1   
  5   3  25  1   
  6   4   6  ar  
  7   4   7  ar  
  8   5   8  1   
  9   5   9  1   
 10   5  26  1   
 11   6  10  ar  
 12   6  27  1   
 13   7  11  ar  
 14   7  28  1   
 15   8  12  1   
 16   8  13  1   
 17   8  29  1   
 18   9  14  1   
 19   9  30  1   
 20   9  31  1   
 21  10  15  ar  
 22  10  32  1   
 23  11  15  ar  
 24  11  33  1   
 25  12  14  1   
 26  12  34  1   
 27  12  35  1   
 28  13  16  1   
 29  13  36  1   
 30  13  37  1   
 31  15  17  1   
 32  16  18  ar  
 33  16  19  ar  
 34  17  20  1   
 35  18  21  ar  
 36  18  38  1   
 37  19  22  ar  
 38  19  39  1   
 39  20  23  1   
 40  20  40  1   
 41  20  41  1   
 42  21  24  ar  
 43  21  42  1   
 44  22  24  ar  
 45  22  43  1   
 46  23  44  1   
 47  23  45  1   
 48  23  46  1   
@<TRIPOS>SUBSTRUCTURE
  1 ****   3 GROUP 4 **** **** 0

# MOE 2024.06 (io_trps.svl 2023.06)
