@<TRIPOS>MOLECULE
NONAME
46 47 1 0 0 
SMALL
USER_CHARGES


@<TRIPOS>ATOM
  1 S       -1.9370    -1.5490    -2.0360 S.3   1 <1>  -0.4600 
  2 C       -2.3090    -0.8680    -0.3840 C.3   1 <1>   0.2510 
  3 C       -1.0710    -0.1940    -2.8700 C.3   1 <1>  -0.0100 
  4 C       -3.1060    -1.8690     0.4390 C.2   1 <1>   0.3350 
  5 N       -2.6220    -2.5930     1.3690 N.2   1 <1>  -0.4100 
  6 N       -4.4090    -2.0480     0.2560 N.2   1 <1>  -0.5650 
  7 O       -3.5940    -3.3180     1.8360 O.3   1 <1>  -0.0190 
  8 C       -4.6330    -2.9490     1.1280 C.2   1 <1>   0.2980 
  9 C       -5.9760    -3.6070     1.4080 C.3   1 <1>   0.3200 
 10 N       -5.9700    -5.0470     1.0480 N.am  1 <1>  -0.7300 
 11 C       -6.3920    -6.0480     1.8480 C.2   1 <1>   0.5690 
 12 O       -6.8570    -5.8310     2.9390 O.2   1 <1>  -0.5700 
 13 C       -6.2800    -7.4790     1.3700 C.3   1 <1>  -0.0990 
 14 C       -7.4260    -7.8460     0.4130 C.3   1 <1>   0.2510 
 15 N       -7.7280    -9.3160     0.4240 N.3   1 <1>  -0.8100 
 16 C       -7.2840    -7.2850    -1.0230 C.2   1 <1>   0.5690 
 17 C       -6.5930   -10.2610     0.3060 C.3   1 <1>   0.1900 
 18 C       -8.9400    -9.5780    -0.3960 C.3   1 <1>   0.1100 
 19 O       -6.4720    -6.4340    -1.3050 O.2   1 <1>  -0.5700 
 20 N       -8.0930    -7.7810    -1.9900 N.am  1 <1>  -0.7300 
 21 C       -6.0540   -10.4250    -1.1150 C.3   1 <1>  -0.2400 
 22 C       -7.0010   -11.6130     0.8890 C.3   1 <1>  -0.2400 
 23 C       -8.8920    -9.0300    -1.8470 C.3   1 <1>   0.1400 
 24 H       -2.8720     0.0360    -0.5260 H     1 <1>   0.0800 
 25 H       -1.3690    -0.6530     0.0900 H     1 <1>   0.0800 
 26 H       -0.8180    -0.5320    -3.8600 H     1 <1>   0.0800 
 27 H       -0.1840     0.0340    -2.3060 H     1 <1>   0.0800 
 28 H       -1.7350     0.6500    -2.9140 H     1 <1>   0.0800 
 29 H       -6.7360    -3.1090     0.8320 H     1 <1>   0.0800 
 30 H       -6.2120    -3.4870     2.4510 H     1 <1>   0.0800 
 31 H       -5.7390    -5.2620     0.0650 H     1 <1>   0.3700 
 32 H       -6.3290    -8.1090     2.2390 H     1 <1>   0.0800 
 33 H       -5.3300    -7.6200     0.8900 H     1 <1>   0.0800 
 34 H       -8.3020    -7.3660     0.8150 H     1 <1>   0.0800 
 35 H       -5.7830    -9.9090     0.9190 H     1 <1>   0.0800 
 36 H       -9.7730    -9.1080     0.0980 H     1 <1>   0.0800 
 37 H       -9.1620   -10.6290    -0.4200 H     1 <1>   0.0800 
 38 H       -7.9610    -7.4060    -2.9320 H     1 <1>   0.3700 
 39 H       -6.7640   -10.9220    -1.7470 H     1 <1>   0.0800 
 40 H       -5.1670   -11.0320    -1.0870 H     1 <1>   0.0800 
 41 H       -5.7830    -9.4760    -1.5370 H     1 <1>   0.0800 
 42 H       -7.7180   -12.1130     0.2650 H     1 <1>   0.0800 
 43 H       -7.4160   -11.4770     1.8720 H     1 <1>   0.0800 
 44 H       -6.1370   -12.2450     0.9730 H     1 <1>   0.0800 
 45 H       -9.8980    -8.8460    -2.1820 H     1 <1>   0.0800 
 46 H       -8.4770    -9.7800    -2.4950 H     1 <1>   0.0800 
@<TRIPOS>BOND
  1   1   2  1   
  2   1   3  1   
  3   2   4  1   
  4   2  24  1   
  5   2  25  1   
  6   3  26  1   
  7   3  27  1   
  8   3  28  1   
  9   4   5  2   
 10   4   6  1   
 11   5   7  1   
 12   6   8  2   
 13   7   8  1   
 14   8   9  1   
 15   9  10  1   
 16   9  29  1   
 17   9  30  1   
 18  10  11  am  
 19  10  31  1   
 20  11  12  2   
 21  11  13  1   
 22  13  14  1   
 23  13  32  1   
 24  13  33  1   
 25  14  15  1   
 26  14  16  1   
 27  14  34  1   
 28  15  17  1   
 29  15  18  1   
 30  16  19  2   
 31  16  20  am  
 32  17  21  1   
 33  17  22  1   
 34  17  35  1   
 35  18  23  1   
 36  18  36  1   
 37  18  37  1   
 38  20  23  1   
 39  20  38  1   
 40  21  39  1   
 41  21  40  1   
 42  21  41  1   
 43  22  42  1   
 44  22  43  1   
 45  22  44  1   
 46  23  45  1   
 47  23  46  1   
@<TRIPOS>SUBSTRUCTURE
  1 ****  10 GROUP 4 **** **** 0

# MOE 2024.06 (io_trps.svl 2023.06)
