@<TRIPOS>MOLECULE
NONAME
47 51 1 0 0 
SMALL
USER_CHARGES


@<TRIPOS>ATOM
  1 S        1.4980     0.1500    -0.4090 S.3   1 <1>  -0.0800 
  2 C        0.9220     1.7930    -0.5960 C.2   1 <1>  -0.1400 
  3 C        2.9280     0.7290     0.4360 C.2   1 <1>  -0.1100 
  4 C        1.7690     2.6840    -0.0640 C.2   1 <1>  -0.1810 
  5 C       -0.3790     2.1270    -1.2750 C.3   1 <1>   0.0200 
  6 C        2.9200     2.0720     0.5360 C.2   1 <1>  -0.1500 
  7 C        1.4770     4.1840    -0.1260 C.3   1 <1>   0.4610 
  8 C       -0.7500     3.5630    -0.8690 C.3   1 <1>   0.1200 
  9 O        0.3610     4.4240    -0.9660 O.3   1 <1>  -0.5600 
 10 C        1.1870     4.7500     1.2720 C.3   1 <1>  -0.1600 
 11 C        2.6510     4.9300    -0.7680 C.3   1 <1>  -0.1600 
 12 C        0.9560     6.2600     1.2320 C.3   1 <1>   0.1400 
 13 C        2.4290     6.4440    -0.7730 C.3   1 <1>   0.1400 
 14 N        2.1420     6.9130     0.6130 N.am  1 <1>  -0.6600 
 15 C        2.8920     7.8540     1.2930 C.2   1 <1>   0.6160 
 16 O        2.4320     8.3510     2.3050 O.2   1 <1>  -0.5700 
 17 C        4.1540     8.3330     0.8220 C.2   1 <1>   0.0290 
 18 C        5.2580     7.4350     0.7230 C.2   1 <1>   0.7670 
 19 C        4.3650     9.6360     0.4810 C.2   1 <1>  -0.0500 
 20 O        5.1760     6.2620     1.0530 O.2   1 <1>  -0.5700 
 21 N        6.4720     7.8580     0.2380 N.2   1 <1>  -0.6610 
 22 N        5.5960    10.0020     0.0300 N.pl3 1 <1>  -0.5500 
 23 C        6.6060     9.0900    -0.0780 C.2   1 <1>   0.5000 
 24 C        7.9280     9.6170    -0.6080 C.3   1 <1>  -0.1000 
 25 C        9.2310     9.2130     0.0170 C.3   1 <1>  -0.2000 
 26 C        8.7280    10.6140     0.1790 C.3   1 <1>  -0.2000 
 27 H        3.6340    -0.0080     0.7740 H     1 <1>   0.1500 
 28 H       -1.1520     1.4480    -0.9640 H     1 <1>   0.0800 
 29 H       -0.2640     2.0590    -2.3420 H     1 <1>   0.0800 
 30 H        3.6840     2.6650     1.0100 H     1 <1>   0.1500 
 31 H       -1.1100     3.5830     0.1440 H     1 <1>   0.0800 
 32 H       -1.5200     3.9440    -1.5150 H     1 <1>   0.0800 
 33 H        2.0280     4.5530     1.9120 H     1 <1>   0.0800 
 34 H        0.3390     4.2550     1.7050 H     1 <1>   0.0800 
 35 H        2.7880     4.5750    -1.7720 H     1 <1>   0.0800 
 36 H        3.5530     4.7160    -0.2260 H     1 <1>   0.0800 
 37 H        0.7950     6.6240     2.2320 H     1 <1>   0.0800 
 38 H        0.0810     6.4880     0.6470 H     1 <1>   0.0800 
 39 H        1.5870     6.6820    -1.4020 H     1 <1>   0.0800 
 40 H        3.2940     6.9350    -1.1810 H     1 <1>   0.0800 
 41 H        3.5870    10.3810     0.5600 H     1 <1>   0.1500 
 42 H        5.8130    10.9710    -0.2220 H     1 <1>   0.4000 
 43 H        7.9180     9.7110    -1.6790 H     1 <1>   0.1000 
 44 H       10.0730     9.0280    -0.6280 H     1 <1>   0.1000 
 45 H        9.2080     8.5460     0.8620 H     1 <1>   0.1000 
 46 H        8.3910    10.9140     1.1560 H     1 <1>   0.1000 
 47 H        9.2380    11.4050    -0.3440 H     1 <1>   0.1000 
@<TRIPOS>BOND
  1   1   2  1   
  2   1   3  1   
  3   2   4  2   
  4   2   5  1   
  5   3   6  2   
  6   3  27  1   
  7   4   6  1   
  8   4   7  1   
  9   5   8  1   
 10   5  28  1   
 11   5  29  1   
 12   6  30  1   
 13   7   9  1   
 14   7  10  1   
 15   7  11  1   
 16   8   9  1   
 17   8  31  1   
 18   8  32  1   
 19  10  12  1   
 20  10  33  1   
 21  10  34  1   
 22  11  13  1   
 23  11  35  1   
 24  11  36  1   
 25  12  14  1   
 26  12  37  1   
 27  12  38  1   
 28  13  14  1   
 29  13  39  1   
 30  13  40  1   
 31  14  15  am  
 32  15  16  2   
 33  15  17  1   
 34  17  18  1   
 35  17  19  2   
 36  18  20  2   
 37  18  21  1   
 38  19  22  1   
 39  19  41  1   
 40  21  23  2   
 41  22  23  1   
 42  22  42  1   
 43  23  24  1   
 44  24  25  1   
 45  24  26  1   
 46  24  43  1   
 47  25  26  1   
 48  25  44  1   
 49  25  45  1   
 50  26  46  1   
 51  26  47  1   
@<TRIPOS>SUBSTRUCTURE
  1 ****  13 GROUP 4 **** **** 0

# MOE 2024.06 (io_trps.svl 2023.06)
