@<TRIPOS>MOLECULE
NONAME
48 51 1 0 0 
SMALL
USER_CHARGES


@<TRIPOS>ATOM
  1 O       -0.2580     0.1100     0.4760 O.2   1 <1>  -0.5700 
  2 C       -1.2540     0.7720     0.3040 C.2   1 <1>   0.5690 
  3 N       -2.4580     0.1810     0.0430 N.am  1 <1>  -0.6600 
  4 C       -1.1670     2.2890     0.3760 C.3   1 <1>  -0.0990 
  5 C       -3.7380     0.8720    -0.2490 C.3   1 <1>   0.1400 
  6 C       -2.6230    -1.2890    -0.0260 C.3   1 <1>   0.1400 
  7 C        0.2170     2.8130     0.7870 C.3   1 <1>  -0.0160 
  8 C       -4.7030    -0.2430    -0.6510 C.3   1 <1>   0.2000 
  9 C       -4.1340    -1.5230    -0.0400 C.3   1 <1>  -0.0800 
 10 C        0.2050     4.3310     0.8650 C.ar  1 <1>  -0.1440 
 11 O       -5.9810    -0.0100    -0.1680 O.3   1 <1>  -0.6800 
 12 C       -4.5570    -2.7890    -0.8020 C.3   1 <1>  -0.0170 
 13 C        0.5080     5.0880    -0.2620 C.ar  1 <1>  -0.1500 
 14 C       -0.1120     4.9660     2.0660 C.ar  1 <1>  -0.1500 
 15 C       -3.9740    -4.0370    -0.1590 C.ar  1 <1>  -0.1440 
 16 C        0.4810     6.4640    -0.1520 C.ar  1 <1>   0.0820 
 17 C       -0.1330     6.3520     2.1590 C.ar  1 <1>  -0.1500 
 18 C       -4.5760    -4.6390     0.9270 C.ar  1 <1>  -0.1500 
 19 C       -2.8170    -4.6320    -0.6220 C.ar  1 <1>  -0.1500 
 20 O        0.7350     7.3780    -1.0950 O.3   1 <1>  -0.3630 
 21 C        0.1700     7.0790     1.0260 C.ar  1 <1>   0.0820 
 22 C       -4.0080    -5.7730     1.4840 C.ar  1 <1>   0.1600 
 23 C       -2.3310    -5.7660     0.0090 C.ar  1 <1>   0.1600 
 24 C        0.5820     8.6550    -0.4780 C.3   1 <1>   0.4000 
 25 O        0.2140     8.4080     0.8770 O.3   1 <1>  -0.3630 
 26 N       -2.8990    -6.3510     1.0510 N.ar  1 <1>  -0.6200 
 27 H       -1.4180     2.6900    -0.5880 H     1 <1>   0.0800 
 28 H       -1.8920     2.6380     1.0870 H     1 <1>   0.0800 
 29 H       -4.0810     1.3750     0.6390 H     1 <1>   0.0800 
 30 H       -3.6140     1.5750    -1.0540 H     1 <1>   0.0800 
 31 H       -2.1660    -1.6450    -0.9340 H     1 <1>   0.0800 
 32 H       -2.1550    -1.7690     0.8180 H     1 <1>   0.0800 
 33 H        0.9540     2.4910     0.0710 H     1 <1>   0.0800 
 34 H        0.4930     2.4010     1.7420 H     1 <1>   0.0800 
 35 H       -4.7530    -0.3100    -1.7250 H     1 <1>   0.0800 
 36 H       -4.4500    -1.6020     0.9850 H     1 <1>   0.0800 
 37 H       -5.9810     0.0000     0.8090 H     1 <1>   0.4000 
 38 H       -4.2370    -2.7260    -1.8280 H     1 <1>   0.0800 
 39 H       -5.6310    -2.8600    -0.8040 H     1 <1>   0.0800 
 40 H        0.7580     4.6310    -1.2020 H     1 <1>   0.1500 
 41 H       -0.3450     4.3790     2.9380 H     1 <1>   0.1500 
 42 H       -0.3750     6.8540     3.0770 H     1 <1>   0.1500 
 43 H       -5.4810    -4.2390     1.3450 H     1 <1>   0.1500 
 44 H       -2.2870    -4.2280    -1.4640 H     1 <1>   0.1500 
 45 H       -4.4920    -6.2300     2.3300 H     1 <1>   0.1500 
 46 H       -1.4270    -6.2150    -0.3650 H     1 <1>   0.1500 
 47 H        1.5180     9.1830    -0.5070 H     1 <1>   0.0800 
 48 H       -0.2010     9.2030    -0.9710 H     1 <1>   0.0800 
@<TRIPOS>BOND
  1   1   2  2   
  2   2   3  am  
  3   2   4  1   
  4   3   5  1   
  5   3   6  1   
  6   4   7  1   
  7   4  27  1   
  8   4  28  1   
  9   5   8  1   
 10   5  29  1   
 11   5  30  1   
 12   6   9  1   
 13   6  31  1   
 14   6  32  1   
 15   7  10  1   
 16   7  33  1   
 17   7  34  1   
 18   8   9  1   
 19   8  11  1   
 20   8  35  1   
 21   9  12  1   
 22   9  36  1   
 23  10  13  ar  
 24  10  14  ar  
 25  11  37  1   
 26  12  15  1   
 27  12  38  1   
 28  12  39  1   
 29  13  16  ar  
 30  13  40  1   
 31  14  17  ar  
 32  14  41  1   
 33  15  18  ar  
 34  15  19  ar  
 35  16  20  1   
 36  16  21  ar  
 37  17  21  ar  
 38  17  42  1   
 39  18  22  ar  
 40  18  43  1   
 41  19  23  ar  
 42  19  44  1   
 43  20  24  1   
 44  21  25  1   
 45  22  26  ar  
 46  22  45  1   
 47  23  26  ar  
 48  23  46  1   
 49  24  25  1   
 50  24  47  1   
 51  24  48  1   
@<TRIPOS>SUBSTRUCTURE
  1 ****   2 GROUP 4 **** **** 0

# MOE 2024.06 (io_trps.svl 2023.06)
