@<TRIPOS>MOLECULE
NONAME
59 62 1 0 0 
SMALL
USER_CHARGES


@<TRIPOS>ATOM
  1 O       -1.1050    -1.7180     1.3100 O.3   1 <1>  -0.3630 
  2 C       -0.0410    -2.0720     0.5430 C.ar  1 <1>   0.0830 
  3 C       -0.8070    -1.2160     2.5940 C.3   1 <1>   0.0400 
  4 C        0.6590    -3.2870     0.7610 C.ar  1 <1>   0.3100 
  5 C        0.3080    -1.2140    -0.4620 C.ar  1 <1>  -0.1500 
  6 N        0.2180    -4.1040     1.7580 N.ar  1 <1>  -0.6200 
  7 C        1.7670    -3.6060    -0.0760 C.ar  1 <1>   0.0000 
  8 C        1.3830    -1.5170    -1.2880 C.ar  1 <1>  -0.1500 
  9 C        0.8340    -5.2210     1.9380 C.ar  1 <1>   0.4100 
 10 C        2.1030    -2.6790    -1.1100 C.ar  1 <1>   0.0830 
 11 C        2.4380    -4.8350     0.1960 C.ar  1 <1>  -0.1440 
 12 N        0.2990    -6.0190     2.9010 N.pl3 1 <1>  -0.8690 
 13 C        1.9520    -5.6180     1.1970 C.ar  1 <1>  -0.1500 
 14 O        3.1520    -2.9680    -1.9270 O.3   1 <1>  -0.3630 
 15 C        3.6700    -5.3320    -0.5530 C.3   1 <1>  -0.0970 
 16 C       -0.3180    -7.3050     2.5250 C.3   1 <1>   0.2090 
 17 C        3.5820    -2.1170    -2.9680 C.3   1 <1>   0.0400 
 18 C       -1.8420    -7.1400     2.4080 C.3   1 <1>  -0.0800 
 19 C       -2.5310    -8.4420     1.9950 C.3   1 <1>   0.3430 
 20 C       -2.2810    -6.1040     1.3630 C.3   1 <1>  -0.1600 
 21 N       -3.3400    -8.1200     0.7860 N.4   1 <1>  -0.9590 
 22 C       -3.5660    -6.6540     0.7830 C.3   1 <1>   0.3430 
 23 C       -4.5950    -8.9080     0.6600 C.3   1 <1>   0.4860 
 24 C       -5.2020    -8.6200    -0.6980 C.ar  1 <1>  -0.1430 
 25 C       -4.6840    -9.2220    -1.8370 C.ar  1 <1>  -0.1500 
 26 C       -6.2780    -7.7520    -0.8150 C.ar  1 <1>  -0.1500 
 27 C       -5.2290    -8.9480    -3.0790 C.ar  1 <1>  -0.1500 
 28 C       -6.8220    -7.4790    -2.0580 C.ar  1 <1>  -0.1500 
 29 C       -6.2970    -8.0750    -3.1890 C.ar  1 <1>  -0.1500 
 30 H       -1.7280    -0.9260     3.0640 H     1 <1>   0.0800 
 31 H       -0.1580    -0.3640     2.4920 H     1 <1>   0.0800 
 32 H       -0.3250    -1.9840     3.1730 H     1 <1>   0.0800 
 33 H       -0.2480    -0.3070    -0.6150 H     1 <1>   0.1500 
 34 H        1.6160    -0.8090    -2.0600 H     1 <1>   0.1500 
 35 H       -0.2980    -5.4520     3.5100 H     1 <1>   0.4000 
 36 H        2.4070    -6.5530     1.4610 H     1 <1>   0.1500 
 37 H        4.4650    -4.6130    -0.4700 H     1 <1>   0.0800 
 38 H        3.4360    -5.4830    -1.5920 H     1 <1>   0.0800 
 39 H        4.0250    -6.2640    -0.1520 H     1 <1>   0.0800 
 40 H       -0.0780    -8.0340     3.2810 H     1 <1>   0.0800 
 41 H        0.0950    -7.6420     1.5880 H     1 <1>   0.0800 
 42 H        4.4290    -2.5770    -3.4450 H     1 <1>   0.0800 
 43 H        3.8720    -1.1700    -2.5480 H     1 <1>   0.0800 
 44 H        2.7830    -1.9990    -3.6780 H     1 <1>   0.0800 
 45 H       -2.2270    -6.8610     3.3730 H     1 <1>   0.0800 
 46 H       -3.1700    -8.7760     2.7970 H     1 <1>   0.0800 
 47 H       -1.8110    -9.2130     1.7730 H     1 <1>   0.0800 
 48 H       -1.5550    -6.0200     0.5720 H     1 <1>   0.0800 
 49 H       -2.4250    -5.1270     1.7920 H     1 <1>   0.0800 
 50 H       -2.7790    -8.3160    -0.0530 H     1 <1>   0.4500 
 51 H       -3.7550    -6.2770    -0.2110 H     1 <1>   0.0800 
 52 H       -4.3930    -6.4020     1.4280 H     1 <1>   0.0800 
 53 H       -5.2880    -8.6370     1.4400 H     1 <1>   0.0800 
 54 H       -4.3840    -9.9610     0.7390 H     1 <1>   0.0800 
 55 H       -3.8590    -9.9110    -1.7770 H     1 <1>   0.1500 
 56 H       -6.7090    -7.2800     0.0520 H     1 <1>   0.1500 
 57 H       -4.8290    -9.4150    -3.9630 H     1 <1>   0.1500 
 58 H       -7.6580    -6.8050    -2.1490 H     1 <1>   0.1500 
 59 H       -6.7210    -7.8640    -4.1570 H     1 <1>   0.1500 
@<TRIPOS>BOND
  1   1   2  1   
  2   1   3  1   
  3   2   4  ar  
  4   2   5  ar  
  5   3  30  1   
  6   3  31  1   
  7   3  32  1   
  8   4   6  ar  
  9   4   7  ar  
 10   5   8  ar  
 11   5  33  1   
 12   6   9  ar  
 13   7  10  ar  
 14   7  11  ar  
 15   8  10  ar  
 16   8  34  1   
 17   9  12  1   
 18   9  13  ar  
 19  10  14  1   
 20  11  13  ar  
 21  11  15  1   
 22  12  16  1   
 23  12  35  1   
 24  13  36  1   
 25  14  17  1   
 26  15  37  1   
 27  15  38  1   
 28  15  39  1   
 29  16  18  1   
 30  16  40  1   
 31  16  41  1   
 32  17  42  1   
 33  17  43  1   
 34  17  44  1   
 35  18  19  1   
 36  18  20  1   
 37  18  45  1   
 38  19  21  1   
 39  19  46  1   
 40  19  47  1   
 41  20  22  1   
 42  20  48  1   
 43  20  49  1   
 44  21  22  1   
 45  21  23  1   
 46  21  50  1   
 47  22  51  1   
 48  22  52  1   
 49  23  24  1   
 50  23  53  1   
 51  23  54  1   
 52  24  25  ar  
 53  24  26  ar  
 54  25  27  ar  
 55  25  55  1   
 56  26  28  ar  
 57  26  56  1   
 58  27  29  ar  
 59  27  57  1   
 60  28  29  ar  
 61  28  58  1   
 62  29  59  1   
@<TRIPOS>SUBSTRUCTURE
  1 ****  20 GROUP 4 **** **** 0

# MOE 2024.06 (io_trps.svl 2023.06)
