@<TRIPOS>MOLECULE
NONAME
51 54 1 0 0 
SMALL
USER_CHARGES


@<TRIPOS>ATOM
  1 O        0.3390     0.3020    -0.2680 O.2   1 <1>  -0.5700 
  2 C        1.2270    -0.2660     0.3400 C.2   1 <1>   0.7160 
  3 N        2.1350     0.5210     1.0370 N.am  1 <1>  -0.6600 
  4 C        1.3230    -1.7190     0.2620 C.2   1 <1>   0.2030 
  5 C        3.1100    -0.0070     2.0390 C.3   1 <1>   0.1400 
  6 C        2.2290     1.9850     0.8030 C.3   1 <1>   0.1400 
  7 N        2.3880    -2.4470     0.4370 N.2   1 <1>  -0.4100 
  8 C        0.2740    -2.5630    -0.0500 C.2   1 <1>  -0.1500 
  9 C        4.5040    -0.2480     1.4210 C.3   1 <1>   0.3430 
 10 C        3.1950     2.2670    -0.3540 C.3   1 <1>  -0.1600 
 11 O        2.0970    -3.7130     0.2700 O.3   1 <1>  -0.0190 
 12 C        0.8090    -3.7970    -0.0310 C.2   1 <1>   0.0870 
 13 N        5.0620     0.9420     0.6840 N.4   1 <1>  -0.9590 
 14 C        4.3030     1.2290    -0.5740 C.3   1 <1>   0.3430 
 15 C        0.2020    -5.0870    -0.2790 C.ar  1 <1>   0.0530 
 16 C        6.5010     0.7090     0.3620 C.3   1 <1>   0.5230 
 17 C        0.8880    -6.2780    -0.0360 C.ar  1 <1>  -0.1500 
 18 C       -1.0990    -5.1890    -0.7740 C.ar  1 <1>  -0.1500 
 19 C        7.1730     1.9900    -0.0950 C.2   1 <1>  -0.0400 
 20 C        0.3050    -7.5090    -0.2730 C.ar  1 <1>  -0.1500 
 21 C       -1.6880    -6.4180    -1.0120 C.ar  1 <1>  -0.1500 
 22 O        8.3070     1.8630    -0.7520 O.3   1 <1>  -0.2800 
 23 C        6.8490     3.2990     0.0300 C.2   1 <1>  -0.1500 
 24 C       -0.9860    -7.5820    -0.7620 C.ar  1 <1>  -0.1500 
 25 C        8.7340     3.0690    -1.0630 C.2   1 <1>  -0.0400 
 26 C        7.8770     4.0050    -0.6080 C.2   1 <1>  -0.1500 
 27 C       10.0330     3.2070    -1.8270 C.3   1 <1>  -0.0600 
 28 H        2.7430    -0.9280     2.4590 H     1 <1>   0.0800 
 29 H        3.1960     0.6850     2.8580 H     1 <1>   0.0800 
 30 H        2.5730     2.4730     1.6990 H     1 <1>   0.0800 
 31 H        1.2570     2.3930     0.5750 H     1 <1>   0.0800 
 32 H       -0.7340    -2.2520    -0.2570 H     1 <1>   0.1500 
 33 H        4.4390    -1.0890     0.7500 H     1 <1>   0.0800 
 34 H        5.1750    -0.5260     2.2170 H     1 <1>   0.0800 
 35 H        3.6240     3.2450    -0.2310 H     1 <1>   0.0800 
 36 H        2.6130     2.3080    -1.2590 H     1 <1>   0.0800 
 37 H        5.0230     1.7730     1.2820 H     1 <1>   0.4500 
 38 H        4.9710     1.6050    -1.3330 H     1 <1>   0.0800 
 39 H        3.8660     0.3160    -0.9480 H     1 <1>   0.0800 
 40 H        6.5840    -0.0280    -0.4200 H     1 <1>   0.0800 
 41 H        7.0250     0.3390     1.2280 H     1 <1>   0.0800 
 42 H        1.8930    -6.2460     0.3460 H     1 <1>   0.1500 
 43 H       -1.6630    -4.2980    -0.9800 H     1 <1>   0.1500 
 44 H        0.8560    -8.4130    -0.0760 H     1 <1>   0.1500 
 45 H       -2.6930    -6.4690    -1.3940 H     1 <1>   0.1500 
 46 H        6.0080     3.7710     0.5050 H     1 <1>   0.1500 
 47 H       -1.4420    -8.5400    -0.9460 H     1 <1>   0.1500 
 48 H        7.9440     5.0750    -0.6990 H     1 <1>   0.1500 
 49 H        9.9580     2.6980    -2.7710 H     1 <1>   0.0800 
 50 H       10.8380     2.7740    -1.2610 H     1 <1>   0.0800 
 51 H       10.2520     4.2440    -2.0070 H     1 <1>   0.0800 
@<TRIPOS>BOND
  1   1   2  2   
  2   2   3  am  
  3   2   4  1   
  4   3   5  1   
  5   3   6  1   
  6   4   7  2   
  7   4   8  1   
  8   5   9  1   
  9   5  28  1   
 10   5  29  1   
 11   6  10  1   
 12   6  30  1   
 13   6  31  1   
 14   7  11  1   
 15   8  12  2   
 16   8  32  1   
 17   9  13  1   
 18   9  33  1   
 19   9  34  1   
 20  10  14  1   
 21  10  35  1   
 22  10  36  1   
 23  11  12  1   
 24  12  15  1   
 25  13  14  1   
 26  13  16  1   
 27  13  37  1   
 28  14  38  1   
 29  14  39  1   
 30  15  17  ar  
 31  15  18  ar  
 32  16  19  1   
 33  16  40  1   
 34  16  41  1   
 35  17  20  ar  
 36  17  42  1   
 37  18  21  ar  
 38  18  43  1   
 39  19  22  1   
 40  19  23  2   
 41  20  24  ar  
 42  20  44  1   
 43  21  24  ar  
 44  21  45  1   
 45  22  25  1   
 46  23  26  1   
 47  23  46  1   
 48  24  47  1   
 49  25  26  2   
 50  25  27  1   
 51  26  48  1   
 52  27  49  1   
 53  27  50  1   
 54  27  51  1   
@<TRIPOS>SUBSTRUCTURE
  1 ****   7 GROUP 4 **** **** 0

# MOE 2024.06 (io_trps.svl 2023.06)
