@<TRIPOS>MOLECULE
NONAME
34 35 1 0 0 
SMALL
USER_CHARGES


@<TRIPOS>ATOM
  1 S        0.0440     0.2200     0.6780 S.o2  1 <1>   1.0900 
  2 O       -0.7240     1.4320     0.5120 O.2   1 <1>  -0.6500 
  3 O        1.2650     0.1930     1.4510 O.2   1 <1>  -0.6500 
  4 C       -1.0170    -1.0930     1.2400 C.3   1 <1>  -0.0550 
  5 C        0.3700    -0.4690    -0.9340 C.3   1 <1>  -0.0550 
  6 C       -1.2770    -2.0280     0.0450 C.3   1 <1>   0.2700 
  7 C       -0.0520    -1.9400    -0.8910 C.3   1 <1>  -0.1600 
  8 N       -1.5200    -3.4200     0.5130 N.3   1 <1>  -0.8100 
  9 C       -2.5260    -1.4840    -0.6790 C.3   1 <1>  -0.2400 
 10 C       -2.1790    -4.3320    -0.4760 C.3   1 <1>   0.2900 
 11 C       -0.3840    -4.1020     1.1830 C.3   1 <1>   0.0300 
 12 C       -2.4580    -5.7440     0.0320 C.2   1 <1>   0.1980 
 13 S       -1.3300    -6.9950    -0.3690 S.3   1 <1>  -0.0800 
 14 N       -3.4450    -6.1710     0.7120 N.2   1 <1>  -0.3380 
 15 C       -2.3590    -8.0820     0.4940 C.2   1 <1>   0.1980 
 16 N       -3.3850    -7.5130     0.9810 N.2   1 <1>  -0.3380 
 17 C       -1.9510    -9.5350     0.5800 C.3   1 <1>  -0.0600 
 18 H       -1.9390    -0.6960     1.6200 H     1 <1>   0.0800 
 19 H       -0.5300    -1.6010     2.0430 H     1 <1>   0.0800 
 20 H        1.4050    -0.3660    -1.2000 H     1 <1>   0.0800 
 21 H       -0.2230     0.0480    -1.6660 H     1 <1>   0.0800 
 22 H        0.7760    -2.4940    -0.4890 H     1 <1>   0.0800 
 23 H       -0.2680    -2.3070    -1.8790 H     1 <1>   0.0800 
 24 H       -2.4520    -0.4250    -0.8480 H     1 <1>   0.0800 
 25 H       -3.4030    -1.6530    -0.0790 H     1 <1>   0.0800 
 26 H       -2.6590    -1.9450    -1.6400 H     1 <1>   0.0800 
 27 H       -1.5760    -4.3950    -1.3640 H     1 <1>   0.0800 
 28 H       -3.1360    -3.9300    -0.7510 H     1 <1>   0.0800 
 29 H        0.1730    -3.4420     1.8200 H     1 <1>   0.0800 
 30 H        0.2900    -4.5180     0.4540 H     1 <1>   0.0800 
 31 H       -0.7560    -4.9000     1.8030 H     1 <1>   0.0800 
 32 H       -1.8830    -9.9530    -0.4070 H     1 <1>   0.0800 
 33 H       -2.6840   -10.0840     1.1430 H     1 <1>   0.0800 
 34 H       -0.9990    -9.6180     1.0690 H     1 <1>   0.0800 
@<TRIPOS>BOND
  1   1   2  2   
  2   1   3  2   
  3   1   4  1   
  4   1   5  1   
  5   4   6  1   
  6   4  18  1   
  7   4  19  1   
  8   5   7  1   
  9   5  20  1   
 10   5  21  1   
 11   6   7  1   
 12   6   8  1   
 13   6   9  1   
 14   7  22  1   
 15   7  23  1   
 16   8  10  1   
 17   8  11  1   
 18   9  24  1   
 19   9  25  1   
 20   9  26  1   
 21  10  12  1   
 22  10  27  1   
 23  10  28  1   
 24  11  29  1   
 25  11  30  1   
 26  11  31  1   
 27  12  13  1   
 28  12  14  2   
 29  13  15  1   
 30  14  16  1   
 31  15  16  2   
 32  15  17  1   
 33  17  32  1   
 34  17  33  1   
 35  17  34  1   
@<TRIPOS>SUBSTRUCTURE
  1 ****   8 GROUP 4 **** **** 0

# MOE 2024.06 (io_trps.svl 2023.06)
