@<TRIPOS>MOLECULE
NONAME
47 49 1 0 0 
SMALL
USER_CHARGES


@<TRIPOS>ATOM
  1 CL       0.7880    -0.0220    -0.2610 Cl    1 <1>  -0.1770 
  2 C        0.3740    -1.6800     0.0780 C.ar  1 <1>   0.1770 
  3 C        0.8000    -2.6770    -0.7780 C.ar  1 <1>  -0.1500 
  4 C       -0.3780    -1.9770     1.1970 C.ar  1 <1>  -0.1500 
  5 C        0.4710    -3.9990    -0.5190 C.ar  1 <1>  -0.1440 
  6 C       -0.7020    -3.2960     1.4550 C.ar  1 <1>  -0.1500 
  7 C       -0.2910    -4.3310     0.6120 C.ar  1 <1>   0.0860 
  8 C        0.9520    -5.0750    -1.4850 C.3   1 <1>  -0.0960 
  9 C       -0.6750    -5.6950     0.9350 C.2   1 <1>   0.5440 
 10 O        0.1680    -6.5650     1.0650 O.2   1 <1>  -0.5700 
 11 N       -1.9970    -6.0460     1.0900 N.am  1 <1>  -0.6600 
 12 C       -2.3740    -7.3840     1.6280 C.3   1 <1>   0.1400 
 13 C       -3.0950    -5.3950     0.3200 C.3   1 <1>   0.1400 
 14 C       -2.6790    -8.3190     0.4350 C.3   1 <1>   0.4230 
 15 C       -3.4690    -6.3090    -0.8570 C.3   1 <1>  -0.1600 
 16 N       -2.9530    -9.7450     0.8170 N.4   1 <1>  -0.9590 
 17 C       -3.8520    -7.7460    -0.3920 C.3   1 <1>  -0.1060 
 18 C       -3.1130   -10.6160    -0.3750 C.3   1 <1>   0.3430 
 19 C       -2.0180   -10.3210     1.8190 C.3   1 <1>   0.2630 
 20 C       -5.1100    -7.7120     0.4990 C.2   1 <1>   0.9060 
 21 C       -4.0850    -8.6290    -1.6410 C.3   1 <1>  -0.1600 
 22 C       -4.2530   -10.1080    -1.2610 C.3   1 <1>  -0.1600 
 23 O       -5.2600    -8.5950     1.3600 O.co2 1 <1>  -0.9000 
 24 O       -5.9310    -6.8080     0.3560 O.co2 1 <1>  -0.9000 
 25 H        1.3860    -2.4060    -1.6380 H     1 <1>   0.1500 
 26 H       -0.7000    -1.1870     1.8510 H     1 <1>   0.1500 
 27 H       -1.2870    -3.5370     2.3270 H     1 <1>   0.1500 
 28 H        1.3890    -4.6400    -2.3660 H     1 <1>   0.0800 
 29 H        0.1310    -5.6980    -1.7890 H     1 <1>   0.0800 
 30 H        1.6940    -5.6900    -1.0060 H     1 <1>   0.0800 
 31 H       -1.5620    -7.7690     2.2160 H     1 <1>   0.0800 
 32 H       -3.2340    -7.2800     2.2680 H     1 <1>   0.0800 
 33 H       -3.9480    -5.2470     0.9640 H     1 <1>   0.0800 
 34 H       -2.7910    -4.4320    -0.0520 H     1 <1>   0.0800 
 35 H       -1.7990    -8.3100    -0.1860 H     1 <1>   0.0800 
 36 H       -4.3000    -5.8680    -1.3820 H     1 <1>   0.0800 
 37 H       -2.6390    -6.3430    -1.5400 H     1 <1>   0.0800 
 38 H       -3.9140    -9.6510     1.2450 H     1 <1>   0.4500 
 39 H       -2.1960   -10.6260    -0.9390 H     1 <1>   0.0800 
 40 H       -3.3340   -11.6240    -0.0620 H     1 <1>   0.0800 
 41 H       -1.0090   -10.3060     1.4410 H     1 <1>   0.0800 
 42 H       -2.2950   -11.3370     2.0440 H     1 <1>   0.0800 
 43 H       -2.0570    -9.7510     2.7330 H     1 <1>   0.0800 
 44 H       -4.9690    -8.2890    -2.1570 H     1 <1>   0.0800 
 45 H       -3.2520    -8.5330    -2.3160 H     1 <1>   0.0800 
 46 H       -4.2980   -10.7030    -2.1560 H     1 <1>   0.0800 
 47 H       -5.1870   -10.2460    -0.7420 H     1 <1>   0.0800 
@<TRIPOS>BOND
  1   1   2  1   
  2   2   3  ar  
  3   2   4  ar  
  4   3   5  ar  
  5   3  25  1   
  6   4   6  ar  
  7   4  26  1   
  8   5   7  ar  
  9   5   8  1   
 10   6   7  ar  
 11   6  27  1   
 12   7   9  1   
 13   8  28  1   
 14   8  29  1   
 15   8  30  1   
 16   9  10  2   
 17   9  11  am  
 18  11  12  1   
 19  11  13  1   
 20  12  14  1   
 21  12  31  1   
 22  12  32  1   
 23  13  15  1   
 24  13  33  1   
 25  13  34  1   
 26  14  16  1   
 27  14  17  1   
 28  14  35  1   
 29  15  17  1   
 30  15  36  1   
 31  15  37  1   
 32  16  18  1   
 33  16  19  1   
 34  16  38  1   
 35  17  20  1   
 36  17  21  1   
 37  18  22  1   
 38  18  39  1   
 39  18  40  1   
 40  19  41  1   
 41  19  42  1   
 42  19  43  1   
 43  20  23  ar  
 44  20  24  ar  
 45  21  22  1   
 46  21  44  1   
 47  21  45  1   
 48  22  46  1   
 49  22  47  1   
@<TRIPOS>SUBSTRUCTURE
  1 ****  11 GROUP 4 **** **** 0

# MOE 2024.06 (io_trps.svl 2023.06)
