@<TRIPOS>MOLECULE
NONAME
63 67 1 0 0 
SMALL
USER_CHARGES


@<TRIPOS>ATOM
  1 O       -0.6360     1.0350     1.1180 O.2   1 <1>  -0.5700 
  2 C       -1.5950     1.4950     0.5290 C.2   1 <1>   0.5440 
  3 N       -2.5560     0.6330     0.0410 N.am  1 <1>  -0.6600 
  4 C       -1.6700     2.9350     0.3650 C.ar  1 <1>   0.0860 
  5 C       -3.9620     1.0700    -0.2210 C.3   1 <1>   0.2200 
  6 C       -2.2470    -0.8310    -0.0190 C.3   1 <1>   0.0600 
  7 C       -1.8300     3.5270    -0.8860 C.ar  1 <1>  -0.1500 
  8 C       -1.5380     3.7820     1.4630 C.ar  1 <1>  -0.1500 
  9 C       -5.0090     0.2820     0.5680 C.3   1 <1>  -0.1600 
 10 C       -4.3700     0.9100    -1.6850 C.3   1 <1>  -0.1600 
 11 C       -1.8380     4.9010    -1.0390 C.ar  1 <1>  -0.1500 
 12 C       -1.5460     5.1570     1.3220 C.ar  1 <1>  -0.1500 
 13 C       -6.3070     0.4240    -0.2360 C.3   1 <1>  -0.0800 
 14 C       -5.9020     0.8280    -1.6640 C.3   1 <1>  -0.0800 
 15 C       -1.6800     5.7280     0.0650 C.ar  1 <1>  -0.1430 
 16 C       -7.2400     1.5290     0.2800 C.3   1 <1>  -0.1600 
 17 C       -6.5990     2.1670    -1.9450 C.3   1 <1>  -0.1600 
 18 C       -1.6240     7.2360    -0.1040 C.3   1 <1>   0.4860 
 19 C       -7.7740     2.1870    -0.9820 C.3   1 <1>   0.2000 
 20 N       -0.2280     7.6850     0.1410 N.4   1 <1>  -0.9590 
 21 O       -8.1590     3.4820    -0.7200 O.3   1 <1>  -0.6800 
 22 C       -0.1030     9.1670     0.1610 C.3   1 <1>   0.4860 
 23 C        0.7550     7.0950    -0.8190 C.3   1 <1>   0.3430 
 24 C        1.3260     9.5650     0.4900 C.ar  1 <1>  -0.1430 
 25 C        2.1790     7.3040    -0.2990 C.3   1 <1>  -0.0170 
 26 C        2.3950     8.7020     0.2650 C.ar  1 <1>  -0.1430 
 27 C        1.5640    10.8250     1.0190 C.ar  1 <1>  -0.1500 
 28 C        3.6830     9.1100     0.5700 C.ar  1 <1>  -0.1500 
 29 C        2.8530    11.2250     1.3220 C.ar  1 <1>  -0.1500 
 30 C        3.9130    10.3670     1.0970 C.ar  1 <1>  -0.1500 
 31 H       -4.0790     2.1070     0.0430 H     1 <1>   0.0800 
 32 H       -2.8460    -1.3250    -0.7620 H     1 <1>   0.0800 
 33 H       -2.4340    -1.2770     0.9420 H     1 <1>   0.0800 
 34 H       -1.2100    -0.9770    -0.2660 H     1 <1>   0.0800 
 35 H       -1.9340     2.8880    -1.7470 H     1 <1>   0.1500 
 36 H       -1.4160     3.3390     2.4380 H     1 <1>   0.1500 
 37 H       -4.7600    -0.7620     0.6040 H     1 <1>   0.0800 
 38 H       -5.1030     0.6500     1.5740 H     1 <1>   0.0800 
 39 H       -4.0150     1.7220    -2.2910 H     1 <1>   0.0800 
 40 H       -3.9860    -0.0120    -2.0810 H     1 <1>   0.0800 
 41 H       -1.9610     5.3130    -2.0270 H     1 <1>   0.1500 
 42 H       -1.4410     5.7660     2.2040 H     1 <1>   0.1500 
 43 H       -6.8390    -0.5130    -0.2570 H     1 <1>   0.0800 
 44 H       -6.2490     0.0880    -2.3670 H     1 <1>   0.0800 
 45 H       -6.6830     2.2460     0.8570 H     1 <1>   0.0800 
 46 H       -8.0380     1.1230     0.8770 H     1 <1>   0.0800 
 47 H       -6.9300     2.2310    -2.9670 H     1 <1>   0.0800 
 48 H       -5.9360     2.9850    -1.7260 H     1 <1>   0.0800 
 49 H       -2.2940     7.6970     0.6040 H     1 <1>   0.0800 
 50 H       -1.9360     7.5070    -1.0990 H     1 <1>   0.0800 
 51 H       -8.6150     1.6430    -1.3820 H     1 <1>   0.0800 
 52 H        0.0510     7.3560     1.0730 H     1 <1>   0.4500 
 53 H       -7.4290     3.9670    -0.2950 H     1 <1>   0.4000 
 54 H       -0.3680     9.5740    -0.8010 H     1 <1>   0.0800 
 55 H       -0.7650     9.5830     0.9030 H     1 <1>   0.0800 
 56 H        0.5810     6.0380    -0.9410 H     1 <1>   0.0800 
 57 H        0.6530     7.5710    -1.7810 H     1 <1>   0.0800 
 58 H        2.3830     6.5810     0.4710 H     1 <1>   0.0800 
 59 H        2.8730     7.1240    -1.1010 H     1 <1>   0.0800 
 60 H        0.7560    11.5130     1.2010 H     1 <1>   0.1500 
 61 H        4.5200     8.4530     0.4030 H     1 <1>   0.1500 
 62 H        3.0350    12.2040     1.7320 H     1 <1>   0.1500 
 63 H        4.9160    10.6790     1.3320 H     1 <1>   0.1500 
@<TRIPOS>BOND
  1   1   2  2   
  2   2   3  am  
  3   2   4  1   
  4   3   5  1   
  5   3   6  1   
  6   4   7  ar  
  7   4   8  ar  
  8   5   9  1   
  9   5  10  1   
 10   5  31  1   
 11   6  32  1   
 12   6  33  1   
 13   6  34  1   
 14   7  11  ar  
 15   7  35  1   
 16   8  12  ar  
 17   8  36  1   
 18   9  13  1   
 19   9  37  1   
 20   9  38  1   
 21  10  14  1   
 22  10  39  1   
 23  10  40  1   
 24  11  15  ar  
 25  11  41  1   
 26  12  15  ar  
 27  12  42  1   
 28  13  14  1   
 29  13  16  1   
 30  13  43  1   
 31  14  17  1   
 32  14  44  1   
 33  15  18  1   
 34  16  19  1   
 35  16  45  1   
 36  16  46  1   
 37  17  19  1   
 38  17  47  1   
 39  17  48  1   
 40  18  20  1   
 41  18  49  1   
 42  18  50  1   
 43  19  21  1   
 44  19  51  1   
 45  20  22  1   
 46  20  23  1   
 47  20  52  1   
 48  21  53  1   
 49  22  24  1   
 50  22  54  1   
 51  22  55  1   
 52  23  25  1   
 53  23  56  1   
 54  23  57  1   
 55  24  26  ar  
 56  24  27  ar  
 57  25  26  1   
 58  25  58  1   
 59  25  59  1   
 60  26  28  ar  
 61  27  29  ar  
 62  27  60  1   
 63  28  30  ar  
 64  28  61  1   
 65  29  30  ar  
 66  29  62  1   
 67  30  63  1   
@<TRIPOS>SUBSTRUCTURE
  1 ****  11 GROUP 4 **** **** 0

# MOE 2024.06 (io_trps.svl 2023.06)
