@<TRIPOS>MOLECULE
NONAME
61 64 1 0 0 
SMALL
USER_CHARGES


@<TRIPOS>ATOM
  1 O       -1.0760    -0.2030    -1.7730 O.2   1 <1>  -0.5700 
  2 C       -1.8290     0.2750    -0.9540 C.2   1 <1>   0.5690 
  3 N       -3.0350    -0.3390    -0.7110 N.am  1 <1>  -0.6600 
  4 C       -1.3390     1.5300    -0.1770 C.3   1 <1>   0.2040 
  5 C       -4.1660     0.1210     0.1370 C.3   1 <1>   0.1400 
  6 C       -3.3540    -1.6750    -1.2660 C.3   1 <1>   0.1400 
  7 C       -2.4610     2.5960    -0.0640 C.ar  1 <1>  -0.1440 
  8 C       -0.1340     2.1850    -0.9080 C.3   1 <1>  -0.1600 
  9 C       -0.7910     1.0500     1.1910 C.3   1 <1>  -0.1600 
 10 C       -5.1990    -1.0100     0.1040 C.3   1 <1>   0.2000 
 11 C       -4.4170    -2.2580    -0.3290 C.3   1 <1>  -0.0800 
 12 C       -3.0300     3.0080     1.1410 C.ar  1 <1>  -0.1500 
 13 C       -2.9580     3.1590    -1.2360 C.ar  1 <1>  -0.1500 
 14 C        0.4570     3.3310    -0.1020 C.3   1 <1>   0.3430 
 15 C       -0.0710     2.1430     1.9890 C.3   1 <1>   0.3430 
 16 O       -5.7810    -1.1860     1.3620 O.3   1 <1>  -0.5600 
 17 C       -3.7680    -3.0120     0.8540 C.3   1 <1>   0.0200 
 18 C       -4.0230     3.9710     1.1710 C.ar  1 <1>  -0.1500 
 19 C       -3.9510     4.1220    -1.2090 C.ar  1 <1>  -0.1500 
 20 N        0.9990     2.7780     1.1710 N.4   1 <1>  -0.9590 
 21 C       -6.8090    -0.2950     1.6640 C.3   1 <1>   0.0400 
 22 C       -2.9630    -4.2310     0.4350 C.2   1 <1>  -0.0400 
 23 C       -4.4820     4.5340    -0.0030 C.ar  1 <1>  -0.1500 
 24 C        1.7070     3.8410     1.9470 C.3   1 <1>   0.2630 
 25 O       -2.1660    -4.7870     1.3080 O.3   1 <1>  -0.0190 
 26 C       -2.8670    -4.9310    -0.7070 C.2   1 <1>  -0.1500 
 27 N       -1.5390    -5.8140     0.8120 N.2   1 <1>  -0.4100 
 28 C       -1.9420    -5.9240    -0.4020 C.2   1 <1>   0.1080 
 29 C       -1.4670    -6.9920    -1.3620 C.3   1 <1>  -0.0590 
 30 H       -3.8260     0.2760     1.1450 H     1 <1>   0.0800 
 31 H       -4.5950     1.0220    -0.2630 H     1 <1>   0.0800 
 32 H       -3.7550    -1.5520    -2.2570 H     1 <1>   0.0800 
 33 H       -2.4700    -2.2880    -1.3220 H     1 <1>   0.0800 
 34 H       -0.4300     2.5510    -1.8740 H     1 <1>   0.0800 
 35 H        0.6400     1.4590    -1.0870 H     1 <1>   0.0800 
 36 H       -0.1000     0.2410     1.0260 H     1 <1>   0.0800 
 37 H       -1.5910     0.6430     1.7830 H     1 <1>   0.0800 
 38 H       -5.9670    -0.7920    -0.6190 H     1 <1>   0.0800 
 39 H       -5.0600    -2.9290    -0.8700 H     1 <1>   0.0800 
 40 H       -2.7420     2.5900     2.0860 H     1 <1>   0.1500 
 41 H       -2.5890     2.8490    -2.1990 H     1 <1>   0.1500 
 42 H       -0.3040     4.0680     0.1020 H     1 <1>   0.0800 
 43 H        1.2460     3.7990    -0.6680 H     1 <1>   0.0800 
 44 H        0.3580     1.7090     2.8790 H     1 <1>   0.0800 
 45 H       -0.7750     2.8990     2.2940 H     1 <1>   0.0800 
 46 H       -4.5290    -3.3460     1.5370 H     1 <1>   0.0800 
 47 H       -3.1210    -2.3430     1.3930 H     1 <1>   0.0800 
 48 H       -4.4480     4.2840     2.1100 H     1 <1>   0.1500 
 49 H       -4.3150     4.5480    -2.1290 H     1 <1>   0.1500 
 50 H        1.6790     2.0440     0.9210 H     1 <1>   0.4500 
 51 H       -7.1660    -0.5210     2.6540 H     1 <1>   0.0800 
 52 H       -7.6090    -0.4220     0.9560 H     1 <1>   0.0800 
 53 H       -6.4350     0.7140     1.6370 H     1 <1>   0.0800 
 54 H       -5.2530     5.2860     0.0190 H     1 <1>   0.1500 
 55 H        1.0200     4.6270     2.2180 H     1 <1>   0.0800 
 56 H        2.5030     4.2670     1.3580 H     1 <1>   0.0800 
 57 H        2.1310     3.4270     2.8480 H     1 <1>   0.0800 
 58 H       -3.3620    -4.7950    -1.6500 H     1 <1>   0.1500 
 59 H       -2.3030    -7.5750    -1.7010 H     1 <1>   0.0800 
 60 H       -0.7660    -7.6410    -0.8690 H     1 <1>   0.0800 
 61 H       -0.9850    -6.5350    -2.2050 H     1 <1>   0.0800 
@<TRIPOS>BOND
  1   1   2  2   
  2   2   3  am  
  3   2   4  1   
  4   3   5  1   
  5   3   6  1   
  6   4   7  1   
  7   4   8  1   
  8   4   9  1   
  9   5  10  1   
 10   5  30  1   
 11   5  31  1   
 12   6  11  1   
 13   6  32  1   
 14   6  33  1   
 15   7  12  ar  
 16   7  13  ar  
 17   8  14  1   
 18   8  34  1   
 19   8  35  1   
 20   9  15  1   
 21   9  36  1   
 22   9  37  1   
 23  10  11  1   
 24  10  16  1   
 25  10  38  1   
 26  11  17  1   
 27  11  39  1   
 28  12  18  ar  
 29  12  40  1   
 30  13  19  ar  
 31  13  41  1   
 32  14  20  1   
 33  14  42  1   
 34  14  43  1   
 35  15  20  1   
 36  15  44  1   
 37  15  45  1   
 38  16  21  1   
 39  17  22  1   
 40  17  46  1   
 41  17  47  1   
 42  18  23  ar  
 43  18  48  1   
 44  19  23  ar  
 45  19  49  1   
 46  20  24  1   
 47  20  50  1   
 48  21  51  1   
 49  21  52  1   
 50  21  53  1   
 51  22  25  1   
 52  22  26  2   
 53  23  54  1   
 54  24  55  1   
 55  24  56  1   
 56  24  57  1   
 57  25  27  1   
 58  26  28  1   
 59  26  58  1   
 60  27  28  2   
 61  28  29  1   
 62  29  59  1   
 63  29  60  1   
 64  29  61  1   
@<TRIPOS>SUBSTRUCTURE
  1 ****   3 GROUP 4 **** **** 0

# MOE 2024.06 (io_trps.svl 2023.06)
