@<TRIPOS>MOLECULE
NONAME
29 29 1 0 0 
SMALL
USER_CHARGES


@<TRIPOS>ATOM
  1 O       -0.9940     0.4090     0.6950 O.2   1 <1>  -0.5700 
  2 C       -2.0060    -0.2320     0.5750 C.2   1 <1>   0.5700 
  3 N       -2.8030    -0.0910    -0.5080 N.am  1 <1>  -0.7300 
  4 C       -4.0690    -0.7920    -0.7890 C.3   1 <1>   0.2200 
  5 C       -5.1120    -0.4440     0.2850 C.3   1 <1>  -0.0160 
  6 C       -3.7890    -2.2920    -0.8930 C.3   1 <1>  -0.2400 
  7 C       -6.4790    -1.0190    -0.0540 C.ar  1 <1>  -0.1440 
  8 C       -6.9340    -2.1720     0.5680 C.ar  1 <1>  -0.1500 
  9 C       -7.2830    -0.3920    -0.9940 C.ar  1 <1>  -0.1500 
 10 C       -8.1750    -2.6980     0.2520 C.ar  1 <1>  -0.1500 
 11 C       -8.5230    -0.9160    -1.3120 C.ar  1 <1>  -0.1500 
 12 C       -8.9780    -2.0690    -0.6950 C.ar  1 <1>   0.0820 
 13 O      -10.2030    -2.5180    -1.0660 O.3   1 <1>  -0.3630 
 14 C      -10.7620    -3.6780    -0.4920 C.3   1 <1>   0.0400 
 15 H       -2.2830    -0.9290     1.3480 H     1 <1>   0.0600 
 16 H       -2.4790     0.5700    -1.2170 H     1 <1>   0.3700 
 17 H       -4.4350    -0.4480    -1.7420 H     1 <1>   0.0800 
 18 H       -5.1980     0.6260     0.3590 H     1 <1>   0.0800 
 19 H       -4.7920    -0.8160     1.2410 H     1 <1>   0.0800 
 20 H       -3.4830    -2.6950     0.0560 H     1 <1>   0.0800 
 21 H       -3.0220    -2.4770    -1.6230 H     1 <1>   0.0800 
 22 H       -4.6780    -2.8090    -1.2090 H     1 <1>   0.0800 
 23 H       -6.3240    -2.6680     1.3010 H     1 <1>   0.1500 
 24 H       -6.9490     0.5070    -1.4840 H     1 <1>   0.1500 
 25 H       -8.4970    -3.5920     0.7500 H     1 <1>   0.1500 
 26 H       -9.1480    -0.4330    -2.0410 H     1 <1>   0.1500 
 27 H      -11.7300    -3.8350    -0.9330 H     1 <1>   0.0800 
 28 H      -10.8620    -3.5290     0.5680 H     1 <1>   0.0800 
 29 H      -10.1220    -4.5160    -0.7070 H     1 <1>   0.0800 
@<TRIPOS>BOND
  1   1   2  2   
  2   2   3  am  
  3   2  15  1   
  4   3   4  1   
  5   3  16  1   
  6   4   5  1   
  7   4   6  1   
  8   4  17  1   
  9   5   7  1   
 10   5  18  1   
 11   5  19  1   
 12   6  20  1   
 13   6  21  1   
 14   6  22  1   
 15   7   8  ar  
 16   7   9  ar  
 17   8  10  ar  
 18   8  23  1   
 19   9  11  ar  
 20   9  24  1   
 21  10  12  ar  
 22  10  25  1   
 23  11  12  ar  
 24  11  26  1   
 25  12  13  1   
 26  13  14  1   
 27  14  27  1   
 28  14  28  1   
 29  14  29  1   
@<TRIPOS>SUBSTRUCTURE
  1 ****   7 GROUP 4 **** **** 0

# MOE 2024.06 (io_trps.svl 2023.06)
