@<TRIPOS>MOLECULE
NONAME
56 59 1 0 0 
SMALL
USER_CHARGES


@<TRIPOS>ATOM
  1 O       -0.0930     1.1970    -0.0250 O.co2 1 <1>  -0.9000 
  2 C       -0.2890     1.8900     0.9900 C.2   1 <1>   0.9060 
  3 O        0.4840     1.9250     1.9480 O.co2 1 <1>  -0.9000 
  4 C       -1.6870     2.5450     1.0870 C.3   1 <1>   0.4600 
  5 N       -2.7000     1.6820     0.3460 N.4   1 <1>  -0.9590 
  6 C       -1.7160     3.9600     0.5090 C.ar  1 <1>  -0.1430 
  7 C       -3.9560     2.3580    -0.0600 C.3   1 <1>   0.3430 
  8 C       -2.8760     0.3900     1.0520 C.3   1 <1>   0.3430 
  9 C       -2.2610     4.9950     1.2250 C.ar  1 <1>  -0.1500 
 10 C       -1.2010     4.2120    -0.7740 C.ar  1 <1>  -0.1500 
 11 C       -4.7630     1.4160    -0.9580 C.3   1 <1>  -0.1600 
 12 C       -3.6910    -0.5630     0.1720 C.3   1 <1>  -0.1600 
 13 C       -2.3370     6.2990     0.6990 C.ar  1 <1>   0.0000 
 14 C       -1.2630     5.4680    -1.3080 C.ar  1 <1>  -0.1500 
 15 C       -5.0320     0.0400    -0.3070 C.3   1 <1>   0.0000 
 16 C       -1.8350     6.5400    -0.5960 C.ar  1 <1>   0.0000 
 17 C       -2.8980     7.3760     1.4170 C.ar  1 <1>  -0.1500 
 18 C       -5.7030    -0.9200    -1.3120 C.3   1 <1>   0.3430 
 19 C       -6.0440     0.1510     0.8530 C.3   1 <1>  -0.1600 
 20 C       -1.9190     7.8420    -1.1250 C.ar  1 <1>  -0.1500 
 21 C       -2.9680     8.6320     0.8810 C.ar  1 <1>  -0.1500 
 22 N       -7.0840    -1.1650    -0.8100 N.4   1 <1>  -0.9590 
 23 C       -7.0240    -0.9980     0.6590 C.3   1 <1>   0.3430 
 24 C       -2.4710     8.8730    -0.4140 C.ar  1 <1>   0.0830 
 25 C       -7.6340    -2.4930    -1.2250 C.3   1 <1>   0.2630 
 26 O       -2.5080    10.0910    -1.0070 O.3   1 <1>  -0.3620 
 27 C       -3.0260    11.2250    -0.3460 C.3   1 <1>   0.0400 
 28 H       -1.9410     2.5920     2.1290 H     1 <1>   0.0800 
 29 H       -2.1180     1.4510    -0.4860 H     1 <1>   0.4500 
 30 H       -3.7330     3.2640    -0.6010 H     1 <1>   0.0800 
 31 H       -4.5260     2.6200     0.8160 H     1 <1>   0.0800 
 32 H       -3.3770     0.5530     1.9920 H     1 <1>   0.0800 
 33 H       -1.9100    -0.0500     1.2540 H     1 <1>   0.0800 
 34 H       -2.6450     4.8350     2.2170 H     1 <1>   0.1500 
 35 H       -0.7450     3.4110    -1.3350 H     1 <1>   0.1500 
 36 H       -4.2110     1.2850    -1.8740 H     1 <1>   0.0800 
 37 H       -5.6900     1.8980    -1.2190 H     1 <1>   0.0800 
 38 H       -3.8620    -1.4730     0.7210 H     1 <1>   0.0800 
 39 H       -3.0790    -0.8200    -0.6770 H     1 <1>   0.0800 
 40 H       -0.8630     5.6620    -2.2880 H     1 <1>   0.1500 
 41 H       -3.2730     7.1910     2.4080 H     1 <1>   0.1500 
 42 H       -5.1560    -1.8490    -1.3390 H     1 <1>   0.0800 
 43 H       -5.7220    -0.5020    -2.3060 H     1 <1>   0.0800 
 44 H       -6.5990     1.0720     0.8010 H     1 <1>   0.0800 
 45 H       -5.5900     0.0950     1.8270 H     1 <1>   0.0800 
 46 H       -1.5370     8.0270    -2.1110 H     1 <1>   0.1500 
 47 H       -3.4010     9.4290     1.4550 H     1 <1>   0.1500 
 48 H       -7.6960    -0.4230    -1.1840 H     1 <1>   0.4500 
 49 H       -7.9930    -0.7780     1.0790 H     1 <1>   0.0800 
 50 H       -6.6300    -1.8930     1.1140 H     1 <1>   0.0800 
 51 H       -7.0180    -3.2920    -0.8440 H     1 <1>   0.0800 
 52 H       -7.6650    -2.5660    -2.3010 H     1 <1>   0.0800 
 53 H       -8.6350    -2.6190    -0.8460 H     1 <1>   0.0800 
 54 H       -2.9350    12.0670    -1.0080 H     1 <1>   0.0800 
 55 H       -2.4530    11.4000     0.5470 H     1 <1>   0.0800 
 56 H       -4.0620    11.0520    -0.1140 H     1 <1>   0.0800 
@<TRIPOS>BOND
  1   1   2  ar  
  2   2   3  ar  
  3   2   4  1   
  4   4   5  1   
  5   4   6  1   
  6   4  28  1   
  7   5   7  1   
  8   5   8  1   
  9   5  29  1   
 10   6   9  ar  
 11   6  10  ar  
 12   7  11  1   
 13   7  30  1   
 14   7  31  1   
 15   8  12  1   
 16   8  32  1   
 17   8  33  1   
 18   9  13  ar  
 19   9  34  1   
 20  10  14  ar  
 21  10  35  1   
 22  11  15  1   
 23  11  36  1   
 24  11  37  1   
 25  12  15  1   
 26  12  38  1   
 27  12  39  1   
 28  13  16  ar  
 29  13  17  ar  
 30  14  16  ar  
 31  14  40  1   
 32  15  18  1   
 33  15  19  1   
 34  16  20  ar  
 35  17  21  ar  
 36  17  41  1   
 37  18  22  1   
 38  18  42  1   
 39  18  43  1   
 40  19  23  1   
 41  19  44  1   
 42  19  45  1   
 43  20  24  ar  
 44  20  46  1   
 45  21  24  ar  
 46  21  47  1   
 47  22  23  1   
 48  22  25  1   
 49  22  48  1   
 50  23  49  1   
 51  23  50  1   
 52  24  26  1   
 53  25  51  1   
 54  25  52  1   
 55  25  53  1   
 56  26  27  1   
 57  27  54  1   
 58  27  55  1   
 59  27  56  1   
@<TRIPOS>SUBSTRUCTURE
  1 ****   7 GROUP 4 **** **** 0

# MOE 2024.06 (io_trps.svl 2023.06)
