@<TRIPOS>MOLECULE
NONAME
48 51 1 0 0 
SMALL
USER_CHARGES


@<TRIPOS>ATOM
  1 S       -0.4360    -0.3980    -0.2910 S.3   1 <1>  -0.4600 
  2 C       -2.2580    -0.4580    -0.2030 C.3   1 <1>   0.2510 
  3 C       -0.1060     1.1170    -1.2290 C.3   1 <1>  -0.0100 
  4 C       -2.7190    -1.7030     0.5400 C.2   1 <1>   0.3350 
  5 N       -3.1860    -1.7070     1.7250 N.2   1 <1>  -0.4100 
  6 N       -2.6840    -2.9070    -0.0190 N.2   1 <1>  -0.5650 
  7 O       -3.4760    -2.9390     2.0190 O.3   1 <1>  -0.0190 
  8 C       -3.1500    -3.6070     0.9400 C.2   1 <1>   0.2980 
  9 C       -3.3450    -5.1190     0.9270 C.3   1 <1>   0.2900 
 10 N       -4.7710    -5.5190     0.9140 N.3   1 <1>  -0.8100 
 11 C       -5.4890    -5.0170    -0.2650 C.3   1 <1>   0.1100 
 12 C       -4.9460    -6.9800     0.9050 C.3   1 <1>   0.1100 
 13 C       -6.7260    -5.9010    -0.3430 C.3   1 <1>   0.2000 
 14 C       -6.1950    -7.2780     0.0500 C.3   1 <1>  -0.0800 
 15 O       -7.5960    -5.4860     0.6460 O.3   1 <1>  -0.6800 
 16 C       -5.8570    -8.1160    -1.1970 C.3   1 <1>  -0.0170 
 17 C       -5.3110    -9.4860    -0.8310 C.ar  1 <1>   0.1670 
 18 N       -4.0270    -9.6650    -0.9160 N.ar  1 <1>  -0.6200 
 19 C       -6.2090   -10.4830    -0.4180 C.ar  1 <1>  -0.1500 
 20 C       -3.5360   -10.8870    -0.5850 C.ar  1 <1>   0.3100 
 21 C       -5.7430   -11.7160    -0.0770 C.ar  1 <1>  -0.1500 
 22 C       -4.3600   -11.9490    -0.1550 C.ar  1 <1>   0.0000 
 23 C       -2.1520   -11.1070    -0.6700 C.ar  1 <1>  -0.1500 
 24 C       -3.7680   -13.1850     0.1760 C.ar  1 <1>  -0.1500 
 25 C       -1.5960   -12.3160    -0.3450 C.ar  1 <1>  -0.1500 
 26 C       -2.4150   -13.3660     0.0830 C.ar  1 <1>  -0.1500 
 27 H       -2.5810     0.4290     0.3100 H     1 <1>   0.0800 
 28 H       -2.6300    -0.4630    -1.2110 H     1 <1>   0.0800 
 29 H        0.9610     1.2190    -1.3180 H     1 <1>   0.0800 
 30 H       -0.5230     1.9450    -0.6840 H     1 <1>   0.0800 
 31 H       -0.5620     1.0180    -2.1970 H     1 <1>   0.0800 
 32 H       -2.8720    -5.5280     1.8020 H     1 <1>   0.0800 
 33 H       -2.8490    -5.5200     0.0610 H     1 <1>   0.0800 
 34 H       -5.7450    -3.9760    -0.1630 H     1 <1>   0.0800 
 35 H       -4.8910    -5.1540    -1.1500 H     1 <1>   0.0800 
 36 H       -4.0760    -7.4610     0.4900 H     1 <1>   0.0800 
 37 H       -5.0830    -7.3330     1.9130 H     1 <1>   0.0800 
 38 H       -7.2340    -5.8670    -1.2920 H     1 <1>   0.0800 
 39 H       -6.9250    -7.8130     0.6320 H     1 <1>   0.0800 
 40 H       -7.0440    -5.3080     1.4390 H     1 <1>   0.4000 
 41 H       -5.1330    -7.5990    -1.8030 H     1 <1>   0.0800 
 42 H       -6.7430    -8.2460    -1.7940 H     1 <1>   0.0800 
 43 H       -7.2590   -10.2590    -0.3740 H     1 <1>   0.1500 
 44 H       -6.4000   -12.5040     0.2440 H     1 <1>   0.1500 
 45 H       -1.5400   -10.2890    -1.0030 H     1 <1>   0.1500 
 46 H       -4.4030   -13.9880     0.5040 H     1 <1>   0.1500 
 47 H       -0.5330   -12.4720    -0.4150 H     1 <1>   0.1500 
 48 H       -1.9650   -14.3110     0.3360 H     1 <1>   0.1500 
@<TRIPOS>BOND
  1   1   2  1   
  2   1   3  1   
  3   2   4  1   
  4   2  27  1   
  5   2  28  1   
  6   3  29  1   
  7   3  30  1   
  8   3  31  1   
  9   4   5  2   
 10   4   6  1   
 11   5   7  1   
 12   6   8  2   
 13   7   8  1   
 14   8   9  1   
 15   9  10  1   
 16   9  32  1   
 17   9  33  1   
 18  10  11  1   
 19  10  12  1   
 20  11  13  1   
 21  11  34  1   
 22  11  35  1   
 23  12  14  1   
 24  12  36  1   
 25  12  37  1   
 26  13  14  1   
 27  13  15  1   
 28  13  38  1   
 29  14  16  1   
 30  14  39  1   
 31  15  40  1   
 32  16  17  1   
 33  16  41  1   
 34  16  42  1   
 35  17  18  ar  
 36  17  19  ar  
 37  18  20  ar  
 38  19  21  ar  
 39  19  43  1   
 40  20  22  ar  
 41  20  23  ar  
 42  21  22  ar  
 43  21  44  1   
 44  22  24  ar  
 45  23  25  ar  
 46  23  45  1   
 47  24  26  ar  
 48  24  46  1   
 49  25  26  ar  
 50  25  47  1   
 51  26  48  1   
@<TRIPOS>SUBSTRUCTURE
  1 ****  12 GROUP 4 **** **** 0

# MOE 2024.06 (io_trps.svl 2023.06)
