@<TRIPOS>MOLECULE
NONAME
53 56 1 0 0 
SMALL
USER_CHARGES


@<TRIPOS>ATOM
  1 O       -0.8620     0.9480    -2.2310 O.co2 1 <1>  -0.9000 
  2 C       -1.4710     1.3280    -1.2270 C.2   1 <1>   0.9060 
  3 O       -2.6230     0.9610    -0.9800 O.co2 1 <1>  -0.9000 
  4 C       -0.7750     2.3600    -0.3450 C.3   1 <1>  -0.1060 
  5 C       -1.7370     3.1250     0.6050 C.3   1 <1>   0.2000 
  6 C       -0.1890     3.3130    -1.3930 C.3   1 <1>   0.3430 
  7 C        0.3510     1.6600     0.4550 C.3   1 <1>  -0.0650 
  8 O       -2.6310     2.2790     1.2100 O.3   1 <1>  -0.6800 
  9 C       -2.5150     4.2080    -0.1370 C.3   1 <1>  -0.1600 
 10 N       -0.1700     4.7230    -0.9070 N.4   1 <1>  -0.9590 
 11 C        1.3270     2.6140     1.1680 C.3   1 <1>  -0.1950 
 12 C       -1.5610     5.2560    -0.7210 C.3   1 <1>   0.3430 
 13 C        0.6500     5.5800    -1.7970 C.3   1 <1>   0.4860 
 14 C        2.5310     3.1860     0.4840 C.3   1 <1>  -0.2000 
 15 C        2.6900     2.1120     1.5190 C.3   1 <1>  -0.2000 
 16 C        0.7470     6.9700    -1.1920 C.ar  1 <1>  -0.1440 
 17 C        1.5530     7.2060    -0.0880 C.ar  1 <1>  -0.1500 
 18 C        0.0270     8.0230    -1.7380 C.ar  1 <1>  -0.1500 
 19 C        1.6270     8.4710     0.4650 C.ar  1 <1>  -0.1500 
 20 C        0.1070     9.2860    -1.1800 C.ar  1 <1>  -0.1500 
 21 C        0.9050     9.5330    -0.0690 C.ar  1 <1>   0.0000 
 22 C        0.9860    10.8540     0.5120 C.ar  1 <1>   0.0000 
 23 C        2.2000    11.5340     0.6020 C.ar  1 <1>   0.1600 
 24 C       -0.1400    11.4950     1.0040 C.ar  1 <1>  -0.1500 
 25 N        2.3760    12.7380     1.1210 N.ar  1 <1>  -0.6200 
 26 C        0.0190    12.7520     1.5460 C.ar  1 <1>  -0.1500 
 27 C        1.2810    13.3210     1.5810 C.ar  1 <1>   0.1600 
 28 H       -1.1920     3.5970     1.4020 H     1 <1>   0.0800 
 29 H       -0.7900     3.2610    -2.2890 H     1 <1>   0.0800 
 30 H        0.8000     2.9750    -1.6540 H     1 <1>   0.0800 
 31 H       -0.1000     1.0110     1.1870 H     1 <1>   0.0800 
 32 H        0.9090     1.0250    -0.2140 H     1 <1>   0.0800 
 33 H       -2.9130     1.6150     0.5070 H     1 <1>   0.4000 
 34 H       -3.0820     3.7590    -0.9340 H     1 <1>   0.0800 
 35 H       -3.2060     4.6900     0.5310 H     1 <1>   0.0800 
 36 H        0.2910     4.7010     0.0110 H     1 <1>   0.4500 
 37 H        0.8560     3.1830     1.9510 H     1 <1>   0.1000 
 38 H       -1.5230     6.1070    -0.0600 H     1 <1>   0.0800 
 39 H       -1.9570     5.5910    -1.6660 H     1 <1>   0.0800 
 40 H        1.6390     5.1640    -1.8990 H     1 <1>   0.0800 
 41 H        0.2000     5.6340    -2.7750 H     1 <1>   0.0800 
 42 H        2.7650     2.9140    -0.5310 H     1 <1>   0.1000 
 43 H        2.8940     4.1640     0.7440 H     1 <1>   0.1000 
 44 H        3.1010     2.3680     2.4810 H     1 <1>   0.1000 
 45 H        2.9830     1.1250     1.2000 H     1 <1>   0.1000 
 46 H        2.1320     6.4130     0.3540 H     1 <1>   0.1500 
 47 H       -0.5990     7.8750    -2.6020 H     1 <1>   0.1500 
 48 H        2.2520     8.6440     1.3250 H     1 <1>   0.1500 
 49 H       -0.4510    10.0990    -1.6120 H     1 <1>   0.1500 
 50 H        3.0780    11.0460     0.2160 H     1 <1>   0.1500 
 51 H       -1.1060    11.0240     0.9650 H     1 <1>   0.1500 
 52 H       -0.8230    13.2900     1.9410 H     1 <1>   0.1500 
 53 H        1.3950    14.3030     2.0080 H     1 <1>   0.1500 
@<TRIPOS>BOND
  1   1   2  ar  
  2   2   3  ar  
  3   2   4  1   
  4   4   5  1   
  5   4   6  1   
  6   4   7  1   
  7   5   8  1   
  8   5   9  1   
  9   5  28  1   
 10   6  10  1   
 11   6  29  1   
 12   6  30  1   
 13   7  11  1   
 14   7  31  1   
 15   7  32  1   
 16   8  33  1   
 17   9  12  1   
 18   9  34  1   
 19   9  35  1   
 20  10  12  1   
 21  10  13  1   
 22  10  36  1   
 23  11  14  1   
 24  11  15  1   
 25  11  37  1   
 26  12  38  1   
 27  12  39  1   
 28  13  16  1   
 29  13  40  1   
 30  13  41  1   
 31  14  15  1   
 32  14  42  1   
 33  14  43  1   
 34  15  44  1   
 35  15  45  1   
 36  16  17  ar  
 37  16  18  ar  
 38  17  19  ar  
 39  17  46  1   
 40  18  20  ar  
 41  18  47  1   
 42  19  21  ar  
 43  19  48  1   
 44  20  21  ar  
 45  20  49  1   
 46  21  22  1   
 47  22  23  ar  
 48  22  24  ar  
 49  23  25  ar  
 50  23  50  1   
 51  24  26  ar  
 52  24  51  1   
 53  25  27  ar  
 54  26  27  ar  
 55  26  52  1   
 56  27  53  1   
@<TRIPOS>SUBSTRUCTURE
  1 ****  16 GROUP 4 **** **** 0

# MOE 2024.06 (io_trps.svl 2023.06)
