@<TRIPOS>MOLECULE
NONAME
40 42 1 0 0 
SMALL
USER_CHARGES


@<TRIPOS>ATOM
  1 O       -0.0890     1.2150    -0.7180 O.co2 1 <1>  -0.9000 
  2 C       -1.0370     1.4530     0.0440 C.2   1 <1>   0.9060 
  3 O       -1.5040     0.6060     0.8080 O.co2 1 <1>  -0.9000 
  4 C       -1.4970     2.9010     0.1900 C.3   1 <1>   0.0940 
  5 O       -2.4970     3.3300    -0.7290 O.3   1 <1>  -0.5600 
  6 C       -0.2300     3.7350     0.0050 C.3   1 <1>   0.3430 
  7 C       -2.8570     4.6700    -0.6060 C.3   1 <1>   0.1200 
  8 N       -0.4990     5.2160     0.1010 N.4   1 <1>  -0.9590 
  9 C       -1.6270     5.5710    -0.8260 C.3   1 <1>   0.3430 
 10 C        0.7150     6.0270    -0.2190 C.3   1 <1>   0.3430 
 11 C        1.8910     5.7540     0.7280 C.3   1 <1>   0.0200 
 12 C        2.9930     6.7600     0.4620 C.2   1 <1>   0.0060 
 13 N        2.8240     7.8280    -0.2360 N.2   1 <1>  -0.5650 
 14 N        4.2550     6.6140     0.9460 N.pl3 1 <1>   0.0330 
 15 C        4.0440     8.4370    -0.2250 C.ar  1 <1>   0.2270 
 16 C        4.9480     7.6930     0.5080 C.ar  1 <1>  -0.1520 
 17 C        4.4500     9.6290    -0.8200 C.ar  1 <1>  -0.1500 
 18 C        6.2710     8.1090     0.6680 C.ar  1 <1>  -0.1500 
 19 C        5.7540    10.0460    -0.6670 C.ar  1 <1>  -0.1500 
 20 C        6.6700     9.2890     0.0770 C.ar  1 <1>  -0.1440 
 21 C        8.0950     9.7910     0.2170 C.3   1 <1>  -0.0970 
 22 H       -1.8840     3.0100     1.1850 H     1 <1>   0.0800 
 23 H        0.1830     3.4950    -0.9630 H     1 <1>   0.0800 
 24 H        0.4890     3.4290     0.7450 H     1 <1>   0.0800 
 25 H       -3.2890     4.8240     0.3670 H     1 <1>   0.0800 
 26 H       -3.6060     4.8730    -1.3520 H     1 <1>   0.0800 
 27 H       -0.8040     5.4100     1.0620 H     1 <1>   0.4500 
 28 H       -1.9090     6.6010    -0.6840 H     1 <1>   0.0800 
 29 H       -1.3050     5.4520    -1.8480 H     1 <1>   0.0800 
 30 H        0.4690     7.0750    -0.1570 H     1 <1>   0.0800 
 31 H        1.0330     5.8290    -1.2310 H     1 <1>   0.0800 
 32 H        2.2770     4.7640     0.5630 H     1 <1>   0.0800 
 33 H        1.5740     5.8540     1.7500 H     1 <1>   0.0800 
 34 H        4.6320     5.8550     1.5200 H     1 <1>   0.2700 
 35 H        3.7360    10.1970    -1.3860 H     1 <1>   0.1500 
 36 H        6.9570     7.5120     1.2440 H     1 <1>   0.1500 
 37 H        6.0780    10.9650    -1.1230 H     1 <1>   0.1500 
 38 H        8.6860     9.1160     0.8090 H     1 <1>   0.0800 
 39 H        8.0980    10.7560     0.6920 H     1 <1>   0.0800 
 40 H        8.5480     9.8800    -0.7540 H     1 <1>   0.0800 
@<TRIPOS>BOND
  1   1   2  ar  
  2   2   3  ar  
  3   2   4  1   
  4   4   5  1   
  5   4   6  1   
  6   4  22  1   
  7   5   7  1   
  8   6   8  1   
  9   6  23  1   
 10   6  24  1   
 11   7   9  1   
 12   7  25  1   
 13   7  26  1   
 14   8   9  1   
 15   8  10  1   
 16   8  27  1   
 17   9  28  1   
 18   9  29  1   
 19  10  11  1   
 20  10  30  1   
 21  10  31  1   
 22  11  12  1   
 23  11  32  1   
 24  11  33  1   
 25  12  13  2   
 26  12  14  1   
 27  13  15  1   
 28  14  16  1   
 29  14  34  1   
 30  15  16  ar  
 31  15  17  ar  
 32  16  18  ar  
 33  17  19  ar  
 34  17  35  1   
 35  18  20  ar  
 36  18  36  1   
 37  19  20  ar  
 38  19  37  1   
 39  20  21  1   
 40  21  38  1   
 41  21  39  1   
 42  21  40  1   
@<TRIPOS>SUBSTRUCTURE
  1 ****  11 GROUP 4 **** **** 0

# MOE 2024.06 (io_trps.svl 2023.06)
