@<TRIPOS>MOLECULE
NONAME
50 53 1 0 0 
SMALL
USER_CHARGES


@<TRIPOS>ATOM
  1 O       -0.3500     0.9650    -0.7080 O.2   1 <1>  -0.5700 
  2 C       -0.4390     2.1550    -0.5100 C.2   1 <1>   0.5690 
  3 N       -1.3430     2.7170     0.3540 N.am  1 <1>  -0.5090 
  4 C        0.5200     3.0640    -1.2680 C.3   1 <1>   0.1810 
  5 C       -1.3550     4.1990     0.6070 C.3   1 <1>   0.3640 
  6 C       -2.0530     1.8900     1.3670 C.3   1 <1>   0.0490 
  7 O        0.8470     4.2100    -0.5260 O.3   1 <1>  -0.5600 
  8 C       -2.7220     4.7850     0.2470 C.ar  1 <1>  -0.1440 
  9 C       -0.2750     5.0020    -0.1770 C.3   1 <1>   0.2610 
 10 C       -2.9010     0.7450     0.9070 C.3   1 <1>  -0.2000 
 11 C       -3.5430     1.9500     1.5130 C.3   1 <1>  -0.2000 
 12 C       -3.3600     4.4530    -0.9430 C.ar  1 <1>  -0.1500 
 13 C       -3.3390     5.6770     1.1130 C.ar  1 <1>  -0.1500 
 14 C        0.1720     6.2750     0.5730 C.2   1 <1>   0.5690 
 15 C       -4.5910     5.0010    -1.2620 C.ar  1 <1>  -0.1500 
 16 C       -4.5690     6.2250     0.7960 C.ar  1 <1>  -0.1500 
 17 O       -0.2460     6.4700     1.6930 O.2   1 <1>  -0.5700 
 18 N        1.0240     7.1840    -0.0120 N.am  1 <1>  -0.6600 
 19 C       -5.2030     5.8940    -0.3890 C.ar  1 <1>   0.0830 
 20 C        1.6120     8.3220     0.7910 C.3   1 <1>   0.2010 
 21 C        1.6620     7.0340    -1.3560 C.3   1 <1>   0.1400 
 22 O       -6.4060     6.4750    -0.6230 O.3   1 <1>  -0.3630 
 23 C        3.1380     8.4360     0.6660 C.2   1 <1>   0.5690 
 24 C        3.1670     6.7510    -1.2060 C.3   1 <1>   0.1400 
 25 C       -7.1490     6.1820    -1.7850 C.3   1 <1>   0.0400 
 26 O        3.7450     9.1700     1.4050 O.2   1 <1>  -0.5700 
 27 N        3.8040     7.7240    -0.2800 N.am  1 <1>  -0.7300 
 28 H        0.0830     3.3630    -2.2030 H     1 <1>   0.0800 
 29 H        1.4330     2.5300    -1.4630 H     1 <1>   0.0800 
 30 H       -1.1910     4.3250     1.6620 H     1 <1>   0.0800 
 31 H       -1.4610     1.7430     2.2550 H     1 <1>   0.1000 
 32 H       -0.7150     5.3320    -1.0990 H     1 <1>   0.0800 
 33 H       -3.0050     0.5750    -0.1500 H     1 <1>   0.1000 
 34 H       -2.8780    -0.1690     1.4730 H     1 <1>   0.1000 
 35 H       -3.9690     1.8550     2.4960 H     1 <1>   0.1000 
 36 H       -4.1430     2.5630     0.8670 H     1 <1>   0.1000 
 37 H       -2.9070     3.7560    -1.6260 H     1 <1>   0.1500 
 38 H       -2.8650     5.9550     2.0400 H     1 <1>   0.1500 
 39 H       -5.0560     4.7190    -2.1870 H     1 <1>   0.1500 
 40 H       -5.0460     6.9160     1.4680 H     1 <1>   0.1500 
 41 H        1.1780     9.2450     0.4570 H     1 <1>   0.0800 
 42 H        1.3780     8.2090     1.8340 H     1 <1>   0.0800 
 43 H        1.2040     6.2470    -1.9260 H     1 <1>   0.0800 
 44 H        1.5290     7.9480    -1.9090 H     1 <1>   0.0800 
 45 H        3.6410     6.8110    -2.1710 H     1 <1>   0.0800 
 46 H        3.3060     5.7540    -0.8220 H     1 <1>   0.0800 
 47 H       -8.0650     6.7440    -1.7460 H     1 <1>   0.0800 
 48 H       -7.3660     5.1290    -1.8040 H     1 <1>   0.0800 
 49 H       -6.5770     6.4750    -2.6480 H     1 <1>   0.0800 
 50 H        4.8240     7.7910    -0.2730 H     1 <1>   0.3700 
@<TRIPOS>BOND
  1   1   2  2   
  2   2   3  am  
  3   2   4  1   
  4   3   5  1   
  5   3   6  1   
  6   4   7  1   
  7   4  28  1   
  8   4  29  1   
  9   5   8  1   
 10   5   9  1   
 11   5  30  1   
 12   6  10  1   
 13   6  11  1   
 14   6  31  1   
 15   7   9  1   
 16   8  12  ar  
 17   8  13  ar  
 18   9  14  1   
 19   9  32  1   
 20  10  11  1   
 21  10  33  1   
 22  10  34  1   
 23  11  35  1   
 24  11  36  1   
 25  12  15  ar  
 26  12  37  1   
 27  13  16  ar  
 28  13  38  1   
 29  14  17  2   
 30  14  18  am  
 31  15  19  ar  
 32  15  39  1   
 33  16  19  ar  
 34  16  40  1   
 35  18  20  1   
 36  18  21  1   
 37  19  22  1   
 38  20  23  1   
 39  20  41  1   
 40  20  42  1   
 41  21  24  1   
 42  21  43  1   
 43  21  44  1   
 44  22  25  1   
 45  23  26  2   
 46  23  27  am  
 47  24  27  1   
 48  24  45  1   
 49  24  46  1   
 50  25  47  1   
 51  25  48  1   
 52  25  49  1   
 53  27  50  1   
@<TRIPOS>SUBSTRUCTURE
  1 ****   9 GROUP 4 **** **** 0

# MOE 2024.06 (io_trps.svl 2023.06)
