@<TRIPOS>MOLECULE
NONAME
51 53 1 0 0 
SMALL
USER_CHARGES


@<TRIPOS>ATOM
  1 O       -0.0800     0.7220    -1.1360 O.2   1 <1>  -0.5700 
  2 C       -0.0760     1.8230    -0.6360 C.2   1 <1>   0.5690 
  3 N       -1.2300     2.5210    -0.3940 N.am  1 <1>  -0.6600 
  4 C        1.2790     2.4490    -0.2970 C.3   1 <1>   0.1810 
  5 C       -1.1940     3.8950     0.2090 C.3   1 <1>   0.3640 
  6 C       -2.5800     1.9130    -0.5760 C.3   1 <1>   0.0600 
  7 O        1.1860     3.5000     0.6320 O.3   1 <1>  -0.5600 
  8 C       -2.0860     4.8440    -0.6060 C.ar  1 <1>  -0.1430 
  9 C        0.2340     4.4880     0.2900 C.3   1 <1>   0.2610 
 10 C       -3.0530     5.6600    -0.0170 C.ar  1 <1>  -0.1430 
 11 C       -1.9070     4.9010    -1.9850 C.ar  1 <1>  -0.1500 
 12 C        0.2500     5.6460     1.3010 C.2   1 <1>   0.5690 
 13 C       -3.7990     6.5180    -0.8110 C.ar  1 <1>  -0.1500 
 14 C       -3.3350     5.6510     1.4810 C.3   1 <1>  -0.0960 
 15 C       -2.6580     5.7570    -2.7680 C.ar  1 <1>  -0.1500 
 16 O        0.0080     5.3920     2.4610 O.2   1 <1>  -0.5700 
 17 N        0.5030     6.9410     0.9140 N.am  1 <1>  -0.6600 
 18 C       -3.6040     6.5710    -2.1790 C.ar  1 <1>  -0.1500 
 19 C        0.8200     7.9830     1.9520 C.3   1 <1>   0.3210 
 20 C        0.4380     7.4450    -0.4890 C.3   1 <1>   0.0600 
 21 C        2.0900     8.7770     1.6440 C.2   1 <1>   0.3350 
 22 N        3.2420     8.5280     2.1290 N.2   1 <1>  -0.4100 
 23 N        2.0810     9.8280     0.8290 N.2   1 <1>  -0.5650 
 24 O        4.0620     9.4120     1.6470 O.3   1 <1>  -0.0190 
 25 C        3.3080    10.1580     0.8790 C.2   1 <1>   0.2980 
 26 C        3.9410    11.3230     0.1400 C.3   1 <1>   0.0200 
 27 C        4.9290    10.8540    -0.9360 C.3   1 <1>  -0.2400 
 28 H        1.7360     2.8250    -1.1930 H     1 <1>   0.0800 
 29 H        1.9190     1.6970     0.1280 H     1 <1>   0.0800 
 30 H       -1.5650     3.8040     1.2130 H     1 <1>   0.0800 
 31 H       -3.1500     2.0080     0.3310 H     1 <1>   0.0800 
 32 H       -2.4970     0.8680    -0.8210 H     1 <1>   0.0800 
 33 H       -3.1030     2.4110    -1.3740 H     1 <1>   0.0800 
 34 H        0.5180     4.8590    -0.6750 H     1 <1>   0.0800 
 35 H       -1.1800     4.2670    -2.4630 H     1 <1>   0.1500 
 36 H       -4.5440     7.1560    -0.3700 H     1 <1>   0.1500 
 37 H       -4.1890     6.2610     1.7160 H     1 <1>   0.0800 
 38 H       -2.4940     6.0400     2.0240 H     1 <1>   0.0800 
 39 H       -3.5440     4.6530     1.8190 H     1 <1>   0.0800 
 40 H       -2.5080     5.7880    -3.8330 H     1 <1>   0.1500 
 41 H       -4.1920     7.2410    -2.7820 H     1 <1>   0.1500 
 42 H       -0.0070     8.6660     2.0240 H     1 <1>   0.0800 
 43 H        0.9480     7.5230     2.9150 H     1 <1>   0.0800 
 44 H        0.0650     8.4550    -0.5000 H     1 <1>   0.0800 
 45 H       -0.2250     6.8470    -1.0860 H     1 <1>   0.0800 
 46 H        1.4230     7.4360    -0.9250 H     1 <1>   0.0800 
 47 H        3.1630    11.9050    -0.3200 H     1 <1>   0.0800 
 48 H        4.4480    11.9500     0.8520 H     1 <1>   0.0800 
 49 H        4.4250    10.2310    -1.6540 H     1 <1>   0.0800 
 50 H        5.7280    10.2880    -0.4890 H     1 <1>   0.0800 
 51 H        5.3500    11.7010    -1.4470 H     1 <1>   0.0800 
@<TRIPOS>BOND
  1   1   2  2   
  2   2   3  am  
  3   2   4  1   
  4   3   5  1   
  5   3   6  1   
  6   4   7  1   
  7   4  28  1   
  8   4  29  1   
  9   5   8  1   
 10   5   9  1   
 11   5  30  1   
 12   6  31  1   
 13   6  32  1   
 14   6  33  1   
 15   7   9  1   
 16   8  10  ar  
 17   8  11  ar  
 18   9  12  1   
 19   9  34  1   
 20  10  13  ar  
 21  10  14  1   
 22  11  15  ar  
 23  11  35  1   
 24  12  16  2   
 25  12  17  am  
 26  13  18  ar  
 27  13  36  1   
 28  14  37  1   
 29  14  38  1   
 30  14  39  1   
 31  15  18  ar  
 32  15  40  1   
 33  17  19  1   
 34  17  20  1   
 35  18  41  1   
 36  19  21  1   
 37  19  42  1   
 38  19  43  1   
 39  20  44  1   
 40  20  45  1   
 41  20  46  1   
 42  21  22  2   
 43  21  23  1   
 44  22  24  1   
 45  23  25  2   
 46  24  25  1   
 47  25  26  1   
 48  26  27  1   
 49  26  47  1   
 50  26  48  1   
 51  27  49  1   
 52  27  50  1   
 53  27  51  1   
@<TRIPOS>SUBSTRUCTURE
  1 ****  12 GROUP 4 **** **** 0

# MOE 2024.06 (io_trps.svl 2023.06)
