@<TRIPOS>MOLECULE
NONAME
41 43 1 0 0 
SMALL
USER_CHARGES


@<TRIPOS>ATOM
  1 O       -0.4240     0.4300     0.5850 O.3   1 <1>  -0.5600 
  2 C        0.1290     1.3080    -0.3560 C.3   1 <1>   0.1200 
  3 C       -1.6790     0.8740     1.0110 C.3   1 <1>   0.1200 
  4 C       -0.7310     2.5690    -0.3440 C.3   1 <1>   0.2890 
  5 C       -2.0810     2.0260     0.0860 C.3   1 <1>  -0.0800 
  6 N       -0.2360     3.5050     0.6980 N.pl3 1 <1>  -0.8690 
  7 C       -2.9060     1.5410    -1.1210 C.3   1 <1>  -0.0170 
  8 C        0.6750     4.5150     0.4310 C.ar  1 <1>   0.4100 
  9 C       -4.2690     1.0210    -0.6920 C.ar  1 <1>  -0.1430 
 10 N        0.9500     4.7350    -0.8470 N.ar  1 <1>  -0.6200 
 11 C        1.2840     5.2530     1.4740 C.ar  1 <1>   0.1670 
 12 C       -5.2860     1.8770    -0.3160 C.ar  1 <1>  -0.1500 
 13 C       -4.5630    -0.3270    -0.6550 C.ar  1 <1>  -0.1500 
 14 C        1.8360     5.6950    -1.0310 C.ar  1 <1>   0.1670 
 15 N        2.1760     6.2050     1.2880 N.ar  1 <1>  -0.6200 
 16 C        0.9270     4.9720     2.9240 C.3   1 <1>  -0.0970 
 17 C       -6.5090     1.3570     0.0720 C.ar  1 <1>   0.1600 
 18 C       -5.8200    -0.7430    -0.2500 C.ar  1 <1>   0.1600 
 19 C        2.4310     6.4050     0.0040 C.ar  1 <1>   0.1600 
 20 C        2.1890     5.9960    -2.4730 C.3   1 <1>  -0.0970 
 21 N       -6.8000     0.0670     0.1160 N.ar  1 <1>  -0.6200 
 22 H        1.1550     1.5110    -0.1050 H     1 <1>   0.0800 
 23 H        0.0790     0.8280    -1.3170 H     1 <1>   0.0800 
 24 H       -2.3690     0.0500     0.9920 H     1 <1>   0.0800 
 25 H       -1.5720     1.2230     2.0230 H     1 <1>   0.0800 
 26 H       -0.7700     3.0470    -1.3080 H     1 <1>   0.0800 
 27 H       -2.6460     2.7710     0.6180 H     1 <1>   0.0800 
 28 H       -0.0850     3.0230     1.5860 H     1 <1>   0.4000 
 29 H       -2.3760     0.7680    -1.6500 H     1 <1>   0.0800 
 30 H       -3.0510     2.3590    -1.8060 H     1 <1>   0.0800 
 31 H       -5.1380     2.9410    -0.3210 H     1 <1>   0.1500 
 32 H       -3.8270    -1.0590    -0.9340 H     1 <1>   0.1500 
 33 H       -0.1360     4.8670     3.0340 H     1 <1>   0.0800 
 34 H        1.2520     5.7830     3.5510 H     1 <1>   0.0800 
 35 H        1.4140     4.0710     3.2480 H     1 <1>   0.0800 
 36 H       -7.2900     2.0390     0.3620 H     1 <1>   0.1500 
 37 H       -6.0310    -1.7980    -0.2260 H     1 <1>   0.1500 
 38 H        3.1480     7.1710    -0.2300 H     1 <1>   0.1500 
 39 H        2.9120     6.7880    -2.5410 H     1 <1>   0.0800 
 40 H        1.3020     6.2880    -3.0060 H     1 <1>   0.0800 
 41 H        2.5950     5.1140    -2.9350 H     1 <1>   0.0800 
@<TRIPOS>BOND
  1   1   2  1   
  2   1   3  1   
  3   2   4  1   
  4   2  22  1   
  5   2  23  1   
  6   3   5  1   
  7   3  24  1   
  8   3  25  1   
  9   4   5  1   
 10   4   6  1   
 11   4  26  1   
 12   5   7  1   
 13   5  27  1   
 14   6   8  1   
 15   6  28  1   
 16   7   9  1   
 17   7  29  1   
 18   7  30  1   
 19   8  10  ar  
 20   8  11  ar  
 21   9  12  ar  
 22   9  13  ar  
 23  10  14  ar  
 24  11  15  ar  
 25  11  16  1   
 26  12  17  ar  
 27  12  31  1   
 28  13  18  ar  
 29  13  32  1   
 30  14  19  ar  
 31  14  20  1   
 32  15  19  ar  
 33  16  33  1   
 34  16  34  1   
 35  16  35  1   
 36  17  21  ar  
 37  17  36  1   
 38  18  21  ar  
 39  18  37  1   
 40  19  38  1   
 41  20  39  1   
 42  20  40  1   
 43  20  41  1   
@<TRIPOS>SUBSTRUCTURE
  1 ****   4 GROUP 4 **** **** 0

# MOE 2024.06 (io_trps.svl 2023.06)
