@<TRIPOS>MOLECULE
NONAME
54 58 1 0 0 
SMALL
USER_CHARGES


@<TRIPOS>ATOM
  1 O       -0.1210    -0.2650     0.1910 O.2   1 <1>  -0.5700 
  2 C       -0.1110    -1.4780     0.0750 C.2   1 <1>   0.7160 
  3 N        1.0430    -2.0960    -0.2850 N.am  1 <1>  -0.4900 
  4 C       -1.2220    -2.3260     0.2890 C.2   1 <1>  -0.0860 
  5 C        1.1330    -3.4610    -0.4210 C.2   1 <1>   0.4490 
  6 C       -1.0710    -3.6680     0.1300 C.2   1 <1>  -0.0260 
  7 C       -2.5570    -2.1610     0.6490 C.2   1 <1>   0.1390 
  8 N        0.1300    -4.2480    -0.2300 N.2   1 <1>  -0.5760 
  9 C        2.5050    -3.9950    -0.8240 C.3   1 <1>  -0.0190 
 10 N       -2.2780    -4.2350     0.3890 N.pl3 1 <1>   0.3140 
 11 N       -3.1960    -3.2870     0.7130 N.2   1 <1>  -0.7070 
 12 C        3.6360    -3.6120     0.1500 C.3   1 <1>  -0.0800 
 13 C        2.5990    -5.5170    -0.9080 C.3   1 <1>   0.1100 
 14 C       -2.6580    -5.6710     0.3470 C.3   1 <1>   0.1760 
 15 C        4.4860    -4.8810     0.2810 C.3   1 <1>   0.1100 
 16 C        4.4720    -2.4240    -0.3560 C.3   1 <1>  -0.2400 
 17 N        4.0260    -5.7760    -0.7780 N.3   1 <1>  -0.8100 
 18 C       -1.8700    -6.5040     1.3660 C.3   1 <1>  -0.1600 
 19 C       -2.5030    -6.2630    -1.0600 C.3   1 <1>  -0.1600 
 20 C        4.3370    -7.2080    -0.5060 C.3   1 <1>   0.2530 
 21 C       -2.2550    -7.9810     1.2360 C.3   1 <1>   0.1200 
 22 C       -2.8520    -7.7530    -1.0350 C.3   1 <1>   0.1200 
 23 C        5.8300    -7.5330    -0.3220 C.ar  1 <1>   0.4770 
 24 O       -2.0630    -8.3960    -0.0820 O.3   1 <1>  -0.5600 
 25 N        6.3170    -7.4070     0.9100 N.ar  1 <1>  -0.6200 
 26 N        6.4940    -7.9280    -1.4040 N.ar  1 <1>  -0.6200 
 27 C        7.5930    -7.6880     1.0530 C.ar  1 <1>   0.1600 
 28 C        7.7670    -8.1990    -1.2290 C.ar  1 <1>   0.1600 
 29 C        8.3730    -8.0930    -0.0020 C.ar  1 <1>  -0.1500 
 30 H        1.8460    -1.4960    -0.4380 H     1 <1>   0.3700 
 31 H       -3.0070    -1.2020     0.8520 H     1 <1>   0.1500 
 32 H        2.7310    -3.6210    -1.8060 H     1 <1>   0.0800 
 33 H        3.2380    -3.3780     1.1230 H     1 <1>   0.0800 
 34 H        2.2170    -5.8900    -1.8440 H     1 <1>   0.0800 
 35 H        2.0670    -5.9740    -0.0900 H     1 <1>   0.0800 
 36 H       -3.6990    -5.7230     0.6130 H     1 <1>   0.0800 
 37 H        4.3150    -5.3330     1.2450 H     1 <1>   0.0800 
 38 H        5.5400    -4.6840     0.1700 H     1 <1>   0.0800 
 39 H        4.9160    -2.6590    -1.3080 H     1 <1>   0.0800 
 40 H        5.2640    -2.2100     0.3400 H     1 <1>   0.0800 
 41 H        3.8700    -1.5410    -0.4630 H     1 <1>   0.0800 
 42 H       -2.0860    -6.1630     2.3620 H     1 <1>   0.0800 
 43 H       -0.8130    -6.4110     1.1920 H     1 <1>   0.0800 
 44 H       -1.4900    -6.1540    -1.4050 H     1 <1>   0.0800 
 45 H       -3.1560    -5.7520    -1.7450 H     1 <1>   0.0800 
 46 H        3.8160    -7.5240     0.3810 H     1 <1>   0.0800 
 47 H        3.9700    -7.7980    -1.3260 H     1 <1>   0.0800 
 48 H       -3.2860    -8.1440     1.5020 H     1 <1>   0.0800 
 49 H       -1.6300    -8.5900     1.8660 H     1 <1>   0.0800 
 50 H       -2.6460    -8.2050    -1.9900 H     1 <1>   0.0800 
 51 H       -3.8880    -7.9120    -0.7890 H     1 <1>   0.0800 
 52 H        8.0230    -7.5930     2.0360 H     1 <1>   0.1500 
 53 H        8.3360    -8.5140    -2.0880 H     1 <1>   0.1500 
 54 H        9.4140    -8.3170     0.1270 H     1 <1>   0.1500 
@<TRIPOS>BOND
  1   1   2  2   
  2   2   3  am  
  3   2   4  1   
  4   3   5  1   
  5   3  30  1   
  6   4   6  2   
  7   4   7  1   
  8   5   8  2   
  9   5   9  1   
 10   6   8  1   
 11   6  10  1   
 12   7  11  2   
 13   7  31  1   
 14   9  12  1   
 15   9  13  1   
 16   9  32  1   
 17  10  11  1   
 18  10  14  1   
 19  12  15  1   
 20  12  16  1   
 21  12  33  1   
 22  13  17  1   
 23  13  34  1   
 24  13  35  1   
 25  14  18  1   
 26  14  19  1   
 27  14  36  1   
 28  15  17  1   
 29  15  37  1   
 30  15  38  1   
 31  16  39  1   
 32  16  40  1   
 33  16  41  1   
 34  17  20  1   
 35  18  21  1   
 36  18  42  1   
 37  18  43  1   
 38  19  22  1   
 39  19  44  1   
 40  19  45  1   
 41  20  23  1   
 42  20  46  1   
 43  20  47  1   
 44  21  24  1   
 45  21  48  1   
 46  21  49  1   
 47  22  24  1   
 48  22  50  1   
 49  22  51  1   
 50  23  25  ar  
 51  23  26  ar  
 52  25  27  ar  
 53  26  28  ar  
 54  27  29  ar  
 55  27  52  1   
 56  28  29  ar  
 57  28  53  1   
 58  29  54  1   
@<TRIPOS>SUBSTRUCTURE
  1 ****  13 GROUP 4 **** **** 0

# MOE 2024.06 (io_trps.svl 2023.06)
