@<TRIPOS>MOLECULE
NONAME
38 39 1 0 0 
SMALL
USER_CHARGES


@<TRIPOS>ATOM
  1 O        0.8750     0.2960    -0.4930 O.2   1 <1>  -0.5700 
  2 C        1.7950     0.9740    -0.1000 C.2   1 <1>   0.6900 
  3 N        2.8910     0.4080     0.4640 N.am  1 <1>  -0.4900 
  4 N        1.7540     2.3350    -0.2170 N.am  1 <1>  -0.5390 
  5 C        3.9450     1.1440     0.9130 C.2   1 <1>   0.6160 
  6 C        2.7900     3.1540     0.2130 C.2   1 <1>  -0.0290 
  7 O        4.8910     0.5660     1.4050 O.2   1 <1>  -0.5700 
  8 C        3.8720     2.5610     0.7760 C.2   1 <1>  -0.1360 
  9 C        2.6190     4.6610     0.0260 C.3   1 <1>   0.2480 
 10 N        3.9100     5.3710     0.0250 N.3   1 <1>  -0.8100 
 11 C        3.7190     6.8240     0.2680 C.3   1 <1>   0.2900 
 12 C        4.6530     5.1350    -1.2280 C.3   1 <1>   0.0300 
 13 C        5.0220     7.6090     0.3790 C.2   1 <1>   0.2980 
 14 O        5.8390     7.3410     1.3660 O.3   1 <1>  -0.0190 
 15 N        5.4040     8.5330    -0.4130 N.2   1 <1>  -0.5650 
 16 N        6.8270     8.1650     1.1870 N.2   1 <1>  -0.4100 
 17 C        6.5620     8.8520     0.1470 C.2   1 <1>   0.3350 
 18 C        7.4310     9.9420    -0.4520 C.3   1 <1>   0.0210 
 19 C        8.7220    10.1540     0.3380 C.3   1 <1>   0.1200 
 20 O        9.4540    11.1640    -0.2800 O.3   1 <1>  -0.5600 
 21 C       10.6600    11.4510     0.3510 C.3   1 <1>   0.0400 
 22 H        2.9260    -0.6010     0.5550 H     1 <1>   0.3700 
 23 H        0.9020     2.6930    -0.6510 H     1 <1>   0.3700 
 24 H        4.7150     3.1170     1.1420 H     1 <1>   0.1500 
 25 H        2.0050     5.0230     0.8330 H     1 <1>   0.0800 
 26 H        2.1040     4.8570    -0.9000 H     1 <1>   0.0800 
 27 H        3.1790     6.9600     1.1890 H     1 <1>   0.0800 
 28 H        3.1330     7.2480    -0.5290 H     1 <1>   0.0800 
 29 H        4.7690     4.0800    -1.4040 H     1 <1>   0.0800 
 30 H        5.6380     5.5670    -1.1640 H     1 <1>   0.0800 
 31 H        4.1360     5.5730    -2.0650 H     1 <1>   0.0800 
 32 H        6.8700    10.8570    -0.4670 H     1 <1>   0.0800 
 33 H        7.6750     9.6680    -1.4620 H     1 <1>   0.0800 
 34 H        9.3110     9.2520     0.3450 H     1 <1>   0.0800 
 35 H        8.4990    10.4530     1.3480 H     1 <1>   0.0800 
 36 H       11.1470    12.2370    -0.1980 H     1 <1>   0.0800 
 37 H       11.2800    10.5700     0.3510 H     1 <1>   0.0800 
 38 H       10.4660    11.7780     1.3580 H     1 <1>   0.0800 
@<TRIPOS>BOND
  1   1   2  2   
  2   2   3  am  
  3   2   4  am  
  4   3   5  am  
  5   3  22  1   
  6   4   6  1   
  7   4  23  1   
  8   5   7  2   
  9   5   8  1   
 10   6   8  2   
 11   6   9  1   
 12   8  24  1   
 13   9  10  1   
 14   9  25  1   
 15   9  26  1   
 16  10  11  1   
 17  10  12  1   
 18  11  13  1   
 19  11  27  1   
 20  11  28  1   
 21  12  29  1   
 22  12  30  1   
 23  12  31  1   
 24  13  14  1   
 25  13  15  2   
 26  14  16  1   
 27  15  17  1   
 28  16  17  2   
 29  17  18  1   
 30  18  19  1   
 31  18  32  1   
 32  18  33  1   
 33  19  20  1   
 34  19  34  1   
 35  19  35  1   
 36  20  21  1   
 37  21  36  1   
 38  21  37  1   
 39  21  38  1   
@<TRIPOS>SUBSTRUCTURE
  1 ****  10 GROUP 4 **** **** 0

# MOE 2024.06 (io_trps.svl 2023.06)
