@<TRIPOS>MOLECULE
NONAME
42 43 1 0 0 
SMALL
USER_CHARGES


@<TRIPOS>ATOM
  1 O       -2.3930     1.0210    -1.9110 O.2   1 <1>  -0.5700 
  2 C       -2.0860     0.9860    -0.7460 C.2   1 <1>   0.5690 
  3 N       -2.0980    -0.1690    -0.0390 N.am  1 <1>  -0.7300 
  4 C       -1.6720     2.2600    -0.0500 C.3   1 <1>  -0.0990 
  5 C       -2.4620    -1.4900    -0.5940 C.3   1 <1>   0.2200 
  6 C       -0.1900     2.5260    -0.2920 C.3   1 <1>   0.1400 
  7 C       -3.8500    -1.8690    -0.1050 C.3   1 <1>  -0.0800 
  8 C       -1.6030    -2.5660     0.0570 C.3   1 <1>   0.1200 
  9 N        0.2410     3.7000     0.5030 N.am  1 <1>  -0.7300 
 10 C       -3.5630    -2.5180     1.2570 C.3   1 <1>   0.1200 
 11 C       -4.5450    -2.8380    -1.0800 C.3   1 <1>  -0.0170 
 12 O       -2.1960    -2.8140     1.2950 O.3   1 <1>  -0.5600 
 13 C        0.7300     4.8510    -0.0190 C.2   1 <1>   0.5690 
 14 C       -5.9460    -3.1940    -0.6060 C.ar  1 <1>  -0.1440 
 15 O        0.8540     5.0300    -1.2040 O.2   1 <1>  -0.5700 
 16 C        1.1340     5.9440     0.9340 C.3   1 <1>  -0.1790 
 17 C       -6.2480    -4.4250    -0.0610 C.ar  1 <1>  -0.1500 
 18 C       -6.9910    -2.2970    -0.7000 C.ar  1 <1>  -0.1500 
 19 C       -7.5420    -4.6910     0.3570 C.ar  1 <1>   0.1600 
 20 C       -8.2500    -2.6620    -0.2530 C.ar  1 <1>   0.1600 
 21 N       -8.5500    -3.8370     0.2760 N.ar  1 <1>  -0.6200 
 22 H       -1.8710    -0.1870     0.9580 H     1 <1>   0.3700 
 23 H       -2.2500     3.0740    -0.4500 H     1 <1>   0.0800 
 24 H       -1.8710     2.1740     1.0010 H     1 <1>   0.0800 
 25 H       -2.3720    -1.4860    -1.6680 H     1 <1>   0.0800 
 26 H       -0.0220     2.7050    -1.3420 H     1 <1>   0.0800 
 27 H        0.3950     1.6700    -0.0010 H     1 <1>   0.0800 
 28 H       -4.4700    -0.9970     0.0090 H     1 <1>   0.0800 
 29 H       -0.5820    -2.2580     0.1970 H     1 <1>   0.0800 
 30 H       -1.6350    -3.4790    -0.5120 H     1 <1>   0.0800 
 31 H        0.1820     3.6040     1.5170 H     1 <1>   0.3700 
 32 H       -4.1170    -3.4260     1.4140 H     1 <1>   0.0800 
 33 H       -3.7700    -1.8320     2.0600 H     1 <1>   0.0800 
 34 H       -3.9630    -3.7360    -1.1940 H     1 <1>   0.0800 
 35 H       -4.6190    -2.3740    -2.0490 H     1 <1>   0.0800 
 36 H        1.9160     5.5930     1.5800 H     1 <1>   0.0800 
 37 H        0.2870     6.2470     1.5190 H     1 <1>   0.0800 
 38 H        1.4950     6.7920     0.3800 H     1 <1>   0.0800 
 39 H       -5.4920    -5.1820     0.0440 H     1 <1>   0.1500 
 40 H       -6.8390    -1.3180    -1.1180 H     1 <1>   0.1500 
 41 H       -7.7590    -5.6560     0.7800 H     1 <1>   0.1500 
 42 H       -9.0520    -1.9490    -0.3340 H     1 <1>   0.1500 
@<TRIPOS>BOND
  1   1   2  2   
  2   2   3  am  
  3   2   4  1   
  4   3   5  1   
  5   3  22  1   
  6   4   6  1   
  7   4  23  1   
  8   4  24  1   
  9   5   7  1   
 10   5   8  1   
 11   5  25  1   
 12   6   9  1   
 13   6  26  1   
 14   6  27  1   
 15   7  10  1   
 16   7  11  1   
 17   7  28  1   
 18   8  12  1   
 19   8  29  1   
 20   8  30  1   
 21   9  13  am  
 22   9  31  1   
 23  10  12  1   
 24  10  32  1   
 25  10  33  1   
 26  11  14  1   
 27  11  34  1   
 28  11  35  1   
 29  13  15  2   
 30  13  16  1   
 31  14  17  ar  
 32  14  18  ar  
 33  16  36  1   
 34  16  37  1   
 35  16  38  1   
 36  17  19  ar  
 37  17  39  1   
 38  18  20  ar  
 39  18  40  1   
 40  19  21  ar  
 41  19  41  1   
 42  20  21  ar  
 43  20  42  1   
@<TRIPOS>SUBSTRUCTURE
  1 ****   3 GROUP 4 **** **** 0

# MOE 2024.06 (io_trps.svl 2023.06)
