@<TRIPOS>MOLECULE
NONAME
39 40 1 0 0 
SMALL
USER_CHARGES


@<TRIPOS>ATOM
  1 S       -0.5640    -0.7560     0.7420 S.3   1 <1>  -0.0800 
  2 C       -1.3470    -2.2490     0.2460 C.2   1 <1>  -0.1400 
  3 C       -1.7140    -0.5290     2.0470 C.2   1 <1>  -0.1100 
  4 C       -2.4000    -2.5110     1.0470 C.2   1 <1>  -0.1500 
  5 C       -0.7370    -2.9640    -0.9460 C.3   1 <1>   0.3200 
  6 C       -2.6090    -1.5330     2.0710 C.2   1 <1>  -0.1500 
  7 N       -1.5290    -4.1660    -1.2450 N.am  1 <1>  -0.7300 
  8 C       -1.0340    -5.4040    -1.4810 C.2   1 <1>   0.5690 
  9 O        0.1440    -5.6060    -1.6510 O.2   1 <1>  -0.5700 
 10 C       -2.0250    -6.5710    -1.5090 C.3   1 <1>   0.1710 
 11 N       -3.1650    -6.4100    -0.5560 N.3   1 <1>  -0.8100 
 12 C       -4.2310    -7.3870    -0.8250 C.3   1 <1>   0.1100 
 13 C       -2.6950    -6.5040     0.8430 C.3   1 <1>   0.1100 
 14 C       -5.5170    -7.0110    -0.0550 C.3   1 <1>  -0.0800 
 15 C       -3.8590    -6.6110     1.8410 C.3   1 <1>  -0.1600 
 16 C       -5.1820    -6.1810     1.2070 C.3   1 <1>   0.2000 
 17 C       -6.3470    -8.2740     0.2390 C.3   1 <1>   0.1200 
 18 O       -6.1780    -6.2760     2.1630 O.3   1 <1>  -0.6800 
 19 O       -6.5820    -8.9680    -0.9380 O.3   1 <1>  -0.6800 
 20 H       -1.5960     0.3430     2.6650 H     1 <1>   0.1500 
 21 H       -3.0550    -3.3620     0.9700 H     1 <1>   0.1500 
 22 H        0.2810    -3.2370    -0.7280 H     1 <1>   0.0800 
 23 H       -0.7440    -2.3130    -1.8030 H     1 <1>   0.0800 
 24 H       -3.4190    -1.6330     2.7720 H     1 <1>   0.1500 
 25 H       -2.5260    -4.1080    -1.0280 H     1 <1>   0.3700 
 26 H       -1.4950    -7.4830    -1.2990 H     1 <1>   0.0800 
 27 H       -2.4070    -6.6350    -2.5120 H     1 <1>   0.0800 
 28 H       -4.4530    -7.4170    -1.8780 H     1 <1>   0.0800 
 29 H       -3.8940    -8.3680    -0.5310 H     1 <1>   0.0800 
 30 H       -2.0520    -7.3610     0.9610 H     1 <1>   0.0800 
 31 H       -2.1140    -5.6270     1.0740 H     1 <1>   0.0800 
 32 H       -6.1040    -6.3730    -0.6900 H     1 <1>   0.0800 
 33 H       -3.6420    -5.9970     2.6970 H     1 <1>   0.0800 
 34 H       -3.9300    -7.6330     2.1690 H     1 <1>   0.0800 
 35 H       -5.1090    -5.1430     0.9270 H     1 <1>   0.0800 
 36 H       -7.3000    -8.0230     0.6730 H     1 <1>   0.0800 
 37 H       -5.8150    -8.9310     0.9050 H     1 <1>   0.0800 
 38 H       -6.1210    -7.1330     2.6250 H     1 <1>   0.4000 
 39 H       -7.1890    -8.4660    -1.5160 H     1 <1>   0.4000 
@<TRIPOS>BOND
  1   1   2  1   
  2   1   3  1   
  3   2   4  2   
  4   2   5  1   
  5   3   6  2   
  6   3  20  1   
  7   4   6  1   
  8   4  21  1   
  9   5   7  1   
 10   5  22  1   
 11   5  23  1   
 12   6  24  1   
 13   7   8  am  
 14   7  25  1   
 15   8   9  2   
 16   8  10  1   
 17  10  11  1   
 18  10  26  1   
 19  10  27  1   
 20  11  12  1   
 21  11  13  1   
 22  12  14  1   
 23  12  28  1   
 24  12  29  1   
 25  13  15  1   
 26  13  30  1   
 27  13  31  1   
 28  14  16  1   
 29  14  17  1   
 30  14  32  1   
 31  15  16  1   
 32  15  33  1   
 33  15  34  1   
 34  16  18  1   
 35  16  35  1   
 36  17  19  1   
 37  17  36  1   
 38  17  37  1   
 39  18  38  1   
 40  19  39  1   
@<TRIPOS>SUBSTRUCTURE
  1 ****  11 GROUP 4 **** **** 0

# MOE 2024.06 (io_trps.svl 2023.06)
