@<TRIPOS>MOLECULE
NONAME
44 46 1 0 0 
SMALL
USER_CHARGES


@<TRIPOS>ATOM
  1 O        3.7820    -1.4010    -2.0160 O.2   1 <1>  -0.5700 
  2 C        2.8920    -1.2720    -1.1920 C.2   1 <1>   0.7160 
  3 N        2.7600    -0.0220    -0.6390 N.am  1 <1>  -0.6600 
  4 C        2.1590    -2.4090    -0.6800 C.2   1 <1>  -0.0860 
  5 C        3.1590     0.0950     0.8040 C.3   1 <1>   0.2200 
  6 C        2.8570     1.1840    -1.5200 C.3   1 <1>   0.1400 
  7 C        0.9350    -2.5070    -0.0530 C.2   1 <1>  -0.3320 
  8 C        2.6520    -3.7270    -0.7280 C.2   1 <1>  -0.1500 
  9 C        2.6040     1.3540     1.4900 C.3   1 <1>   0.1200 
 10 C        4.7020     0.0200     0.9440 C.3   1 <1>   0.3430 
 11 C        3.8860     2.2380    -1.0640 C.3   1 <1>  -0.0800 
 12 N        0.6910    -3.7980     0.2900 N.pl3 1 <1>   0.0480 
 13 C       -0.0780    -1.4050     0.2300 C.3   1 <1>  -0.0600 
 14 C        1.7480    -4.5360    -0.1300 C.2   1 <1>  -0.3020 
 15 O        3.4670     2.4360     1.3070 O.3   1 <1>  -0.5600 
 16 N        5.4280     0.3070    -0.3480 N.4   1 <1>  -0.9590 
 17 C        3.3550     3.0990     0.0930 C.3   1 <1>   0.1200 
 18 C        5.3210     1.7290    -0.8040 C.3   1 <1>   0.3430 
 19 C       -0.5030    -4.3450     0.9580 C.3   1 <1>   0.0160 
 20 C        6.8440    -0.1510    -0.2960 C.3   1 <1>   0.2630 
 21 H        2.7390    -0.7430     1.3340 H     1 <1>   0.0800 
 22 H        3.1040     0.8750    -2.5230 H     1 <1>   0.0800 
 23 H        1.8830     1.6400    -1.5740 H     1 <1>   0.0800 
 24 H        3.5890    -4.0120    -1.1770 H     1 <1>   0.1500 
 25 H        2.5540     1.1820     2.5510 H     1 <1>   0.0800 
 26 H        1.6140     1.5990     1.1430 H     1 <1>   0.0800 
 27 H        4.9500    -0.9770     1.2680 H     1 <1>   0.0800 
 28 H        5.0290     0.7000     1.7130 H     1 <1>   0.0800 
 29 H        3.9680     2.9270    -1.8860 H     1 <1>   0.0800 
 30 H        0.1980    -0.4860    -0.2520 H     1 <1>   0.0800 
 31 H       -0.1550    -1.2330     1.2890 H     1 <1>   0.0800 
 32 H       -1.0450    -1.6900    -0.1450 H     1 <1>   0.0800 
 33 H        1.7980    -5.6020     0.0110 H     1 <1>   0.1500 
 34 H        4.9300    -0.2630    -1.0680 H     1 <1>   0.4500 
 35 H        2.3270     3.3860    -0.0590 H     1 <1>   0.0800 
 36 H        3.9410     3.9980     0.1770 H     1 <1>   0.0800 
 37 H        5.7910     2.3740    -0.0790 H     1 <1>   0.0800 
 38 H        5.8730     1.8250    -1.7250 H     1 <1>   0.0800 
 39 H       -0.3300    -5.3710     1.2220 H     1 <1>   0.0800 
 40 H       -1.3410    -4.2840     0.2880 H     1 <1>   0.0800 
 41 H       -0.7070    -3.7770     1.8470 H     1 <1>   0.0800 
 42 H        7.3910     0.4080     0.4470 H     1 <1>   0.0800 
 43 H        7.3160    -0.0110    -1.2550 H     1 <1>   0.0800 
 44 H        6.8870    -1.1980    -0.0450 H     1 <1>   0.0800 
@<TRIPOS>BOND
  1   1   2  2   
  2   2   3  am  
  3   2   4  1   
  4   3   5  1   
  5   3   6  1   
  6   4   7  2   
  7   4   8  1   
  8   5   9  1   
  9   5  10  1   
 10   5  21  1   
 11   6  11  1   
 12   6  22  1   
 13   6  23  1   
 14   7  12  1   
 15   7  13  1   
 16   8  14  2   
 17   8  24  1   
 18   9  15  1   
 19   9  25  1   
 20   9  26  1   
 21  10  16  1   
 22  10  27  1   
 23  10  28  1   
 24  11  17  1   
 25  11  18  1   
 26  11  29  1   
 27  12  14  1   
 28  12  19  1   
 29  13  30  1   
 30  13  31  1   
 31  13  32  1   
 32  14  33  1   
 33  15  17  1   
 34  16  18  1   
 35  16  20  1   
 36  16  34  1   
 37  17  35  1   
 38  17  36  1   
 39  18  37  1   
 40  18  38  1   
 41  19  39  1   
 42  19  40  1   
 43  19  41  1   
 44  20  42  1   
 45  20  43  1   
 46  20  44  1   
@<TRIPOS>SUBSTRUCTURE
  1 ****   3 GROUP 4 **** **** 0

# MOE 2024.06 (io_trps.svl 2023.06)
