@<TRIPOS>MOLECULE
NONAME
47 48 1 0 0 
SMALL
USER_CHARGES


@<TRIPOS>ATOM
  1 O        0.3090    -0.2900    -1.4390 O.2   1 <1>  -0.5700 
  2 C        1.3670    -0.8300    -1.1720 C.2   1 <1>   0.7150 
  3 N        2.4970    -0.0480    -1.0360 N.am  1 <1>  -0.6600 
  4 C        1.4210    -2.2590    -1.0130 C.2   1 <1>  -0.2370 
  5 C        2.5080     1.3750    -1.5000 C.3   1 <1>   0.1400 
  6 C        3.7360    -0.5270    -0.3580 C.3   1 <1>   0.1400 
  7 N        0.6880    -3.0030    -0.1100 N.pl3 1 <1>   0.0480 
  8 C        2.2030    -3.1290    -1.7320 C.2   1 <1>  -0.1500 
  9 C        2.7400     2.3670    -0.3530 C.3   1 <1>   0.1400 
 10 C        3.7720    -0.0090     1.0840 C.3   1 <1>  -0.1600 
 11 C        1.0390    -4.3050    -0.2800 C.2   1 <1>  -0.3020 
 12 C       -0.3210    -2.5890     0.9120 C.3   1 <1>   0.1760 
 13 C        1.9640    -4.4150    -1.2670 C.2   1 <1>  -0.1500 
 14 N        4.1540     2.3110     0.1340 N.am  1 <1>  -0.6600 
 15 C        4.4340     1.3650     1.2530 C.3   1 <1>   0.1400 
 16 C       -1.6770    -2.2890     0.2640 C.3   1 <1>  -0.2400 
 17 C        0.1670    -1.4270     1.7860 C.3   1 <1>  -0.2400 
 18 C        5.1530     3.1220    -0.3590 C.2   1 <1>   0.5690 
 19 O        6.2670     3.1090     0.1150 O.2   1 <1>  -0.5700 
 20 C        4.9200     4.0690    -1.5450 C.3   1 <1>   0.1810 
 21 O        4.0580     5.1440    -1.2540 O.3   1 <1>  -0.5600 
 22 C        4.5680     6.0550    -0.3300 C.3   1 <1>   0.0400 
 23 H        1.5710     1.6180    -1.9690 H     1 <1>   0.0800 
 24 H        3.2740     1.4970    -2.2450 H     1 <1>   0.0800 
 25 H        4.6060    -0.1980    -0.9020 H     1 <1>   0.0800 
 26 H        3.7570    -1.6010    -0.3360 H     1 <1>   0.0800 
 27 H        2.8850    -2.8740    -2.5240 H     1 <1>   0.1500 
 28 H        2.0590     2.1530     0.4530 H     1 <1>   0.0800 
 29 H        2.5100     3.3580    -0.6990 H     1 <1>   0.0800 
 30 H        4.3300    -0.7080     1.6810 H     1 <1>   0.0800 
 31 H        2.7770     0.0150     1.4880 H     1 <1>   0.0800 
 32 H        0.6130    -5.0990     0.3060 H     1 <1>   0.1500 
 33 H       -0.4610    -3.4340     1.5640 H     1 <1>   0.0800 
 34 H        2.4320    -5.3130    -1.6360 H     1 <1>   0.1500 
 35 H        5.4980     1.2130     1.3290 H     1 <1>   0.0800 
 36 H        4.1080     1.8110     2.1770 H     1 <1>   0.0800 
 37 H       -1.6270    -1.4160    -0.3570 H     1 <1>   0.0800 
 38 H       -2.4170    -2.1170     1.0250 H     1 <1>   0.0800 
 39 H       -1.9930    -3.1260    -0.3330 H     1 <1>   0.0800 
 40 H        0.2160    -0.5110     1.2260 H     1 <1>   0.0800 
 41 H        1.1340    -1.6550     2.1950 H     1 <1>   0.0800 
 42 H       -0.5180    -1.2770     2.6010 H     1 <1>   0.0800 
 43 H        4.4870     3.5190    -2.3580 H     1 <1>   0.0800 
 44 H        5.8610     4.4700    -1.8760 H     1 <1>   0.0800 
 45 H        3.8580     6.8550    -0.2210 H     1 <1>   0.0800 
 46 H        5.5030     6.4470    -0.6920 H     1 <1>   0.0800 
 47 H        4.7080     5.5660     0.6190 H     1 <1>   0.0800 
@<TRIPOS>BOND
  1   1   2  2   
  2   2   3  am  
  3   2   4  1   
  4   3   5  1   
  5   3   6  1   
  6   4   7  1   
  7   4   8  2   
  8   5   9  1   
  9   5  23  1   
 10   5  24  1   
 11   6  10  1   
 12   6  25  1   
 13   6  26  1   
 14   7  11  1   
 15   7  12  1   
 16   8  13  1   
 17   8  27  1   
 18   9  14  1   
 19   9  28  1   
 20   9  29  1   
 21  10  15  1   
 22  10  30  1   
 23  10  31  1   
 24  11  13  2   
 25  11  32  1   
 26  12  16  1   
 27  12  17  1   
 28  12  33  1   
 29  13  34  1   
 30  14  15  1   
 31  14  18  am  
 32  15  35  1   
 33  15  36  1   
 34  16  37  1   
 35  16  38  1   
 36  16  39  1   
 37  17  40  1   
 38  17  41  1   
 39  17  42  1   
 40  18  19  2   
 41  18  20  1   
 42  20  21  1   
 43  20  43  1   
 44  20  44  1   
 45  21  22  1   
 46  22  45  1   
 47  22  46  1   
 48  22  47  1   
@<TRIPOS>SUBSTRUCTURE
  1 ****   3 GROUP 4 **** **** 0

# MOE 2024.06 (io_trps.svl 2023.06)
