@<TRIPOS>MOLECULE
NONAME
54 56 1 0 0 
SMALL
USER_CHARGES


@<TRIPOS>ATOM
  1 O        0.4510     1.7260    -2.8200 O.2   1 <1>  -0.5700 
  2 C        0.4020     2.2960    -1.7440 C.2   1 <1>   0.5440 
  3 N       -0.8220     2.4050    -1.1150 N.am  1 <1>  -0.6600 
  4 C        1.6260     2.8400    -1.1910 C.ar  1 <1>   0.0860 
  5 C       -1.0290     3.2290     0.1110 C.3   1 <1>   0.1400 
  6 C       -2.0120     1.6790    -1.6440 C.3   1 <1>   0.1400 
  7 C        2.1280     2.4980     0.0750 C.ar  1 <1>   0.0830 
  8 C        2.3620     3.7570    -1.9440 C.ar  1 <1>  -0.1500 
  9 C       -2.4470     3.7980     0.1140 C.3   1 <1>  -0.1600 
 10 C       -3.0090     1.3970    -0.5180 C.3   1 <1>  -0.1600 
 11 O        1.5120     1.6110     0.8820 O.3   1 <1>  -0.3620 
 12 C        3.2840     3.0860     0.5640 C.ar  1 <1>  -0.1500 
 13 C        3.5220     4.3320    -1.4600 C.ar  1 <1>  -0.1500 
 14 C       -3.5260     2.6840     0.1670 C.3   1 <1>   0.2800 
 15 C        1.4550     0.2570     0.4870 C.3   1 <1>   0.1200 
 16 C        3.9840     4.0010    -0.1990 C.ar  1 <1>  -0.1500 
 17 O       -3.7450     2.3070     1.5010 O.3   1 <1>  -0.5600 
 18 C       -4.8670     3.1210    -0.4710 C.3   1 <1>  -0.1600 
 19 C        0.5220    -0.4760     1.4510 C.3   1 <1>  -0.1600 
 20 C       -4.4190     3.1690     2.3740 C.3   1 <1>   0.1200 
 21 C       -5.7080     4.0650     0.3910 C.3   1 <1>   0.2800 
 22 C        0.3680    -1.9510     1.0630 C.3   1 <1>  -0.2400 
 23 C       -5.7980     3.5220     1.8150 C.3   1 <1>  -0.1600 
 24 O       -5.0950     5.2930     0.4350 O.3   1 <1>  -0.6800 
 25 C       -7.0910     4.3020    -0.2100 C.3   1 <1>  -0.2400 
 26 H       -0.3170     4.0360     0.1380 H     1 <1>   0.0800 
 27 H       -0.8830     2.6150     0.9850 H     1 <1>   0.0800 
 28 H       -1.6990     0.7470    -2.0850 H     1 <1>   0.0800 
 29 H       -2.4750     2.2750    -2.4120 H     1 <1>   0.0800 
 30 H        2.0080     4.0160    -2.9270 H     1 <1>   0.1500 
 31 H       -2.5620     4.3690    -0.7910 H     1 <1>   0.0800 
 32 H       -2.5370     4.4850     0.9300 H     1 <1>   0.0800 
 33 H       -2.5050     0.7800     0.2050 H     1 <1>   0.0800 
 34 H       -3.8210     0.8150    -0.9110 H     1 <1>   0.0800 
 35 H        3.6330     2.8180     1.5460 H     1 <1>   0.1500 
 36 H        4.0680     5.0380    -2.0640 H     1 <1>   0.1500 
 37 H        2.4520    -0.1470     0.5280 H     1 <1>   0.0800 
 38 H        1.0820     0.1880    -0.5180 H     1 <1>   0.0800 
 39 H        4.8840     4.4510     0.1840 H     1 <1>   0.1500 
 40 H       -5.4610     2.2410    -0.6340 H     1 <1>   0.0800 
 41 H       -4.6970     3.5590    -1.4380 H     1 <1>   0.0800 
 42 H       -0.4450    -0.0040     1.4310 H     1 <1>   0.0800 
 43 H        0.9180    -0.4090     2.4490 H     1 <1>   0.0800 
 44 H       -3.8260     4.0490     2.5420 H     1 <1>   0.0800 
 45 H       -4.5250     2.6550     3.3130 H     1 <1>   0.0800 
 46 H       -0.0440    -2.0370     0.0730 H     1 <1>   0.0800 
 47 H       -0.2930    -2.4450     1.7530 H     1 <1>   0.0800 
 48 H        1.3220    -2.4480     1.0870 H     1 <1>   0.0800 
 49 H       -6.2840     4.2380     2.4530 H     1 <1>   0.0800 
 50 H       -6.3970     2.6280     1.8180 H     1 <1>   0.0800 
 51 H       -4.1840     5.1800     0.7570 H     1 <1>   0.4000 
 52 H       -7.6370     3.3780    -0.2670 H     1 <1>   0.0800 
 53 H       -7.0020     4.7070    -1.2020 H     1 <1>   0.0800 
 54 H       -7.6500     4.9890     0.4000 H     1 <1>   0.0800 
@<TRIPOS>BOND
  1   1   2  2   
  2   2   3  am  
  3   2   4  1   
  4   3   5  1   
  5   3   6  1   
  6   4   7  ar  
  7   4   8  ar  
  8   5   9  1   
  9   5  26  1   
 10   5  27  1   
 11   6  10  1   
 12   6  28  1   
 13   6  29  1   
 14   7  11  1   
 15   7  12  ar  
 16   8  13  ar  
 17   8  30  1   
 18   9  14  1   
 19   9  31  1   
 20   9  32  1   
 21  10  14  1   
 22  10  33  1   
 23  10  34  1   
 24  11  15  1   
 25  12  16  ar  
 26  12  35  1   
 27  13  16  ar  
 28  13  36  1   
 29  14  17  1   
 30  14  18  1   
 31  15  19  1   
 32  15  37  1   
 33  15  38  1   
 34  16  39  1   
 35  17  20  1   
 36  18  21  1   
 37  18  40  1   
 38  18  41  1   
 39  19  22  1   
 40  19  42  1   
 41  19  43  1   
 42  20  23  1   
 43  20  44  1   
 44  20  45  1   
 45  21  23  1   
 46  21  24  1   
 47  21  25  1   
 48  22  46  1   
 49  22  47  1   
 50  22  48  1   
 51  23  49  1   
 52  23  50  1   
 53  24  51  1   
 54  25  52  1   
 55  25  53  1   
 56  25  54  1   
@<TRIPOS>SUBSTRUCTURE
  1 ****   5 GROUP 4 **** **** 0

# MOE 2024.06 (io_trps.svl 2023.06)
