@<TRIPOS>MOLECULE
NONAME
57 60 1 0 0 
SMALL
USER_CHARGES


@<TRIPOS>ATOM
  1 O        0.6680    -1.3510     0.9320 O.3   1 <1>  -0.5600 
  2 C        0.3000    -2.7110     0.7790 C.3   1 <1>   0.2800 
  3 C       -0.2450    -0.3480     0.5670 C.3   1 <1>   0.1200 
  4 C       -1.1800    -2.8670     0.3180 C.3   1 <1>   0.2000 
  5 C        0.5070    -3.3650     2.1560 C.3   1 <1>  -0.1600 
  6 C        1.3180    -3.3190    -0.2140 C.3   1 <1>  -0.1600 
  7 C       -0.7770    -0.6290    -0.8400 C.3   1 <1>  -0.1600 
  8 O       -1.5040    -4.2070     0.0840 O.3   1 <1>  -0.6800 
  9 C       -1.5570    -1.9550    -0.8860 C.3   1 <1>   0.2800 
 10 C        1.9280    -3.1940     2.7050 C.3   1 <1>   0.3430 
 11 C        2.6810    -3.6460     0.4010 C.3   1 <1>   0.3430 
 12 O       -2.8950    -1.6520    -0.7390 O.3   1 <1>  -0.6800 
 13 C       -1.4390    -2.6020    -2.2740 C.3   1 <1>  -0.2400 
 14 N        2.8880    -2.8310     1.6270 N.4   1 <1>  -0.9590 
 15 C        4.2930    -2.7920     2.0970 C.3   1 <1>   0.5240 
 16 C        5.1430    -2.0810     1.0670 C.2   1 <1>  -0.1810 
 17 C        5.8480    -2.7010     0.0290 C.2   1 <1>   0.2350 
 18 C        5.3840    -0.7600     0.9290 C.2   1 <1>  -0.3020 
 19 N        6.4580    -1.8120    -0.7080 N.2   1 <1>  -0.7070 
 20 C        5.8690    -4.1230    -0.2310 C.ar  1 <1>   0.0540 
 21 N        6.1850    -0.6250    -0.1460 N.pl3 1 <1>   0.3000 
 22 C        6.2660    -5.0410     0.7380 C.ar  1 <1>  -0.1500 
 23 C        5.4540    -4.6190    -1.4640 C.ar  1 <1>  -0.1500 
 24 C        6.2000    -6.4020     0.5030 C.ar  1 <1>  -0.1500 
 25 C        5.3890    -5.9790    -1.7040 C.ar  1 <1>  -0.1500 
 26 C        5.7520    -6.8800    -0.7170 C.ar  1 <1>  -0.1440 
 27 C        5.6860    -8.3740    -0.9770 C.3   1 <1>  -0.0970 
 28 H       -1.0440    -0.3220     1.2900 H     1 <1>   0.0800 
 29 H        0.2750     0.5950     0.5920 H     1 <1>   0.0800 
 30 H       -1.7910    -2.5640     1.1520 H     1 <1>   0.0800 
 31 H       -0.1970    -2.9660     2.8630 H     1 <1>   0.0800 
 32 H        0.2980    -4.4170     2.0760 H     1 <1>   0.0800 
 33 H        0.9340    -4.2360    -0.6230 H     1 <1>   0.0800 
 34 H        1.4600    -2.6490    -1.0410 H     1 <1>   0.0800 
 35 H        0.0700    -0.6710    -1.5020 H     1 <1>   0.0800 
 36 H       -1.3940     0.1880    -1.1680 H     1 <1>   0.0800 
 37 H       -2.4480    -4.2540    -0.1780 H     1 <1>   0.4000 
 38 H        2.2340    -4.1080     3.1870 H     1 <1>   0.0800 
 39 H        1.9210    -2.4090     3.4450 H     1 <1>   0.0800 
 40 H        3.4450    -3.4360    -0.3280 H     1 <1>   0.0800 
 41 H        2.7300    -4.6940     0.6510 H     1 <1>   0.0800 
 42 H       -3.2150    -1.1660    -1.5230 H     1 <1>   0.4000 
 43 H       -0.4340    -2.9340    -2.4510 H     1 <1>   0.0800 
 44 H       -1.6940    -1.8970    -3.0450 H     1 <1>   0.0800 
 45 H       -2.0880    -3.4560    -2.3570 H     1 <1>   0.0800 
 46 H        2.6210    -1.8710     1.3410 H     1 <1>   0.4500 
 47 H        4.3500    -2.2490     3.0260 H     1 <1>   0.0800 
 48 H        4.6590    -3.7910     2.2630 H     1 <1>   0.0800 
 49 H        5.0470     0.0820     1.5080 H     1 <1>   0.1500 
 50 H        6.5610     0.2570    -0.5220 H     1 <1>   0.2700 
 51 H        6.6430    -4.6880     1.6810 H     1 <1>   0.1500 
 52 H        5.1860    -3.9240    -2.2410 H     1 <1>   0.1500 
 53 H        6.5100    -7.0940     1.2680 H     1 <1>   0.1500 
 54 H        5.0630    -6.3350    -2.6660 H     1 <1>   0.1500 
 55 H        5.4150    -8.9010    -0.0790 H     1 <1>   0.0800 
 56 H        6.6450    -8.7270    -1.3100 H     1 <1>   0.0800 
 57 H        4.9540    -8.5960    -1.7330 H     1 <1>   0.0800 
@<TRIPOS>BOND
  1   1   2  1   
  2   1   3  1   
  3   2   4  1   
  4   2   5  1   
  5   2   6  1   
  6   3   7  1   
  7   3  28  1   
  8   3  29  1   
  9   4   8  1   
 10   4   9  1   
 11   4  30  1   
 12   5  10  1   
 13   5  31  1   
 14   5  32  1   
 15   6  11  1   
 16   6  33  1   
 17   6  34  1   
 18   7   9  1   
 19   7  35  1   
 20   7  36  1   
 21   8  37  1   
 22   9  12  1   
 23   9  13  1   
 24  10  14  1   
 25  10  38  1   
 26  10  39  1   
 27  11  14  1   
 28  11  40  1   
 29  11  41  1   
 30  12  42  1   
 31  13  43  1   
 32  13  44  1   
 33  13  45  1   
 34  14  15  1   
 35  14  46  1   
 36  15  16  1   
 37  15  47  1   
 38  15  48  1   
 39  16  17  1   
 40  16  18  2   
 41  17  19  2   
 42  17  20  1   
 43  18  21  1   
 44  18  49  1   
 45  19  21  1   
 46  20  22  ar  
 47  20  23  ar  
 48  21  50  1   
 49  22  24  ar  
 50  22  51  1   
 51  23  25  ar  
 52  23  52  1   
 53  24  26  ar  
 54  24  53  1   
 55  25  26  ar  
 56  25  54  1   
 57  26  27  1   
 58  27  55  1   
 59  27  56  1   
 60  27  57  1   
@<TRIPOS>SUBSTRUCTURE
  1 ****  11 GROUP 4 **** **** 0

# MOE 2024.06 (io_trps.svl 2023.06)
