@<TRIPOS>MOLECULE
NONAME
43 45 1 0 0 
SMALL
USER_CHARGES


@<TRIPOS>ATOM
  1 F        0.2900    -0.4920     0.9720 F     1 <1>  -0.1900 
  2 C        0.2760    -1.7910     0.8230 C.ar  1 <1>   0.1900 
  3 C        1.0730    -2.4370    -0.1290 C.ar  1 <1>   0.0820 
  4 C       -0.5720    -2.4950     1.6560 C.ar  1 <1>  -0.1500 
  5 O        1.9470    -1.8550    -0.9980 O.3   1 <1>  -0.3630 
  6 C        0.9790    -3.8160    -0.2160 C.ar  1 <1>  -0.1500 
  7 C       -0.6410    -3.8720     1.5430 C.ar  1 <1>  -0.1500 
  8 C        2.2770    -0.4850    -0.9550 C.3   1 <1>   0.0400 
  9 C        0.1250    -4.5600     0.5990 C.ar  1 <1>   0.0860 
 10 C        0.0470    -6.0020     0.4680 C.2   1 <1>   0.5440 
 11 O        1.0660    -6.6650     0.4580 O.2   1 <1>  -0.5700 
 12 N       -1.1600    -6.6510     0.3410 N.am  1 <1>  -0.6600 
 13 C       -2.4130    -6.0120    -0.1360 C.3   1 <1>   0.1400 
 14 C       -1.2440    -8.1250     0.2100 C.3   1 <1>   0.1400 
 15 C       -3.2100    -7.1450    -0.7800 C.3   1 <1>   0.2000 
 16 C       -2.7080    -8.4260    -0.1160 C.3   1 <1>  -0.0800 
 17 O       -4.5720    -6.9980    -0.5670 O.3   1 <1>  -0.6800 
 18 C       -2.9010    -9.6710    -0.9950 C.3   1 <1>  -0.0170 
 19 C       -2.3960   -10.9210    -0.2910 C.ar  1 <1>  -0.1430 
 20 C       -1.1300   -11.4260    -0.5070 C.ar  1 <1>  -0.1500 
 21 C       -3.1830   -11.6130     0.6070 C.ar  1 <1>  -0.1500 
 22 C       -0.7220   -12.5640     0.1700 C.ar  1 <1>   0.1600 
 23 C       -2.6800   -12.7430     1.2300 C.ar  1 <1>   0.1600 
 24 N       -1.4670   -13.2340     1.0340 N.ar  1 <1>  -0.6200 
 25 H       -1.1660    -1.9690     2.3830 H     1 <1>   0.1500 
 26 H        1.5900    -4.3330    -0.9360 H     1 <1>   0.1500 
 27 H       -1.2910    -4.4290     2.1950 H     1 <1>   0.1500 
 28 H        3.0400    -0.3020    -1.6900 H     1 <1>   0.0800 
 29 H        2.6490    -0.2430     0.0240 H     1 <1>   0.0800 
 30 H        1.4010     0.0940    -1.1890 H     1 <1>   0.0800 
 31 H       -2.9440    -5.6030     0.7060 H     1 <1>   0.0800 
 32 H       -2.1990    -5.2390    -0.8540 H     1 <1>   0.0800 
 33 H       -0.5980    -8.4400    -0.5920 H     1 <1>   0.0800 
 34 H       -0.9350    -8.6070     1.1230 H     1 <1>   0.0800 
 35 H       -3.0310    -7.1570    -1.8420 H     1 <1>   0.0800 
 36 H       -3.2190    -8.5670     0.8200 H     1 <1>   0.0800 
 37 H       -4.7740    -7.0320     0.3880 H     1 <1>   0.4000 
 38 H       -2.3820    -9.5470    -1.9300 H     1 <1>   0.0800 
 39 H       -3.9470    -9.7890    -1.2210 H     1 <1>   0.0800 
 40 H       -0.4540   -10.9480    -1.1920 H     1 <1>   0.1500 
 41 H       -4.1830   -11.2860     0.8270 H     1 <1>   0.1500 
 42 H        0.2700   -12.9420    -0.0090 H     1 <1>   0.1500 
 43 H       -3.3090   -13.2710     1.9260 H     1 <1>   0.1500 
@<TRIPOS>BOND
  1   1   2  1   
  2   2   3  ar  
  3   2   4  ar  
  4   3   5  1   
  5   3   6  ar  
  6   4   7  ar  
  7   4  25  1   
  8   5   8  1   
  9   6   9  ar  
 10   6  26  1   
 11   7   9  ar  
 12   7  27  1   
 13   8  28  1   
 14   8  29  1   
 15   8  30  1   
 16   9  10  1   
 17  10  11  2   
 18  10  12  am  
 19  12  13  1   
 20  12  14  1   
 21  13  15  1   
 22  13  31  1   
 23  13  32  1   
 24  14  16  1   
 25  14  33  1   
 26  14  34  1   
 27  15  16  1   
 28  15  17  1   
 29  15  35  1   
 30  16  18  1   
 31  16  36  1   
 32  17  37  1   
 33  18  19  1   
 34  18  38  1   
 35  18  39  1   
 36  19  20  ar  
 37  19  21  ar  
 38  20  22  ar  
 39  20  40  1   
 40  21  23  ar  
 41  21  41  1   
 42  22  24  ar  
 43  22  42  1   
 44  23  24  ar  
 45  23  43  1   
@<TRIPOS>SUBSTRUCTURE
  1 ****  12 GROUP 4 **** **** 0

# MOE 2024.06 (io_trps.svl 2023.06)
