@<TRIPOS>MOLECULE
NONAME
53 55 1 0 0 
SMALL
USER_CHARGES


@<TRIPOS>ATOM
  1 F       -0.5490    -0.6000    -1.5320 F     1 <1>  -0.1900 
  2 C       -1.5140     0.1440    -1.0520 C.ar  1 <1>   0.1900 
  3 C       -2.8240    -0.1390    -1.3910 C.ar  1 <1>  -0.1440 
  4 C       -1.1730     1.1910    -0.2200 C.ar  1 <1>  -0.1500 
  5 C       -3.8150     0.6750    -0.8590 C.ar  1 <1>  -0.1500 
  6 C       -3.1900    -1.2920    -2.3180 C.3   1 <1>   0.2540 
  7 C       -2.1630     1.9990     0.3140 C.ar  1 <1>   0.0830 
  8 C       -3.5120     1.7320    -0.0010 C.ar  1 <1>   0.0830 
  9 N       -4.3730    -1.9910    -1.8000 N.3   1 <1>  -0.8100 
 10 O       -1.6880     2.9950     1.1200 O.3   1 <1>  -0.3630 
 11 O       -4.5240     2.4870     0.5170 O.3   1 <1>  -0.3630 
 12 C       -4.1760    -2.6900    -0.5150 C.3   1 <1>   0.1100 
 13 C       -5.1770    -2.7120    -2.7790 C.3   1 <1>   0.1100 
 14 C       -2.5200     3.9540     1.7310 C.3   1 <1>   0.0400 
 15 C       -5.7960     1.9050     0.7510 C.3   1 <1>   0.0400 
 16 C       -5.4010    -3.5540    -0.1060 C.3   1 <1>   0.4230 
 17 C       -6.5980    -2.9230    -2.2230 C.3   1 <1>  -0.1600 
 18 N       -5.5040    -3.7590     1.3790 N.4   1 <1>  -0.9590 
 19 C       -6.7080    -2.9510    -0.6620 C.3   1 <1>  -0.1060 
 20 C       -6.6130    -4.6690     1.7580 C.3   1 <1>   0.3430 
 21 C       -4.2290    -4.0700     2.0790 C.3   1 <1>   0.2630 
 22 C       -6.8800    -1.5350    -0.0580 C.2   1 <1>   0.9060 
 23 C       -7.9110    -3.8450    -0.2690 C.3   1 <1>  -0.1600 
 24 C       -7.9460    -4.1260     1.2410 C.3   1 <1>  -0.1600 
 25 O       -7.4890    -0.6570    -0.6710 O.co2 1 <1>  -0.9000 
 26 O       -6.4720    -1.3260     1.1010 O.co2 1 <1>  -0.9000 
 27 H       -0.1430     1.3800     0.0150 H     1 <1>   0.1500 
 28 H       -4.8370     0.4650    -1.1230 H     1 <1>   0.1500 
 29 H       -2.3750    -1.9870    -2.4240 H     1 <1>   0.0800 
 30 H       -3.4120    -0.8810    -3.2880 H     1 <1>   0.0800 
 31 H       -3.3060    -3.3170    -0.5800 H     1 <1>   0.0800 
 32 H       -4.0120    -1.9390     0.2390 H     1 <1>   0.0800 
 33 H       -5.2410    -2.1460    -3.6940 H     1 <1>   0.0800 
 34 H       -4.7110    -3.6580    -2.9970 H     1 <1>   0.0800 
 35 H       -1.8990     4.6380     2.2790 H     1 <1>   0.0800 
 36 H       -3.1940     3.4520     2.4030 H     1 <1>   0.0800 
 37 H       -3.0630     4.4810     0.9670 H     1 <1>   0.0800 
 38 H       -6.3790     2.5850     1.3420 H     1 <1>   0.0800 
 39 H       -5.6660     0.9810     1.2840 H     1 <1>   0.0800 
 40 H       -6.2940     1.7280    -0.1860 H     1 <1>   0.0800 
 41 H       -5.2720    -4.5170    -0.5670 H     1 <1>   0.0800 
 42 H       -7.2320    -2.1430    -2.6100 H     1 <1>   0.0800 
 43 H       -6.9670    -3.8380    -2.6470 H     1 <1>   0.0800 
 44 H       -5.8180    -2.7910     1.6680 H     1 <1>   0.4500 
 45 H       -6.4360    -5.6470     1.3430 H     1 <1>   0.0800 
 46 H       -6.6620    -4.7550     2.8310 H     1 <1>   0.0800 
 47 H       -3.8330    -5.0100     1.7350 H     1 <1>   0.0800 
 48 H       -4.3980    -4.1270     3.1410 H     1 <1>   0.0800 
 49 H       -3.5050    -3.2930     1.8940 H     1 <1>   0.0800 
 50 H       -8.8250    -3.3560    -0.5640 H     1 <1>   0.0800 
 51 H       -7.8580    -4.7860    -0.7900 H     1 <1>   0.0800 
 52 H       -8.7250    -4.8360     1.4540 H     1 <1>   0.0800 
 53 H       -8.1880    -3.2210     1.7740 H     1 <1>   0.0800 
@<TRIPOS>BOND
  1   1   2  1   
  2   2   3  ar  
  3   2   4  ar  
  4   3   5  ar  
  5   3   6  1   
  6   4   7  ar  
  7   4  27  1   
  8   5   8  ar  
  9   5  28  1   
 10   6   9  1   
 11   6  29  1   
 12   6  30  1   
 13   7   8  ar  
 14   7  10  1   
 15   8  11  1   
 16   9  12  1   
 17   9  13  1   
 18  10  14  1   
 19  11  15  1   
 20  12  16  1   
 21  12  31  1   
 22  12  32  1   
 23  13  17  1   
 24  13  33  1   
 25  13  34  1   
 26  14  35  1   
 27  14  36  1   
 28  14  37  1   
 29  15  38  1   
 30  15  39  1   
 31  15  40  1   
 32  16  18  1   
 33  16  19  1   
 34  16  41  1   
 35  17  19  1   
 36  17  42  1   
 37  17  43  1   
 38  18  20  1   
 39  18  21  1   
 40  18  44  1   
 41  19  22  1   
 42  19  23  1   
 43  20  24  1   
 44  20  45  1   
 45  20  46  1   
 46  21  47  1   
 47  21  48  1   
 48  21  49  1   
 49  22  25  ar  
 50  22  26  ar  
 51  23  24  1   
 52  23  50  1   
 53  23  51  1   
 54  24  52  1   
 55  24  53  1   
@<TRIPOS>SUBSTRUCTURE
  1 ****  12 GROUP 4 **** **** 0

# MOE 2024.06 (io_trps.svl 2023.06)
