@<TRIPOS>MOLECULE
NONAME
55 57 1 0 0 
SMALL
USER_CHARGES


@<TRIPOS>ATOM
  1 O        1.9730    -0.9350    -2.7260 O.2   1 <1>  -0.5700 
  2 C        2.3050    -1.0720    -1.5640 C.2   1 <1>   0.5440 
  3 N        2.8210     0.0190    -0.8970 N.am  1 <1>  -0.6600 
  4 C        2.2280    -2.3720    -0.9370 C.ar  1 <1>   0.0860 
  5 C        2.7940     0.1130     0.6060 C.3   1 <1>   0.2200 
  6 C        3.4960     1.0810    -1.7020 C.3   1 <1>   0.1400 
  7 C        1.1320    -2.7650    -0.1610 C.ar  1 <1>   0.0830 
  8 C        3.2810    -3.2720    -1.0950 C.ar  1 <1>  -0.1500 
  9 C        2.3090     1.4850     1.0980 C.3   1 <1>   0.1200 
 10 C        4.1580    -0.2590     1.2290 C.3   1 <1>   0.3430 
 11 C        4.4750     1.9780    -0.9220 C.3   1 <1>  -0.0800 
 12 O        0.1240    -1.8760     0.0040 O.3   1 <1>  -0.3630 
 13 C        1.1070    -4.0260     0.4300 C.ar  1 <1>  -0.1500 
 14 C        3.2560    -4.5190    -0.5030 C.ar  1 <1>  -0.1500 
 15 O        3.3670     2.3920     1.1910 O.3   1 <1>  -0.5600 
 16 N        5.2890    -0.1270     0.2660 N.4   1 <1>  -0.9590 
 17 C        3.7540     2.9790    -0.0060 C.3   1 <1>   0.1200 
 18 C        5.6270     1.2430    -0.2090 C.3   1 <1>   0.3430 
 19 C       -1.1820    -2.2840     0.3440 C.3   1 <1>   0.1200 
 20 C        2.1660    -4.8980     0.2600 C.ar  1 <1>  -0.1500 
 21 C        6.5240    -0.9170     0.6440 C.3   1 <1>   0.2370 
 22 C       -2.1070    -1.0770     0.1960 C.3   1 <1>  -0.1600 
 23 C        7.0940    -1.6440    -0.5750 C.2   1 <1>   0.9060 
 24 C       -3.5560    -1.4400     0.5430 C.3   1 <1>  -0.1600 
 25 O        8.2420    -2.0820    -0.5460 O.co2 1 <1>  -0.9000 
 26 O        6.3400    -1.7190    -1.5570 O.co2 1 <1>  -0.9000 
 27 C       -4.4770    -0.2260     0.3930 C.3   1 <1>  -0.2400 
 28 H        2.0720    -0.5880     0.9780 H     1 <1>   0.0800 
 29 H        4.0390     0.5990    -2.5010 H     1 <1>   0.0800 
 30 H        2.7360     1.6890    -2.1630 H     1 <1>   0.0800 
 31 H        4.1300    -2.9870    -1.6990 H     1 <1>   0.1500 
 32 H        1.9120     1.3790     2.0920 H     1 <1>   0.0800 
 33 H        1.5320     1.8790     0.4660 H     1 <1>   0.0800 
 34 H        4.0990    -1.2840     1.5540 H     1 <1>   0.0800 
 35 H        4.3380     0.3510     2.0980 H     1 <1>   0.0800 
 36 H        4.9470     2.5920    -1.6680 H     1 <1>   0.0800 
 37 H        0.2740    -4.3430     1.0290 H     1 <1>   0.1500 
 38 H        4.0850    -5.1940    -0.6430 H     1 <1>   0.1500 
 39 H        4.9990    -0.6310    -0.6080 H     1 <1>   0.4500 
 40 H        2.8880     3.4050    -0.4870 H     1 <1>   0.0800 
 41 H        4.4230     3.7840     0.2470 H     1 <1>   0.0800 
 42 H        5.9700     1.8380     0.6210 H     1 <1>   0.0800 
 43 H        6.4430     1.1540    -0.9090 H     1 <1>   0.0800 
 44 H       -1.4770    -3.0730    -0.3270 H     1 <1>   0.0800 
 45 H       -1.1790    -2.6380     1.3600 H     1 <1>   0.0800 
 46 H        2.1460    -5.8730     0.7170 H     1 <1>   0.1500 
 47 H        7.2840    -0.2760     1.0500 H     1 <1>   0.0800 
 48 H        6.2790    -1.6690     1.3710 H     1 <1>   0.0800 
 49 H       -1.7680    -0.2910     0.8480 H     1 <1>   0.0800 
 50 H       -2.0610    -0.7250    -0.8210 H     1 <1>   0.0800 
 51 H       -3.8990    -2.2260    -0.1090 H     1 <1>   0.0800 
 52 H       -3.6080    -1.8000     1.5570 H     1 <1>   0.0800 
 53 H       -4.4570     0.1380    -0.6190 H     1 <1>   0.0800 
 54 H       -4.1690     0.5660     1.0530 H     1 <1>   0.0800 
 55 H       -5.4890    -0.5000     0.6370 H     1 <1>   0.0800 
@<TRIPOS>BOND
  1   1   2  2   
  2   2   3  am  
  3   2   4  1   
  4   3   5  1   
  5   3   6  1   
  6   4   7  ar  
  7   4   8  ar  
  8   5   9  1   
  9   5  10  1   
 10   5  28  1   
 11   6  11  1   
 12   6  29  1   
 13   6  30  1   
 14   7  12  1   
 15   7  13  ar  
 16   8  14  ar  
 17   8  31  1   
 18   9  15  1   
 19   9  32  1   
 20   9  33  1   
 21  10  16  1   
 22  10  34  1   
 23  10  35  1   
 24  11  17  1   
 25  11  18  1   
 26  11  36  1   
 27  12  19  1   
 28  13  20  ar  
 29  13  37  1   
 30  14  20  ar  
 31  14  38  1   
 32  15  17  1   
 33  16  18  1   
 34  16  21  1   
 35  16  39  1   
 36  17  40  1   
 37  17  41  1   
 38  18  42  1   
 39  18  43  1   
 40  19  22  1   
 41  19  44  1   
 42  19  45  1   
 43  20  46  1   
 44  21  23  1   
 45  21  47  1   
 46  21  48  1   
 47  22  24  1   
 48  22  49  1   
 49  22  50  1   
 50  23  25  ar  
 51  23  26  ar  
 52  24  27  1   
 53  24  51  1   
 54  24  52  1   
 55  27  53  1   
 56  27  54  1   
 57  27  55  1   
@<TRIPOS>SUBSTRUCTURE
  1 ****   3 GROUP 4 **** **** 0

# MOE 2024.06 (io_trps.svl 2023.06)
