@<TRIPOS>MOLECULE
Untitled Document
52 55 1 0 0 
SMALL
USER_CHARGES


@<TRIPOS>ATOM
  1 CL      -2.3600     1.3670    -3.3500 Cl    1 <1>  -0.1770 
  2 C       -3.1290     1.2550    -1.7870 C.ar  1 <1>   0.1770 
  3 C       -4.1580     2.1210    -1.4790 C.ar  1 <1>  -0.1500 
  4 C       -2.6950     0.3010    -0.8860 C.ar  1 <1>  -0.1500 
  5 C       -4.7810     2.0460    -0.2400 C.ar  1 <1>   0.1000 
  6 C       -3.3110     0.2170     0.3510 C.ar  1 <1>  -0.1500 
  7 N       -5.8210     2.9260     0.0520 N.pl3 1 <1>  -0.8380 
  8 C       -4.3450     1.0820     0.6680 C.ar  1 <1>  -0.1500 
  9 C       -7.1440     2.6440    -0.5990 C.3   1 <1>   0.2090 
 10 C       -5.9210     3.5110     1.4280 C.3   1 <1>   0.2090 
 11 C       -8.2570     3.6380    -0.1540 C.3   1 <1>   0.4230 
 12 C       -6.8170     4.7790     1.4730 C.3   1 <1>   0.3430 
 13 N       -7.7020     4.9730     0.2630 N.4   1 <1>  -0.9590 
 14 C       -9.3420     3.7970    -1.2180 C.3   1 <1>  -0.2400 
 15 C       -6.9240     5.6840    -0.7970 C.3   1 <1>   0.3430 
 16 C       -7.7440     6.7340    -1.5590 C.3   1 <1>  -0.1600 
 17 C       -8.4280     7.7970    -0.6870 C.3   1 <1>   0.1400 
 18 N       -9.7990     7.3860    -0.3080 N.am  1 <1>  -0.2980 
 19 N      -10.8640     7.6140    -1.1400 N.2   1 <1>  -0.5120 
 20 C      -10.2300     6.9250     0.8900 C.2   1 <1>   0.6900 
 21 C      -11.9040     7.3120    -0.4310 C.2   1 <1>   0.4960 
 22 O       -9.4990     6.5050     1.7880 O.2   1 <1>  -0.5700 
 23 N      -11.5780     6.8790     0.8520 N.am  1 <1>  -0.2290 
 24 C      -13.2850     7.3550    -0.7870 C.2   1 <1>  -0.1360 
 25 C      -12.5620     6.4980     1.7640 C.2   1 <1>  -0.0410 
 26 C      -14.2440     6.9820     0.1000 C.2   1 <1>  -0.1500 
 27 C      -13.8690     6.5430     1.4070 C.2   1 <1>  -0.1500 
 28 H       -4.4680     2.8540    -2.1970 H     1 <1>   0.1500 
 29 H       -1.8900    -0.3610    -1.1520 H     1 <1>   0.1500 
 30 H       -2.9850    -0.5220     1.0630 H     1 <1>   0.1500 
 31 H       -4.8180     0.9970     1.6270 H     1 <1>   0.1500 
 32 H       -7.0170     2.7040    -1.6660 H     1 <1>   0.0800 
 33 H       -7.4530     1.6380    -0.3710 H     1 <1>   0.0800 
 34 H       -6.3330     2.7730     2.0950 H     1 <1>   0.0800 
 35 H       -4.9360     3.7570     1.7890 H     1 <1>   0.0800 
 36 H       -8.7320     3.2050     0.7110 H     1 <1>   0.0800 
 37 H       -6.1860     5.6430     1.5960 H     1 <1>   0.0800 
 38 H       -7.4330     4.7210     2.3560 H     1 <1>   0.0800 
 39 H       -8.4780     5.5800     0.5770 H     1 <1>   0.4500 
 40 H       -8.9240     4.0770    -2.1670 H     1 <1>   0.0800 
 41 H      -10.0730     4.5240    -0.9140 H     1 <1>   0.0800 
 42 H       -9.8480     2.8580    -1.3510 H     1 <1>   0.0800 
 43 H       -6.0920     6.1910    -0.3370 H     1 <1>   0.0800 
 44 H       -6.5090     4.9680    -1.4890 H     1 <1>   0.0800 
 45 H       -8.4620     6.2790    -2.2160 H     1 <1>   0.0800 
 46 H       -7.0480     7.2490    -2.1970 H     1 <1>   0.0800 
 47 H       -8.5110     8.7130    -1.2490 H     1 <1>   0.0800 
 48 H       -7.8500     8.0070     0.1970 H     1 <1>   0.0800 
 49 H      -13.5170     7.6950    -1.7800 H     1 <1>   0.1500 
 50 H      -12.2250     6.1790     2.7380 H     1 <1>   0.1500 
 51 H      -15.2930     7.0070    -0.1470 H     1 <1>   0.1500 
 52 H      -14.6540     6.2570     2.0870 H     1 <1>   0.1500 
@<TRIPOS>BOND
  1   1   2  1   
  2   2   3  ar  
  3   2   4  ar  
  4   3   5  ar  
  5   3  28  1   
  6   4   6  ar  
  7   4  29  1   
  8   5   7  1   
  9   5   8  ar  
 10   6   8  ar  
 11   6  30  1   
 12   7   9  1   
 13   7  10  1   
 14   8  31  1   
 15   9  11  1   
 16   9  32  1   
 17   9  33  1   
 18  10  12  1   
 19  10  34  1   
 20  10  35  1   
 21  11  13  1   
 22  11  14  1   
 23  11  36  1   
 24  12  13  1   
 25  12  37  1   
 26  12  38  1   
 27  13  15  1   
 28  13  39  1   
 29  14  40  1   
 30  14  41  1   
 31  14  42  1   
 32  15  16  1   
 33  15  43  1   
 34  15  44  1   
 35  16  17  1   
 36  16  45  1   
 37  16  46  1   
 38  17  18  1   
 39  17  47  1   
 40  17  48  1   
 41  18  19  1   
 42  18  20  am  
 43  19  21  2   
 44  20  22  2   
 45  20  23  am  
 46  21  23  1   
 47  21  24  1   
 48  23  25  1   
 49  24  26  2   
 50  24  49  1   
 51  25  27  2   
 52  25  50  1   
 53  26  27  1   
 54  26  51  1   
 55  27  52  1   
@<TRIPOS>SUBSTRUCTURE
  1 ****  13 GROUP 4 **** **** 0

# MOE 2024.06 (io_trps.svl 2023.06)
