@<TRIPOS>MOLECULE
NONAME
42 46 1 0 0 
SMALL
USER_CHARGES


@<TRIPOS>ATOM
  1 S       -0.0090    -0.4460     1.0650 S.3   1 <1>  -0.4600 
  2 C       -1.2610     0.6330     0.3010 C.3   1 <1>   0.2510 
  3 C       -0.9200    -2.0160     1.0140 C.3   1 <1>   0.2510 
  4 C       -2.4060    -0.3130     0.0260 C.2   1 <1>   0.1080 
  5 C       -2.2370    -1.6350     0.3810 C.2   1 <1>  -0.1810 
  6 N       -3.5600    -0.0750    -0.5070 N.2   1 <1>  -0.7070 
  7 C       -3.3860    -2.2570     0.0270 C.2   1 <1>  -0.0880 
  8 N       -4.1810    -1.2810    -0.5150 N.pl3 1 <1>   0.3140 
  9 N       -3.6650    -3.6330     0.2190 N.am  1 <1>  -0.4940 
 10 C       -5.5710    -1.3640    -0.9830 C.3   1 <1>   0.0160 
 11 C       -4.4160    -4.5300    -0.5020 C.2   1 <1>   0.5440 
 12 O       -5.1130    -4.1650    -1.4260 O.2   1 <1>  -0.5700 
 13 C       -4.3640    -5.9210    -0.1390 C.ar  1 <1>   0.0860 
 14 C       -5.4570    -6.5880     0.4300 C.ar  1 <1>   0.0000 
 15 C       -3.2430    -6.7170    -0.3020 C.ar  1 <1>  -0.1430 
 16 C       -5.3250    -7.9090     0.7910 C.ar  1 <1>   0.3970 
 17 C       -6.7840    -6.3040     0.8000 C.2   1 <1>   0.1080 
 18 C       -3.2420    -8.0430     0.0990 C.ar  1 <1>   0.1660 
 19 C       -1.9140    -6.3400    -0.9220 C.3   1 <1>  -0.0160 
 20 O       -6.4720    -8.2980     1.3180 O.3   1 <1>  -0.0190 
 21 N       -4.2440    -8.6820     0.6540 N.ar  1 <1>  -0.5670 
 22 N       -7.3530    -7.3240     1.3220 N.2   1 <1>  -0.4100 
 23 C       -7.4780    -4.9700     0.6100 C.3   1 <1>  -0.0590 
 24 C       -1.9150    -8.6980    -0.1860 C.3   1 <1>  -0.0170 
 25 C       -0.9960    -7.5240    -0.5720 C.3   1 <1>  -0.1600 
 26 H       -0.8530     1.0470    -0.6030 H     1 <1>   0.0800 
 27 H       -1.5300     1.3990     1.0050 H     1 <1>   0.0800 
 28 H       -1.0340    -2.3680     2.0240 H     1 <1>   0.0800 
 29 H       -0.3600    -2.7070     0.4100 H     1 <1>   0.0800 
 30 H       -3.1290    -4.0610     0.9730 H     1 <1>   0.3700 
 31 H       -6.0150    -0.3870    -0.9460 H     1 <1>   0.0800 
 32 H       -6.1210    -2.0350    -0.3520 H     1 <1>   0.0800 
 33 H       -5.5770    -1.7220    -1.9950 H     1 <1>   0.0800 
 34 H       -1.5260    -5.4170    -0.5310 H     1 <1>   0.0800 
 35 H       -2.0290    -6.2570    -1.9900 H     1 <1>   0.0800 
 36 H       -6.9180    -4.1890     1.0890 H     1 <1>   0.0800 
 37 H       -8.4630    -5.0030     1.0390 H     1 <1>   0.0800 
 38 H       -7.5670    -4.7510    -0.4390 H     1 <1>   0.0800 
 39 H       -2.0290    -9.3850    -1.0060 H     1 <1>   0.0800 
 40 H       -1.5480    -9.2230     0.6780 H     1 <1>   0.0800 
 41 H       -0.3930    -7.2610     0.2800 H     1 <1>   0.0800 
 42 H       -0.3470    -7.7810    -1.3910 H     1 <1>   0.0800 
@<TRIPOS>BOND
  1   1   2  1   
  2   1   3  1   
  3   2   4  1   
  4   2  26  1   
  5   2  27  1   
  6   3   5  1   
  7   3  28  1   
  8   3  29  1   
  9   4   5  1   
 10   4   6  2   
 11   5   7  2   
 12   6   8  1   
 13   7   8  1   
 14   7   9  1   
 15   8  10  1   
 16   9  11  am  
 17   9  30  1   
 18  10  31  1   
 19  10  32  1   
 20  10  33  1   
 21  11  12  2   
 22  11  13  1   
 23  13  14  ar  
 24  13  15  ar  
 25  14  16  ar  
 26  14  17  1   
 27  15  18  ar  
 28  15  19  1   
 29  16  20  1   
 30  16  21  ar  
 31  17  22  2   
 32  17  23  1   
 33  18  21  ar  
 34  18  24  1   
 35  19  25  1   
 36  19  34  1   
 37  19  35  1   
 38  20  22  1   
 39  23  36  1   
 40  23  37  1   
 41  23  38  1   
 42  24  25  1   
 43  24  39  1   
 44  24  40  1   
 45  25  41  1   
 46  25  42  1   
@<TRIPOS>SUBSTRUCTURE
  1 ****  11 GROUP 4 **** **** 0

# MOE 2024.06 (io_trps.svl 2023.06)
