@<TRIPOS>MOLECULE
NONAME
40 42 1 0 0 
SMALL
USER_CHARGES


@<TRIPOS>ATOM
  1 N        0.8940    -0.0820     0.7950 N.ar  1 <1>  -0.6200 
  2 C        1.9270    -0.6590     0.2530 C.ar  1 <1>   0.4100 
  3 C       -0.2620    -0.7460     0.7470 C.ar  1 <1>   0.4760 
  4 N        3.1390    -0.0130     0.3810 N.pl3 1 <1>  -0.8380 
  5 C        1.8190    -1.8990    -0.4280 C.ar  1 <1>   0.0000 
  6 N       -0.4850    -1.9010     0.2070 N.ar  1 <1>  -0.6200 
  7 C       -1.4230    -0.0460     1.4110 C.3   1 <1>  -0.0970 
  8 C        3.2230     1.4780     0.2700 C.3   1 <1>   0.2090 
  9 C        4.1970    -0.6430     1.2140 C.3   1 <1>   0.2090 
 10 C        0.5580    -2.5030    -0.3970 C.ar  1 <1>   0.3100 
 11 C        2.8550    -2.5430    -1.1350 C.ar  1 <1>  -0.1500 
 12 C        2.5780     1.9700    -1.0260 C.3   1 <1>   0.0960 
 13 C        4.0330    -0.2270     2.6740 C.3   1 <1>  -0.2400 
 14 C        0.3760    -3.7450    -1.0200 C.ar  1 <1>  -0.1500 
 15 C        2.6550    -3.7550    -1.7450 C.ar  1 <1>  -0.1500 
 16 N        2.9550     3.3700    -1.2950 N.pl3 1 <1>   0.3140 
 17 C        1.4030    -4.3680    -1.6820 C.ar  1 <1>  -0.1500 
 18 N        3.0410     4.3070    -0.3280 N.2   1 <1>  -0.7070 
 19 C        3.2570     3.8920    -2.5010 C.2   1 <1>  -0.3020 
 20 C        3.3920     5.3940    -0.9450 C.2   1 <1>   0.1390 
 21 C        3.5440     5.1970    -2.3110 C.2   1 <1>  -0.1500 
 22 H       -1.5890     0.9010     0.9340 H     1 <1>   0.0800 
 23 H       -1.1950     0.1160     2.4470 H     1 <1>   0.0800 
 24 H       -2.3150    -0.6400     1.3360 H     1 <1>   0.0800 
 25 H        4.2580     1.7750     0.2810 H     1 <1>   0.0800 
 26 H        2.7270     1.9310     1.1130 H     1 <1>   0.0800 
 27 H        5.1670    -0.3510     0.8490 H     1 <1>   0.0800 
 28 H        4.1220    -1.7150     1.1490 H     1 <1>   0.0800 
 29 H        3.8150    -2.0620    -1.1940 H     1 <1>   0.1500 
 30 H        1.5090     1.9150    -0.9480 H     1 <1>   0.0800 
 31 H        2.9110     1.3630    -1.8450 H     1 <1>   0.0800 
 32 H        4.1910     0.8290     2.7920 H     1 <1>   0.0800 
 33 H        4.7520    -0.7470     3.2800 H     1 <1>   0.0800 
 34 H        3.0470    -0.4820     3.0190 H     1 <1>   0.0800 
 35 H       -0.5990    -4.1940    -0.9650 H     1 <1>   0.1500 
 36 H        3.4540    -4.2430    -2.2770 H     1 <1>   0.1500 
 37 H        1.2540    -5.3220    -2.1580 H     1 <1>   0.1500 
 38 H        3.2490     3.3190    -3.4100 H     1 <1>   0.1500 
 39 H        3.5450     6.3350    -0.4440 H     1 <1>   0.1500 
 40 H        3.8280     5.9430    -3.0320 H     1 <1>   0.1500 
@<TRIPOS>BOND
  1   1   2  ar  
  2   1   3  ar  
  3   2   4  1   
  4   2   5  ar  
  5   3   6  ar  
  6   3   7  1   
  7   4   8  1   
  8   4   9  1   
  9   5  10  ar  
 10   5  11  ar  
 11   6  10  ar  
 12   7  22  1   
 13   7  23  1   
 14   7  24  1   
 15   8  12  1   
 16   8  25  1   
 17   8  26  1   
 18   9  13  1   
 19   9  27  1   
 20   9  28  1   
 21  10  14  ar  
 22  11  15  ar  
 23  11  29  1   
 24  12  16  1   
 25  12  30  1   
 26  12  31  1   
 27  13  32  1   
 28  13  33  1   
 29  13  34  1   
 30  14  17  ar  
 31  14  35  1   
 32  15  17  ar  
 33  15  36  1   
 34  16  18  1   
 35  16  19  1   
 36  17  37  1   
 37  18  20  2   
 38  19  21  2   
 39  19  38  1   
 40  20  21  1   
 41  20  39  1   
 42  21  40  1   
@<TRIPOS>SUBSTRUCTURE
  1 ****   2 GROUP 4 **** **** 0

# MOE 2024.06 (io_trps.svl 2023.06)
