@<TRIPOS>MOLECULE
NONAME
28 29 1 0 0 
SMALL
USER_CHARGES


@<TRIPOS>ATOM
  1 N       -0.1230    -0.6670    -0.4560 N.ar  1 <1>  -0.6200 
  2 C        0.3080    -1.9060    -0.4510 C.ar  1 <1>   0.4100 
  3 C        0.6730     0.2170     0.1110 C.ar  1 <1>   0.4760 
  4 N       -0.5300    -2.8090    -1.0280 N.pl3 1 <1>  -0.8690 
  5 C        1.5270    -2.2450     0.1010 C.ar  1 <1>  -0.1500 
  6 N        1.8500     0.0090     0.6770 N.ar  1 <1>  -0.6200 
  7 C        0.1830     1.6450     0.1110 C.3   1 <1>  -0.0970 
  8 C       -0.7660    -4.1600    -0.4900 C.3   1 <1>   0.2090 
  9 C        2.2690    -1.2410     0.6600 C.ar  1 <1>   0.1600 
 10 C       -2.2680    -4.4230    -0.4560 C.3   1 <1>  -0.1600 
 11 C       -2.5740    -5.8210     0.1010 C.3   1 <1>   0.0080 
 12 C       -4.0590    -6.0910     0.1250 C.2   1 <1>   0.5700 
 13 N       -4.7110    -6.5240    -0.8920 N.2   1 <1>  -0.6190 
 14 N       -4.7950    -5.9110     1.1660 N.2   1 <1>  -0.6190 
 15 N       -5.9280    -6.6280    -0.4840 N.2   1 <1>  -0.2500 
 16 N       -5.9790    -6.2550     0.7650 N.2   1 <1>  -0.2500 
 17 H       -1.3820    -2.3620    -1.3810 H     1 <1>   0.4000 
 18 H        1.8710    -3.2580     0.0810 H     1 <1>   0.1500 
 19 H       -0.8900     1.6680     0.1220 H     1 <1>   0.0800 
 20 H        0.5390     2.1400    -0.7730 H     1 <1>   0.0800 
 21 H        0.5520     2.1620     0.9780 H     1 <1>   0.0800 
 22 H       -0.3610    -4.2370     0.5060 H     1 <1>   0.0800 
 23 H       -0.2790    -4.8820    -1.1230 H     1 <1>   0.0800 
 24 H        3.2270    -1.4530     1.1030 H     1 <1>   0.1500 
 25 H       -2.6740    -4.3520    -1.4500 H     1 <1>   0.0800 
 26 H       -2.7530    -3.6900     0.1660 H     1 <1>   0.0800 
 27 H       -2.2020    -5.9130     1.1050 H     1 <1>   0.0800 
 28 H       -2.1110    -6.5750    -0.5070 H     1 <1>   0.0800 
@<TRIPOS>BOND
  1   1   2  ar  
  2   1   3  ar  
  3   2   4  1   
  4   2   5  ar  
  5   3   6  ar  
  6   3   7  1   
  7   4   8  1   
  8   4  17  1   
  9   5   9  ar  
 10   5  18  1   
 11   6   9  ar  
 12   7  19  1   
 13   7  20  1   
 14   7  21  1   
 15   8  10  1   
 16   8  22  1   
 17   8  23  1   
 18   9  24  1   
 19  10  11  1   
 20  10  25  1   
 21  10  26  1   
 22  11  12  1   
 23  11  27  1   
 24  11  28  1   
 25  12  13  1   
 26  12  14  2   
 27  13  15  1   
 28  14  16  1   
 29  15  16  2   
@<TRIPOS>SUBSTRUCTURE
  1 ****   8 GROUP 4 **** **** 0

# MOE 2024.06 (io_trps.svl 2023.06)
