@<TRIPOS>MOLECULE
NONAME
43 45 1 0 0 
SMALL
USER_CHARGES


@<TRIPOS>ATOM
  1 O        0.2030    -0.0470    -0.5800 O.3   1 <1>  -0.5600 
  2 C        1.4240    -0.6770    -0.8710 C.3   1 <1>   0.2000 
  3 C        0.1820     1.3040    -0.9420 C.3   1 <1>   0.1200 
  4 C        2.5740     0.0270    -0.0970 C.3   1 <1>   0.3340 
  5 C        1.2640    -2.1650    -0.5170 C.3   1 <1>   0.1200 
  6 C        1.2780     2.0790    -0.1920 C.3   1 <1>   0.1100 
  7 N        2.6140     1.4800    -0.4030 N.3   1 <1>  -0.8100 
  8 C        3.9220    -0.6230    -0.4130 C.ar  1 <1>  -0.1440 
  9 O        2.2670    -2.9370    -1.0990 O.3   1 <1>  -0.6800 
 10 C        3.6510     2.1730     0.3960 C.3   1 <1>   0.2900 
 11 C        4.5690    -1.3910     0.5450 C.ar  1 <1>  -0.1500 
 12 C        4.5050    -0.4680    -1.6620 C.ar  1 <1>  -0.1500 
 13 C        3.7480     3.6550     0.0630 C.2   1 <1>  -0.0400 
 14 C        5.7780    -1.9990     0.2550 C.ar  1 <1>  -0.1500 
 15 C        5.7130    -1.0750    -1.9540 C.ar  1 <1>  -0.1500 
 16 O        3.0140     4.5260     0.7330 O.3   1 <1>  -0.2800 
 17 C        4.5120     4.2900    -0.8510 C.2   1 <1>  -0.1500 
 18 C        6.3500    -1.8430    -0.9950 C.ar  1 <1>  -0.1500 
 19 C        3.2870     5.7290     0.2660 C.2   1 <1>  -0.0400 
 20 C        4.2080     5.6500    -0.7200 C.2   1 <1>  -0.1500 
 21 C        2.5670     6.9190     0.8780 C.3   1 <1>   0.3000 
 22 O        3.1670     8.0950     0.4560 O.3   1 <1>  -0.6800 
 23 H        1.5870    -0.5930    -1.9310 H     1 <1>   0.0800 
 24 H        0.3260     1.3810    -2.0060 H     1 <1>   0.0800 
 25 H       -0.7880     1.6970    -0.6940 H     1 <1>   0.0800 
 26 H        2.3730    -0.0950     0.9530 H     1 <1>   0.0800 
 27 H        0.3240    -2.5310    -0.8930 H     1 <1>   0.0800 
 28 H        1.3020    -2.3090     0.5490 H     1 <1>   0.0800 
 29 H        1.0410     2.0980     0.8580 H     1 <1>   0.0800 
 30 H        1.2760     3.0930    -0.5530 H     1 <1>   0.0800 
 31 H        3.1540    -2.5460    -0.9290 H     1 <1>   0.4000 
 32 H        3.4520     2.0580     1.4470 H     1 <1>   0.0800 
 33 H        4.6120     1.7360     0.1880 H     1 <1>   0.0800 
 34 H        4.1380    -1.5240     1.5220 H     1 <1>   0.1500 
 35 H        4.0150     0.1340    -2.4100 H     1 <1>   0.1500 
 36 H        6.2750    -2.5950     1.0010 H     1 <1>   0.1500 
 37 H        6.1570    -0.9500    -2.9260 H     1 <1>   0.1500 
 38 H        5.2110     3.8670    -1.5490 H     1 <1>   0.1500 
 39 H        7.2890    -2.3170    -1.2220 H     1 <1>   0.1500 
 40 H        4.6360     6.4430    -1.3080 H     1 <1>   0.1500 
 41 H        2.6280     6.8780     1.9520 H     1 <1>   0.0800 
 42 H        1.5350     6.9350     0.5770 H     1 <1>   0.0800 
 43 H        4.1280     8.0320     0.6120 H     1 <1>   0.4000 
@<TRIPOS>BOND
  1   1   2  1   
  2   1   3  1   
  3   2   4  1   
  4   2   5  1   
  5   2  23  1   
  6   3   6  1   
  7   3  24  1   
  8   3  25  1   
  9   4   7  1   
 10   4   8  1   
 11   4  26  1   
 12   5   9  1   
 13   5  27  1   
 14   5  28  1   
 15   6   7  1   
 16   6  29  1   
 17   6  30  1   
 18   7  10  1   
 19   8  11  ar  
 20   8  12  ar  
 21   9  31  1   
 22  10  13  1   
 23  10  32  1   
 24  10  33  1   
 25  11  14  ar  
 26  11  34  1   
 27  12  15  ar  
 28  12  35  1   
 29  13  16  1   
 30  13  17  2   
 31  14  18  ar  
 32  14  36  1   
 33  15  18  ar  
 34  15  37  1   
 35  16  19  1   
 36  17  20  1   
 37  17  38  1   
 38  18  39  1   
 39  19  20  2   
 40  19  21  1   
 41  20  40  1   
 42  21  22  1   
 43  21  41  1   
 44  21  42  1   
 45  22  43  1   
@<TRIPOS>SUBSTRUCTURE
  1 ****   7 GROUP 4 **** **** 0

# MOE 2024.06 (io_trps.svl 2023.06)
