@<TRIPOS>MOLECULE
NONAME
47 50 1 0 0 
SMALL
USER_CHARGES


@<TRIPOS>ATOM
  1 CL      -1.3200     0.1110     0.2750 Cl    1 <1>  -0.1770 
  2 C       -1.3910    -1.6250     0.4670 C.ar  1 <1>   0.1770 
  3 C       -0.4040    -2.4390    -0.0640 C.ar  1 <1>   0.1770 
  4 C       -2.4530    -2.1740     1.1590 C.ar  1 <1>  -0.1500 
  5 CL       0.9460    -1.7560    -0.9430 Cl    1 <1>  -0.1770 
  6 C       -0.4730    -3.8120     0.0950 C.ar  1 <1>  -0.1500 
  7 C       -2.5380    -3.5500     1.3170 C.ar  1 <1>   0.0820 
  8 C       -1.5390    -4.3670     0.7860 C.ar  1 <1>  -0.1500 
  9 O       -3.6190    -4.0100     1.9960 O.3   1 <1>  -0.3630 
 10 C       -3.7520    -5.3740     2.3880 C.3   1 <1>   0.1810 
 11 C       -4.1710    -6.2940     1.2390 C.2   1 <1>   0.5690 
 12 O       -3.3800    -7.1530     0.9190 O.2   1 <1>  -0.5700 
 13 N       -5.3960    -6.1830     0.6220 N.am  1 <1>  -0.6600 
 14 C       -6.4330    -5.1500     0.9500 C.3   1 <1>   0.1400 
 15 C       -5.8200    -7.1440    -0.4370 C.3   1 <1>   0.1400 
 16 C       -6.8520    -4.3570    -0.3050 C.3   1 <1>   0.1430 
 17 C       -6.2300    -6.3880    -1.7070 C.3   1 <1>  -0.1600 
 18 C       -7.9440    -3.3800     0.0910 C.ar  1 <1>   0.1670 
 19 C       -7.3070    -5.3300    -1.4140 C.3   1 <1>  -0.1600 
 20 C       -5.7220    -3.4120    -0.7930 C.3   1 <1>  -0.1600 
 21 N       -9.1870    -3.6960     0.3680 N.ar  1 <1>  -0.6200 
 22 C       -7.4730    -2.1010     0.1490 C.ar  1 <1>  -0.1440 
 23 C       -6.0060    -2.0260    -0.1900 C.3   1 <1>  -0.0170 
 24 C       -9.9440    -2.6610     0.7020 C.ar  1 <1>   0.7200 
 25 C       -8.3560    -1.1080     0.4990 C.ar  1 <1>   0.1600 
 26 N       -9.6120    -1.3800     0.7760 N.ar  1 <1>  -0.6200 
 27 N      -11.2180    -2.9430     0.9770 N.pl3 1 <1>  -0.9000 
 28 H       -3.2090    -1.5360     1.5760 H     1 <1>   0.1500 
 29 H        0.2990    -4.4370    -0.3190 H     1 <1>   0.1500 
 30 H       -1.5670    -5.4360     0.8920 H     1 <1>   0.1500 
 31 H       -4.4990    -5.4160     3.1570 H     1 <1>   0.0800 
 32 H       -2.8190    -5.7010     2.8090 H     1 <1>   0.0800 
 33 H       -6.0820    -4.4650     1.6990 H     1 <1>   0.0800 
 34 H       -7.2990    -5.6490     1.3500 H     1 <1>   0.0800 
 35 H       -6.6540    -7.7180    -0.0720 H     1 <1>   0.0800 
 36 H       -5.0240    -7.8310    -0.6730 H     1 <1>   0.0800 
 37 H       -6.6060    -7.0920    -2.4280 H     1 <1>   0.0800 
 38 H       -5.3570    -5.9240    -2.1320 H     1 <1>   0.0800 
 39 H       -7.5480    -4.7860    -2.3100 H     1 <1>   0.0800 
 40 H       -8.2040    -5.8300    -1.0910 H     1 <1>   0.0800 
 41 H       -5.7690    -3.3220    -1.8640 H     1 <1>   0.0800 
 42 H       -4.7420    -3.7700    -0.5340 H     1 <1>   0.0800 
 43 H       -5.7930    -1.2370    -0.8900 H     1 <1>   0.0800 
 44 H       -5.4380    -1.8820     0.7120 H     1 <1>   0.0800 
 45 H       -8.0310    -0.0830     0.5540 H     1 <1>   0.1500 
 46 H      -11.8530    -2.1520     0.9270 H     1 <1>   0.4000 
 47 H      -11.5550    -3.8270     0.6090 H     1 <1>   0.4000 
@<TRIPOS>BOND
  1   1   2  1   
  2   2   3  ar  
  3   2   4  ar  
  4   3   5  1   
  5   3   6  ar  
  6   4   7  ar  
  7   4  28  1   
  8   6   8  ar  
  9   6  29  1   
 10   7   8  ar  
 11   7   9  1   
 12   8  30  1   
 13   9  10  1   
 14  10  11  1   
 15  10  31  1   
 16  10  32  1   
 17  11  12  2   
 18  11  13  am  
 19  13  14  1   
 20  13  15  1   
 21  14  16  1   
 22  14  33  1   
 23  14  34  1   
 24  15  17  1   
 25  15  35  1   
 26  15  36  1   
 27  16  18  1   
 28  16  19  1   
 29  16  20  1   
 30  17  19  1   
 31  17  37  1   
 32  17  38  1   
 33  18  21  ar  
 34  18  22  ar  
 35  19  39  1   
 36  19  40  1   
 37  20  23  1   
 38  20  41  1   
 39  20  42  1   
 40  21  24  ar  
 41  22  23  1   
 42  22  25  ar  
 43  23  43  1   
 44  23  44  1   
 45  24  26  ar  
 46  24  27  1   
 47  25  26  ar  
 48  25  45  1   
 49  27  46  1   
 50  27  47  1   
@<TRIPOS>SUBSTRUCTURE
  1 ****  20 GROUP 4 **** **** 0

# MOE 2024.06 (io_trps.svl 2023.06)
