@<TRIPOS>MOLECULE
NONAME
51 53 1 0 0 
SMALL
USER_CHARGES


@<TRIPOS>ATOM
  1 O       -2.0250     0.1670     2.8400 O.3   1 <1>  -0.3630 
  2 C       -1.4160     0.5870     1.7010 C.ar  1 <1>   0.0830 
  3 C       -3.4390     0.1960     2.9070 C.3   1 <1>   0.1200 
  4 C       -0.6350    -0.3060     0.9680 C.ar  1 <1>   0.0820 
  5 C       -1.5630     1.8960     1.2700 C.ar  1 <1>  -0.1500 
  6 C       -4.0010    -1.1980     2.5770 C.3   1 <1>   0.3430 
  7 O       -0.5380    -1.5900     1.4060 O.3   1 <1>  -0.3630 
  8 C       -0.0200     0.1190    -0.2020 C.ar  1 <1>  -0.1500 
  9 C       -0.9500     2.3080     0.0990 C.ar  1 <1>  -0.1500 
 10 N       -3.4240    -1.7500     1.3140 N.4   1 <1>  -0.9590 
 11 C        0.6860    -2.2790     1.2550 C.3   1 <1>   0.0400 
 12 C       -0.1810     1.4240    -0.6410 C.ar  1 <1>  -0.1430 
 13 C       -3.8000    -1.0070     0.0680 C.3   1 <1>   0.3430 
 14 C       -3.6830    -3.1970     1.0850 C.3   1 <1>   0.3430 
 15 C        0.4950     1.8930    -1.9180 C.3   1 <1>  -0.0970 
 16 C       -4.2790    -2.0600    -0.9380 C.3   1 <1>   0.2000 
 17 C       -3.6980    -3.3810    -0.4370 C.3   1 <1>  -0.0800 
 18 O       -5.6660    -2.1370    -0.9000 O.3   1 <1>  -0.6800 
 19 C       -2.2910    -3.6190    -1.0280 C.3   1 <1>  -0.0170 
 20 C       -1.6890    -4.9430    -0.5790 C.ar  1 <1>   0.1670 
 21 N       -1.2150    -4.9850     0.6550 N.ar  1 <1>  -0.6200 
 22 C       -1.6550    -6.0280    -1.4550 C.ar  1 <1>   0.1600 
 23 C       -0.7030    -6.1710     0.9520 C.ar  1 <1>   0.1600 
 24 N       -1.1510    -7.2120    -1.1560 N.ar  1 <1>  -0.6200 
 25 C       -0.6740    -7.2480     0.0750 C.ar  1 <1>   0.1600 
 26 H       -3.7100     0.4720     3.9110 H     1 <1>   0.0800 
 27 H       -3.8220     0.9410     2.2330 H     1 <1>   0.0800 
 28 H       -2.1390     2.5960     1.8480 H     1 <1>   0.1500 
 29 H       -5.0740    -1.1450     2.5020 H     1 <1>   0.0800 
 30 H       -3.7580    -1.8560     3.3960 H     1 <1>   0.0800 
 31 H        0.5830    -0.5560    -0.7800 H     1 <1>   0.1500 
 32 H       -1.0650     3.3280    -0.2290 H     1 <1>   0.1500 
 33 H       -2.3890    -1.6490     1.4240 H     1 <1>   0.4500 
 34 H        0.6530    -3.1600     1.8710 H     1 <1>   0.0800 
 35 H        1.4920    -1.6410     1.5750 H     1 <1>   0.0800 
 36 H        0.8100    -2.5660     0.2270 H     1 <1>   0.0800 
 37 H       -4.5760    -0.2820     0.2470 H     1 <1>   0.0800 
 38 H       -2.9300    -0.5040    -0.3220 H     1 <1>   0.0800 
 39 H       -2.9410    -3.8080     1.5700 H     1 <1>   0.0800 
 40 H       -4.6520    -3.4550     1.4790 H     1 <1>   0.0800 
 41 H       -0.1080     2.6330    -2.4140 H     1 <1>   0.0800 
 42 H        0.6460     1.0710    -2.5940 H     1 <1>   0.0800 
 43 H        1.4510     2.3270    -1.6840 H     1 <1>   0.0800 
 44 H       -3.9940    -1.8130    -1.9470 H     1 <1>   0.0800 
 45 H       -4.3240    -4.2120    -0.7140 H     1 <1>   0.0800 
 46 H       -6.0050    -2.5320    -0.0750 H     1 <1>   0.4000 
 47 H       -1.6220    -2.8260    -0.7500 H     1 <1>   0.0800 
 48 H       -2.3570    -3.6150    -2.1030 H     1 <1>   0.0800 
 49 H       -2.0600    -5.9170    -2.4450 H     1 <1>   0.1500 
 50 H       -0.2870    -6.3000     1.9360 H     1 <1>   0.1500 
 51 H       -0.2380    -8.1750     0.4070 H     1 <1>   0.1500 
@<TRIPOS>BOND
  1   1   2  1   
  2   1   3  1   
  3   2   4  ar  
  4   2   5  ar  
  5   3   6  1   
  6   3  26  1   
  7   3  27  1   
  8   4   7  1   
  9   4   8  ar  
 10   5   9  ar  
 11   5  28  1   
 12   6  10  1   
 13   6  29  1   
 14   6  30  1   
 15   7  11  1   
 16   8  12  ar  
 17   8  31  1   
 18   9  12  ar  
 19   9  32  1   
 20  10  13  1   
 21  10  14  1   
 22  10  33  1   
 23  11  34  1   
 24  11  35  1   
 25  11  36  1   
 26  12  15  1   
 27  13  16  1   
 28  13  37  1   
 29  13  38  1   
 30  14  17  1   
 31  14  39  1   
 32  14  40  1   
 33  15  41  1   
 34  15  42  1   
 35  15  43  1   
 36  16  17  1   
 37  16  18  1   
 38  16  44  1   
 39  17  19  1   
 40  17  45  1   
 41  18  46  1   
 42  19  20  1   
 43  19  47  1   
 44  19  48  1   
 45  20  21  ar  
 46  20  22  ar  
 47  21  23  ar  
 48  22  24  ar  
 49  22  49  1   
 50  23  25  ar  
 51  23  50  1   
 52  24  25  ar  
 53  25  51  1   
@<TRIPOS>SUBSTRUCTURE
  1 ****   7 GROUP 4 **** **** 0

# MOE 2024.06 (io_trps.svl 2023.06)
