@<TRIPOS>MOLECULE
NONAME
52 55 1 0 0 
SMALL
USER_CHARGES


@<TRIPOS>ATOM
  1 O       -0.5680     1.4520    -1.0940 O.2   1 <1>  -0.5700 
  2 C       -1.5670     1.6790    -0.4350 C.2   1 <1>   0.5440 
  3 N       -2.2580     0.6290     0.1120 N.am  1 <1>  -0.6600 
  4 C       -1.9860     3.0570    -0.2530 C.ar  1 <1>   0.0860 
  5 C       -3.3970     0.7090     1.0730 C.3   1 <1>   0.2350 
  6 C       -2.2120    -0.7480    -0.4560 C.3   1 <1>   0.2350 
  7 C       -1.1070     4.0080     0.2590 C.ar  1 <1>  -0.1500 
  8 C       -3.2650     3.4860    -0.6080 C.ar  1 <1>  -0.1500 
  9 C       -4.3860    -0.3360     0.5940 C.3   1 <1>  -0.2420 
 10 C       -3.6400    -1.2630    -0.3360 C.3   1 <1>  -0.2420 
 11 C       -1.4810     5.3310     0.4230 C.ar  1 <1>   0.0830 
 12 C       -3.6560     4.8020    -0.4420 C.ar  1 <1>  -0.1500 
 13 C       -5.4550    -0.5750     1.6610 C.2   1 <1>   0.9470 
 14 C       -4.7900    -0.4380    -0.8570 C.3   1 <1>  -0.2000 
 15 C       -3.6860    -2.7860    -0.4850 C.2   1 <1>   0.9470 
 16 O       -0.5430     6.1740     0.9190 O.3   1 <1>  -0.3630 
 17 C       -2.7680     5.7290     0.0740 C.ar  1 <1>  -0.1500 
 18 O       -6.6430    -0.3490     1.3910 O.co2 1 <1>  -0.9000 
 19 O       -5.0990    -0.8130     2.8240 O.co2 1 <1>  -0.9000 
 20 O       -2.9010    -3.4760     0.1790 O.co2 1 <1>  -0.9000 
 21 O       -4.3900    -3.2920    -1.3700 O.co2 1 <1>  -0.9000 
 22 C       -0.7430     7.5810     0.9150 C.3   1 <1>   0.1810 
 23 C        0.5040     8.3310     1.3790 C.2   1 <1>   0.5690 
 24 O        0.3900     9.0040     2.3790 O.2   1 <1>  -0.5700 
 25 N        1.6870     8.2770     0.6770 N.am  1 <1>  -0.6600 
 26 C        2.8940     9.0180     1.1400 C.3   1 <1>   0.1400 
 27 C        1.9170     7.4500    -0.5430 C.3   1 <1>   0.1400 
 28 C        3.4110     9.9210     0.0140 C.3   1 <1>  -0.1600 
 29 C        2.4250     8.3380    -1.6830 C.3   1 <1>  -0.1600 
 30 C        3.6760     9.1270    -1.2720 C.3   1 <1>  -0.1600 
 31 H       -3.0450     0.4460     2.0560 H     1 <1>   0.0800 
 32 H       -3.8540     1.6790     1.1090 H     1 <1>   0.0800 
 33 H       -1.8890    -0.7430    -1.4820 H     1 <1>   0.0800 
 34 H       -1.5440    -1.3540     0.1320 H     1 <1>   0.0800 
 35 H       -0.1130     3.7030     0.5290 H     1 <1>   0.1500 
 36 H       -3.9570     2.7670    -1.0150 H     1 <1>   0.1500 
 37 H       -4.6540     5.0990    -0.7140 H     1 <1>   0.1500 
 38 H       -4.5920     0.3720    -1.5320 H     1 <1>   0.1000 
 39 H       -5.7090    -0.9520    -1.0870 H     1 <1>   0.1000 
 40 H       -3.0980     6.7430     0.1990 H     1 <1>   0.1500 
 41 H       -0.9930     7.8900    -0.0820 H     1 <1>   0.0800 
 42 H       -1.5570     7.8030     1.5810 H     1 <1>   0.0800 
 43 H        2.6670     9.6180     2.0050 H     1 <1>   0.0800 
 44 H        3.6540     8.3080     1.4190 H     1 <1>   0.0800 
 45 H        2.6500     6.6940    -0.3160 H     1 <1>   0.0800 
 46 H        1.0190     6.9510    -0.8580 H     1 <1>   0.0800 
 47 H        2.6810    10.6890    -0.1740 H     1 <1>   0.0800 
 48 H        4.3170    10.4040     0.3360 H     1 <1>   0.0800 
 49 H        2.6510     7.7240    -2.5370 H     1 <1>   0.0800 
 50 H        1.6430     9.0210    -1.9670 H     1 <1>   0.0800 
 51 H        4.4920     8.4430    -1.1080 H     1 <1>   0.0800 
 52 H        3.9600     9.8000    -2.0640 H     1 <1>   0.0800 
@<TRIPOS>BOND
  1   1   2  2   
  2   2   3  am  
  3   2   4  1   
  4   3   5  1   
  5   3   6  1   
  6   4   7  ar  
  7   4   8  ar  
  8   5   9  1   
  9   5  31  1   
 10   5  32  1   
 11   6  10  1   
 12   6  33  1   
 13   6  34  1   
 14   7  11  ar  
 15   7  35  1   
 16   8  12  ar  
 17   8  36  1   
 18   9  10  1   
 19   9  13  1   
 20   9  14  1   
 21  10  14  1   
 22  10  15  1   
 23  11  16  1   
 24  11  17  ar  
 25  12  17  ar  
 26  12  37  1   
 27  13  18  ar  
 28  13  19  ar  
 29  14  38  1   
 30  14  39  1   
 31  15  20  ar  
 32  15  21  ar  
 33  16  22  1   
 34  17  40  1   
 35  22  23  1   
 36  22  41  1   
 37  22  42  1   
 38  23  24  2   
 39  23  25  am  
 40  25  26  1   
 41  25  27  1   
 42  26  28  1   
 43  26  43  1   
 44  26  44  1   
 45  27  29  1   
 46  27  45  1   
 47  27  46  1   
 48  28  30  1   
 49  28  47  1   
 50  28  48  1   
 51  29  30  1   
 52  29  49  1   
 53  29  50  1   
 54  30  51  1   
 55  30  52  1   
@<TRIPOS>SUBSTRUCTURE
  1 ****   4 GROUP 4 **** **** 0

# MOE 2024.06 (io_trps.svl 2023.06)
