@<TRIPOS>MOLECULE
NONAME
48 52 1 0 0 
SMALL
USER_CHARGES


@<TRIPOS>ATOM
  1 O       -0.1800    -0.3230     1.6780 O.2   1 <1>  -0.5700 
  2 C       -0.4680     0.8460     1.4810 C.2   1 <1>   0.7160 
  3 N       -1.7440     1.1440     1.0290 N.am  1 <1>  -0.6600 
  4 C        0.5110     1.8380     1.8190 C.2   1 <1>  -0.0860 
  5 C       -2.3010     2.5360     0.9950 C.3   1 <1>   0.1400 
  6 C       -2.7690     0.0660     0.8820 C.3   1 <1>   0.1400 
  7 C        1.0620     2.8880     1.1270 C.2   1 <1>  -0.0260 
  8 C        1.1720     1.8690     3.0450 C.2   1 <1>   0.1390 
  9 C       -3.1670     2.7850    -0.2580 C.3   1 <1>   0.1440 
 10 C       -3.6310     0.2920    -0.3640 C.3   1 <1>  -0.1600 
 11 N        0.8470     3.3400    -0.1560 N.2   1 <1>  -0.5760 
 12 N        1.9760     3.4650     1.9740 N.pl3 1 <1>   0.6010 
 13 N        2.0350     2.8330     3.1590 N.2   1 <1>  -0.7070 
 14 C       -3.7700     4.1760    -0.1650 C.ar  1 <1>   0.1660 
 15 C       -4.2530     1.6970    -0.3720 C.3   1 <1>  -0.1600 
 16 C       -2.3100     2.8720    -1.5500 C.3   1 <1>  -0.1600 
 17 C        1.5670     4.3470    -0.5400 C.2   1 <1>   0.3760 
 18 C        2.7240     4.5390     1.5500 C.2   1 <1>  -0.1810 
 19 N       -4.7160     4.5410     0.6690 N.ar  1 <1>  -0.6200 
 20 C       -3.2000     5.0330    -1.0590 C.ar  1 <1>  -0.1440 
 21 C       -2.1270     4.3640    -1.8790 C.3   1 <1>  -0.0170 
 22 C        2.5310     4.9970     0.2850 C.2   1 <1>  -0.1240 
 23 C       -5.0670     5.8140     0.5620 C.ar  1 <1>   0.7200 
 24 C       -3.6530     6.3300    -1.0830 C.ar  1 <1>   0.1600 
 25 C        3.3110     6.1760    -0.2720 C.3   1 <1>  -0.1020 
 26 N       -4.6030     6.7350    -0.2700 N.ar  1 <1>  -0.6200 
 27 N       -6.0360     6.2170     1.3840 N.pl3 1 <1>  -0.9000 
 28 H       -1.5180     3.2690     1.0310 H     1 <1>   0.0800 
 29 H       -2.9130     2.6780     1.8700 H     1 <1>   0.0800 
 30 H       -3.3940     0.0630     1.7590 H     1 <1>   0.0800 
 31 H       -2.3000    -0.9000     0.8070 H     1 <1>   0.0800 
 32 H        0.9850     1.1540     3.8300 H     1 <1>   0.1500 
 33 H       -4.4130    -0.4460    -0.3870 H     1 <1>   0.0800 
 34 H       -3.0220     0.1460    -1.2390 H     1 <1>   0.0800 
 35 H       -4.8320     1.8430    -1.2670 H     1 <1>   0.0800 
 36 H       -4.9260     1.7840     0.4650 H     1 <1>   0.0800 
 37 H       -2.8380     2.4150    -2.3680 H     1 <1>   0.0800 
 38 H       -1.3640     2.3700    -1.4440 H     1 <1>   0.0800 
 39 H        1.4340     4.7230    -1.5390 H     1 <1>   0.0600 
 40 H        3.4190     4.9420     2.2610 H     1 <1>   0.1500 
 41 H       -2.2540     4.5540    -2.9310 H     1 <1>   0.0800 
 42 H       -1.1620     4.7090    -1.5580 H     1 <1>   0.0800 
 43 H       -3.2340     7.0400    -1.7740 H     1 <1>   0.1500 
 44 H        2.6370     6.9680    -0.5490 H     1 <1>   0.0800 
 45 H        3.8690     5.8740    -1.1410 H     1 <1>   0.0800 
 46 H        4.0010     6.5570     0.4600 H     1 <1>   0.0800 
 47 H       -6.5090     7.0710     1.1020 H     1 <1>   0.4000 
 48 H       -6.6160     5.4760     1.7660 H     1 <1>   0.4000 
@<TRIPOS>BOND
  1   1   2  2   
  2   2   3  am  
  3   2   4  1   
  4   3   5  1   
  5   3   6  1   
  6   4   7  2   
  7   4   8  1   
  8   5   9  1   
  9   5  28  1   
 10   5  29  1   
 11   6  10  1   
 12   6  30  1   
 13   6  31  1   
 14   7  11  1   
 15   7  12  1   
 16   8  13  2   
 17   8  32  1   
 18   9  14  1   
 19   9  15  1   
 20   9  16  1   
 21  10  15  1   
 22  10  33  1   
 23  10  34  1   
 24  11  17  2   
 25  12  13  1   
 26  12  18  1   
 27  14  19  ar  
 28  14  20  ar  
 29  15  35  1   
 30  15  36  1   
 31  16  21  1   
 32  16  37  1   
 33  16  38  1   
 34  17  22  1   
 35  17  39  1   
 36  18  22  2   
 37  18  40  1   
 38  19  23  ar  
 39  20  21  1   
 40  20  24  ar  
 41  21  41  1   
 42  21  42  1   
 43  22  25  1   
 44  23  26  ar  
 45  23  27  1   
 46  24  26  ar  
 47  24  43  1   
 48  25  44  1   
 49  25  45  1   
 50  25  46  1   
 51  27  47  1   
 52  27  48  1   
@<TRIPOS>SUBSTRUCTURE
  1 ****   5 GROUP 4 **** **** 0

# MOE 2024.06 (io_trps.svl 2023.06)
