@<TRIPOS>MOLECULE
NONAME
56 59 1 0 0 
SMALL
USER_CHARGES


@<TRIPOS>ATOM
  1 O        0.5560    -3.4050     0.1650 O.2   1 <1>  -0.5700 
  2 C        1.3070    -2.6340    -0.4170 C.2   1 <1>   0.5440 
  3 N        1.4520    -2.8180    -1.7690 N.am  1 <1>  -0.6600 
  4 C        2.0720    -1.6260     0.3020 C.ar  1 <1>   0.0860 
  5 C        2.6180    -3.5640    -2.2770 C.3   1 <1>   0.1400 
  6 C        0.2830    -2.9070    -2.6700 C.3   1 <1>   0.1400 
  7 C        2.7810    -0.6250    -0.3660 C.ar  1 <1>  -0.1500 
  8 C        2.1320    -1.6200     1.6960 C.ar  1 <1>  -0.1500 
  9 C        2.2790    -5.0500    -2.1810 C.3   1 <1>  -0.1600 
 10 C       -0.2120    -4.3530    -2.7120 C.3   1 <1>  -0.1600 
 11 C        3.5190     0.3220     0.3200 C.ar  1 <1>  -0.1500 
 12 C        2.8680    -0.6750     2.3870 C.ar  1 <1>  -0.1500 
 13 C        0.9140    -5.4060    -2.8070 C.3   1 <1>   0.2890 
 14 C        3.5700     0.3010     1.7030 C.ar  1 <1>  -0.1440 
 15 N        0.4400    -6.6710    -2.2040 N.pl3 1 <1>  -0.8690 
 16 C        4.3780     1.3410     2.4590 C.3   1 <1>  -0.0970 
 17 C        0.0640    -6.9850    -0.9560 C.ar  1 <1>   0.7710 
 18 N       -0.2640    -8.2470    -0.7620 N.ar  1 <1>  -0.6200 
 19 N        0.0290    -6.0650     0.0270 N.ar  1 <1>  -0.1790 
 20 C       -0.6440    -8.6090     0.4510 C.ar  1 <1>   0.4100 
 21 C       -0.3500    -6.3940     1.2810 C.ar  1 <1>   0.2110 
 22 N       -0.9830    -9.9110     0.6340 N.pl3 1 <1>  -0.8380 
 23 C       -0.6930    -7.6830     1.5130 C.ar  1 <1>  -0.1500 
 24 C       -1.6000   -10.5200     1.8500 C.3   1 <1>   0.2090 
 25 C       -0.8620   -10.9510    -0.4290 C.3   1 <1>   0.2090 
 26 C       -2.2810   -11.7890     1.3410 C.3   1 <1>   0.2000 
 27 C       -1.3840   -12.2430     0.2000 C.3   1 <1>  -0.1600 
 28 O       -3.5060   -11.4420     0.7990 O.3   1 <1>  -0.6800 
 29 H        3.4910    -3.3390    -1.6860 H     1 <1>   0.0800 
 30 H        2.8150    -3.2820    -3.2980 H     1 <1>   0.0800 
 31 H        0.5710    -2.5820    -3.6560 H     1 <1>   0.0800 
 32 H       -0.5000    -2.2550    -2.3190 H     1 <1>   0.0800 
 33 H        2.7550    -0.5800    -1.4400 H     1 <1>   0.1500 
 34 H        1.5930    -2.3660     2.2520 H     1 <1>   0.1500 
 35 H        2.3180    -5.3200    -1.1430 H     1 <1>   0.0800 
 36 H        3.0490    -5.6110    -2.6800 H     1 <1>   0.0800 
 37 H       -0.8610    -4.4640    -3.5630 H     1 <1>   0.0800 
 38 H       -0.8270    -4.4990    -1.8470 H     1 <1>   0.0800 
 39 H        4.0540     1.0800    -0.2260 H     1 <1>   0.1500 
 40 H        2.8920    -0.6990     3.4630 H     1 <1>   0.1500 
 41 H        1.0910    -5.5750    -3.8570 H     1 <1>   0.0800 
 42 H        0.4190    -7.4640    -2.8530 H     1 <1>   0.4000 
 43 H        5.2150     1.6690     1.8700 H     1 <1>   0.0800 
 44 H        4.7530     0.9300     3.3790 H     1 <1>   0.0800 
 45 H        3.7580     2.1890     2.6850 H     1 <1>   0.0800 
 46 H        0.2870    -5.0940    -0.2040 H     1 <1>   0.4570 
 47 H       -0.3640    -5.6260     2.0390 H     1 <1>   0.1500 
 48 H       -0.9960    -8.0110     2.4880 H     1 <1>   0.1500 
 49 H       -2.3120    -9.8650     2.3220 H     1 <1>   0.0800 
 50 H       -0.8220   -10.7800     2.5470 H     1 <1>   0.0800 
 51 H        0.1620   -11.0540    -0.7470 H     1 <1>   0.0800 
 52 H       -1.4710   -10.6720    -1.2720 H     1 <1>   0.0800 
 53 H       -2.4360   -12.5350     2.1030 H     1 <1>   0.0800 
 54 H       -0.5500   -12.7900     0.6010 H     1 <1>   0.0800 
 55 H       -1.8970   -12.8690    -0.5080 H     1 <1>   0.0800 
 56 H       -3.3650   -10.7010     0.1750 H     1 <1>   0.4000 
@<TRIPOS>BOND
  1   1   2  2   
  2   2   3  am  
  3   2   4  1   
  4   3   5  1   
  5   3   6  1   
  6   4   7  ar  
  7   4   8  ar  
  8   5   9  1   
  9   5  29  1   
 10   5  30  1   
 11   6  10  1   
 12   6  31  1   
 13   6  32  1   
 14   7  11  ar  
 15   7  33  1   
 16   8  12  ar  
 17   8  34  1   
 18   9  13  1   
 19   9  35  1   
 20   9  36  1   
 21  10  13  1   
 22  10  37  1   
 23  10  38  1   
 24  11  14  ar  
 25  11  39  1   
 26  12  14  ar  
 27  12  40  1   
 28  13  15  1   
 29  13  41  1   
 30  14  16  1   
 31  15  17  1   
 32  15  42  1   
 33  16  43  1   
 34  16  44  1   
 35  16  45  1   
 36  17  18  ar  
 37  17  19  ar  
 38  18  20  ar  
 39  19  21  ar  
 40  19  46  1   
 41  20  22  1   
 42  20  23  ar  
 43  21  23  ar  
 44  21  47  1   
 45  22  24  1   
 46  22  25  1   
 47  23  48  1   
 48  24  26  1   
 49  24  49  1   
 50  24  50  1   
 51  25  27  1   
 52  25  51  1   
 53  25  52  1   
 54  26  27  1   
 55  26  28  1   
 56  26  53  1   
 57  27  54  1   
 58  27  55  1   
 59  28  56  1   
@<TRIPOS>SUBSTRUCTURE
  1 ****  19 GROUP 4 **** **** 0

# MOE 2024.06 (io_trps.svl 2023.06)
