@<TRIPOS>MOLECULE
NONAME
44 46 1 0 0 
SMALL
USER_CHARGES


@<TRIPOS>ATOM
  1 CL       0.9600    -0.0470    -2.3930 Cl    1 <1>  -0.1770 
  2 C        1.9960    -0.4880    -1.0600 C.ar  1 <1>   0.1770 
  3 C        3.3280    -0.1230    -1.0870 C.ar  1 <1>  -0.1500 
  4 C        1.4660    -1.1940     0.0030 C.ar  1 <1>  -0.1500 
  5 C        4.1550    -0.4710    -0.0300 C.ar  1 <1>  -0.0320 
  6 C        2.2880    -1.5400     1.0610 C.ar  1 <1>  -0.1500 
  7 C        3.6260    -1.1780     1.0430 C.ar  1 <1>  -0.1500 
  8 C        5.6190    -0.0610    -0.0560 C.3   1 <1>   0.1810 
  9 N        5.8140     1.3310     0.3650 N.am  1 <1>  -0.5790 
 10 C        6.6940    -1.0310     0.3230 C.3   1 <1>  -0.2000 
 11 C        6.5270    -0.6200    -1.1050 C.3   1 <1>  -0.2000 
 12 C        5.7650     2.4200    -0.4470 C.2   1 <1>   0.5690 
 13 O        5.6330     2.3320    -1.6450 O.2   1 <1>  -0.5700 
 14 C        5.8780     3.8020     0.1980 C.3   1 <1>  -0.0190 
 15 C        5.0220     4.8660    -0.5210 C.3   1 <1>  -0.1600 
 16 C        7.3540     4.2550     0.2820 C.3   1 <1>  -0.1600 
 17 C        5.0240     6.2190     0.2240 C.3   1 <1>   0.2000 
 18 C        7.5290     5.7780     0.4570 C.3   1 <1>  -0.1600 
 19 O        4.9450     7.2530    -0.7270 O.3   1 <1>  -0.5600 
 20 C        6.2940     6.4230     1.0920 C.3   1 <1>   0.2000 
 21 C        3.6820     7.4610    -1.2780 C.3   1 <1>   0.0400 
 22 O        6.5390     7.7740     1.2290 O.3   1 <1>  -0.6800 
 23 H        3.7180     0.4310    -1.9240 H     1 <1>   0.1500 
 24 H        0.4260    -1.4660    -0.0020 H     1 <1>   0.1500 
 25 H        1.8890    -2.0900     1.8970 H     1 <1>   0.1500 
 26 H        4.2600    -1.4490     1.8690 H     1 <1>   0.1500 
 27 H        5.8690     1.4550     1.3730 H     1 <1>   0.3700 
 28 H        7.5600    -0.6780     0.8530 H     1 <1>   0.1000 
 29 H        6.4350    -2.0440     0.5750 H     1 <1>   0.1000 
 30 H        6.1250    -1.3340    -1.8010 H     1 <1>   0.1000 
 31 H        7.2410     0.0430    -1.5600 H     1 <1>   0.1000 
 32 H        5.4950     3.7160     1.2000 H     1 <1>   0.0800 
 33 H        4.0110     4.5110    -0.6130 H     1 <1>   0.0800 
 34 H        5.4210     5.0030    -1.5120 H     1 <1>   0.0800 
 35 H        7.8260     3.7440     1.1040 H     1 <1>   0.0800 
 36 H        7.8710     3.9600    -0.6160 H     1 <1>   0.0800 
 37 H        4.1690     6.2850     0.8740 H     1 <1>   0.0800 
 38 H        7.6810     6.2220    -0.5130 H     1 <1>   0.0800 
 39 H        8.3980     5.9770     1.0580 H     1 <1>   0.0800 
 40 H        6.1440     6.0150     2.0760 H     1 <1>   0.0800 
 41 H        3.7470     8.2910    -1.9590 H     1 <1>   0.0800 
 42 H        2.9830     7.6930    -0.4930 H     1 <1>   0.0800 
 43 H        3.3730     6.5810    -1.8150 H     1 <1>   0.0800 
 44 H        6.2120     8.1890     0.3990 H     1 <1>   0.4000 
@<TRIPOS>BOND
  1   1   2  1   
  2   2   3  ar  
  3   2   4  ar  
  4   3   5  ar  
  5   3  23  1   
  6   4   6  ar  
  7   4  24  1   
  8   5   7  ar  
  9   5   8  1   
 10   6   7  ar  
 11   6  25  1   
 12   7  26  1   
 13   8   9  1   
 14   8  10  1   
 15   8  11  1   
 16   9  12  am  
 17   9  27  1   
 18  10  11  1   
 19  10  28  1   
 20  10  29  1   
 21  11  30  1   
 22  11  31  1   
 23  12  13  2   
 24  12  14  1   
 25  14  15  1   
 26  14  16  1   
 27  14  32  1   
 28  15  17  1   
 29  15  33  1   
 30  15  34  1   
 31  16  18  1   
 32  16  35  1   
 33  16  36  1   
 34  17  19  1   
 35  17  20  1   
 36  17  37  1   
 37  18  20  1   
 38  18  38  1   
 39  18  39  1   
 40  19  21  1   
 41  20  22  1   
 42  20  40  1   
 43  21  41  1   
 44  21  42  1   
 45  21  43  1   
 46  22  44  1   
@<TRIPOS>SUBSTRUCTURE
  1 ****  12 GROUP 4 **** **** 0

# MOE 2024.06 (io_trps.svl 2023.06)
