@<TRIPOS>MOLECULE
NONAME
48 49 1 0 0 
SMALL
USER_CHARGES


@<TRIPOS>ATOM
  1 S       -0.4020    -0.3340     1.2240 S.3   1 <1>  -0.0800 
  2 C       -1.8290    -0.8880     0.4080 C.2   1 <1>   0.4420 
  3 C       -0.6330     1.1880     0.4360 C.2   1 <1>   0.1980 
  4 N       -2.3380     0.0230    -0.3390 N.2   1 <1>  -0.3380 
  5 N       -2.2180    -2.1890     0.6510 N.am  1 <1>  -0.4940 
  6 N       -1.6520     1.2030    -0.3190 N.2   1 <1>  -0.3380 
  7 C        0.3500     2.3070     0.7020 C.3   1 <1>   0.0200 
  8 C       -3.3120    -2.8590     0.1850 C.2   1 <1>   0.5690 
  9 C       -0.0960     3.5500    -0.0770 C.3   1 <1>   0.3430 
 10 O       -4.1560    -2.3620    -0.5130 O.2   1 <1>  -0.5700 
 11 C       -3.4690    -4.3130     0.5740 C.3   1 <1>  -0.0990 
 12 N        0.7780     4.7460     0.1690 N.4   1 <1>  -0.9590 
 13 C       -3.3860    -5.2270    -0.6520 C.3   1 <1>   0.0210 
 14 C        0.1240     5.9670    -0.3990 C.3   1 <1>   0.2630 
 15 C        2.1500     4.5850    -0.4120 C.3   1 <1>   0.2630 
 16 C       -3.4720    -6.6770    -0.2140 C.2   1 <1>  -0.1810 
 17 C       -2.4080    -7.5390     0.0400 C.2   1 <1>   0.1080 
 18 C       -4.5770    -7.4180     0.0240 C.2   1 <1>  -0.3320 
 19 N       -2.8060    -8.7130     0.4090 N.2   1 <1>  -0.7070 
 20 C       -0.9400    -7.2010    -0.0870 C.3   1 <1>  -0.0590 
 21 N       -4.1460    -8.6440     0.3970 N.pl3 1 <1>   0.3140 
 22 C       -6.0440    -7.0270    -0.0800 C.3   1 <1>  -0.0600 
 23 C       -4.9660    -9.8060     0.7580 C.3   1 <1>   0.0160 
 24 H       -1.6080    -2.7130     1.2700 H     1 <1>   0.3700 
 25 H        1.3250     1.9870     0.3850 H     1 <1>   0.0800 
 26 H        0.3600     2.5130     1.7570 H     1 <1>   0.0800 
 27 H       -1.1090     3.7820     0.2160 H     1 <1>   0.0800 
 28 H       -0.1130     3.3190    -1.1300 H     1 <1>   0.0800 
 29 H       -4.4290    -4.4390     1.0420 H     1 <1>   0.0800 
 30 H       -2.7150    -4.5970     1.2840 H     1 <1>   0.0800 
 31 H        0.8640     4.8860     1.1890 H     1 <1>   0.4500 
 32 H       -2.4650    -5.0590    -1.1820 H     1 <1>   0.0800 
 33 H       -4.1940    -5.0040    -1.3280 H     1 <1>   0.0800 
 34 H        0.0070     5.8670    -1.4660 H     1 <1>   0.0800 
 35 H        0.7230     6.8410    -0.1990 H     1 <1>   0.0800 
 36 H       -0.8500     6.1110     0.0410 H     1 <1>   0.0800 
 37 H        2.0890     4.4240    -1.4770 H     1 <1>   0.0800 
 38 H        2.6560     3.7460     0.0360 H     1 <1>   0.0800 
 39 H        2.7380     5.4710    -0.2330 H     1 <1>   0.0800 
 40 H       -0.7180    -6.3080     0.4640 H     1 <1>   0.0800 
 41 H       -0.6920    -7.0580    -1.1220 H     1 <1>   0.0800 
 42 H       -0.3470    -8.0080     0.3040 H     1 <1>   0.0800 
 43 H       -6.1450    -5.9990    -0.3760 H     1 <1>   0.0800 
 44 H       -6.5300    -7.1550     0.8710 H     1 <1>   0.0800 
 45 H       -6.5380    -7.6400    -0.8120 H     1 <1>   0.0800 
 46 H       -5.5660    -9.5610     1.6130 H     1 <1>   0.0800 
 47 H       -4.3200   -10.6310     0.9950 H     1 <1>   0.0800 
 48 H       -5.5930   -10.0660    -0.0730 H     1 <1>   0.0800 
@<TRIPOS>BOND
  1   1   2  1   
  2   1   3  1   
  3   2   4  2   
  4   2   5  1   
  5   3   6  2   
  6   3   7  1   
  7   4   6  1   
  8   5   8  am  
  9   5  24  1   
 10   7   9  1   
 11   7  25  1   
 12   7  26  1   
 13   8  10  2   
 14   8  11  1   
 15   9  12  1   
 16   9  27  1   
 17   9  28  1   
 18  11  13  1   
 19  11  29  1   
 20  11  30  1   
 21  12  14  1   
 22  12  15  1   
 23  12  31  1   
 24  13  16  1   
 25  13  32  1   
 26  13  33  1   
 27  14  34  1   
 28  14  35  1   
 29  14  36  1   
 30  15  37  1   
 31  15  38  1   
 32  15  39  1   
 33  16  17  1   
 34  16  18  2   
 35  17  19  2   
 36  17  20  1   
 37  18  21  1   
 38  18  22  1   
 39  19  21  1   
 40  20  40  1   
 41  20  41  1   
 42  20  42  1   
 43  21  23  1   
 44  22  43  1   
 45  22  44  1   
 46  22  45  1   
 47  23  46  1   
 48  23  47  1   
 49  23  48  1   
@<TRIPOS>SUBSTRUCTURE
  1 ****   5 GROUP 4 **** **** 0

# MOE 2024.06 (io_trps.svl 2023.06)
