@<TRIPOS>MOLECULE
NONAME
59 62 1 0 0 
SMALL
USER_CHARGES


@<TRIPOS>ATOM
  1 CL      -0.7080     3.1930     2.9390 Cl    1 <1>  -0.1770 
  2 C       -1.9000     2.6820     1.7680 C.ar  1 <1>   0.1770 
  3 C       -1.5710     2.6450     0.4210 C.ar  1 <1>  -0.1440 
  4 C       -3.1610     2.3330     2.2150 C.ar  1 <1>  -0.1500 
  5 C       -2.5380     2.2440    -0.4910 C.ar  1 <1>  -0.1500 
  6 C       -0.1810     3.0340    -0.0430 C.3   1 <1>   0.4870 
  7 C       -4.1180     1.9370     1.2970 C.ar  1 <1>  -0.1500 
  8 C       -3.8050     1.8940    -0.0520 C.ar  1 <1>  -0.1500 
  9 N        0.0290     4.4920     0.1810 N.4   1 <1>  -0.9590 
 10 C       -0.9500     5.3270    -0.5800 C.3   1 <1>   0.3430 
 11 C        1.4450     4.8770    -0.0790 C.3   1 <1>   0.3430 
 12 C       -0.7640     6.7990    -0.2220 C.3   1 <1>  -0.1600 
 13 C        1.6510     6.3400     0.2870 C.3   1 <1>  -0.1600 
 14 C        0.6760     7.2260    -0.4850 C.3   1 <1>   0.2890 
 15 N        0.8600     8.6140    -0.0440 N.pl3 1 <1>  -0.8690 
 16 C        1.7200     9.4780    -0.6850 C.ar  1 <1>   0.4100 
 17 N        2.6140     8.9510    -1.5110 N.ar  1 <1>  -0.6200 
 18 C        1.6150    10.8400    -0.4420 C.ar  1 <1>  -0.1500 
 19 C        3.4120     9.8120    -2.1190 C.ar  1 <1>   0.1600 
 20 C        2.4560    11.7420    -1.0640 C.ar  1 <1>   0.0860 
 21 C        3.3750    11.1800    -1.9390 C.ar  1 <1>  -0.1500 
 22 C        2.3630    13.1680    -0.8260 C.2   1 <1>   0.5440 
 23 O        1.2780    13.7060    -0.9410 O.2   1 <1>  -0.5700 
 24 N        3.4610    13.9260    -0.4690 N.am  1 <1>  -0.6600 
 25 C        4.7100    13.3540     0.1090 C.3   1 <1>   0.1400 
 26 C        3.4050    15.4160    -0.4460 C.3   1 <1>   0.1400 
 27 C        4.8850    13.8450     1.5510 C.3   1 <1>  -0.1600 
 28 C        3.5650    15.9180     0.9930 C.3   1 <1>  -0.1600 
 29 C        4.8460    15.3770     1.6410 C.3   1 <1>  -0.1600 
 30 H       -3.3910     2.3690     3.2650 H     1 <1>   0.1500 
 31 H       -2.3230     2.1930    -1.5460 H     1 <1>   0.1500 
 32 H       -0.0630     2.7980    -1.0870 H     1 <1>   0.0800 
 33 H        0.5460     2.4680     0.5180 H     1 <1>   0.0800 
 34 H       -5.1050     1.6600     1.6310 H     1 <1>   0.1500 
 35 H       -4.5540     1.5800    -0.7600 H     1 <1>   0.1500 
 36 H       -0.1530     4.6460     1.1850 H     1 <1>   0.4500 
 37 H       -1.9590     5.0280    -0.3400 H     1 <1>   0.0800 
 38 H       -0.8000     5.1930    -1.6390 H     1 <1>   0.0800 
 39 H        1.6810     4.7330    -1.1220 H     1 <1>   0.0800 
 40 H        2.1120     4.2660     0.5090 H     1 <1>   0.0800 
 41 H       -1.0190     6.9520     0.8120 H     1 <1>   0.0800 
 42 H       -1.4260     7.3920    -0.8280 H     1 <1>   0.0800 
 43 H        2.6580     6.6240     0.0360 H     1 <1>   0.0800 
 44 H        1.5220     6.4750     1.3460 H     1 <1>   0.0800 
 45 H        0.8770     7.1520    -1.5430 H     1 <1>   0.0800 
 46 H        0.0360     9.0530     0.3710 H     1 <1>   0.4000 
 47 H        0.8690    11.2050     0.2390 H     1 <1>   0.1500 
 48 H        4.1370     9.4020    -2.8010 H     1 <1>   0.1500 
 49 H        4.0540    11.8170    -2.4760 H     1 <1>   0.1500 
 50 H        5.5480    13.6700    -0.4880 H     1 <1>   0.0800 
 51 H        4.6810    12.2800     0.1090 H     1 <1>   0.0800 
 52 H        2.4730    15.7700    -0.8510 H     1 <1>   0.0800 
 53 H        4.2000    15.8040    -1.0580 H     1 <1>   0.0800 
 54 H        5.8220    13.4840     1.9380 H     1 <1>   0.0800 
 55 H        4.0990    13.4280     2.1550 H     1 <1>   0.0800 
 56 H        2.7060    15.6050     1.5620 H     1 <1>   0.0800 
 57 H        3.5840    16.9930     0.9930 H     1 <1>   0.0800 
 58 H        5.7040    15.7870     1.1350 H     1 <1>   0.0800 
 59 H        4.8890    15.6820     2.6720 H     1 <1>   0.0800 
@<TRIPOS>BOND
  1   1   2  1   
  2   2   3  ar  
  3   2   4  ar  
  4   3   5  ar  
  5   3   6  1   
  6   4   7  ar  
  7   4  30  1   
  8   5   8  ar  
  9   5  31  1   
 10   6   9  1   
 11   6  32  1   
 12   6  33  1   
 13   7   8  ar  
 14   7  34  1   
 15   8  35  1   
 16   9  10  1   
 17   9  11  1   
 18   9  36  1   
 19  10  12  1   
 20  10  37  1   
 21  10  38  1   
 22  11  13  1   
 23  11  39  1   
 24  11  40  1   
 25  12  14  1   
 26  12  41  1   
 27  12  42  1   
 28  13  14  1   
 29  13  43  1   
 30  13  44  1   
 31  14  15  1   
 32  14  45  1   
 33  15  16  1   
 34  15  46  1   
 35  16  17  ar  
 36  16  18  ar  
 37  17  19  ar  
 38  18  20  ar  
 39  18  47  1   
 40  19  21  ar  
 41  19  48  1   
 42  20  21  ar  
 43  20  22  1   
 44  21  49  1   
 45  22  23  2   
 46  22  24  am  
 47  24  25  1   
 48  24  26  1   
 49  25  27  1   
 50  25  50  1   
 51  25  51  1   
 52  26  28  1   
 53  26  52  1   
 54  26  53  1   
 55  27  29  1   
 56  27  54  1   
 57  27  55  1   
 58  28  29  1   
 59  28  56  1   
 60  28  57  1   
 61  29  58  1   
 62  29  59  1   
@<TRIPOS>SUBSTRUCTURE
  1 ****  15 GROUP 4 **** **** 0

# MOE 2024.06 (io_trps.svl 2023.06)
