@<TRIPOS>MOLECULE
NONAME
56 59 1 0 0 
SMALL
USER_CHARGES


@<TRIPOS>ATOM
  1 O        0.2010    -0.3860     0.2700 O.3   1 <1>  -0.5600 
  2 C        1.3680    -0.7200    -0.4380 C.3   1 <1>   0.4240 
  3 C       -0.9290    -1.1850     0.0750 C.3   1 <1>   0.1200 
  4 C        1.5520    -2.2410    -0.6010 C.ar  1 <1>  -0.1440 
  5 C        2.5110    -0.1350     0.3940 C.3   1 <1>  -0.1600 
  6 C        1.2940    -0.0070    -1.7940 C.3   1 <1>  -0.1600 
  7 C       -0.6350    -2.5960     0.5770 C.3   1 <1>  -0.0160 
  8 C        0.6020    -3.1320    -0.1130 C.ar  1 <1>  -0.1440 
  9 C        2.6760    -2.7540    -1.2420 C.ar  1 <1>  -0.1500 
 10 C        2.3360     1.3720     0.5670 C.3   1 <1>   0.3430 
 11 C        1.1210     1.4980    -1.5980 C.3   1 <1>   0.3430 
 12 C        0.7760    -4.5000    -0.2540 C.ar  1 <1>  -0.1500 
 13 C        2.8480    -4.1180    -1.3860 C.ar  1 <1>  -0.1500 
 14 N        2.2210     2.0470    -0.7590 N.4   1 <1>  -0.9590 
 15 C        1.9040    -5.0010    -0.8940 C.ar  1 <1>   0.0830 
 16 C        3.5290     2.1690    -1.4570 C.3   1 <1>   0.5240 
 17 O        2.1510    -6.3220    -1.0750 O.3   1 <1>  -0.3630 
 18 C        4.3220     3.2340    -0.7180 C.2   1 <1>   0.0460 
 19 C        1.2630    -7.3070    -0.5970 C.3   1 <1>   0.0400 
 20 N        3.6930     4.3630    -0.3250 N.2   1 <1>  -0.5650 
 21 C        5.6210     3.2460    -0.3430 C.2   1 <1>  -0.3320 
 22 C        4.6180     5.0450     0.2670 C.2   1 <1>   0.0060 
 23 N        5.8140     4.4200     0.2910 N.pl3 1 <1>   0.0330 
 24 C        6.7370     2.2310    -0.5320 C.3   1 <1>  -0.0600 
 25 C        4.4010     6.4170     0.8820 C.3   1 <1>   0.0200 
 26 C        5.1570     7.5020     0.1080 C.3   1 <1>  -0.2400 
 27 H       -1.1820    -1.1950    -0.9710 H     1 <1>   0.0800 
 28 H       -1.7420    -0.7520     0.6310 H     1 <1>   0.0800 
 29 H        3.4610    -0.3440    -0.0580 H     1 <1>   0.0800 
 30 H        2.5100    -0.6070     1.3610 H     1 <1>   0.0800 
 31 H        0.4680    -0.3960    -2.3590 H     1 <1>   0.0800 
 32 H        2.1810    -0.2000    -2.3670 H     1 <1>   0.0800 
 33 H       -1.4810    -3.2270     0.3710 H     1 <1>   0.0800 
 34 H       -0.4800    -2.5750     1.6410 H     1 <1>   0.0800 
 35 H        3.4340    -2.1040    -1.6380 H     1 <1>   0.1500 
 36 H        3.1650     1.7820     1.1230 H     1 <1>   0.0800 
 37 H        1.4350     1.5500     1.1340 H     1 <1>   0.0800 
 38 H        0.1790     1.6740    -1.1030 H     1 <1>   0.0800 
 39 H        1.0960     1.9970    -2.5530 H     1 <1>   0.0800 
 40 H        0.0280    -5.1630     0.1360 H     1 <1>   0.1500 
 41 H        3.7170    -4.5120    -1.8810 H     1 <1>   0.1500 
 42 H        2.0300     3.0460    -0.5440 H     1 <1>   0.4500 
 43 H        3.3750     2.5010    -2.4700 H     1 <1>   0.0800 
 44 H        4.0590     1.2330    -1.4660 H     1 <1>   0.0800 
 45 H        1.6680    -8.2710    -0.8480 H     1 <1>   0.0800 
 46 H        0.3070    -7.1770    -1.0730 H     1 <1>   0.0800 
 47 H        1.1790    -7.2130     0.4720 H     1 <1>   0.0800 
 48 H        6.6820     4.7800     0.7000 H     1 <1>   0.2700 
 49 H        6.3860     1.3640    -1.0610 H     1 <1>   0.0800 
 50 H        7.1180     1.9160     0.4240 H     1 <1>   0.0800 
 51 H        7.5430     2.6690    -1.0950 H     1 <1>   0.0800 
 52 H        4.7230     6.4060     1.9080 H     1 <1>   0.0800 
 53 H        3.3490     6.6440     0.8700 H     1 <1>   0.0800 
 54 H        6.2170     7.3250     0.1390 H     1 <1>   0.0800 
 55 H        4.9570     8.4680     0.5380 H     1 <1>   0.0800 
 56 H        4.8360     7.5110    -0.9190 H     1 <1>   0.0800 
@<TRIPOS>BOND
  1   1   2  1   
  2   1   3  1   
  3   2   4  1   
  4   2   5  1   
  5   2   6  1   
  6   3   7  1   
  7   3  27  1   
  8   3  28  1   
  9   4   8  ar  
 10   4   9  ar  
 11   5  10  1   
 12   5  29  1   
 13   5  30  1   
 14   6  11  1   
 15   6  31  1   
 16   6  32  1   
 17   7   8  1   
 18   7  33  1   
 19   7  34  1   
 20   8  12  ar  
 21   9  13  ar  
 22   9  35  1   
 23  10  14  1   
 24  10  36  1   
 25  10  37  1   
 26  11  14  1   
 27  11  38  1   
 28  11  39  1   
 29  12  15  ar  
 30  12  40  1   
 31  13  15  ar  
 32  13  41  1   
 33  14  16  1   
 34  14  42  1   
 35  15  17  1   
 36  16  18  1   
 37  16  43  1   
 38  16  44  1   
 39  17  19  1   
 40  18  20  1   
 41  18  21  2   
 42  19  45  1   
 43  19  46  1   
 44  19  47  1   
 45  20  22  2   
 46  21  23  1   
 47  21  24  1   
 48  22  23  1   
 49  22  25  1   
 50  23  48  1   
 51  24  49  1   
 52  24  50  1   
 53  24  51  1   
 54  25  26  1   
 55  25  52  1   
 56  25  53  1   
 57  26  54  1   
 58  26  55  1   
 59  26  56  1   
@<TRIPOS>SUBSTRUCTURE
  1 ****   5 GROUP 4 **** **** 0

# MOE 2024.06 (io_trps.svl 2023.06)
