@<TRIPOS>MOLECULE
NONAME
52 54 1 0 0 
SMALL
USER_CHARGES


@<TRIPOS>ATOM
  1 O       -0.3000     1.0630     0.4950 O.2   1 <1>  -0.5700 
  2 C       -0.0160     0.3190    -0.4100 C.2   1 <1>   0.5690 
  3 N        0.9350     0.6370    -1.3250 N.am  1 <1>  -0.7300 
  4 C       -0.7240    -1.0120    -0.5110 C.3   1 <1>  -0.0990 
  5 C        1.6390     1.9330    -1.3520 C.3   1 <1>   0.1400 
  6 C       -0.3610    -1.9110     0.6770 C.3   1 <1>   0.0200 
  7 C        2.8640     1.8530    -0.4400 C.3   1 <1>  -0.1600 
  8 C       -1.0080    -3.2730     0.5390 C.2   1 <1>   0.2980 
  9 C        3.5050     3.2300    -0.2620 C.3   1 <1>   0.3540 
 10 O       -2.2930    -3.3880     0.7490 O.3   1 <1>  -0.0190 
 11 N       -0.4090    -4.3430     0.2190 N.2   1 <1>  -0.5650 
 12 N        4.6640     3.1350     0.6610 N.pl3 1 <1>  -0.4570 
 13 N       -2.5350    -4.6430     0.5410 N.2   1 <1>  -0.4100 
 14 C       -1.4240    -5.2130     0.2330 C.2   1 <1>   0.4620 
 15 N        4.4700     3.0940     2.0050 N.2   1 <1>  -0.2600 
 16 C        5.9560     3.0850     0.3910 C.cat 1 <1>   0.6560 
 17 C       -1.2720    -6.6200    -0.0970 C.ar  1 <1>   0.0540 
 18 C        5.6530     3.0200     2.4970 C.2   1 <1>   0.4850 
 19 N        6.6010     3.0120     1.5290 N.pl3 1 <1>  -0.7000 
 20 C        6.6000     3.1060    -0.9760 C.3   1 <1>  -0.0960 
 21 C       -0.2750    -7.4470     0.4420 C.ar  1 <1>  -0.1440 
 22 C       -2.1680    -7.1920    -1.0020 C.ar  1 <1>  -0.1500 
 23 C        5.9920     2.9480     3.9690 C.3   1 <1>  -0.0720 
 24 C       -0.1900    -8.7780     0.0630 C.ar  1 <1>  -0.1500 
 25 C        0.7310    -6.9230     1.4600 C.3   1 <1>  -0.0970 
 26 C       -2.0810    -8.5200    -1.3740 C.ar  1 <1>  -0.1500 
 27 C       -1.0860    -9.3160    -0.8420 C.ar  1 <1>  -0.1500 
 28 H        1.1550    -0.0220    -2.0760 H     1 <1>   0.3700 
 29 H       -0.4570    -1.5000    -1.4300 H     1 <1>   0.0800 
 30 H       -1.7840    -0.8340    -0.5210 H     1 <1>   0.0800 
 31 H        0.9670     2.7000    -1.0000 H     1 <1>   0.0800 
 32 H        1.9240     2.1680    -2.3640 H     1 <1>   0.0800 
 33 H       -0.6830    -1.4570     1.5970 H     1 <1>   0.0800 
 34 H        0.7060    -2.0370     0.7220 H     1 <1>   0.0800 
 35 H        3.5770     1.1650    -0.8560 H     1 <1>   0.0800 
 36 H        2.5500     1.4970     0.5270 H     1 <1>   0.0800 
 37 H        2.7850     3.9140     0.1570 H     1 <1>   0.0800 
 38 H        3.8240     3.6180    -1.2140 H     1 <1>   0.0800 
 39 H        7.6080     2.9590     1.6800 H     1 <1>   0.4500 
 40 H        6.1900     2.3220    -1.5860 H     1 <1>   0.0800 
 41 H        7.6610     2.9570    -0.8920 H     1 <1>   0.0800 
 42 H        6.4210     4.0540    -1.4490 H     1 <1>   0.0800 
 43 H       -2.9470    -6.5790    -1.4210 H     1 <1>   0.1500 
 44 H        5.0890     2.9600     4.5540 H     1 <1>   0.0800 
 45 H        6.5950     3.7920     4.2490 H     1 <1>   0.0800 
 46 H        6.5270     2.0410     4.1800 H     1 <1>   0.0800 
 47 H        0.5790    -9.4100     0.4720 H     1 <1>   0.1500 
 48 H        0.2290    -6.3560     2.2230 H     1 <1>   0.0800 
 49 H        1.4480    -6.2890     0.9700 H     1 <1>   0.0800 
 50 H        1.2570    -7.7300     1.9360 H     1 <1>   0.0800 
 51 H       -2.7840    -8.9320    -2.0760 H     1 <1>   0.1500 
 52 H       -1.0100   -10.3500    -1.1280 H     1 <1>   0.1500 
@<TRIPOS>BOND
  1   1   2  2   
  2   2   3  am  
  3   2   4  1   
  4   3   5  1   
  5   3  28  1   
  6   4   6  1   
  7   4  29  1   
  8   4  30  1   
  9   5   7  1   
 10   5  31  1   
 11   5  32  1   
 12   6   8  1   
 13   6  33  1   
 14   6  34  1   
 15   7   9  1   
 16   7  35  1   
 17   7  36  1   
 18   8  10  1   
 19   8  11  2   
 20   9  12  1   
 21   9  37  1   
 22   9  38  1   
 23  10  13  1   
 24  11  14  1   
 25  12  15  1   
 26  12  16  ar  
 27  13  14  2   
 28  14  17  1   
 29  15  18  2   
 30  16  19  ar  
 31  16  20  1   
 32  17  21  ar  
 33  17  22  ar  
 34  18  19  1   
 35  18  23  1   
 36  19  39  1   
 37  20  40  1   
 38  20  41  1   
 39  20  42  1   
 40  21  24  ar  
 41  21  25  1   
 42  22  26  ar  
 43  22  43  1   
 44  23  44  1   
 45  23  45  1   
 46  23  46  1   
 47  24  27  ar  
 48  24  47  1   
 49  25  48  1   
 50  25  49  1   
 51  25  50  1   
 52  26  27  ar  
 53  26  51  1   
 54  27  52  1   
@<TRIPOS>SUBSTRUCTURE
  1 ****   6 GROUP 4 **** **** 0

# MOE 2024.06 (io_trps.svl 2023.06)
