@<TRIPOS>MOLECULE
NONAME
54 56 1 0 0 
SMALL
USER_CHARGES


@<TRIPOS>ATOM
  1 F       -0.7150     0.2260     1.4560 F     1 <1>  -0.1900 
  2 C       -1.9530     0.5650     1.2040 C.ar  1 <1>   0.1900 
  3 C       -2.2760     1.5740     0.2890 C.ar  1 <1>   0.0830 
  4 C       -2.9320    -0.1270     1.8910 C.ar  1 <1>  -0.1500 
  5 O       -1.4060     2.3260    -0.4460 O.3   1 <1>  -0.3630 
  6 C       -3.6180     1.8550     0.0890 C.ar  1 <1>  -0.1500 
  7 C       -4.2620     0.1790     1.6690 C.ar  1 <1>  -0.1500 
  8 C       -0.0050     2.2050    -0.3390 C.3   1 <1>   0.0400 
  9 C       -4.6340     1.1710     0.7590 C.ar  1 <1>   0.0530 
 10 C       -6.0180     1.4880     0.5110 C.2   1 <1>   0.0870 
 11 O       -6.3820     2.7090     0.2100 O.3   1 <1>  -0.0190 
 12 C       -7.1450     0.7300     0.4930 C.2   1 <1>  -0.0860 
 13 N       -7.6680     2.8220     0.0010 N.2   1 <1>  -0.4100 
 14 C       -8.1530     1.6420     0.1770 C.2   1 <1>   0.3720 
 15 C       -7.3340    -0.6710     0.6800 C.2   1 <1>   0.7160 
 16 N       -9.5130     1.3220     0.0630 N.pl3 1 <1>  -0.8210 
 17 O       -7.3930    -1.1200     1.8120 O.2   1 <1>  -0.5700 
 18 N       -7.4500    -1.5310    -0.3960 N.am  1 <1>  -0.6600 
 19 C      -10.1830     1.0810     1.3720 C.3   1 <1>   0.1290 
 20 C      -10.3120     2.2300    -0.8060 C.3   1 <1>   0.1290 
 21 C       -7.7520    -2.9850    -0.2100 C.3   1 <1>   0.1400 
 22 C       -7.3610    -1.0480    -1.8030 C.3   1 <1>   0.0600 
 23 C       -9.2510    -3.3200    -0.4050 C.3   1 <1>   0.0000 
 24 C       -9.6600    -3.5630    -1.8920 C.3   1 <1>   0.0000 
 25 C       -9.5220    -4.8380    -0.1600 C.3   1 <1>   0.0000 
 26 C      -10.1690    -2.3610     0.3860 C.3   1 <1>   0.1200 
 27 C       -9.3280    -5.0640    -1.6830 C.3   1 <1>   0.0000 
 28 O      -11.5100    -2.7110     0.2900 O.3   1 <1>  -0.6800 
 29 H       -2.6540    -0.8930     2.5920 H     1 <1>   0.1500 
 30 H       -3.8760     2.6280    -0.6120 H     1 <1>   0.1500 
 31 H       -5.0170    -0.3560     2.2170 H     1 <1>   0.1500 
 32 H        0.4440     2.9230    -1.0010 H     1 <1>   0.0800 
 33 H        0.2850     1.2110    -0.6300 H     1 <1>   0.0800 
 34 H        0.2890     2.4120     0.6750 H     1 <1>   0.0800 
 35 H       -9.5740     0.4490     1.9960 H     1 <1>   0.0800 
 36 H      -11.1300     0.5940     1.2150 H     1 <1>   0.0800 
 37 H      -10.3440     2.0160     1.8810 H     1 <1>   0.0800 
 38 H       -9.8000     2.3840    -1.7410 H     1 <1>   0.0800 
 39 H      -10.4450     3.1830    -0.3230 H     1 <1>   0.0800 
 40 H      -11.2750     1.7940    -1.0060 H     1 <1>   0.0800 
 41 H       -7.4660    -3.2800     0.7860 H     1 <1>   0.0800 
 42 H       -7.1440    -3.5580    -0.8870 H     1 <1>   0.0800 
 43 H       -6.7000    -0.2020    -1.8760 H     1 <1>   0.0800 
 44 H       -8.3390    -0.7540    -2.1450 H     1 <1>   0.0800 
 45 H       -6.9810    -1.8260    -2.4410 H     1 <1>   0.0800 
 46 H       -9.0290    -3.0930    -2.6240 H     1 <1>   0.0000 
 47 H      -10.7070    -3.4110    -2.0890 H     1 <1>   0.0000 
 48 H      -10.5260    -5.0680     0.1480 H     1 <1>   0.0000 
 49 H       -8.7790    -5.3310     0.4420 H     1 <1>   0.0000 
 50 H      -10.0690    -1.3590     0.0070 H     1 <1>   0.0800 
 51 H       -9.9030    -2.3660     1.4290 H     1 <1>   0.0800 
 52 H       -8.3120    -5.3070    -1.9430 H     1 <1>   0.0000 
 53 H      -10.0510    -5.7310    -2.1170 H     1 <1>   0.0000 
 54 H      -11.7870    -2.7340    -0.6460 H     1 <1>   0.4000 
@<TRIPOS>BOND
  1   1   2  1   
  2   2   3  ar  
  3   2   4  ar  
  4   3   5  1   
  5   3   6  ar  
  6   4   7  ar  
  7   4  29  1   
  8   5   8  1   
  9   6   9  ar  
 10   6  30  1   
 11   7   9  ar  
 12   7  31  1   
 13   8  32  1   
 14   8  33  1   
 15   8  34  1   
 16   9  10  1   
 17  10  11  1   
 18  10  12  2   
 19  11  13  1   
 20  12  14  1   
 21  12  15  1   
 22  13  14  2   
 23  14  16  1   
 24  15  17  2   
 25  15  18  am  
 26  16  19  1   
 27  16  20  1   
 28  18  21  1   
 29  18  22  1   
 30  19  35  1   
 31  19  36  1   
 32  19  37  1   
 33  20  38  1   
 34  20  39  1   
 35  20  40  1   
 36  21  23  1   
 37  21  41  1   
 38  21  42  1   
 39  22  43  1   
 40  22  44  1   
 41  22  45  1   
 42  23  24  1   
 43  23  25  1   
 44  23  26  1   
 45  24  27  1   
 46  24  46  1   
 47  24  47  1   
 48  25  27  1   
 49  25  48  1   
 50  25  49  1   
 51  26  28  1   
 52  26  50  1   
 53  26  51  1   
 54  27  52  1   
 55  27  53  1   
 56  28  54  1   
@<TRIPOS>SUBSTRUCTURE
  1 ****  15 GROUP 4 **** **** 0

# MOE 2024.06 (io_trps.svl 2023.06)
