@<TRIPOS>MOLECULE
NONAME
44 46 1 0 0 
SMALL
USER_CHARGES


@<TRIPOS>ATOM
  1 F        0.5810    -0.2200     1.2070 F     1 <1>  -0.1900 
  2 C        0.3560    -1.4540     0.8370 C.ar  1 <1>   0.1900 
  3 C        0.8770    -1.9110    -0.3650 C.ar  1 <1>   0.0830 
  4 C       -0.3970    -2.2720     1.6560 C.ar  1 <1>  -0.1500 
  5 O        1.6130    -1.1080    -1.1570 O.3   1 <1>  -0.5330 
  6 C        0.6360    -3.2170    -0.7490 C.ar  1 <1>  -0.1500 
  7 C       -0.6280    -3.5780     1.2550 C.ar  1 <1>  -0.1500 
  8 C       -0.1230    -4.0790     0.0480 C.ar  1 <1>   0.0860 
  9 C       -0.3730    -5.4510    -0.3660 C.2   1 <1>   0.5440 
 10 O        0.3970    -6.0160    -1.1200 O.2   1 <1>  -0.5700 
 11 N       -1.4600    -6.1590     0.0950 N.am  1 <1>  -0.6600 
 12 C       -2.8210    -5.9710    -0.4840 C.3   1 <1>   0.2200 
 13 C       -1.2160    -7.5420     0.5910 C.3   1 <1>   0.0600 
 14 C       -3.8890    -5.9140     0.6030 C.3   1 <1>  -0.1600 
 15 C       -3.0420    -4.6740    -1.2610 C.3   1 <1>  -0.1600 
 16 C       -5.1120    -5.2890    -0.0830 C.3   1 <1>  -0.0800 
 17 C       -4.5660    -4.5170    -1.3060 C.3   1 <1>  -0.0800 
 18 C       -5.9750    -4.4510     0.8790 C.3   1 <1>   0.1400 
 19 C       -5.0270    -3.0480    -1.3740 C.3   1 <1>  -0.0990 
 20 N       -6.9210    -3.6110     0.1030 N.am  1 <1>  -0.6600 
 21 C       -6.4910    -2.9260    -1.0000 C.2   1 <1>   0.5690 
 22 C       -8.3220    -3.5390     0.5990 C.3   1 <1>   0.0600 
 23 O       -7.2140    -2.2340    -1.6760 O.2   1 <1>  -0.5700 
 24 H       -0.7870    -1.8940     2.5840 H     1 <1>   0.1500 
 25 H        1.7390    -0.2210    -0.7660 H     1 <1>   0.4500 
 26 H        1.0440    -3.5760    -1.6780 H     1 <1>   0.1500 
 27 H       -1.2080    -4.2270     1.8880 H     1 <1>   0.1500 
 28 H       -3.0360    -6.7970    -1.1430 H     1 <1>   0.0800 
 29 H       -1.8460    -7.7490     1.4380 H     1 <1>   0.0800 
 30 H       -0.1870    -7.6490     0.8920 H     1 <1>   0.0800 
 31 H       -1.4180    -8.2530    -0.1910 H     1 <1>   0.0800 
 32 H       -4.1150    -6.8910     0.9910 H     1 <1>   0.0800 
 33 H       -3.5440    -5.2770     1.3990 H     1 <1>   0.0800 
 34 H       -2.6260    -3.8440    -0.7230 H     1 <1>   0.0800 
 35 H       -2.6160    -4.7220    -2.2480 H     1 <1>   0.0800 
 36 H       -5.7300    -6.0890    -0.4550 H     1 <1>   0.0800 
 37 H       -4.9330    -5.0170    -2.1880 H     1 <1>   0.0800 
 38 H       -5.3520    -3.8020     1.4700 H     1 <1>   0.0800 
 39 H       -6.5150    -5.1030     1.5440 H     1 <1>   0.0800 
 40 H       -4.8740    -2.6590    -2.3640 H     1 <1>   0.0800 
 41 H       -4.4680    -2.4430    -0.6850 H     1 <1>   0.0800 
 42 H       -8.3340    -3.1630     1.6060 H     1 <1>   0.0800 
 43 H       -8.7660    -4.5180     0.5770 H     1 <1>   0.0800 
 44 H       -8.9080    -2.8820    -0.0210 H     1 <1>   0.0800 
@<TRIPOS>BOND
  1   1   2  1   
  2   2   3  ar  
  3   2   4  ar  
  4   3   5  1   
  5   3   6  ar  
  6   4   7  ar  
  7   4  24  1   
  8   5  25  1   
  9   6   8  ar  
 10   6  26  1   
 11   7   8  ar  
 12   7  27  1   
 13   8   9  1   
 14   9  10  2   
 15   9  11  am  
 16  11  12  1   
 17  11  13  1   
 18  12  14  1   
 19  12  15  1   
 20  12  28  1   
 21  13  29  1   
 22  13  30  1   
 23  13  31  1   
 24  14  16  1   
 25  14  32  1   
 26  14  33  1   
 27  15  17  1   
 28  15  34  1   
 29  15  35  1   
 30  16  17  1   
 31  16  18  1   
 32  16  36  1   
 33  17  19  1   
 34  17  37  1   
 35  18  20  1   
 36  18  38  1   
 37  18  39  1   
 38  19  21  1   
 39  19  40  1   
 40  19  41  1   
 41  20  21  am  
 42  20  22  1   
 43  21  23  2   
 44  22  42  1   
 45  22  43  1   
 46  22  44  1   
@<TRIPOS>SUBSTRUCTURE
  1 ****  15 GROUP 4 **** **** 0

# MOE 2024.06 (io_trps.svl 2023.06)
