@<TRIPOS>MOLECULE
NONAME
40 40 1 0 0 
SMALL
USER_CHARGES


@<TRIPOS>ATOM
  1 O        0.6130     0.3600    -3.0260 O.2   1 <1>  -0.5700 
  2 C        0.8160    -0.3160    -2.0430 C.2   1 <1>   0.5690 
  3 N        1.5510     0.0930    -0.9750 N.am  1 <1>  -0.4930 
  4 C        0.2280    -1.7260    -1.9680 C.3   1 <1>   0.1710 
  5 C        2.2150     1.3180    -0.7300 C.2   1 <1>   0.0630 
  6 N        0.0990    -2.2570    -0.5720 N.3   1 <1>  -0.8100 
  7 C        2.8950     1.6580     0.3870 C.2   1 <1>  -0.3320 
  8 C        2.3180     2.4310    -1.5630 C.2   1 <1>   0.1390 
  9 C       -0.0560    -3.7270    -0.6010 C.3   1 <1>   0.1100 
 10 C       -1.0400    -1.6140     0.1110 C.3   1 <1>   0.0300 
 11 N        3.3640     2.9170     0.1850 N.pl3 1 <1>   0.3140 
 12 C        3.1290     0.8450     1.6530 C.3   1 <1>  -0.0600 
 13 N        3.0030     3.3930    -1.0200 N.2   1 <1>  -0.7070 
 14 C        0.1970    -4.3540     0.7720 C.3   1 <1>   0.1200 
 15 C        4.1700     3.7420     1.1110 C.3   1 <1>   0.0960 
 16 O        0.1130    -5.7380     0.6420 O.3   1 <1>  -0.5600 
 17 C        5.6700     3.4740     0.9310 C.3   1 <1>  -0.2400 
 18 C        0.3560    -6.4310     1.8230 C.3   1 <1>   0.0400 
 19 H        1.5660    -0.5970    -0.2210 H     1 <1>   0.3700 
 20 H        0.8860    -2.3610    -2.5340 H     1 <1>   0.0800 
 21 H       -0.7310    -1.7310    -2.4550 H     1 <1>   0.0800 
 22 H        1.8800     2.4900    -2.5450 H     1 <1>   0.1500 
 23 H        0.6650    -4.1480    -1.2810 H     1 <1>   0.0800 
 24 H       -1.0430    -3.9900    -0.9440 H     1 <1>   0.0800 
 25 H       -0.9350    -0.5420     0.0920 H     1 <1>   0.0800 
 26 H       -1.0820    -1.9220     1.1410 H     1 <1>   0.0800 
 27 H       -1.9670    -1.8780    -0.3690 H     1 <1>   0.0800 
 28 H        2.6670    -0.1220     1.5740 H     1 <1>   0.0800 
 29 H        2.7080     1.3530     2.5030 H     1 <1>   0.0800 
 30 H        4.1820     0.7050     1.8140 H     1 <1>   0.0800 
 31 H       -0.5440    -4.0360     1.4830 H     1 <1>   0.0800 
 32 H        1.1840    -4.0990     1.1160 H     1 <1>   0.0800 
 33 H        3.8680     3.5290     2.1190 H     1 <1>   0.0800 
 34 H        3.9580     4.7750     0.9040 H     1 <1>   0.0800 
 35 H        5.8990     2.4450     1.1430 H     1 <1>   0.0800 
 36 H        6.2360     4.0980     1.5990 H     1 <1>   0.0800 
 37 H        5.9620     3.7010    -0.0800 H     1 <1>   0.0800 
 38 H        0.2660    -7.4830     1.6170 H     1 <1>   0.0800 
 39 H       -0.3710    -6.1420     2.5620 H     1 <1>   0.0800 
 40 H        1.3530    -6.2120     2.1640 H     1 <1>   0.0800 
@<TRIPOS>BOND
  1   1   2  2   
  2   2   3  am  
  3   2   4  1   
  4   3   5  1   
  5   3  19  1   
  6   4   6  1   
  7   4  20  1   
  8   4  21  1   
  9   5   7  2   
 10   5   8  1   
 11   6   9  1   
 12   6  10  1   
 13   7  11  1   
 14   7  12  1   
 15   8  13  2   
 16   8  22  1   
 17   9  14  1   
 18   9  23  1   
 19   9  24  1   
 20  10  25  1   
 21  10  26  1   
 22  10  27  1   
 23  11  13  1   
 24  11  15  1   
 25  12  28  1   
 26  12  29  1   
 27  12  30  1   
 28  14  16  1   
 29  14  31  1   
 30  14  32  1   
 31  15  17  1   
 32  15  33  1   
 33  15  34  1   
 34  16  18  1   
 35  17  35  1   
 36  17  36  1   
 37  17  37  1   
 38  18  38  1   
 39  18  39  1   
 40  18  40  1   
@<TRIPOS>SUBSTRUCTURE
  1 ****   3 GROUP 4 **** **** 0

# MOE 2024.06 (io_trps.svl 2023.06)
