@<TRIPOS>MOLECULE
NONAME
50 52 1 0 0 
SMALL
USER_CHARGES


@<TRIPOS>ATOM
  1 O       -2.5360     0.3960    -3.0710 O.2   1 <1>  -0.5700 
  2 C       -2.6470     1.3940    -2.3840 C.2   1 <1>   0.5440 
  3 N       -3.7640     2.1870    -2.5410 N.am  1 <1>  -0.6600 
  4 C       -1.6190     1.7180    -1.4200 C.ar  1 <1>   0.0860 
  5 C       -4.9520     1.6760    -3.2800 C.3   1 <1>   0.1400 
  6 C       -3.9600     3.4960    -1.8620 C.3   1 <1>   0.1400 
  7 C       -1.8360     1.5390    -0.0540 C.ar  1 <1>  -0.1500 
  8 C       -0.3850     2.2260    -1.8230 C.ar  1 <1>  -0.1500 
  9 C       -5.7700     0.7130    -2.4040 C.3   1 <1>   0.1400 
 10 C       -4.8290     3.3800    -0.6000 C.3   1 <1>  -0.1600 
 11 C       -0.8790     1.8750     0.8870 C.ar  1 <1>  -0.1440 
 12 C        0.5850     2.5650    -0.8980 C.ar  1 <1>  -0.1500 
 13 N       -5.9100     1.1670    -0.9760 N.am  1 <1>  -0.6600 
 14 C       -6.1540     2.6230    -0.7700 C.3   1 <1>   0.1400 
 15 C        0.3360     2.3940     0.4550 C.ar  1 <1>   0.0830 
 16 C       -1.1660     1.6710     2.3670 C.3   1 <1>  -0.0970 
 17 C       -5.7150     0.3480     0.1080 C.2   1 <1>   0.5690 
 18 O        1.2820     2.7330     1.3420 O.3   1 <1>  -0.5320 
 19 O       -5.6940     0.7850     1.2360 O.2   1 <1>  -0.5700 
 20 C       -5.5320    -1.1490    -0.0780 C.3   1 <1>  -0.0990 
 21 C       -5.5930    -1.9130     1.2520 C.3   1 <1>   0.0960 
 22 N       -5.6200    -3.3670     1.0150 N.pl3 1 <1>   0.3140 
 23 N       -4.5560    -4.0350     0.5320 N.2   1 <1>  -0.7070 
 24 C       -6.6640    -4.1960     1.2160 C.2   1 <1>  -0.3020 
 25 C       -4.9480    -5.2690     0.4420 C.2   1 <1>   0.1390 
 26 C       -6.2640    -5.4330     0.8560 C.2   1 <1>  -0.1500 
 27 H       -4.6310     1.1610    -4.1690 H     1 <1>   0.0800 
 28 H       -5.5700     2.4980    -3.5930 H     1 <1>   0.0800 
 29 H       -4.4250     4.1760    -2.5540 H     1 <1>   0.0800 
 30 H       -3.0060     3.9180    -1.5970 H     1 <1>   0.0800 
 31 H       -2.7790     1.1260     0.2610 H     1 <1>   0.1500 
 32 H       -0.1970     2.3510    -2.8750 H     1 <1>   0.1500 
 33 H       -5.2760    -0.2410    -2.4450 H     1 <1>   0.0800 
 34 H       -6.7480     0.5900    -2.8340 H     1 <1>   0.0800 
 35 H       -5.0570     4.3770    -0.2720 H     1 <1>   0.0800 
 36 H       -4.2640     2.9250     0.1910 H     1 <1>   0.0800 
 37 H        1.5270     2.9570    -1.2330 H     1 <1>   0.1500 
 38 H       -6.7190     3.0260    -1.5930 H     1 <1>   0.0800 
 39 H       -6.7450     2.7530     0.1210 H     1 <1>   0.0800 
 40 H       -2.1620     1.2980     2.5230 H     1 <1>   0.0800 
 41 H       -1.0630     2.6040     2.8910 H     1 <1>   0.0800 
 42 H       -0.4660     0.9660     2.7780 H     1 <1>   0.0800 
 43 H        2.0980     3.0680     0.9340 H     1 <1>   0.4500 
 44 H       -4.5770    -1.3250    -0.5400 H     1 <1>   0.0800 
 45 H       -6.3100    -1.5100    -0.7240 H     1 <1>   0.0800 
 46 H       -6.4770    -1.6390     1.7980 H     1 <1>   0.0800 
 47 H       -4.7320    -1.6800     1.8520 H     1 <1>   0.0800 
 48 H       -7.6140    -3.8660     1.5950 H     1 <1>   0.1500 
 49 H       -4.3170    -6.0650     0.0840 H     1 <1>   0.1500 
 50 H       -6.8130    -6.3570     0.8740 H     1 <1>   0.1500 
@<TRIPOS>BOND
  1   1   2  2   
  2   2   3  am  
  3   2   4  1   
  4   3   5  1   
  5   3   6  1   
  6   4   7  ar  
  7   4   8  ar  
  8   5   9  1   
  9   5  27  1   
 10   5  28  1   
 11   6  10  1   
 12   6  29  1   
 13   6  30  1   
 14   7  11  ar  
 15   7  31  1   
 16   8  12  ar  
 17   8  32  1   
 18   9  13  1   
 19   9  33  1   
 20   9  34  1   
 21  10  14  1   
 22  10  35  1   
 23  10  36  1   
 24  11  15  ar  
 25  11  16  1   
 26  12  15  ar  
 27  12  37  1   
 28  13  14  1   
 29  13  17  am  
 30  14  38  1   
 31  14  39  1   
 32  15  18  1   
 33  16  40  1   
 34  16  41  1   
 35  16  42  1   
 36  17  19  2   
 37  17  20  1   
 38  18  43  1   
 39  20  21  1   
 40  20  44  1   
 41  20  45  1   
 42  21  22  1   
 43  21  46  1   
 44  21  47  1   
 45  22  23  1   
 46  22  24  1   
 47  23  25  2   
 48  24  26  2   
 49  24  48  1   
 50  25  26  1   
 51  25  49  1   
 52  26  50  1   
@<TRIPOS>SUBSTRUCTURE
  1 ****  17 GROUP 4 **** **** 0

# MOE 2024.06 (io_trps.svl 2023.06)
