@<TRIPOS>MOLECULE
NONAME
48 51 1 0 0 
SMALL
USER_CHARGES


@<TRIPOS>ATOM
  1 F       -1.1420    -1.2520     0.1100 F     1 <1>  -0.1900 
  2 C       -1.1870    -2.5510     0.2440 C.ar  1 <1>   0.1900 
  3 C       -0.0010    -3.2490     0.3770 C.ar  1 <1>  -0.1500 
  4 C       -2.4170    -3.1790     0.2480 C.ar  1 <1>  -0.1500 
  5 C       -0.0490    -4.6260     0.5170 C.ar  1 <1>  -0.1500 
  6 C       -2.4570    -4.5560     0.3880 C.ar  1 <1>  -0.1500 
  7 C       -1.2800    -5.2850     0.5190 C.ar  1 <1>   0.0830 
  8 O       -1.4100    -6.6300     0.6430 O.3   1 <1>  -0.3630 
  9 C       -0.2670    -7.4630     0.8230 C.3   1 <1>   0.1810 
 10 C       -0.6880    -8.9280     0.8920 C.2   1 <1>   0.5690 
 11 O       -0.4770    -9.5230     1.9200 O.2   1 <1>  -0.5700 
 12 N       -1.3400    -9.5430    -0.1540 N.am  1 <1>  -0.6600 
 13 C       -1.9090    -8.8150    -1.3320 C.3   1 <1>   0.1400 
 14 C       -1.9650   -10.8960     0.0220 C.3   1 <1>   0.1400 
 15 C       -3.4220    -8.5420    -1.1150 C.3   1 <1>   0.4230 
 16 C       -3.5090   -10.8070    -0.0320 C.3   1 <1>   0.3430 
 17 N       -3.9950    -9.3770     0.0200 N.4   1 <1>  -0.9590 
 18 C       -4.2090    -8.7600    -2.4280 C.3   1 <1>   0.1200 
 19 C       -5.4810    -9.2070     0.1180 C.3   1 <1>   0.5180 
 20 O       -5.5800    -8.5750    -2.2220 O.3   1 <1>  -0.5600 
 21 C       -6.0310   -10.1040     1.2440 C.3   1 <1>  -0.1950 
 22 C       -6.1540    -9.4170    -1.2600 C.3   1 <1>   0.1200 
 23 C       -6.4620   -11.5320     1.0700 C.3   1 <1>  -0.2000 
 24 C       -7.4810   -10.4670     1.3630 C.3   1 <1>  -0.2000 
 25 H        0.9350    -2.7190     0.3720 H     1 <1>   0.1500 
 26 H       -3.3170    -2.5980     0.1450 H     1 <1>   0.1500 
 27 H        0.8800    -5.1550     0.6240 H     1 <1>   0.1500 
 28 H       -3.4030    -5.0630     0.4010 H     1 <1>   0.1500 
 29 H        0.4050    -7.3180    -0.0010 H     1 <1>   0.0800 
 30 H        0.2130    -7.1820     1.7440 H     1 <1>   0.0800 
 31 H       -1.3940    -7.8890    -1.5150 H     1 <1>   0.0800 
 32 H       -1.7650    -9.4230    -2.2090 H     1 <1>   0.0800 
 33 H       -1.6110   -11.5580    -0.7490 H     1 <1>   0.0800 
 34 H       -1.6730   -11.3300     0.9640 H     1 <1>   0.0800 
 35 H       -3.5240    -7.5010    -0.8560 H     1 <1>   0.0800 
 36 H       -3.9080   -11.3680     0.7970 H     1 <1>   0.0800 
 37 H       -3.8570   -11.2770    -0.9370 H     1 <1>   0.0800 
 38 H       -3.5800    -8.9900     0.8780 H     1 <1>   0.4500 
 39 H       -4.0540    -9.7500    -2.8200 H     1 <1>   0.0800 
 40 H       -3.8960    -8.0460    -3.1710 H     1 <1>   0.0800 
 41 H       -5.6850    -8.1870     0.4010 H     1 <1>   0.0800 
 42 H       -5.5680    -9.8470     2.1830 H     1 <1>   0.1000 
 43 H       -7.1990    -9.1670    -1.2020 H     1 <1>   0.0800 
 44 H       -6.0640   -10.4360    -1.5930 H     1 <1>   0.0800 
 45 H       -6.5100   -11.9990     0.1010 H     1 <1>   0.1000 
 46 H       -6.2500   -12.2460     1.8500 H     1 <1>   0.1000 
 47 H       -7.9400   -10.4580     2.3380 H     1 <1>   0.1000 
 48 H       -8.1890   -10.2260     0.5890 H     1 <1>   0.1000 
@<TRIPOS>BOND
  1   1   2  1   
  2   2   3  ar  
  3   2   4  ar  
  4   3   5  ar  
  5   3  25  1   
  6   4   6  ar  
  7   4  26  1   
  8   5   7  ar  
  9   5  27  1   
 10   6   7  ar  
 11   6  28  1   
 12   7   8  1   
 13   8   9  1   
 14   9  10  1   
 15   9  29  1   
 16   9  30  1   
 17  10  11  2   
 18  10  12  am  
 19  12  13  1   
 20  12  14  1   
 21  13  15  1   
 22  13  31  1   
 23  13  32  1   
 24  14  16  1   
 25  14  33  1   
 26  14  34  1   
 27  15  17  1   
 28  15  18  1   
 29  15  35  1   
 30  16  17  1   
 31  16  36  1   
 32  16  37  1   
 33  17  19  1   
 34  17  38  1   
 35  18  20  1   
 36  18  39  1   
 37  18  40  1   
 38  19  21  1   
 39  19  22  1   
 40  19  41  1   
 41  20  22  1   
 42  21  23  1   
 43  21  24  1   
 44  21  42  1   
 45  22  43  1   
 46  22  44  1   
 47  23  24  1   
 48  23  45  1   
 49  23  46  1   
 50  24  47  1   
 51  24  48  1   
@<TRIPOS>SUBSTRUCTURE
  1 ****  15 GROUP 4 **** **** 0

# MOE 2024.06 (io_trps.svl 2023.06)
