@<TRIPOS>MOLECULE
NONAME
38 40 1 0 0 
SMALL
USER_CHARGES


@<TRIPOS>ATOM
  1 O       -0.5210     0.2330    -0.2890 O.2   1 <1>  -0.5700 
  2 C       -1.6040     0.7580    -0.4040 C.2   1 <1>   0.5770 
  3 N       -2.7460     0.0060    -0.4760 N.am  1 <1>  -0.6600 
  4 C       -1.6950     2.2810    -0.4790 C.3   1 <1>   0.0530 
  5 C       -4.1310     0.5160    -0.6260 C.3   1 <1>   0.1400 
  6 C       -2.7350    -1.4750    -0.4100 C.3   1 <1>   0.1400 
  7 C       -0.3760     3.0800    -0.2650 C.3   1 <1>   0.0000 
  8 C       -2.2140     2.9590     0.8190 C.3   1 <1>   0.0000 
  9 C       -5.0080    -0.7350    -0.7010 C.3   1 <1>   0.2000 
 10 C       -4.1790    -1.8640    -0.0900 C.3   1 <1>  -0.0800 
 11 C       -1.2250     4.1140     0.5170 C.3   1 <1>   0.0000 
 12 O       -6.1860    -0.5760     0.0100 O.3   1 <1>  -0.6800 
 13 C       -4.5920    -3.2510    -0.6130 C.3   1 <1>  -0.0160 
 14 C       -3.7800    -4.3630     0.0310 C.ar  1 <1>   0.1670 
 15 N       -2.5940    -4.6120    -0.5000 N.ar  1 <1>  -0.6200 
 16 C       -4.2940    -5.0560     1.1260 C.ar  1 <1>   0.1600 
 17 C       -1.9610    -5.5870     0.1320 C.ar  1 <1>   0.1600 
 18 N       -3.6630    -6.0320     1.7590 N.ar  1 <1>  -0.6200 
 19 C       -2.4780    -6.2730     1.2240 C.ar  1 <1>   0.1600 
 20 H       -2.2260     2.6270    -1.3510 H     1 <1>   0.0000 
 21 H       -4.3880     1.1120     0.2320 H     1 <1>   0.0800 
 22 H       -4.2210     1.0970    -1.5270 H     1 <1>   0.0800 
 23 H       -2.4320    -1.8660    -1.3670 H     1 <1>   0.0800 
 24 H       -2.0510    -1.8250     0.3450 H     1 <1>   0.0800 
 25 H        0.3380     2.5850     0.3710 H     1 <1>   0.0000 
 26 H        0.0510     3.4660    -1.1730 H     1 <1>   0.0000 
 27 H       -3.2480     3.2510     0.7770 H     1 <1>   0.0000 
 28 H       -1.9540     2.4150     1.7120 H     1 <1>   0.0000 
 29 H       -5.2560    -0.9430    -1.7290 H     1 <1>   0.0800 
 30 H       -4.2800    -1.8420     0.9820 H     1 <1>   0.0800 
 31 H       -1.6510     4.8700    -0.1200 H     1 <1>   0.0000 
 32 H       -0.7370     4.5090     1.3900 H     1 <1>   0.0000 
 33 H       -5.9950    -0.3970     0.9520 H     1 <1>   0.4000 
 34 H       -4.4600    -3.2950    -1.6810 H     1 <1>   0.0800 
 35 H       -5.6370    -3.4070    -0.4120 H     1 <1>   0.0800 
 36 H       -5.2690    -4.7920     1.4960 H     1 <1>   0.1500 
 37 H       -0.9850    -5.8550    -0.2320 H     1 <1>   0.1500 
 38 H       -1.8860    -7.0510     1.6720 H     1 <1>   0.1500 
@<TRIPOS>BOND
  1   1   2  2   
  2   2   3  am  
  3   2   4  1   
  4   3   5  1   
  5   3   6  1   
  6   4   7  1   
  7   4   8  1   
  8   4  20  1   
  9   5   9  1   
 10   5  21  1   
 11   5  22  1   
 12   6  10  1   
 13   6  23  1   
 14   6  24  1   
 15   7  11  1   
 16   7  25  1   
 17   7  26  1   
 18   8  11  1   
 19   8  27  1   
 20   8  28  1   
 21   9  10  1   
 22   9  12  1   
 23   9  29  1   
 24  10  13  1   
 25  10  30  1   
 26  11  31  1   
 27  11  32  1   
 28  12  33  1   
 29  13  14  1   
 30  13  34  1   
 31  13  35  1   
 32  14  15  ar  
 33  14  16  ar  
 34  15  17  ar  
 35  16  18  ar  
 36  16  36  1   
 37  17  19  ar  
 38  17  37  1   
 39  18  19  ar  
 40  19  38  1   
@<TRIPOS>SUBSTRUCTURE
  1 ****   6 GROUP 4 **** **** 0

# MOE 2024.06 (io_trps.svl 2023.06)
