@<TRIPOS>MOLECULE
NONAME
39 41 1 0 0 
SMALL
USER_CHARGES


@<TRIPOS>ATOM
  1 S        0.0110     0.5470    -1.7080 S.3   1 <1>   0.1810 
  2 N       -0.4710    -1.0720    -1.7460 N.2   1 <1>  -0.2210 
  3 C       -1.3000     1.0330    -0.6830 C.2   1 <1>  -0.0450 
  4 N       -1.5120    -1.2370    -1.0600 N.2   1 <1>  -0.2270 
  5 C       -1.9970    -0.1000    -0.4600 C.2   1 <1>   0.0460 
  6 C       -1.4120     2.4120    -0.2880 C.2   1 <1>   0.7150 
  7 C       -3.2530    -0.2720     0.3750 C.3   1 <1>  -0.0590 
  8 O       -2.3620     2.7760     0.3800 O.2   1 <1>  -0.5700 
  9 N       -0.4440     3.3070    -0.6470 N.am  1 <1>  -0.4930 
 10 C       -0.2510     4.6590    -0.2770 C.2   1 <1>   0.0630 
 11 C        1.0210     5.1750    -0.0060 C.2   1 <1>   0.3720 
 12 C       -1.0920     5.7040    -0.1160 C.2   1 <1>  -0.3320 
 13 N        0.9910     6.4270     0.3220 N.2   1 <1>  -0.7070 
 14 N        2.2020     4.4110    -0.0810 N.pl3 1 <1>  -0.8210 
 15 N       -0.3200     6.7540     0.2630 N.pl3 1 <1>   0.3140 
 16 C       -2.6000     5.7850    -0.3110 C.3   1 <1>  -0.0600 
 17 C        2.7790     4.1770     1.2710 C.3   1 <1>   0.2090 
 18 C        3.2480     5.0670    -0.9180 C.3   1 <1>   0.2090 
 19 C       -0.7670     8.1150     0.5830 C.3   1 <1>   0.0160 
 20 C        4.2820     4.3670     1.1280 C.3   1 <1>  -0.1600 
 21 C        4.4080     5.3910     0.0140 C.3   1 <1>  -0.1600 
 22 H       -3.5640     0.6530     0.8230 H     1 <1>   0.0800 
 23 H       -3.0700    -0.9850     1.1580 H     1 <1>   0.0800 
 24 H       -4.0510    -0.6370    -0.2450 H     1 <1>   0.0800 
 25 H        0.4430     2.9040    -0.9510 H     1 <1>   0.3700 
 26 H       -2.9540     4.9300    -0.8560 H     1 <1>   0.0800 
 27 H       -2.8620     6.6650    -0.8690 H     1 <1>   0.0800 
 28 H       -3.0940     5.8090     0.6440 H     1 <1>   0.0800 
 29 H        2.5420     3.1850     1.6140 H     1 <1>   0.0800 
 30 H        2.3870     4.8950     1.9740 H     1 <1>   0.0800 
 31 H        2.8800     5.9580    -1.4010 H     1 <1>   0.0800 
 32 H        3.5670     4.3700    -1.6730 H     1 <1>   0.0800 
 33 H       -1.5650     8.0660     1.3000 H     1 <1>   0.0800 
 34 H       -1.1070     8.5940    -0.3150 H     1 <1>   0.0800 
 35 H        0.0560     8.6680     0.9980 H     1 <1>   0.0800 
 36 H        4.7280     3.4350     0.8300 H     1 <1>   0.0800 
 37 H        4.7300     4.7010     2.0470 H     1 <1>   0.0800 
 38 H        4.2640     6.3820     0.4080 H     1 <1>   0.0800 
 39 H        5.3560     5.3430    -0.4910 H     1 <1>   0.0800 
@<TRIPOS>BOND
  1   1   2  1   
  2   1   3  1   
  3   2   4  2   
  4   3   5  2   
  5   3   6  1   
  6   4   5  1   
  7   5   7  1   
  8   6   8  2   
  9   6   9  am  
 10   7  22  1   
 11   7  23  1   
 12   7  24  1   
 13   9  10  1   
 14   9  25  1   
 15  10  11  1   
 16  10  12  2   
 17  11  13  2   
 18  11  14  1   
 19  12  15  1   
 20  12  16  1   
 21  13  15  1   
 22  14  17  1   
 23  14  18  1   
 24  15  19  1   
 25  16  26  1   
 26  16  27  1   
 27  16  28  1   
 28  17  20  1   
 29  17  29  1   
 30  17  30  1   
 31  18  21  1   
 32  18  31  1   
 33  18  32  1   
 34  19  33  1   
 35  19  34  1   
 36  19  35  1   
 37  20  21  1   
 38  20  36  1   
 39  20  37  1   
 40  21  38  1   
 41  21  39  1   
@<TRIPOS>SUBSTRUCTURE
  1 ****   9 GROUP 4 **** **** 0

# MOE 2024.06 (io_trps.svl 2023.06)
