@<TRIPOS>MOLECULE
NONAME
48 49 1 0 0 
SMALL
USER_CHARGES


@<TRIPOS>ATOM
  1 O       -1.2410    -1.1880     1.7500 O.3   1 <1>  -0.3630 
  2 C       -1.8130    -1.3160     0.5330 C.ar  1 <1>   0.0830 
  3 C       -0.7810     0.0590     2.2200 C.3   1 <1>   0.0400 
  4 C       -2.2340    -2.5670     0.1370 C.ar  1 <1>  -0.1500 
  5 C       -2.0120    -0.2790    -0.3610 C.ar  1 <1>  -0.1500 
  6 C       -2.8240    -2.7350    -1.1040 C.ar  1 <1>   0.1670 
  7 C       -2.6110    -0.5510    -1.5770 C.ar  1 <1>   0.1600 
  8 N       -3.0200    -1.7480    -1.9690 N.ar  1 <1>  -0.6200 
  9 C       -3.2830    -4.1260    -1.5400 C.3   1 <1>   0.2540 
 10 N       -4.1180    -4.8260    -0.5230 N.3   1 <1>  -0.8100 
 11 C       -4.3930    -6.2100    -0.9290 C.3   1 <1>   0.1100 
 12 C       -5.3580    -4.0590    -0.2800 C.3   1 <1>   0.0300 
 13 C       -4.8180    -7.0430     0.2930 C.3   1 <1>   0.3430 
 14 N       -5.0770    -8.4900    -0.0340 N.4   1 <1>  -0.9590 
 15 C       -5.7660    -9.2160     1.0760 C.3   1 <1>   0.4230 
 16 C       -3.7960    -9.1670    -0.4130 C.3   1 <1>   0.3430 
 17 C       -6.0570   -10.6610     0.6430 C.3   1 <1>  -0.1600 
 18 C       -7.0830    -8.5280     1.4410 C.3   1 <1>  -0.2400 
 19 C       -4.0650   -10.5970    -0.8790 C.3   1 <1>  -0.1600 
 20 C       -4.7930   -11.4040     0.1980 C.3   1 <1>  -0.1600 
 21 H       -0.3670    -0.0860     3.2010 H     1 <1>   0.0800 
 22 H       -1.6110     0.7420     2.2700 H     1 <1>   0.0800 
 23 H       -0.0200     0.4240     1.5530 H     1 <1>   0.0800 
 24 H       -2.1050    -3.4020     0.7980 H     1 <1>   0.1500 
 25 H       -1.7160     0.7260    -0.1360 H     1 <1>   0.1500 
 26 H       -2.7640     0.2600    -2.2680 H     1 <1>   0.1500 
 27 H       -2.4000    -4.7050    -1.7420 H     1 <1>   0.0800 
 28 H       -3.8350    -4.0360    -2.4600 H     1 <1>   0.0800 
 29 H       -3.4930    -6.6290    -1.3430 H     1 <1>   0.0800 
 30 H       -5.1630    -6.2220    -1.6830 H     1 <1>   0.0800 
 31 H       -5.1190    -3.0700     0.0770 H     1 <1>   0.0800 
 32 H       -5.9640    -4.5350     0.4690 H     1 <1>   0.0800 
 33 H       -5.9290    -3.9620    -1.1890 H     1 <1>   0.0800 
 34 H       -5.7120    -6.5950     0.6890 H     1 <1>   0.0800 
 35 H       -4.0490    -6.9730     1.0440 H     1 <1>   0.0800 
 36 H       -5.7100    -8.5360    -0.8410 H     1 <1>   0.4500 
 37 H       -5.1250    -9.2370     1.9440 H     1 <1>   0.0800 
 38 H       -3.1320    -9.1870     0.4370 H     1 <1>   0.0800 
 39 H       -3.3080    -8.6290    -1.2080 H     1 <1>   0.0800 
 40 H       -6.7760   -10.6630    -0.1590 H     1 <1>   0.0800 
 41 H       -6.4970   -11.1960     1.4670 H     1 <1>   0.0800 
 42 H       -7.6970    -8.3740     0.5710 H     1 <1>   0.0800 
 43 H       -6.9130    -7.5910     1.9390 H     1 <1>   0.0800 
 44 H       -7.6330    -9.1450     2.1300 H     1 <1>   0.0800 
 45 H       -3.1280   -11.0750    -1.1070 H     1 <1>   0.0800 
 46 H       -4.6460   -10.5780    -1.7850 H     1 <1>   0.0800 
 47 H       -5.0540   -12.3770    -0.1850 H     1 <1>   0.0800 
 48 H       -4.1420   -11.5490     1.0450 H     1 <1>   0.0800 
@<TRIPOS>BOND
  1   1   2  1   
  2   1   3  1   
  3   2   4  ar  
  4   2   5  ar  
  5   3  21  1   
  6   3  22  1   
  7   3  23  1   
  8   4   6  ar  
  9   4  24  1   
 10   5   7  ar  
 11   5  25  1   
 12   6   8  ar  
 13   6   9  1   
 14   7   8  ar  
 15   7  26  1   
 16   9  10  1   
 17   9  27  1   
 18   9  28  1   
 19  10  11  1   
 20  10  12  1   
 21  11  13  1   
 22  11  29  1   
 23  11  30  1   
 24  12  31  1   
 25  12  32  1   
 26  12  33  1   
 27  13  14  1   
 28  13  34  1   
 29  13  35  1   
 30  14  15  1   
 31  14  16  1   
 32  14  36  1   
 33  15  17  1   
 34  15  18  1   
 35  15  37  1   
 36  16  19  1   
 37  16  38  1   
 38  16  39  1   
 39  17  20  1   
 40  17  40  1   
 41  17  41  1   
 42  18  42  1   
 43  18  43  1   
 44  18  44  1   
 45  19  20  1   
 46  19  45  1   
 47  19  46  1   
 48  20  47  1   
 49  20  48  1   
@<TRIPOS>SUBSTRUCTURE
  1 ****  10 GROUP 4 **** **** 0

# MOE 2024.06 (io_trps.svl 2023.06)
