@<TRIPOS>MOLECULE
NONAME
46 49 1 0 0 
SMALL
USER_CHARGES


@<TRIPOS>ATOM
  1 CL      -0.6520     0.0400     0.2200 Cl    1 <1>  -0.1770 
  2 C       -1.4010    -1.5210     0.0120 C.ar  1 <1>   0.1770 
  3 C       -1.1740    -2.5120     0.9480 C.ar  1 <1>  -0.1500 
  4 C       -2.2100    -1.7450    -1.0850 C.ar  1 <1>  -0.1500 
  5 C       -1.7730    -3.7500     0.7850 C.ar  1 <1>  -0.1500 
  6 C       -2.8070    -2.9840    -1.2460 C.ar  1 <1>  -0.1500 
  7 C       -2.5980    -3.9890    -0.3090 C.ar  1 <1>  -0.1430 
  8 C       -3.2670    -5.3410    -0.4810 C.3   1 <1>   0.4870 
  9 N       -4.3680    -5.4620     0.5140 N.4   1 <1>  -0.9590 
 10 C       -4.7880    -6.9060     0.6420 C.3   1 <1>   0.3430 
 11 C       -5.4750    -4.5010     0.1830 C.3   1 <1>   0.3430 
 12 C       -5.9650    -7.1660     1.6060 C.3   1 <1>   0.1400 
 13 C       -6.2850    -4.1690     1.4380 C.3   1 <1>  -0.1600 
 14 N       -7.1870    -6.4750     1.1180 N.am  1 <1>  -0.6600 
 15 C       -7.4490    -5.1320     1.6990 C.3   1 <1>   0.1400 
 16 C       -7.8700    -6.8890     0.0010 C.2   1 <1>   0.6300 
 17 O       -8.3880    -6.0880    -0.7380 O.2   1 <1>  -0.5700 
 18 C       -7.9060    -8.3610    -0.3840 C.3   1 <1>  -0.1000 
 19 C       -9.2560    -9.0320    -0.5230 C.3   1 <1>   0.0000 
 20 C       -8.2800    -9.4280     0.5550 C.3   1 <1>  -0.2000 
 21 C      -10.2240    -8.6850    -1.6300 C.3   1 <1>  -0.2000 
 22 C      -10.6190    -9.6730    -0.6280 C.3   1 <1>  -0.2000 
 23 H       -0.5330    -2.3080     1.7880 H     1 <1>   0.1500 
 24 H       -2.3620    -0.9560    -1.8010 H     1 <1>   0.1500 
 25 H       -1.5790    -4.5160     1.5170 H     1 <1>   0.1500 
 26 H       -3.4310    -3.1480    -2.1100 H     1 <1>   0.1500 
 27 H       -2.5330    -6.1150    -0.3200 H     1 <1>   0.0800 
 28 H       -3.6540    -5.4410    -1.4820 H     1 <1>   0.0800 
 29 H       -3.9760    -5.1450     1.4080 H     1 <1>   0.4500 
 30 H       -3.9450    -7.4870     0.9800 H     1 <1>   0.0800 
 31 H       -5.0680    -7.2810    -0.3280 H     1 <1>   0.0800 
 32 H       -6.1200    -4.9020    -0.5850 H     1 <1>   0.0800 
 33 H       -5.0530    -3.5810    -0.1860 H     1 <1>   0.0800 
 34 H       -5.7170    -6.8300     2.5980 H     1 <1>   0.0800 
 35 H       -6.1470    -8.2250     1.6630 H     1 <1>   0.0800 
 36 H       -6.7120    -3.1890     1.3120 H     1 <1>   0.0800 
 37 H       -5.6460    -4.1130     2.3000 H     1 <1>   0.0800 
 38 H       -8.3490    -4.7250     1.2650 H     1 <1>   0.0800 
 39 H       -7.6260    -5.2250     2.7580 H     1 <1>   0.0800 
 40 H       -7.2240    -8.5690    -1.1860 H     1 <1>   0.1000 
 41 H       -8.5710    -9.1960     1.5640 H     1 <1>   0.1000 
 42 H       -7.8560   -10.4130     0.4750 H     1 <1>   0.1000 
 43 H       -9.9600    -8.9890    -2.6270 H     1 <1>   0.1000 
 44 H      -10.6490    -7.6960    -1.6130 H     1 <1>   0.1000 
 45 H      -11.3390    -9.4230     0.1320 H     1 <1>   0.1000 
 46 H      -10.6570   -10.7170    -0.8880 H     1 <1>   0.1000 
@<TRIPOS>BOND
  1   1   2  1   
  2   2   3  ar  
  3   2   4  ar  
  4   3   5  ar  
  5   3  23  1   
  6   4   6  ar  
  7   4  24  1   
  8   5   7  ar  
  9   5  25  1   
 10   6   7  ar  
 11   6  26  1   
 12   7   8  1   
 13   8   9  1   
 14   8  27  1   
 15   8  28  1   
 16   9  10  1   
 17   9  11  1   
 18   9  29  1   
 19  10  12  1   
 20  10  30  1   
 21  10  31  1   
 22  11  13  1   
 23  11  32  1   
 24  11  33  1   
 25  12  14  1   
 26  12  34  1   
 27  12  35  1   
 28  13  15  1   
 29  13  36  1   
 30  13  37  1   
 31  14  15  1   
 32  14  16  am  
 33  15  38  1   
 34  15  39  1   
 35  16  17  2   
 36  16  18  1   
 37  18  19  1   
 38  18  20  1   
 39  18  40  1   
 40  19  20  1   
 41  19  21  1   
 42  19  22  1   
 43  20  41  1   
 44  20  42  1   
 45  21  22  1   
 46  21  43  1   
 47  21  44  1   
 48  22  45  1   
 49  22  46  1   
@<TRIPOS>SUBSTRUCTURE
  1 ****  11 GROUP 4 **** **** 0

# MOE 2024.06 (io_trps.svl 2023.06)
