@<TRIPOS>MOLECULE
NONAME
49 51 1 0 0 
SMALL
USER_CHARGES


@<TRIPOS>ATOM
  1 S        1.4200     0.3140     1.8210 S.3   1 <1>  -0.0800 
  2 C        1.4310     0.9640     0.1880 C.2   1 <1>  -0.1400 
  3 C        1.4880    -1.3320     1.2190 C.2   1 <1>  -0.1100 
  4 C        1.4840    -0.0390    -0.7120 C.2   1 <1>  -0.1500 
  5 C        1.3860     2.4780     0.0570 C.3   1 <1>   0.3800 
  6 C        1.5160    -1.3440    -0.1250 C.2   1 <1>  -0.1500 
  7 O        1.1270     2.7890    -1.2640 O.3   1 <1>  -0.6800 
  8 C        2.7150     3.1470     0.4830 C.3   1 <1>  -0.0800 
  9 C        2.6380     4.6850     0.3900 C.3   1 <1>  -0.1600 
 10 C        3.9250     2.6300    -0.3270 C.3   1 <1>  -0.1600 
 11 C        3.9600     5.3510     0.7650 C.3   1 <1>   0.3430 
 12 C        5.2210     3.3370     0.0590 C.3   1 <1>   0.3430 
 13 N        5.0510     4.8070    -0.0940 N.4   1 <1>  -0.9590 
 14 C        6.3450     5.5700     0.0810 C.3   1 <1>   0.4040 
 15 C        6.2880     7.0150    -0.4490 C.2   1 <1>   0.5690 
 16 O        5.4010     7.2730    -1.2280 O.2   1 <1>  -0.5700 
 17 N        7.2210     7.9290    -0.0290 N.am  1 <1>  -0.5470 
 18 C        7.3630     9.2920    -0.3470 C.ar  1 <1>   0.1170 
 19 C        8.6330     9.8810    -0.2790 C.ar  1 <1>  -0.1430 
 20 C        6.2680    10.0800    -0.7080 C.ar  1 <1>  -0.1500 
 21 C        8.7870    11.2270    -0.5730 C.ar  1 <1>  -0.1500 
 22 C        9.8720     9.0800     0.1080 C.3   1 <1>  -0.0970 
 23 C        6.4190    11.4220    -1.0040 C.ar  1 <1>  -0.1500 
 24 C        7.6810    11.9720    -0.9310 C.ar  1 <1>   0.1900 
 25 F        7.8360    13.2400    -1.2070 F     1 <1>  -0.1900 
 26 H        1.4990    -2.1260     1.9450 H     1 <1>   0.1500 
 27 H        1.5060     0.0770    -1.7830 H     1 <1>   0.1500 
 28 H        0.5690     2.8620     0.6450 H     1 <1>   0.0800 
 29 H        1.5580    -2.2260    -0.7410 H     1 <1>   0.1500 
 30 H        0.3540     2.2700    -1.5590 H     1 <1>   0.4000 
 31 H        2.8770     2.8910     1.5160 H     1 <1>   0.0800 
 32 H        1.8670     5.0470     1.0480 H     1 <1>   0.0800 
 33 H        2.3710     4.9880    -0.6090 H     1 <1>   0.0800 
 34 H        3.7520     2.7650    -1.3810 H     1 <1>   0.0800 
 35 H        4.0500     1.5740    -0.1570 H     1 <1>   0.0800 
 36 H        4.1790     5.1640     1.8030 H     1 <1>   0.0800 
 37 H        3.8710     6.4170     0.6180 H     1 <1>   0.0800 
 38 H        6.0180     2.9860    -0.5780 H     1 <1>   0.0800 
 39 H        5.4690     3.1000     1.0810 H     1 <1>   0.0800 
 40 H        4.7460     5.0000    -1.0650 H     1 <1>   0.4500 
 41 H        7.1280     5.0620    -0.4560 H     1 <1>   0.0800 
 42 H        6.6130     5.5910     1.1230 H     1 <1>   0.0800 
 43 H        7.9900     7.5910     0.5480 H     1 <1>   0.3700 
 44 H        5.2830     9.6540    -0.7590 H     1 <1>   0.1500 
 45 H        9.7480    11.7090    -0.5320 H     1 <1>   0.1500 
 46 H        9.9860     8.2330    -0.5450 H     1 <1>   0.0800 
 47 H        9.7950     8.7430     1.1260 H     1 <1>   0.0800 
 48 H       10.7590     9.6830     0.0230 H     1 <1>   0.0800 
 49 H        5.5800    12.0320    -1.2860 H     1 <1>   0.1500 
@<TRIPOS>BOND
  1   1   2  1   
  2   1   3  1   
  3   2   4  2   
  4   2   5  1   
  5   3   6  2   
  6   3  26  1   
  7   4   6  1   
  8   4  27  1   
  9   5   7  1   
 10   5   8  1   
 11   5  28  1   
 12   6  29  1   
 13   7  30  1   
 14   8   9  1   
 15   8  10  1   
 16   8  31  1   
 17   9  11  1   
 18   9  32  1   
 19   9  33  1   
 20  10  12  1   
 21  10  34  1   
 22  10  35  1   
 23  11  13  1   
 24  11  36  1   
 25  11  37  1   
 26  12  13  1   
 27  12  38  1   
 28  12  39  1   
 29  13  14  1   
 30  13  40  1   
 31  14  15  1   
 32  14  41  1   
 33  14  42  1   
 34  15  16  2   
 35  15  17  am  
 36  17  18  1   
 37  17  43  1   
 38  18  19  ar  
 39  18  20  ar  
 40  19  21  ar  
 41  19  22  1   
 42  20  23  ar  
 43  20  44  1   
 44  21  24  ar  
 45  21  45  1   
 46  22  46  1   
 47  22  47  1   
 48  22  48  1   
 49  23  24  ar  
 50  23  49  1   
 51  24  25  1   
@<TRIPOS>SUBSTRUCTURE
  1 ****  13 GROUP 4 **** **** 0

# MOE 2024.06 (io_trps.svl 2023.06)
