@<TRIPOS>MOLECULE
NONAME
59 62 1 0 0 
SMALL
USER_CHARGES


@<TRIPOS>ATOM
  1 O       -0.6630    -0.7190    -1.1460 O.2   1 <1>  -0.5700 
  2 C       -1.1020    -0.2800    -0.1130 C.2   1 <1>   0.5690 
  3 N       -1.8190    -1.0430     0.7440 N.am  1 <1>  -0.7300 
  4 C       -0.8770     1.1770     0.2110 C.3   1 <1>  -0.0990 
  5 C       -2.1420    -2.4740     0.5350 C.3   1 <1>   0.2200 
  6 C       -1.6010     2.0420    -0.8220 C.3   1 <1>   0.1100 
  7 C       -3.5930    -2.6520     0.1070 C.3   1 <1>  -0.0800 
  8 C       -2.1620    -3.1750     1.8860 C.3   1 <1>   0.1200 
  9 N       -1.5100     3.4740    -0.4800 N.3   1 <1>  -0.8100 
 10 C       -4.3480    -2.6530     1.4420 C.3   1 <1>   0.1200 
 11 C       -4.1060    -1.6480    -0.9440 C.3   1 <1>  -0.0170 
 12 O       -3.3920    -2.8340     2.4470 O.3   1 <1>  -0.5600 
 13 C       -0.1540     4.0270    -0.7440 C.3   1 <1>   0.1100 
 14 C       -2.5270     4.2510    -1.2330 C.3   1 <1>   0.1100 
 15 C       -5.5220    -1.9930    -1.4000 C.ar  1 <1>  -0.1440 
 16 C       -0.0680     5.5530    -0.4940 C.3   1 <1>   0.3430 
 17 C       -2.4860     5.7630    -0.9000 C.3   1 <1>   0.3430 
 18 C       -6.6910    -1.3940    -0.8670 C.ar  1 <1>   0.0000 
 19 C       -5.6860    -2.9330    -2.3750 C.ar  1 <1>  -0.1500 
 20 N       -1.3640     6.0830     0.0420 N.4   1 <1>  -0.9590 
 21 C       -7.9400    -1.8330    -1.3730 C.ar  1 <1>   0.3100 
 22 C       -6.7040    -0.3880     0.1280 C.ar  1 <1>  -0.1500 
 23 C       -6.9680    -3.2880    -2.8090 C.ar  1 <1>   0.1600 
 24 C       -1.3040     7.5210     0.4320 C.3   1 <1>   0.2630 
 25 N       -8.0610    -2.7760    -2.3400 N.ar  1 <1>  -0.6200 
 26 C       -9.1200    -1.2740    -0.8580 C.ar  1 <1>  -0.1500 
 27 C       -7.8730     0.1380     0.6080 C.ar  1 <1>  -0.1500 
 28 C       -9.0990    -0.3100     0.1120 C.ar  1 <1>  -0.1500 
 29 H       -2.1930    -0.6640     1.6180 H     1 <1>   0.3700 
 30 H       -1.2490     1.3940     1.1950 H     1 <1>   0.0800 
 31 H        0.1800     1.3560     0.1850 H     1 <1>   0.0800 
 32 H       -1.4450    -2.9270    -0.1510 H     1 <1>   0.0800 
 33 H       -2.6370     1.7450    -0.8360 H     1 <1>   0.0800 
 34 H       -1.1940     1.8620    -1.8050 H     1 <1>   0.0800 
 35 H       -3.6880    -3.6400    -0.3080 H     1 <1>   0.0800 
 36 H       -1.3640    -2.8600     2.5350 H     1 <1>   0.0800 
 37 H       -2.1380    -4.2440     1.7640 H     1 <1>   0.0800 
 38 H       -5.0680    -3.4530     1.4930 H     1 <1>   0.0800 
 39 H       -4.8360    -1.7160     1.6320 H     1 <1>   0.0800 
 40 H       -3.4500    -1.6880    -1.7970 H     1 <1>   0.0800 
 41 H       -4.0590    -0.6410    -0.5780 H     1 <1>   0.0800 
 42 H        0.5640     3.5410    -0.1060 H     1 <1>   0.0800 
 43 H        0.1350     3.8230    -1.7620 H     1 <1>   0.0800 
 44 H       -2.3750     4.1190    -2.2910 H     1 <1>   0.0800 
 45 H       -3.5090     3.8750    -1.0010 H     1 <1>   0.0800 
 46 H        0.1790     6.0500    -1.4170 H     1 <1>   0.0800 
 47 H        0.7290     5.7480     0.2060 H     1 <1>   0.0800 
 48 H       -3.4260     6.0470    -0.4570 H     1 <1>   0.0800 
 49 H       -2.3740     6.3230    -1.8140 H     1 <1>   0.0800 
 50 H       -4.8450    -3.4230    -2.8310 H     1 <1>   0.1500 
 51 H       -1.5540     5.4840     0.8630 H     1 <1>   0.4500 
 52 H       -5.7800    -0.0180     0.5250 H     1 <1>   0.1500 
 53 H       -7.0500    -4.0340    -3.5810 H     1 <1>   0.1500 
 54 H       -1.1050     8.1360    -0.4310 H     1 <1>   0.0800 
 55 H       -0.5220     7.6790     1.1570 H     1 <1>   0.0800 
 56 H       -2.2410     7.8290     0.8670 H     1 <1>   0.0800 
 57 H      -10.0510    -1.6330    -1.2570 H     1 <1>   0.1500 
 58 H       -7.8660     0.9010     1.3680 H     1 <1>   0.1500 
 59 H      -10.0120     0.1090     0.4970 H     1 <1>   0.1500 
@<TRIPOS>BOND
  1   1   2  2   
  2   2   3  am  
  3   2   4  1   
  4   3   5  1   
  5   3  29  1   
  6   4   6  1   
  7   4  30  1   
  8   4  31  1   
  9   5   7  1   
 10   5   8  1   
 11   5  32  1   
 12   6   9  1   
 13   6  33  1   
 14   6  34  1   
 15   7  10  1   
 16   7  11  1   
 17   7  35  1   
 18   8  12  1   
 19   8  36  1   
 20   8  37  1   
 21   9  13  1   
 22   9  14  1   
 23  10  12  1   
 24  10  38  1   
 25  10  39  1   
 26  11  15  1   
 27  11  40  1   
 28  11  41  1   
 29  13  16  1   
 30  13  42  1   
 31  13  43  1   
 32  14  17  1   
 33  14  44  1   
 34  14  45  1   
 35  15  18  ar  
 36  15  19  ar  
 37  16  20  1   
 38  16  46  1   
 39  16  47  1   
 40  17  20  1   
 41  17  48  1   
 42  17  49  1   
 43  18  21  ar  
 44  18  22  ar  
 45  19  23  ar  
 46  19  50  1   
 47  20  24  1   
 48  20  51  1   
 49  21  25  ar  
 50  21  26  ar  
 51  22  27  ar  
 52  22  52  1   
 53  23  25  ar  
 54  23  53  1   
 55  24  54  1   
 56  24  55  1   
 57  24  56  1   
 58  26  28  ar  
 59  26  57  1   
 60  27  28  ar  
 61  27  58  1   
 62  28  59  1   
@<TRIPOS>SUBSTRUCTURE
  1 ****  11 GROUP 4 **** **** 0

# MOE 2024.06 (io_trps.svl 2023.06)
