@<TRIPOS>MOLECULE
NONAME
55 59 1 0 0 
SMALL
USER_CHARGES


@<TRIPOS>ATOM
  1 N       -0.2310    -0.5860     0.4860 N.ar  1 <1>  -0.6200 
  2 C       -0.9150    -1.7090     0.6680 C.ar  1 <1>   0.7200 
  3 C        1.0700    -0.6310     0.6890 C.ar  1 <1>   0.3100 
  4 N       -0.4120    -2.8800     1.0480 N.ar  1 <1>  -0.6200 
  5 N       -2.2730    -1.6520     0.4430 N.pl3 1 <1>  -0.8380 
  6 C        1.8520     0.5720     0.5130 C.ar  1 <1>   0.0000 
  7 C        1.6730    -1.8100     1.0760 C.ar  1 <1>  -0.1500 
  8 C        0.8820    -2.9160     1.2430 C.ar  1 <1>   0.1600 
  9 C       -2.9060    -0.5970    -0.4130 C.3   1 <1>   0.2090 
 10 C       -3.2410    -2.5730     1.0970 C.3   1 <1>   0.2090 
 11 C        1.9760     1.2300    -0.7170 C.ar  1 <1>   0.1670 
 12 C        2.5220     1.1190     1.5980 C.ar  1 <1>  -0.1500 
 13 C       -3.8900     0.2600     0.4050 C.3   1 <1>   0.1440 
 14 C       -4.2530    -1.7600     1.9180 C.3   1 <1>  -0.1600 
 15 N        2.6850     2.3300    -0.9150 N.ar  1 <1>  -0.6200 
 16 C        1.2750     0.7000    -1.9570 C.3   1 <1>  -0.0970 
 17 C        3.2610     2.2630     1.3980 C.ar  1 <1>  -0.1500 
 18 C       -4.5120     1.2810    -0.5290 C.ar  1 <1>   0.1670 
 19 C       -4.9320    -0.6550     1.0850 C.3   1 <1>  -0.1600 
 20 C       -3.1510     1.1660     1.4260 C.3   1 <1>  -0.1600 
 21 C        3.3120     2.8260     0.1350 C.ar  1 <1>   0.1670 
 22 N       -5.4500     1.0390    -1.4190 N.ar  1 <1>  -0.6200 
 23 C       -3.9600     2.5160    -0.3540 C.ar  1 <1>  -0.1430 
 24 C       -2.9000     2.5080     0.7190 C.3   1 <1>  -0.0170 
 25 C        4.1170     4.0840    -0.1110 C.3   1 <1>  -0.0970 
 26 C       -5.8210     2.0980    -2.1250 C.ar  1 <1>   0.4770 
 27 C       -4.4190     3.5410    -1.1430 C.ar  1 <1>   0.1600 
 28 N       -5.3630     3.3400    -2.0400 N.ar  1 <1>  -0.6200 
 29 C       -6.9040     1.8650    -3.1500 C.3   1 <1>  -0.0970 
 30 H        2.7330    -1.8550     1.2370 H     1 <1>   0.1500 
 31 H        1.3190    -3.8520     1.5450 H     1 <1>   0.1500 
 32 H       -3.4440    -1.0810    -1.2090 H     1 <1>   0.0800 
 33 H       -2.1650     0.0350    -0.8690 H     1 <1>   0.0800 
 34 H       -2.7380    -3.2700     1.7450 H     1 <1>   0.0800 
 35 H       -3.7530    -3.1360     0.3350 H     1 <1>   0.0800 
 36 H        2.4580     0.6650     2.5710 H     1 <1>   0.1500 
 37 H       -3.7380    -1.3230     2.7560 H     1 <1>   0.0800 
 38 H       -5.0010    -2.4260     2.3090 H     1 <1>   0.0800 
 39 H        1.3100    -0.3730    -1.9900 H     1 <1>   0.0800 
 40 H        1.7470     1.0800    -2.8450 H     1 <1>   0.0800 
 41 H        0.2490     1.0180    -1.9490 H     1 <1>   0.0800 
 42 H        3.7920     2.7130     2.2170 H     1 <1>   0.1500 
 43 H       -5.5340    -1.1190     0.3230 H     1 <1>   0.0800 
 44 H       -5.5890    -0.0710     1.7050 H     1 <1>   0.0800 
 45 H       -2.2380     0.7290     1.7880 H     1 <1>   0.0800 
 46 H       -3.7920     1.3490     2.2690 H     1 <1>   0.0800 
 47 H       -1.9220     2.5180     0.2670 H     1 <1>   0.0800 
 48 H       -3.0020     3.3390     1.3960 H     1 <1>   0.0800 
 49 H        4.8710     3.8870    -0.8510 H     1 <1>   0.0800 
 50 H        4.5930     4.4250     0.7900 H     1 <1>   0.0800 
 51 H        3.4680     4.8580    -0.4770 H     1 <1>   0.0800 
 52 H       -4.0130     4.5320    -1.0400 H     1 <1>   0.1500 
 53 H       -6.9440     0.8270    -3.4220 H     1 <1>   0.0800 
 54 H       -6.7040     2.4480    -4.0300 H     1 <1>   0.0800 
 55 H       -7.8500     2.1600    -2.7380 H     1 <1>   0.0800 
@<TRIPOS>BOND
  1   1   2  ar  
  2   1   3  ar  
  3   2   4  ar  
  4   2   5  1   
  5   3   6  1   
  6   3   7  ar  
  7   4   8  ar  
  8   5   9  1   
  9   5  10  1   
 10   6  11  ar  
 11   6  12  ar  
 12   7   8  ar  
 13   7  30  1   
 14   8  31  1   
 15   9  13  1   
 16   9  32  1   
 17   9  33  1   
 18  10  14  1   
 19  10  34  1   
 20  10  35  1   
 21  11  15  ar  
 22  11  16  1   
 23  12  17  ar  
 24  12  36  1   
 25  13  18  1   
 26  13  19  1   
 27  13  20  1   
 28  14  19  1   
 29  14  37  1   
 30  14  38  1   
 31  15  21  ar  
 32  16  39  1   
 33  16  40  1   
 34  16  41  1   
 35  17  21  ar  
 36  17  42  1   
 37  18  22  ar  
 38  18  23  ar  
 39  19  43  1   
 40  19  44  1   
 41  20  24  1   
 42  20  45  1   
 43  20  46  1   
 44  21  25  1   
 45  22  26  ar  
 46  23  24  1   
 47  23  27  ar  
 48  24  47  1   
 49  24  48  1   
 50  25  49  1   
 51  25  50  1   
 52  25  51  1   
 53  26  28  ar  
 54  26  29  1   
 55  27  28  ar  
 56  27  52  1   
 57  29  53  1   
 58  29  54  1   
 59  29  55  1   
@<TRIPOS>SUBSTRUCTURE
  1 ****   1 GROUP 4 **** **** 0

# MOE 2024.06 (io_trps.svl 2023.06)
