@<TRIPOS>MOLECULE
NONAME
43 45 1 0 0 
SMALL
USER_CHARGES


@<TRIPOS>ATOM
  1 S        0.2810     0.6300     0.6780 S.o2  1 <1>   1.4470 
  2 O        1.2200    -0.1480     1.4580 O.2   1 <1>  -0.6500 
  3 O       -0.3740     1.7600     1.3000 O.2   1 <1>  -0.6500 
  4 N       -0.9310    -0.4180     0.1340 N.am  1 <1>  -0.8490 
  5 C        1.0650     1.1990    -0.8580 C.ar  1 <1>  -0.0090 
  6 C       -0.3690    -1.6080    -0.5530 C.3   1 <1>   0.1960 
  7 C       -1.8490    -0.7930     1.2030 C.3   1 <1>   0.1960 
  8 C        0.3090     1.8030    -1.8590 C.ar  1 <1>  -0.1500 
  9 C        2.4320     1.0450    -1.0740 C.ar  1 <1>  -0.1500 
 10 C       -1.3970    -2.7170    -0.9050 C.3   1 <1>  -0.1060 
 11 C       -3.0960    -1.4670     0.6230 C.3   1 <1>  -0.1600 
 12 C        0.9160     2.2340    -3.0260 C.ar  1 <1>   0.1900 
 13 C        3.0030     1.4870    -2.2550 C.ar  1 <1>   0.1900 
 14 C       -1.2260    -3.0840    -2.3850 C.2   1 <1>   0.9060 
 15 C       -2.8260    -2.1510    -0.7200 C.3   1 <1>   0.2000 
 16 C       -1.0970    -4.0420    -0.1350 C.3   1 <1>  -0.0650 
 17 F        0.1830     2.8050    -3.9420 F     1 <1>  -0.1900 
 18 C        2.2680     2.0880    -3.2560 C.ar  1 <1>  -0.1500 
 19 F        4.2880     1.3340    -2.4260 F     1 <1>  -0.1900 
 20 O       -0.1050    -3.0170    -2.9020 O.co2 1 <1>  -0.9000 
 21 O       -2.2030    -3.5020    -3.0240 O.co2 1 <1>  -0.9000 
 22 O       -3.7700    -3.1380    -0.9160 O.3   1 <1>  -0.6800 
 23 C       -1.0890    -4.0230     1.4020 C.3   1 <1>  -0.1950 
 24 C        0.1350    -3.6870     2.1990 C.3   1 <1>  -0.2000 
 25 C       -0.3600    -5.1020     2.1390 C.3   1 <1>  -0.2000 
 26 H        0.1030    -1.2500    -1.4510 H     1 <1>   0.0800 
 27 H        0.4160    -2.0400     0.0420 H     1 <1>   0.0800 
 28 H       -1.3470    -1.4470     1.8920 H     1 <1>   0.0800 
 29 H       -2.1590     0.0800     1.7520 H     1 <1>   0.0800 
 30 H       -0.7520     1.9320    -1.7310 H     1 <1>   0.1500 
 31 H        3.0520     0.5790    -0.3280 H     1 <1>   0.1500 
 32 H       -3.8480    -0.7170     0.4660 H     1 <1>   0.0800 
 33 H       -3.4840    -2.1670     1.3380 H     1 <1>   0.0800 
 34 H       -2.9820    -1.4180    -1.4950 H     1 <1>   0.0800 
 35 H       -1.8110    -4.7840    -0.4480 H     1 <1>   0.0800 
 36 H       -0.1360    -4.4000    -0.4670 H     1 <1>   0.0800 
 37 H        2.7250     2.4250    -4.1670 H     1 <1>   0.1500 
 38 H       -3.5290    -3.5400    -1.7980 H     1 <1>   0.4000 
 39 H       -2.0560    -3.7920     1.8100 H     1 <1>   0.1000 
 40 H        1.0540    -3.4510     1.6920 H     1 <1>   0.1000 
 41 H        0.0190    -3.1300     3.1120 H     1 <1>   0.1000 
 42 H       -0.8190    -5.5280     3.0140 H     1 <1>   0.1000 
 43 H        0.2090    -5.8240     1.5790 H     1 <1>   0.1000 
@<TRIPOS>BOND
  1   1   2  2   
  2   1   3  2   
  3   1   4  am  
  4   1   5  1   
  5   4   6  1   
  6   4   7  1   
  7   5   8  ar  
  8   5   9  ar  
  9   6  10  1   
 10   6  26  1   
 11   6  27  1   
 12   7  11  1   
 13   7  28  1   
 14   7  29  1   
 15   8  12  ar  
 16   8  30  1   
 17   9  13  ar  
 18   9  31  1   
 19  10  14  1   
 20  10  15  1   
 21  10  16  1   
 22  11  15  1   
 23  11  32  1   
 24  11  33  1   
 25  12  17  1   
 26  12  18  ar  
 27  13  18  ar  
 28  13  19  1   
 29  14  20  ar  
 30  14  21  ar  
 31  15  22  1   
 32  15  34  1   
 33  16  23  1   
 34  16  35  1   
 35  16  36  1   
 36  18  37  1   
 37  22  38  1   
 38  23  24  1   
 39  23  25  1   
 40  23  39  1   
 41  24  25  1   
 42  24  40  1   
 43  24  41  1   
 44  25  42  1   
 45  25  43  1   
@<TRIPOS>SUBSTRUCTURE
  1 ****   6 GROUP 4 **** **** 0

# MOE 2024.06 (io_trps.svl 2023.06)
