@<TRIPOS>MOLECULE
NONAME
44 45 1 0 0 
SMALL
USER_CHARGES


@<TRIPOS>ATOM
  1 O       -0.2800     0.1960    -0.9530 O.2   1 <1>  -0.5700 
  2 C       -1.3800     0.6600    -0.7630 C.2   1 <1>   0.5690 
  3 N       -2.5130    -0.1030    -0.8900 N.am  1 <1>  -0.6600 
  4 C       -1.4850     2.1320    -0.3860 C.3   1 <1>  -0.0990 
  5 C       -2.3950    -1.5480    -1.2450 C.3   1 <1>   0.3200 
  6 C       -3.8990     0.4600    -0.8170 C.3   1 <1>   0.1400 
  7 C       -0.1380     2.7770    -0.0380 C.3   1 <1>   0.0210 
  8 C       -3.2760    -2.3880    -0.3440 C.2   1 <1>  -0.3320 
  9 C       -4.4450     0.4380     0.6170 C.3   1 <1>   0.1200 
 10 C       -0.2200     4.2330     0.4140 C.2   1 <1>  -0.1810 
 11 N       -4.4860    -2.8710    -0.6870 N.pl3 1 <1>   0.0330 
 12 C       -3.0500    -2.8010     0.9220 C.2   1 <1>   0.0770 
 13 O       -5.5610     1.2600     0.6750 O.3   1 <1>  -0.6800 
 14 C       -1.2110     5.1380     0.5610 C.2   1 <1>  -0.0400 
 15 C        0.9140     4.9520     0.8050 C.2   1 <1>   0.1080 
 16 C       -4.9230    -3.5380     0.4020 C.2   1 <1>   0.0070 
 17 N       -4.0910    -3.5150     1.3900 N.2   1 <1>  -0.5650 
 18 O       -0.6750     6.2480     0.9950 O.3   1 <1>  -0.0190 
 19 C       -2.7150     5.1590     0.3510 C.3   1 <1>  -0.0600 
 20 N        0.6090     6.1490     1.1470 N.2   1 <1>  -0.4100 
 21 C        2.3320     4.4220     0.8350 C.3   1 <1>  -0.0590 
 22 C       -6.2630    -4.2400     0.4510 C.3   1 <1>  -0.0600 
 23 H       -2.1270     2.2210     0.4680 H     1 <1>   0.0800 
 24 H       -1.9140     2.6600    -1.2160 H     1 <1>   0.0800 
 25 H       -1.3770    -1.8820    -1.1300 H     1 <1>   0.0800 
 26 H       -2.6680    -1.6870    -2.2770 H     1 <1>   0.0800 
 27 H       -4.5550    -0.1040    -1.4560 H     1 <1>   0.0800 
 28 H       -3.8950     1.4740    -1.1750 H     1 <1>   0.0800 
 29 H        0.5060     2.7210    -0.8990 H     1 <1>   0.0800 
 30 H        0.3220     2.2030     0.7480 H     1 <1>   0.0800 
 31 H       -3.7180     0.8140     1.3150 H     1 <1>   0.0800 
 32 H       -4.7430    -0.5540     0.9060 H     1 <1>   0.0800 
 33 H       -4.9810    -2.7660    -1.5770 H     1 <1>   0.2700 
 34 H       -2.1820    -2.6130     1.5330 H     1 <1>   0.1500 
 35 H       -5.9700     1.2140     1.5620 H     1 <1>   0.4000 
 36 H       -3.0920     4.2340    -0.0340 H     1 <1>   0.0800 
 37 H       -2.9660     5.9420    -0.3420 H     1 <1>   0.0800 
 38 H       -3.2030     5.3630     1.2870 H     1 <1>   0.0800 
 39 H        2.4010     3.6000     1.5230 H     1 <1>   0.0800 
 40 H        3.0060     5.1970     1.1520 H     1 <1>   0.0800 
 41 H        2.6210     4.0930    -0.1460 H     1 <1>   0.0800 
 42 H       -6.3050    -5.0070    -0.3000 H     1 <1>   0.0800 
 43 H       -7.0570    -3.5350     0.2900 H     1 <1>   0.0800 
 44 H       -6.3970    -4.6970     1.4160 H     1 <1>   0.0800 
@<TRIPOS>BOND
  1   1   2  2   
  2   2   3  am  
  3   2   4  1   
  4   3   5  1   
  5   3   6  1   
  6   4   7  1   
  7   4  23  1   
  8   4  24  1   
  9   5   8  1   
 10   5  25  1   
 11   5  26  1   
 12   6   9  1   
 13   6  27  1   
 14   6  28  1   
 15   7  10  1   
 16   7  29  1   
 17   7  30  1   
 18   8  11  1   
 19   8  12  2   
 20   9  13  1   
 21   9  31  1   
 22   9  32  1   
 23  10  14  2   
 24  10  15  1   
 25  11  16  1   
 26  11  33  1   
 27  12  17  1   
 28  12  34  1   
 29  13  35  1   
 30  14  18  1   
 31  14  19  1   
 32  15  20  2   
 33  15  21  1   
 34  16  17  2   
 35  16  22  1   
 36  18  20  1   
 37  19  36  1   
 38  19  37  1   
 39  19  38  1   
 40  21  39  1   
 41  21  40  1   
 42  21  41  1   
 43  22  42  1   
 44  22  43  1   
 45  22  44  1   
@<TRIPOS>SUBSTRUCTURE
  1 ****   2 GROUP 4 **** **** 0

# MOE 2024.06 (io_trps.svl 2023.06)
