@<TRIPOS>MOLECULE
NONAME
42 43 1 0 0 
SMALL
USER_CHARGES


@<TRIPOS>ATOM
  1 S        0.6250     1.4840    -0.4310 S.o2  1 <1>   1.3330 
  2 O       -0.4380     2.1280    -1.1640 O.2   1 <1>  -0.6500 
  3 O        1.8990     2.1690    -0.3520 O.2   1 <1>  -0.6500 
  4 N        0.8550    -0.0890    -1.0060 N.am  1 <1>  -0.8490 
  5 C        0.0640     1.2630     1.2630 C.3   1 <1>  -0.0550 
  6 C       -0.3790    -0.7230    -1.4890 C.3   1 <1>   0.1160 
  7 C        1.8850    -0.1650    -2.0490 C.3   1 <1>   0.1160 
  8 C       -0.1650     2.5590     2.0910 C.3   1 <1>  -0.0800 
  9 C       -1.1800     3.5200     1.4580 C.3   1 <1>   0.2000 
 10 C        1.0930     3.4220     2.2430 C.3   1 <1>   0.3430 
 11 O       -1.8730     4.1570     2.4790 O.3   1 <1>  -0.6800 
 12 C       -0.3560     4.5590     0.6770 C.3   1 <1>   0.3430 
 13 N        1.0740     4.3540     1.0860 N.4   1 <1>  -0.9590 
 14 C        1.8620     5.6020     1.2530 C.3   1 <1>   0.4860 
 15 C        1.8400     6.3680    -0.0510 C.ar  1 <1>  -0.1440 
 16 C        2.5610     5.9050    -1.1430 C.ar  1 <1>   0.1600 
 17 C        1.1030     7.5300    -0.1820 C.ar  1 <1>  -0.1500 
 18 N        2.5920     6.4900    -2.3260 N.ar  1 <1>  -0.6200 
 19 C        1.1310     8.1520    -1.4120 C.ar  1 <1>  -0.1500 
 20 C        1.8790     7.5990    -2.4360 C.ar  1 <1>   0.1600 
 21 H       -0.8560     0.7110     1.2460 H     1 <1>   0.0800 
 22 H        0.7810     0.6520     1.7780 H     1 <1>   0.0800 
 23 H       -0.1860    -1.7460    -1.7650 H     1 <1>   0.0800 
 24 H       -0.7630    -0.1960    -2.3480 H     1 <1>   0.0800 
 25 H       -1.1290    -0.7180    -0.7170 H     1 <1>   0.0800 
 26 H        2.0230    -1.1850    -2.3650 H     1 <1>   0.0800 
 27 H        2.8270     0.1950    -1.6680 H     1 <1>   0.0800 
 28 H        1.6050     0.4330    -2.9010 H     1 <1>   0.0800 
 29 H       -0.5040     2.2460     3.0640 H     1 <1>   0.0800 
 30 H       -1.9070     3.0290     0.8310 H     1 <1>   0.0800 
 31 H        1.9900     2.8230     2.2520 H     1 <1>   0.0800 
 32 H        1.0300     3.9820     3.1620 H     1 <1>   0.0800 
 33 H       -1.2970     4.5810     3.1430 H     1 <1>   0.4000 
 34 H       -0.7000     5.5530     0.9100 H     1 <1>   0.0800 
 35 H       -0.4570     4.3920    -0.3840 H     1 <1>   0.0800 
 36 H        1.5260     3.8360     0.3020 H     1 <1>   0.4500 
 37 H        1.4400     6.2070     2.0390 H     1 <1>   0.0800 
 38 H        2.8820     5.3650     1.5110 H     1 <1>   0.0800 
 39 H        3.1440     5.0030    -1.0520 H     1 <1>   0.1500 
 40 H        0.5270     7.9490     0.6270 H     1 <1>   0.1500 
 41 H        0.5810     9.0610    -1.5830 H     1 <1>   0.1500 
 42 H        1.8940     8.0920    -3.3940 H     1 <1>   0.1500 
@<TRIPOS>BOND
  1   1   2  2   
  2   1   3  2   
  3   1   4  am  
  4   1   5  1   
  5   4   6  1   
  6   4   7  1   
  7   5   8  1   
  8   5  21  1   
  9   5  22  1   
 10   6  23  1   
 11   6  24  1   
 12   6  25  1   
 13   7  26  1   
 14   7  27  1   
 15   7  28  1   
 16   8   9  1   
 17   8  10  1   
 18   8  29  1   
 19   9  11  1   
 20   9  12  1   
 21   9  30  1   
 22  10  13  1   
 23  10  31  1   
 24  10  32  1   
 25  11  33  1   
 26  12  13  1   
 27  12  34  1   
 28  12  35  1   
 29  13  14  1   
 30  13  36  1   
 31  14  15  1   
 32  14  37  1   
 33  14  38  1   
 34  15  16  ar  
 35  15  17  ar  
 36  16  18  ar  
 37  16  39  1   
 38  17  19  ar  
 39  17  40  1   
 40  18  20  ar  
 41  19  20  ar  
 42  19  41  1   
 43  20  42  1   
@<TRIPOS>SUBSTRUCTURE
  1 ****  13 GROUP 4 **** **** 0

# MOE 2024.06 (io_trps.svl 2023.06)
