@<TRIPOS>MOLECULE
NONAME
43 44 1 0 0 
SMALL
USER_CHARGES


@<TRIPOS>ATOM
  1 CL       2.2070     0.7300    -2.1840 Cl    1 <1>  -0.1400 
  2 C        2.2930    -0.6580    -1.1220 C.2   1 <1>   0.1400 
  3 C        2.6350    -0.5150     0.1870 C.2   1 <1>  -0.0410 
  4 C        2.0010    -1.9260    -1.6610 C.2   1 <1>  -0.1500 
  5 N        2.6910    -1.6300     0.9900 N.am  1 <1>  -0.5390 
  6 C        2.0470    -3.0430    -0.8590 C.2   1 <1>   0.0290 
  7 C        2.4130    -2.8890     0.5190 C.2   1 <1>   0.6160 
  8 C        1.7720    -4.3530    -1.3810 C.2   1 <1>   0.6160 
  9 O        2.4850    -3.7990     1.3290 O.2   1 <1>  -0.5700 
 10 O        2.4470    -4.7410    -2.3180 O.2   1 <1>  -0.5700 
 11 N        0.7360    -5.1570    -0.9370 N.am  1 <1>  -0.6600 
 12 C        0.5160    -6.5290    -1.4950 C.3   1 <1>   0.1400 
 13 C       -0.3130    -4.7150     0.0170 C.3   1 <1>   0.1400 
 14 C        0.3680    -7.6290    -0.4130 C.3   1 <1>   0.0000 
 15 C       -0.3610    -5.6830     1.1940 C.3   1 <1>  -0.1600 
 16 C       -0.5850    -7.1180     0.7080 C.3   1 <1>   0.2000 
 17 C       -0.3570    -8.8360    -1.0640 C.3   1 <1>   0.1200 
 18 C        1.7630    -8.1400     0.0810 C.3   1 <1>  -0.1600 
 19 O       -0.5350    -7.9540     1.8070 O.3   1 <1>  -0.6800 
 20 O        0.3490    -9.3630    -2.1420 O.3   1 <1>  -0.6800 
 21 C        2.6530    -7.1890     0.8970 C.3   1 <1>  -0.1600 
 22 C        4.0220    -7.8210     1.1650 C.3   1 <1>  -0.2400 
 23 H        2.8660     0.4470     0.6160 H     1 <1>   0.1500 
 24 H        1.7510    -1.9980    -2.7060 H     1 <1>   0.1500 
 25 H        2.9560    -1.5910     1.9780 H     1 <1>   0.3700 
 26 H       -0.3800    -6.4910    -2.0890 H     1 <1>   0.0800 
 27 H        1.3220    -6.7980    -2.1560 H     1 <1>   0.0800 
 28 H       -0.1240    -3.7190     0.3760 H     1 <1>   0.0800 
 29 H       -1.2640    -4.7080    -0.4880 H     1 <1>   0.0800 
 30 H       -1.1730    -5.4010     1.8390 H     1 <1>   0.0800 
 31 H        0.5470    -5.5880     1.7540 H     1 <1>   0.0800 
 32 H       -1.5970    -7.1640     0.3410 H     1 <1>   0.0800 
 33 H       -1.3330    -8.5540    -1.4210 H     1 <1>   0.0800 
 34 H       -0.4810    -9.6280    -0.3430 H     1 <1>   0.0800 
 35 H        1.6170    -9.0350     0.6620 H     1 <1>   0.0800 
 36 H        2.3310    -8.4380    -0.7830 H     1 <1>   0.0800 
 37 H        0.3830    -7.9860     2.1400 H     1 <1>   0.4000 
 38 H        0.5050    -8.6910    -2.8330 H     1 <1>   0.4000 
 39 H        2.8040    -6.2710     0.3610 H     1 <1>   0.0800 
 40 H        2.2010    -6.9630     1.8440 H     1 <1>   0.0800 
 41 H        4.5280    -8.0270     0.2390 H     1 <1>   0.0800 
 42 H        3.9140    -8.7380     1.7160 H     1 <1>   0.0800 
 43 H        4.6280    -7.1440     1.7410 H     1 <1>   0.0800 
@<TRIPOS>BOND
  1   1   2  1   
  2   2   3  2   
  3   2   4  1   
  4   3   5  1   
  5   3  23  1   
  6   4   6  2   
  7   4  24  1   
  8   5   7  am  
  9   5  25  1   
 10   6   7  1   
 11   6   8  1   
 12   7   9  2   
 13   8  10  2   
 14   8  11  am  
 15  11  12  1   
 16  11  13  1   
 17  12  14  1   
 18  12  26  1   
 19  12  27  1   
 20  13  15  1   
 21  13  28  1   
 22  13  29  1   
 23  14  16  1   
 24  14  17  1   
 25  14  18  1   
 26  15  16  1   
 27  15  30  1   
 28  15  31  1   
 29  16  19  1   
 30  16  32  1   
 31  17  20  1   
 32  17  33  1   
 33  17  34  1   
 34  18  21  1   
 35  18  35  1   
 36  18  36  1   
 37  19  37  1   
 38  20  38  1   
 39  21  22  1   
 40  21  39  1   
 41  21  40  1   
 42  22  41  1   
 43  22  42  1   
 44  22  43  1   
@<TRIPOS>SUBSTRUCTURE
  1 ****  11 GROUP 4 **** **** 0

# MOE 2024.06 (io_trps.svl 2023.06)
