@<TRIPOS>MOLECULE
NONAME
48 51 1 0 0 
SMALL
USER_CHARGES


@<TRIPOS>ATOM
  1 O       -0.8310    -0.0290     3.1270 O.2   1 <1>  -0.5700 
  2 C       -1.3340     0.5420     2.1880 C.2   1 <1>   0.5690 
  3 N       -2.1750    -0.1090     1.3190 N.am  1 <1>  -0.6600 
  4 C       -0.9830     2.0160     2.0130 C.3   1 <1>   0.0440 
  5 C       -2.8220     0.4920     0.1080 C.3   1 <1>   0.1400 
  6 C       -2.4610    -1.5710     1.4630 C.3   1 <1>   0.1400 
  7 C       -0.2900     2.3390     0.6910 C.ar  1 <1>  -0.1440 
  8 C       -4.3230     0.1500     0.0450 C.3   1 <1>   0.1900 
  9 C       -3.9670    -1.8590     1.3620 C.3   1 <1>   0.1100 
 10 C        0.6110     1.4520     0.1140 C.ar  1 <1>   0.1600 
 11 C       -0.5550     3.5300     0.0430 C.ar  1 <1>  -0.1500 
 12 N       -4.5390    -1.3150     0.1110 N.3   1 <1>  -0.8100 
 13 C       -4.9500     0.7310    -1.2380 C.3   1 <1>   0.1200 
 14 N        1.2370     1.6500    -1.0360 N.ar  1 <1>  -0.6200 
 15 C        0.0950     3.7530    -1.1520 C.ar  1 <1>  -0.1500 
 16 C       -5.9850    -1.6190    -0.0160 C.3   1 <1>   0.3330 
 17 O       -6.3150     0.4310    -1.2920 O.3   1 <1>  -0.5600 
 18 C        0.9660     2.7950    -1.6400 C.ar  1 <1>   0.1600 
 19 C       -6.2270    -3.1270    -0.0870 C.ar  1 <1>  -0.1440 
 20 C       -6.5770    -0.9480    -1.2740 C.3   1 <1>   0.1200 
 21 C       -5.4720    -3.9300    -0.9310 C.ar  1 <1>  -0.1500 
 22 C       -7.2150    -3.7100     0.6930 C.ar  1 <1>  -0.1500 
 23 C       -5.7010    -5.2940    -0.9960 C.ar  1 <1>  -0.1500 
 24 C       -7.4440    -5.0740     0.6300 C.ar  1 <1>  -0.1500 
 25 C       -6.6880    -5.8660    -0.2150 C.ar  1 <1>  -0.1500 
 26 H       -1.8880     2.5850     2.1090 H     1 <1>   0.0800 
 27 H       -0.3330     2.3090     2.8170 H     1 <1>   0.0800 
 28 H       -2.7160     1.5600     0.1090 H     1 <1>   0.0800 
 29 H       -2.3330     0.1100    -0.7720 H     1 <1>   0.0800 
 30 H       -1.9480    -2.1070     0.6840 H     1 <1>   0.0800 
 31 H       -2.0980    -1.9370     2.4080 H     1 <1>   0.0800 
 32 H       -4.8040     0.6210     0.8860 H     1 <1>   0.0800 
 33 H       -4.4660    -1.4320     2.2150 H     1 <1>   0.0800 
 34 H       -4.1080    -2.9260     1.3940 H     1 <1>   0.0800 
 35 H        0.8300     0.5260     0.6200 H     1 <1>   0.1500 
 36 H       -1.2350     4.2600     0.4460 H     1 <1>   0.1500 
 37 H       -4.4720     0.3240    -2.1120 H     1 <1>   0.0800 
 38 H       -4.8520     1.8010    -1.2530 H     1 <1>   0.0800 
 39 H       -0.0680     4.6610    -1.7030 H     1 <1>   0.1500 
 40 H       -6.5010    -1.2230     0.8410 H     1 <1>   0.0800 
 41 H        1.4680     2.9800    -2.5740 H     1 <1>   0.1500 
 42 H       -7.6430    -1.0810    -1.2940 H     1 <1>   0.0800 
 43 H       -6.1600    -1.3880    -2.1630 H     1 <1>   0.0800 
 44 H       -4.6990    -3.4880    -1.5370 H     1 <1>   0.1500 
 45 H       -7.8120    -3.1080     1.3550 H     1 <1>   0.1500 
 46 H       -5.1100    -5.9070    -1.6530 H     1 <1>   0.1500 
 47 H       -8.2120    -5.5190     1.2390 H     1 <1>   0.1500 
 48 H       -6.8660    -6.9260    -0.2640 H     1 <1>   0.1500 
@<TRIPOS>BOND
  1   1   2  2   
  2   2   3  am  
  3   2   4  1   
  4   3   5  1   
  5   3   6  1   
  6   4   7  1   
  7   4  26  1   
  8   4  27  1   
  9   5   8  1   
 10   5  28  1   
 11   5  29  1   
 12   6   9  1   
 13   6  30  1   
 14   6  31  1   
 15   7  10  ar  
 16   7  11  ar  
 17   8  12  1   
 18   8  13  1   
 19   8  32  1   
 20   9  12  1   
 21   9  33  1   
 22   9  34  1   
 23  10  14  ar  
 24  10  35  1   
 25  11  15  ar  
 26  11  36  1   
 27  12  16  1   
 28  13  17  1   
 29  13  37  1   
 30  13  38  1   
 31  14  18  ar  
 32  15  18  ar  
 33  15  39  1   
 34  16  19  1   
 35  16  20  1   
 36  16  40  1   
 37  17  20  1   
 38  18  41  1   
 39  19  21  ar  
 40  19  22  ar  
 41  20  42  1   
 42  20  43  1   
 43  21  23  ar  
 44  21  44  1   
 45  22  24  ar  
 46  22  45  1   
 47  23  25  ar  
 48  23  46  1   
 49  24  25  ar  
 50  24  47  1   
 51  25  48  1   
@<TRIPOS>SUBSTRUCTURE
  1 ****   5 GROUP 4 **** **** 0

# MOE 2024.06 (io_trps.svl 2023.06)
