@<TRIPOS>MOLECULE
NONAME
44 46 1 0 0 
SMALL
USER_CHARGES


@<TRIPOS>ATOM
  1 S       -0.6650     0.4900     0.3980 S.o2  1 <1>   1.0900 
  2 O        0.6480     0.2010    -0.1290 O.2   1 <1>  -0.6500 
  3 O       -0.9090     1.6130     1.2710 O.2   1 <1>  -0.6500 
  4 C       -1.2910    -1.0040     1.1080 C.3   1 <1>  -0.0550 
  5 C       -1.8170     0.4910    -0.9680 C.3   1 <1>  -0.0550 
  6 C       -1.7080    -1.8430    -0.0980 C.3   1 <1>   0.1760 
  7 C       -2.4580    -0.9050    -1.0670 C.3   1 <1>  -0.1600 
  8 N       -2.5480    -3.0010     0.3010 N.pl3 1 <1>   0.3140 
  9 N       -3.5900    -2.8460     1.1380 N.2   1 <1>  -0.7070 
 10 C       -2.4370    -4.2870    -0.1210 C.2   1 <1>  -0.3320 
 11 C       -4.1260    -4.0220     1.2300 C.2   1 <1>   0.1080 
 12 C       -3.4470    -4.9720     0.4600 C.2   1 <1>   0.0630 
 13 C       -1.3670    -4.7900    -1.0810 C.3   1 <1>  -0.0600 
 14 C       -5.3400    -4.2700     2.0980 C.3   1 <1>  -0.0590 
 15 N       -3.7110    -6.3560     0.3080 N.am  1 <1>  -0.4930 
 16 C       -4.8940    -6.9880     0.0550 C.2   1 <1>   0.7150 
 17 O       -5.9130    -6.3370    -0.0860 O.2   1 <1>  -0.5700 
 18 C       -4.8950    -8.4260    -0.0530 C.2   1 <1>  -0.2370 
 19 N       -5.9030    -9.1690    -0.6220 N.pl3 1 <1>   0.0480 
 20 C       -3.9340    -9.3110     0.3720 C.2   1 <1>  -0.1500 
 21 C       -5.5570   -10.4740    -0.5460 C.2   1 <1>  -0.3020 
 22 C       -7.1570    -8.6750    -1.2300 C.3   1 <1>   0.0160 
 23 C       -4.3430   -10.6100     0.0630 C.2   1 <1>   0.0190 
 24 C       -3.6110   -11.8120     0.3470 C.1   1 <1>   0.5380 
 25 N       -3.0160   -12.7580     0.5760 N.1   1 <1>  -0.5570 
 26 H       -2.1490    -0.7810     1.7150 H     1 <1>   0.0800 
 27 H       -0.5480    -1.5030     1.6990 H     1 <1>   0.0800 
 28 H       -1.3020     0.7350    -1.8790 H     1 <1>   0.0800 
 29 H       -2.5830     1.2260    -0.8050 H     1 <1>   0.0800 
 30 H       -0.8180    -2.2060    -0.5790 H     1 <1>   0.0800 
 31 H       -2.4140    -1.2810    -2.0740 H     1 <1>   0.0800 
 32 H       -3.4910    -0.8300    -0.7680 H     1 <1>   0.0800 
 33 H       -1.4080    -4.2400    -2.0040 H     1 <1>   0.0800 
 34 H       -1.5160    -5.8300    -1.3060 H     1 <1>   0.0800 
 35 H       -0.3900    -4.6740    -0.6450 H     1 <1>   0.0800 
 36 H       -5.3540    -3.5710     2.9140 H     1 <1>   0.0800 
 37 H       -5.3180    -5.2680     2.4940 H     1 <1>   0.0800 
 38 H       -6.2300    -4.1420     1.5120 H     1 <1>   0.0800 
 39 H       -2.8880    -6.9450     0.2410 H     1 <1>   0.3700 
 40 H       -3.0090    -9.0830     0.8740 H     1 <1>   0.1500 
 41 H       -6.1850   -11.2610    -0.9270 H     1 <1>   0.1500 
 42 H       -6.9240    -7.9520    -1.9910 H     1 <1>   0.0800 
 43 H       -7.7590    -8.2090    -0.4710 H     1 <1>   0.0800 
 44 H       -7.7000    -9.4930    -1.6660 H     1 <1>   0.0800 
@<TRIPOS>BOND
  1   1   2  2   
  2   1   3  2   
  3   1   4  1   
  4   1   5  1   
  5   4   6  1   
  6   4  26  1   
  7   4  27  1   
  8   5   7  1   
  9   5  28  1   
 10   5  29  1   
 11   6   7  1   
 12   6   8  1   
 13   6  30  1   
 14   7  31  1   
 15   7  32  1   
 16   8   9  1   
 17   8  10  1   
 18   9  11  2   
 19  10  12  2   
 20  10  13  1   
 21  11  12  1   
 22  11  14  1   
 23  12  15  1   
 24  13  33  1   
 25  13  34  1   
 26  13  35  1   
 27  14  36  1   
 28  14  37  1   
 29  14  38  1   
 30  15  16  am  
 31  15  39  1   
 32  16  17  2   
 33  16  18  1   
 34  18  19  1   
 35  18  20  2   
 36  19  21  1   
 37  19  22  1   
 38  20  23  1   
 39  20  40  1   
 40  21  23  2   
 41  21  41  1   
 42  22  42  1   
 43  22  43  1   
 44  22  44  1   
 45  23  24  1   
 46  24  25  3   
@<TRIPOS>SUBSTRUCTURE
  1 ****  12 GROUP 4 **** **** 0

# MOE 2024.06 (io_trps.svl 2023.06)
