@<TRIPOS>MOLECULE
NONAME
42 43 1 0 0 
SMALL
USER_CHARGES


@<TRIPOS>ATOM
  1 F        1.2540     0.6620     0.1090 F     1 <1>  -0.1900 
  2 C        1.7200    -0.5470     0.2720 C.ar  1 <1>   0.1900 
  3 C        1.4150    -1.5060    -0.6740 C.ar  1 <1>  -0.1500 
  4 C        2.4950    -0.8200     1.3810 C.ar  1 <1>  -0.1500 
  5 C        1.9050    -2.7930    -0.5030 C.ar  1 <1>  -0.1440 
  6 C        2.9840    -2.1040     1.5480 C.ar  1 <1>  -0.1500 
  7 C        2.6940    -3.0940     0.6080 C.ar  1 <1>   0.0830 
  8 C        1.5810    -3.8690    -1.5200 C.3   1 <1>   0.4870 
  9 O        3.1500    -4.3720     0.7270 O.3   1 <1>  -0.3630 
 10 N        0.7690    -4.9040    -0.8390 N.4   1 <1>  -0.9590 
 11 C        4.2600    -4.6510     1.5610 C.3   1 <1>   0.0400 
 12 C        0.7290    -6.1660    -1.6070 C.3   1 <1>   0.5230 
 13 C       -0.5960    -4.3890    -0.4790 C.3   1 <1>   0.3430 
 14 C        0.1970    -7.2380    -0.6930 C.2   1 <1>  -0.3320 
 15 C       -0.9780    -4.6920     0.9770 C.3   1 <1>   0.1200 
 16 N        0.8860    -7.8520     0.2960 N.pl3 1 <1>   0.0480 
 17 C       -1.0430    -7.7770    -0.6920 C.2   1 <1>   0.0770 
 18 O       -2.1740    -4.0480     1.2350 O.3   1 <1>  -0.6800 
 19 C       -0.0030    -8.7110     0.8410 C.2   1 <1>   0.0360 
 20 C        2.2920    -7.6930     0.7160 C.3   1 <1>   0.0160 
 21 N       -1.1670    -8.6880     0.2830 N.2   1 <1>  -0.5650 
 22 H        0.8080    -1.2270    -1.5170 H     1 <1>   0.1500 
 23 H        2.7060    -0.0420     2.0930 H     1 <1>   0.1500 
 24 H        3.5820    -2.3080     2.4180 H     1 <1>   0.1500 
 25 H        2.5050    -4.2950    -1.8770 H     1 <1>   0.0800 
 26 H        1.0430    -3.4510    -2.3550 H     1 <1>   0.0800 
 27 H        1.2780    -5.0860     0.0360 H     1 <1>   0.4500 
 28 H        4.5810    -5.6610     1.3790 H     1 <1>   0.0800 
 29 H        3.9650    -4.5440     2.5910 H     1 <1>   0.0800 
 30 H        5.0600    -3.9710     1.3230 H     1 <1>   0.0800 
 31 H        1.7150    -6.4380    -1.9490 H     1 <1>   0.0800 
 32 H        0.0830    -6.0590    -2.4640 H     1 <1>   0.0800 
 33 H       -1.3390    -4.8180    -1.1310 H     1 <1>   0.0800 
 34 H       -0.6220    -3.3190    -0.5990 H     1 <1>   0.0800 
 35 H       -0.2410    -4.3050     1.6590 H     1 <1>   0.0800 
 36 H       -1.1250    -5.7460     1.1390 H     1 <1>   0.0800 
 37 H       -1.8770    -7.5590    -1.3400 H     1 <1>   0.1500 
 38 H       -2.5150    -4.2690     2.1280 H     1 <1>   0.4000 
 39 H        0.2520    -9.3550     1.6660 H     1 <1>   0.1500 
 40 H        2.8860    -7.3330    -0.1030 H     1 <1>   0.0800 
 41 H        2.6770    -8.6460     1.0340 H     1 <1>   0.0800 
 42 H        2.3420    -7.0010     1.5370 H     1 <1>   0.0800 
@<TRIPOS>BOND
  1   1   2  1   
  2   2   3  ar  
  3   2   4  ar  
  4   3   5  ar  
  5   3  22  1   
  6   4   6  ar  
  7   4  23  1   
  8   5   7  ar  
  9   5   8  1   
 10   6   7  ar  
 11   6  24  1   
 12   7   9  1   
 13   8  10  1   
 14   8  25  1   
 15   8  26  1   
 16   9  11  1   
 17  10  12  1   
 18  10  13  1   
 19  10  27  1   
 20  11  28  1   
 21  11  29  1   
 22  11  30  1   
 23  12  14  1   
 24  12  31  1   
 25  12  32  1   
 26  13  15  1   
 27  13  33  1   
 28  13  34  1   
 29  14  16  1   
 30  14  17  2   
 31  15  18  1   
 32  15  35  1   
 33  15  36  1   
 34  16  19  1   
 35  16  20  1   
 36  17  21  1   
 37  17  37  1   
 38  18  38  1   
 39  19  21  2   
 40  19  39  1   
 41  20  40  1   
 42  20  41  1   
 43  20  42  1   
@<TRIPOS>SUBSTRUCTURE
  1 ****  10 GROUP 4 **** **** 0

# MOE 2024.06 (io_trps.svl 2023.06)
