@<TRIPOS>MOLECULE
NONAME
49 50 1 0 0 
SMALL
USER_CHARGES


@<TRIPOS>ATOM
  1 O        0.7520     0.9310    -0.5510 O.2   1 <1>  -0.5700 
  2 C        1.3670     0.6810     0.4710 C.2   1 <1>   0.5440 
  3 N        1.2960     1.5790     1.5030 N.am  1 <1>  -0.7300 
  4 C        2.1410    -0.5350     0.6070 C.ar  1 <1>   0.0860 
  5 C        0.5590     2.8710     1.4800 C.3   1 <1>   0.0600 
  6 C        1.7530    -1.7400    -0.0180 C.ar  1 <1>   0.4100 
  7 C        3.3040    -0.5570     1.3680 C.ar  1 <1>  -0.1500 
  8 N        2.4080    -2.8950     0.1120 N.ar  1 <1>  -0.6200 
  9 N        0.6330    -1.7930    -0.8190 N.pl3 1 <1>  -0.8690 
 10 C        3.9910    -1.7430     1.4830 C.ar  1 <1>  -0.1500 
 11 C        3.5040    -2.8690     0.8450 C.ar  1 <1>   0.1600 
 12 C        0.5250    -2.7010    -1.9970 C.3   1 <1>   0.2090 
 13 C       -0.4580    -3.8440    -1.6990 C.3   1 <1>   0.2000 
 14 O       -1.6790    -3.2920    -1.3040 O.3   1 <1>  -0.6800 
 15 C        0.0540    -4.7510    -0.5630 C.3   1 <1>   0.3430 
 16 N       -1.0700    -5.5550     0.0100 N.4   1 <1>  -0.9590 
 17 C       -0.8350    -5.8120     1.4540 C.3   1 <1>   0.3430 
 18 C       -1.3810    -6.7520    -0.8150 C.3   1 <1>   0.3430 
 19 C       -2.0750    -6.3720     2.1530 C.3   1 <1>  -0.1600 
 20 C       -2.8660    -7.0880    -0.6930 C.3   1 <1>  -0.1600 
 21 C       -2.3810    -7.8270     1.7680 C.3   1 <1>  -0.1600 
 22 C       -3.2390    -7.9810     0.5030 C.3   1 <1>  -0.1600 
 23 H        1.7250     1.3390     2.3990 H     1 <1>   0.3700 
 24 H        0.1680     3.0670     0.4950 H     1 <1>   0.0800 
 25 H        1.2220     3.6730     1.7520 H     1 <1>   0.0800 
 26 H       -0.2610     2.8350     2.1760 H     1 <1>   0.0800 
 27 H        3.6700     0.3330     1.8500 H     1 <1>   0.1500 
 28 H        0.2930    -0.8340    -1.0340 H     1 <1>   0.4000 
 29 H        4.8980    -1.8000     2.0600 H     1 <1>   0.1500 
 30 H        4.0540    -3.7900     0.9460 H     1 <1>   0.1500 
 31 H        1.4920    -3.1010    -2.2530 H     1 <1>   0.0800 
 32 H        0.1740    -2.1410    -2.8470 H     1 <1>   0.0800 
 33 H       -0.6260    -4.4250    -2.5890 H     1 <1>   0.0800 
 34 H       -1.4810    -2.4360    -0.8570 H     1 <1>   0.4000 
 35 H        0.4500    -4.1110     0.2070 H     1 <1>   0.0800 
 36 H        0.8540    -5.3830    -0.9090 H     1 <1>   0.0800 
 37 H       -1.8780    -4.9110    -0.0780 H     1 <1>   0.4500 
 38 H       -0.5650    -4.8840     1.9340 H     1 <1>   0.0800 
 39 H       -0.0120    -6.4970     1.5740 H     1 <1>   0.0800 
 40 H       -0.7730    -7.5920    -0.5200 H     1 <1>   0.0800 
 41 H       -1.1740    -6.5300    -1.8490 H     1 <1>   0.0800 
 42 H       -2.9280    -5.7370     1.9900 H     1 <1>   0.0800 
 43 H       -1.8700    -6.3540     3.2090 H     1 <1>   0.0800 
 44 H       -3.1650    -7.6070    -1.5870 H     1 <1>   0.0800 
 45 H       -3.4390    -6.1770    -0.6640 H     1 <1>   0.0800 
 46 H       -2.9170    -8.2910     2.5800 H     1 <1>   0.0800 
 47 H       -1.4610    -8.3750     1.6550 H     1 <1>   0.0800 
 48 H       -3.1860    -9.0130     0.1970 H     1 <1>   0.0800 
 49 H       -4.2690    -7.7900     0.7550 H     1 <1>   0.0800 
@<TRIPOS>BOND
  1   1   2  2   
  2   2   3  am  
  3   2   4  1   
  4   3   5  1   
  5   3  23  1   
  6   4   6  ar  
  7   4   7  ar  
  8   5  24  1   
  9   5  25  1   
 10   5  26  1   
 11   6   8  ar  
 12   6   9  1   
 13   7  10  ar  
 14   7  27  1   
 15   8  11  ar  
 16   9  12  1   
 17   9  28  1   
 18  10  11  ar  
 19  10  29  1   
 20  11  30  1   
 21  12  13  1   
 22  12  31  1   
 23  12  32  1   
 24  13  14  1   
 25  13  15  1   
 26  13  33  1   
 27  14  34  1   
 28  15  16  1   
 29  15  35  1   
 30  15  36  1   
 31  16  17  1   
 32  16  18  1   
 33  16  37  1   
 34  17  19  1   
 35  17  38  1   
 36  17  39  1   
 37  18  20  1   
 38  18  40  1   
 39  18  41  1   
 40  19  21  1   
 41  19  42  1   
 42  19  43  1   
 43  20  22  1   
 44  20  44  1   
 45  20  45  1   
 46  21  22  1   
 47  21  46  1   
 48  21  47  1   
 49  22  48  1   
 50  22  49  1   
@<TRIPOS>SUBSTRUCTURE
  1 ****   9 GROUP 4 **** **** 0

# MOE 2024.06 (io_trps.svl 2023.06)
