@<TRIPOS>MOLECULE
NONAME
53 55 1 0 0 
SMALL
USER_CHARGES


@<TRIPOS>ATOM
  1 S       -0.5410     0.0900     1.2800 S.o2  1 <1>   1.4470 
  2 O       -0.8990     0.9180     2.4100 O.2   1 <1>  -0.6500 
  3 O       -0.4140    -1.3400     1.4850 O.2   1 <1>  -0.6500 
  4 N       -1.7680     0.2630     0.1060 N.am  1 <1>  -0.8490 
  5 C        0.9460     0.7290     0.4450 C.ar  1 <1>  -0.0090 
  6 C       -1.8810    -0.8690    -0.8310 C.3   1 <1>   0.1960 
  7 C       -3.0680     0.7300     0.6090 C.3   1 <1>   0.1960 
  8 C        1.0740     2.0480    -0.0030 C.ar  1 <1>  -0.1440 
  9 C        2.0170    -0.1330     0.2260 C.ar  1 <1>  -0.1500 
 10 C       -2.6750    -2.0550    -0.2170 C.3   1 <1>   0.4230 
 11 C       -3.8870    -0.4260     1.2120 C.3   1 <1>  -0.1600 
 12 C        2.2280     2.4560    -0.6560 C.ar  1 <1>  -0.1500 
 13 C       -0.0270     3.0810     0.2070 C.3   1 <1>  -0.0960 
 14 C        3.1660     0.2800    -0.4230 C.ar  1 <1>  -0.1500 
 15 N       -2.5850    -3.3600    -0.9910 N.4   1 <1>  -0.9590 
 16 C       -4.0970    -1.6150     0.2370 C.3   1 <1>   0.0000 
 17 C        3.2750     1.5800    -0.8730 C.ar  1 <1>  -0.1430 
 18 C       -3.6730    -4.3280    -0.6370 C.3   1 <1>   0.3430 
 19 C       -2.5190    -3.2130    -2.4790 C.3   1 <1>   0.2630 
 20 C       -4.7920    -2.7700     1.0200 C.3   1 <1>  -0.1600 
 21 C       -5.0150    -1.1050    -0.9140 C.3   1 <1>   0.1200 
 22 C        4.5310     2.0480    -1.5860 C.3   1 <1>  -0.0970 
 23 C       -4.1280    -4.1430     0.8100 C.3   1 <1>  -0.1600 
 24 O       -5.3270    -2.1010    -1.8270 O.3   1 <1>  -0.6800 
 25 H       -2.3730    -0.5250    -1.7230 H     1 <1>   0.0800 
 26 H       -0.8920    -1.1960    -1.1030 H     1 <1>   0.0800 
 27 H       -2.9330     1.5080     1.3440 H     1 <1>   0.0800 
 28 H       -3.6110     1.1790    -0.2040 H     1 <1>   0.0800 
 29 H        1.9610    -1.1510     0.5720 H     1 <1>   0.1500 
 30 H       -2.1790    -2.2720     0.7120 H     1 <1>   0.0800 
 31 H       -3.3770    -0.7590     2.1010 H     1 <1>   0.0800 
 32 H       -4.8400    -0.0400     1.5310 H     1 <1>   0.0800 
 33 H        2.3200     3.4720    -1.0000 H     1 <1>   0.1500 
 34 H        0.2850     4.0530    -0.1310 H     1 <1>   0.0800 
 35 H       -0.2710     3.1640     1.2510 H     1 <1>   0.0800 
 36 H       -0.9090     2.8080    -0.3430 H     1 <1>   0.0800 
 37 H        3.9750    -0.4150    -0.5730 H     1 <1>   0.1500 
 38 H       -1.7050    -3.7920    -0.6780 H     1 <1>   0.4500 
 39 H       -4.5220    -4.1760    -1.2830 H     1 <1>   0.0800 
 40 H       -3.3240    -5.3380    -0.7840 H     1 <1>   0.0800 
 41 H       -3.4030    -2.7220    -2.8500 H     1 <1>   0.0800 
 42 H       -2.4470    -4.1810    -2.9460 H     1 <1>   0.0800 
 43 H       -1.6570    -2.6330    -2.7650 H     1 <1>   0.0800 
 44 H       -4.8020    -2.5710     2.0780 H     1 <1>   0.0800 
 45 H       -5.8250    -2.8380     0.7200 H     1 <1>   0.0800 
 46 H       -4.5650    -0.2980    -1.4630 H     1 <1>   0.0800 
 47 H       -5.9450    -0.7500    -0.5010 H     1 <1>   0.0800 
 48 H        5.0330     1.2200    -2.0540 H     1 <1>   0.0800 
 49 H        5.2010     2.5050    -0.8800 H     1 <1>   0.0800 
 50 H        4.2850     2.7680    -2.3460 H     1 <1>   0.0800 
 51 H       -4.8370    -4.9150     1.0580 H     1 <1>   0.0800 
 52 H       -3.2850    -4.2600     1.4690 H     1 <1>   0.0800 
 53 H       -6.0840    -1.8250    -2.3880 H     1 <1>   0.4000 
@<TRIPOS>BOND
  1   1   2  2   
  2   1   3  2   
  3   1   4  am  
  4   1   5  1   
  5   4   6  1   
  6   4   7  1   
  7   5   8  ar  
  8   5   9  ar  
  9   6  10  1   
 10   6  25  1   
 11   6  26  1   
 12   7  11  1   
 13   7  27  1   
 14   7  28  1   
 15   8  12  ar  
 16   8  13  1   
 17   9  14  ar  
 18   9  29  1   
 19  10  15  1   
 20  10  16  1   
 21  10  30  1   
 22  11  16  1   
 23  11  31  1   
 24  11  32  1   
 25  12  17  ar  
 26  12  33  1   
 27  13  34  1   
 28  13  35  1   
 29  13  36  1   
 30  14  17  ar  
 31  14  37  1   
 32  15  18  1   
 33  15  19  1   
 34  15  38  1   
 35  16  20  1   
 36  16  21  1   
 37  17  22  1   
 38  18  23  1   
 39  18  39  1   
 40  18  40  1   
 41  19  41  1   
 42  19  42  1   
 43  19  43  1   
 44  20  23  1   
 45  20  44  1   
 46  20  45  1   
 47  21  24  1   
 48  21  46  1   
 49  21  47  1   
 50  22  48  1   
 51  22  49  1   
 52  22  50  1   
 53  23  51  1   
 54  23  52  1   
 55  24  53  1   
@<TRIPOS>SUBSTRUCTURE
  1 ****   4 GROUP 4 **** **** 0

# MOE 2024.06 (io_trps.svl 2023.06)
