@<TRIPOS>MOLECULE
NONAME
62 66 1 0 0 
SMALL
USER_CHARGES


@<TRIPOS>ATOM
  1 O       -2.0010     0.2980    -1.1480 O.2   1 <1>  -0.5700 
  2 C       -1.7370     0.2670     0.0300 C.2   1 <1>   0.5690 
  3 N       -1.8320    -0.8850     0.7390 N.am  1 <1>  -0.7300 
  4 C       -1.3220     1.5390     0.7680 C.3   1 <1>  -0.0190 
  5 C       -2.3400    -2.1540     0.1770 C.3   1 <1>   0.2200 
  6 C       -2.5270     2.1570     1.5040 C.3   1 <1>  -0.1600 
  7 C       -0.6760     2.5850    -0.1640 C.3   1 <1>  -0.1600 
  8 C       -3.8560    -2.1680     0.2960 C.3   1 <1>  -0.0800 
  9 C       -1.9460    -3.3200     1.0730 C.3   1 <1>   0.1200 
 10 C       -2.1480     3.4510     2.2300 C.3   1 <1>   0.1400 
 11 C       -0.3170     3.8670     0.5910 C.3   1 <1>   0.1400 
 12 C       -4.0940    -2.7920     1.6780 C.3   1 <1>   0.1200 
 13 C       -4.5020    -2.9810    -0.8410 C.3   1 <1>  -0.0170 
 14 O       -2.8710    -3.3130     2.1140 O.3   1 <1>  -0.5600 
 15 N       -1.5380     4.3980     1.2580 N.am  1 <1>  -0.6600 
 16 C       -6.0220    -2.8550    -0.8150 C.ar  1 <1>  -0.1440 
 17 C       -2.1170     5.6190     0.9970 C.2   1 <1>   0.5770 
 18 C       -6.6860    -1.6800    -1.2430 C.ar  1 <1>   0.0000 
 19 C       -6.7910    -3.8890    -0.3690 C.ar  1 <1>  -0.1500 
 20 O       -3.0640     6.0120     1.6400 O.2   1 <1>  -0.5700 
 21 C       -1.5750     6.5180    -0.1160 C.3   1 <1>   0.0530 
 22 C       -8.1000    -1.6570    -1.1560 C.ar  1 <1>   0.3100 
 23 C       -6.0360    -0.5300    -1.7520 C.ar  1 <1>  -0.1500 
 24 C       -8.1850    -3.7650    -0.3320 C.ar  1 <1>   0.1600 
 25 C       -2.4310     7.7600    -0.4980 C.3   1 <1>   0.0000 
 26 C       -1.8520     5.9970    -1.5540 C.3   1 <1>   0.0000 
 27 N       -8.8320    -2.7050    -0.7000 N.ar  1 <1>  -0.6200 
 28 C       -8.7870    -0.5000    -1.5580 C.ar  1 <1>  -0.1500 
 29 C       -6.7370     0.5810    -2.1350 C.ar  1 <1>  -0.1500 
 30 C       -2.0380     7.4780    -1.9700 C.3   1 <1>   0.0000 
 31 C       -8.1300     0.6000    -2.0360 C.ar  1 <1>  -0.1500 
 32 H       -1.7250    -0.8910     1.7550 H     1 <1>   0.3700 
 33 H       -0.5880     1.2590     1.5020 H     1 <1>   0.0800 
 34 H       -1.9880    -2.2760    -0.8340 H     1 <1>   0.0800 
 35 H       -2.9200     1.4560     2.2180 H     1 <1>   0.0800 
 36 H       -3.3100     2.3750     0.7970 H     1 <1>   0.0800 
 37 H       -1.3540     2.8330    -0.9630 H     1 <1>   0.0800 
 38 H        0.2120     2.1710    -0.6090 H     1 <1>   0.0800 
 39 H       -4.2490    -1.1680     0.2740 H     1 <1>   0.0800 
 40 H       -0.9500    -3.2260     1.4690 H     1 <1>   0.0800 
 41 H       -2.0460    -4.2550     0.5500 H     1 <1>   0.0800 
 42 H       -1.4390     3.2460     3.0140 H     1 <1>   0.0800 
 43 H       -3.0270     3.8780     2.6830 H     1 <1>   0.0800 
 44 H        0.1050     4.5820    -0.0910 H     1 <1>   0.0800 
 45 H        0.4240     3.6530     1.3410 H     1 <1>   0.0800 
 46 H       -4.8160    -3.5890     1.6530 H     1 <1>   0.0800 
 47 H       -4.4070    -2.0480     2.3900 H     1 <1>   0.0800 
 48 H       -4.2190    -4.0150    -0.7560 H     1 <1>   0.0800 
 49 H       -4.1400    -2.6340    -1.7940 H     1 <1>   0.0800 
 50 H       -6.3570    -4.8130    -0.0350 H     1 <1>   0.1500 
 51 H       -0.5410     6.7870     0.0260 H     1 <1>   0.0000 
 52 H       -4.9650    -0.5180    -1.8440 H     1 <1>   0.1500 
 53 H       -8.7550    -4.6050     0.0270 H     1 <1>   0.1500 
 54 H       -3.4880     7.6320    -0.3340 H     1 <1>   0.0000 
 55 H       -2.0460     8.6890    -0.1160 H     1 <1>   0.0000 
 56 H       -1.0080     5.5200    -2.0200 H     1 <1>   0.0000 
 57 H       -2.7640     5.4280    -1.6280 H     1 <1>   0.0000 
 58 H       -9.8580    -0.5100    -1.4750 H     1 <1>   0.1500 
 59 H       -6.2250     1.4490    -2.5160 H     1 <1>   0.1500 
 60 H       -1.1130     7.9510    -2.2520 H     1 <1>   0.0000 
 61 H       -2.8370     7.6360    -2.6730 H     1 <1>   0.0000 
 62 H       -8.6690     1.4810    -2.3400 H     1 <1>   0.1500 
@<TRIPOS>BOND
  1   1   2  2   
  2   2   3  am  
  3   2   4  1   
  4   3   5  1   
  5   3  32  1   
  6   4   6  1   
  7   4   7  1   
  8   4  33  1   
  9   5   8  1   
 10   5   9  1   
 11   5  34  1   
 12   6  10  1   
 13   6  35  1   
 14   6  36  1   
 15   7  11  1   
 16   7  37  1   
 17   7  38  1   
 18   8  12  1   
 19   8  13  1   
 20   8  39  1   
 21   9  14  1   
 22   9  40  1   
 23   9  41  1   
 24  10  15  1   
 25  10  42  1   
 26  10  43  1   
 27  11  15  1   
 28  11  44  1   
 29  11  45  1   
 30  12  14  1   
 31  12  46  1   
 32  12  47  1   
 33  13  16  1   
 34  13  48  1   
 35  13  49  1   
 36  15  17  am  
 37  16  18  ar  
 38  16  19  ar  
 39  17  20  2   
 40  17  21  1   
 41  18  22  ar  
 42  18  23  ar  
 43  19  24  ar  
 44  19  50  1   
 45  21  25  1   
 46  21  26  1   
 47  21  51  1   
 48  22  27  ar  
 49  22  28  ar  
 50  23  29  ar  
 51  23  52  1   
 52  24  27  ar  
 53  24  53  1   
 54  25  30  1   
 55  25  54  1   
 56  25  55  1   
 57  26  30  1   
 58  26  56  1   
 59  26  57  1   
 60  28  31  ar  
 61  28  58  1   
 62  29  31  ar  
 63  29  59  1   
 64  30  60  1   
 65  30  61  1   
 66  31  62  1   
@<TRIPOS>SUBSTRUCTURE
  1 ****   1 GROUP 4 **** **** 0

# MOE 2024.06 (io_trps.svl 2023.06)
