@<TRIPOS>MOLECULE
NONAME
44 46 1 0 0 
SMALL
USER_CHARGES


@<TRIPOS>ATOM
  1 O        2.9440    -1.2180     2.2780 O.2   1 <1>  -0.5750 
  2 C        2.4070    -1.5770     1.2660 C.2   1 <1>   0.8490 
  3 N        1.7220    -0.7030     0.4850 N.pl3 1 <1>  -0.7340 
  4 C        2.5000    -3.0330     0.8370 C.3   1 <1>  -0.1080 
  5 C        1.5440     0.6020     0.7050 C.cat 1 <1>   1.0690 
  6 C        1.1680    -3.6270     0.3380 C.3   1 <1>  -0.1680 
  7 N        2.0380     1.2920     1.7150 N.pl3 1 <1>  -0.7040 
  8 N        0.8310     1.4090    -0.0820 N.pl3 1 <1>  -0.7680 
  9 C        1.2830    -5.1310     0.0410 C.3   1 <1>   0.0110 
 10 C        1.6430     2.6010     1.5930 C.2   1 <1>   0.1920 
 11 C        0.8940     2.6770     0.4780 C.2   1 <1>   0.1920 
 12 C        0.0710     1.1240    -1.3310 C.3   1 <1>   0.2670 
 13 C       -0.0310    -5.6720    -0.4860 C.2   1 <1>   0.2910 
 14 O       -0.4060    -5.3420    -1.6930 O.3   1 <1>  -0.0280 
 15 N       -0.8320    -6.4180     0.1510 N.2   1 <1>  -0.5700 
 16 N       -1.5510    -5.9270    -1.8370 N.2   1 <1>  -0.4160 
 17 C       -1.8080    -6.5710    -0.7520 C.2   1 <1>   0.4560 
 18 C       -2.9970    -7.3690    -0.4980 C.ar  1 <1>   0.0450 
 19 C       -3.9800    -7.5390    -1.4740 C.ar  1 <1>  -0.1580 
 20 C       -3.2120    -8.0000     0.7300 C.ar  1 <1>  -0.1580 
 21 C       -5.1140    -8.2960    -1.2410 C.ar  1 <1>  -0.1580 
 22 C       -4.3440    -8.7580     0.9690 C.ar  1 <1>  -0.1580 
 23 C       -5.3030    -8.9120    -0.0160 C.ar  1 <1>  -0.1520 
 24 C       -6.5470    -9.7420     0.2440 C.3   1 <1>  -0.1050 
 25 H        1.2860    -1.0820    -0.3410 H     1 <1>   0.4440 
 26 H        2.8430    -3.6040     1.6820 H     1 <1>   0.0710 
 27 H        3.2470    -3.1150     0.0680 H     1 <1>   0.0710 
 28 H        0.8500    -3.1270    -0.5600 H     1 <1>   0.0710 
 29 H        0.4060    -3.4880     1.0880 H     1 <1>   0.0710 
 30 H        2.6130     0.8450     2.4410 H     1 <1>   0.4440 
 31 H        1.5410    -5.6640     0.9410 H     1 <1>   0.0710 
 32 H        2.0510    -5.3160    -0.6890 H     1 <1>   0.0710 
 33 H        1.9190     3.3730     2.2970 H     1 <1>   0.1420 
 34 H        0.4060     3.5400     0.0490 H     1 <1>   0.1420 
 35 H        0.0020     0.0660    -1.5110 H     1 <1>   0.0710 
 36 H        0.5610     1.5900    -2.1700 H     1 <1>   0.0710 
 37 H       -0.9270     1.5220    -1.2490 H     1 <1>   0.0710 
 38 H       -3.8550    -7.0700    -2.4350 H     1 <1>   0.1420 
 39 H       -2.4810    -7.8950     1.5110 H     1 <1>   0.1420 
 40 H       -5.8510    -8.4020    -2.0170 H     1 <1>   0.1420 
 41 H       -4.4750    -9.2270     1.9270 H     1 <1>   0.1420 
 42 H       -6.9000   -10.1870    -0.6690 H     1 <1>   0.0710 
 43 H       -7.3220    -9.1170     0.6490 H     1 <1>   0.0710 
 44 H       -6.3330   -10.5290     0.9440 H     1 <1>   0.0710 
@<TRIPOS>BOND
  1   1   2  2   
  2   2   3  1   
  3   2   4  1   
  4   3   5  ar  
  5   3  25  1   
  6   4   6  1   
  7   4  26  1   
  8   4  27  1   
  9   5   7  ar  
 10   5   8  ar  
 11   6   9  1   
 12   6  28  1   
 13   6  29  1   
 14   7  10  1   
 15   7  30  1   
 16   8  11  1   
 17   8  12  1   
 18   9  13  1   
 19   9  31  1   
 20   9  32  1   
 21  10  11  2   
 22  10  33  1   
 23  11  34  1   
 24  12  35  1   
 25  12  36  1   
 26  12  37  1   
 27  13  14  1   
 28  13  15  2   
 29  14  16  1   
 30  15  17  1   
 31  16  17  2   
 32  17  18  1   
 33  18  19  ar  
 34  18  20  ar  
 35  19  21  ar  
 36  19  38  1   
 37  20  22  ar  
 38  20  39  1   
 39  21  23  ar  
 40  21  40  1   
 41  22  23  ar  
 42  22  41  1   
 43  23  24  1   
 44  24  42  1   
 45  24  43  1   
 46  24  44  1   
@<TRIPOS>SUBSTRUCTURE
  1 ****   6 GROUP 4 **** **** 0

# MOE 2024.06 (io_trps.svl 2023.06)
