@<TRIPOS>MOLECULE
NONAME
53 56 1 0 0 
SMALL
USER_CHARGES


@<TRIPOS>ATOM
  1 O       -0.6550    -1.5790     1.0360 O.2   1 <1>  -0.5700 
  2 C       -1.7510    -1.4460     0.5220 C.2   1 <1>   0.7160 
  3 N       -2.5270    -2.5620     0.3070 N.am  1 <1>  -0.6600 
  4 C       -2.1870    -0.1260     0.1320 C.2   1 <1>  -0.0860 
  5 C       -2.2430    -3.8270     1.0710 C.3   1 <1>   0.2200 
  6 C       -3.4950    -2.6220    -0.8270 C.3   1 <1>   0.1400 
  7 C       -1.4230     0.9120    -0.3020 C.2   1 <1>  -0.0100 
  8 C       -3.4990     0.3980     0.1330 C.2   1 <1>  -0.1500 
  9 C       -1.2590    -4.7300     0.2990 C.3   1 <1>   0.1200 
 10 C       -3.4930    -4.5870     1.5880 C.3   1 <1>   0.1100 
 11 C       -3.6890    -4.0290    -1.4220 C.3   1 <1>  -0.0800 
 12 O       -2.1510     1.9690    -0.5690 O.3   1 <1>  -0.2800 
 13 C       -3.4050     1.6690    -0.3060 C.2   1 <1>  -0.0100 
 14 O       -1.8470    -5.4550    -0.7420 O.3   1 <1>  -0.5600 
 15 N       -4.7540    -4.4610     0.8080 N.3   1 <1>  -0.8100 
 16 C       -2.3570    -4.7040    -1.7960 C.3   1 <1>   0.1200 
 17 C       -4.6180    -4.9300    -0.5770 C.3   1 <1>   0.1100 
 18 C       -5.8870    -5.0850     1.5360 C.3   1 <1>   0.2900 
 19 C       -5.6760    -6.5550     1.9140 C.2   1 <1>   0.0070 
 20 N       -5.1170    -6.9170     3.0280 N.2   1 <1>  -0.5650 
 21 N       -6.0700    -7.6050     1.1470 N.pl3 1 <1>   0.0480 
 22 C       -5.1260    -8.2590     2.9810 C.2   1 <1>   0.0770 
 23 C       -5.7040    -8.6960     1.8440 C.2   1 <1>  -0.3020 
 24 C       -6.8160    -7.6310    -0.1270 C.3   1 <1>   0.0960 
 25 C       -8.2890    -7.9260     0.1440 C.3   1 <1>   0.1200 
 26 O       -8.9670    -7.8600    -1.0680 O.3   1 <1>  -0.5600 
 27 C      -10.3280    -8.1310    -0.9690 C.3   1 <1>   0.0400 
 28 H       -1.7080    -3.5440     1.9610 H     1 <1>   0.0800 
 29 H       -4.4480    -2.2510    -0.4920 H     1 <1>   0.0800 
 30 H       -3.1490    -1.9690    -1.6100 H     1 <1>   0.0800 
 31 H       -0.3560     0.9580    -0.4400 H     1 <1>   0.1500 
 32 H       -4.3770    -0.1400     0.4440 H     1 <1>   0.1500 
 33 H       -0.8490    -5.4540     0.9790 H     1 <1>   0.0800 
 34 H       -0.4440    -4.1470    -0.0960 H     1 <1>   0.0800 
 35 H       -3.6870    -4.2320     2.5850 H     1 <1>   0.0800 
 36 H       -3.2320    -5.6270     1.6800 H     1 <1>   0.0800 
 37 H       -4.1990    -3.8760    -2.3550 H     1 <1>   0.0800 
 38 H       -4.1610     2.4210    -0.4550 H     1 <1>   0.1500 
 39 H       -1.6190    -3.9860    -2.1110 H     1 <1>   0.0800 
 40 H       -2.5250    -5.3950    -2.6040 H     1 <1>   0.0800 
 41 H       -4.2780    -5.9520    -0.5900 H     1 <1>   0.0800 
 42 H       -5.5900    -4.8990    -1.0360 H     1 <1>   0.0800 
 43 H       -6.0370    -4.5340     2.4480 H     1 <1>   0.0800 
 44 H       -6.7870    -4.9780     0.9580 H     1 <1>   0.0800 
 45 H       -4.7110    -8.8490     3.7820 H     1 <1>   0.1500 
 46 H       -5.8680    -9.7030     1.5050 H     1 <1>   0.1500 
 47 H       -6.7280    -6.6830    -0.6170 H     1 <1>   0.0800 
 48 H       -6.4000    -8.3950    -0.7570 H     1 <1>   0.0800 
 49 H       -8.7060    -7.1900     0.8110 H     1 <1>   0.0800 
 50 H       -8.4060    -8.9140     0.5550 H     1 <1>   0.0800 
 51 H      -10.7580    -8.0530    -1.9520 H     1 <1>   0.0800 
 52 H      -10.7890    -7.4110    -0.3150 H     1 <1>   0.0800 
 53 H      -10.4670    -9.1300    -0.5920 H     1 <1>   0.0800 
@<TRIPOS>BOND
  1   1   2  2   
  2   2   3  am  
  3   2   4  1   
  4   3   5  1   
  5   3   6  1   
  6   4   7  2   
  7   4   8  1   
  8   5   9  1   
  9   5  10  1   
 10   5  28  1   
 11   6  11  1   
 12   6  29  1   
 13   6  30  1   
 14   7  12  1   
 15   7  31  1   
 16   8  13  2   
 17   8  32  1   
 18   9  14  1   
 19   9  33  1   
 20   9  34  1   
 21  10  15  1   
 22  10  35  1   
 23  10  36  1   
 24  11  16  1   
 25  11  17  1   
 26  11  37  1   
 27  12  13  1   
 28  13  38  1   
 29  14  16  1   
 30  15  17  1   
 31  15  18  1   
 32  16  39  1   
 33  16  40  1   
 34  17  41  1   
 35  17  42  1   
 36  18  19  1   
 37  18  43  1   
 38  18  44  1   
 39  19  20  2   
 40  19  21  1   
 41  20  22  1   
 42  21  23  1   
 43  21  24  1   
 44  22  23  2   
 45  22  45  1   
 46  23  46  1   
 47  24  25  1   
 48  24  47  1   
 49  24  48  1   
 50  25  26  1   
 51  25  49  1   
 52  25  50  1   
 53  26  27  1   
 54  27  51  1   
 55  27  52  1   
 56  27  53  1   
@<TRIPOS>SUBSTRUCTURE
  1 ****  15 GROUP 4 **** **** 0

# MOE 2024.06 (io_trps.svl 2023.06)
