@<TRIPOS>MOLECULE
NONAME
61 65 1 0 0 
SMALL
USER_CHARGES


@<TRIPOS>ATOM
  1 O       -2.2200     1.2960    -1.5260 O.2   1 <1>  -0.5700 
  2 C       -1.8970     1.1650    -0.3660 C.2   1 <1>   0.5690 
  3 N       -2.2140     0.0190     0.3040 N.am  1 <1>  -0.7300 
  4 C       -1.1360     2.3570     0.3210 C.3   1 <1>   0.5640 
  5 C       -2.8840    -1.1680    -0.2820 C.3   1 <1>   0.2200 
  6 N       -0.5740     3.3170    -0.7180 N.4   1 <1>  -0.9590 
  7 C       -2.1110     3.1210     1.2340 C.3   1 <1>  -0.1600 
  8 C       -0.0310     1.9090     1.3050 C.3   1 <1>  -0.1600 
  9 C       -4.2340    -1.3710     0.4010 C.3   1 <1>  -0.0800 
 10 C       -2.1290    -2.4120     0.1620 C.3   1 <1>   0.1200 
 11 C        0.3850     2.7080    -1.6770 C.3   1 <1>   0.3430 
 12 C        0.0340     4.5970    -0.2860 C.3   1 <1>   0.3430 
 13 C       -1.3150     3.6900     2.4170 C.3   1 <1>  -0.1600 
 14 C        0.0010     2.9090     2.4700 C.3   1 <1>  -0.1600 
 15 C       -3.8770    -2.2540     1.6120 C.3   1 <1>   0.1200 
 16 C       -5.2370    -2.0680    -0.5430 C.3   1 <1>  -0.0170 
 17 O       -2.5290    -2.5950     1.4810 O.3   1 <1>  -0.5600 
 18 C        1.0070     3.8940    -2.4040 C.3   1 <1>  -0.1600 
 19 C        0.7190     5.1230    -1.5380 C.3   1 <1>  -0.1600 
 20 C       -6.6290    -2.3580     0.0330 C.ar  1 <1>  -0.1440 
 21 C       -7.5240    -3.2000    -0.6740 C.ar  1 <1>   0.0000 
 22 C       -7.0790    -1.8340     1.2140 C.ar  1 <1>  -0.1500 
 23 C       -8.7900    -3.4630    -0.0950 C.ar  1 <1>   0.3100 
 24 C       -7.2400    -3.7950    -1.9270 C.ar  1 <1>  -0.1500 
 25 C       -8.3560    -2.1510     1.6930 C.ar  1 <1>   0.1600 
 26 N       -9.1890    -2.9320     1.0870 N.ar  1 <1>  -0.6200 
 27 C       -9.6880    -4.3070    -0.7680 C.ar  1 <1>  -0.1500 
 28 C       -8.1390    -4.6110    -2.5590 C.ar  1 <1>  -0.1500 
 29 C       -9.3790    -4.8750    -1.9730 C.ar  1 <1>  -0.1500 
 30 H       -1.9610    -0.1350     1.2860 H     1 <1>   0.3700 
 31 H       -2.9510    -1.0860    -1.3550 H     1 <1>   0.0800 
 32 H       -1.3910     3.5440    -1.3020 H     1 <1>   0.4500 
 33 H       -2.6630     3.8790     0.7060 H     1 <1>   0.0800 
 34 H       -2.8260     2.4240     1.6370 H     1 <1>   0.0800 
 35 H       -0.2830     0.9530     1.7250 H     1 <1>   0.0800 
 36 H        0.9340     1.8060     0.8450 H     1 <1>   0.0800 
 37 H       -4.6460    -0.4260     0.7100 H     1 <1>   0.0800 
 38 H       -1.0610    -2.2960     0.1170 H     1 <1>   0.0800 
 39 H       -2.4300    -3.2770    -0.4030 H     1 <1>   0.0800 
 40 H        1.1550     2.1700    -1.1490 H     1 <1>   0.0800 
 41 H       -0.1100     2.0400    -2.3650 H     1 <1>   0.0800 
 42 H       -0.7050     5.2880     0.0860 H     1 <1>   0.0800 
 43 H        0.7740     4.4130     0.4740 H     1 <1>   0.0800 
 44 H       -1.1190     4.7390     2.2780 H     1 <1>   0.0800 
 45 H       -1.8670     3.5750     3.3360 H     1 <1>   0.0800 
 46 H        0.0980     2.3900     3.4100 H     1 <1>   0.0800 
 47 H        0.8380     3.5800     2.3780 H     1 <1>   0.0800 
 48 H       -4.4540    -3.1630     1.6370 H     1 <1>   0.0800 
 49 H       -3.9980    -1.7260     2.5410 H     1 <1>   0.0800 
 50 H       -4.8020    -3.0010    -0.8550 H     1 <1>   0.0800 
 51 H       -5.3650    -1.4580    -1.4210 H     1 <1>   0.0800 
 52 H        2.0640     3.7360    -2.5320 H     1 <1>   0.0800 
 53 H        0.5590     4.0030    -3.3770 H     1 <1>   0.0800 
 54 H        0.0570     5.7980    -2.0540 H     1 <1>   0.0800 
 55 H        1.6190     5.6560    -1.2830 H     1 <1>   0.0800 
 56 H       -6.4920    -1.1700     1.8180 H     1 <1>   0.1500 
 57 H       -6.2990    -3.6050    -2.4060 H     1 <1>   0.1500 
 58 H       -8.6640    -1.7160     2.6290 H     1 <1>   0.1500 
 59 H      -10.6370    -4.4920    -0.2990 H     1 <1>   0.1500 
 60 H       -7.9060    -5.0570    -3.5110 H     1 <1>   0.1500 
 61 H      -10.0770    -5.5200    -2.4780 H     1 <1>   0.1500 
@<TRIPOS>BOND
  1   1   2  2   
  2   2   3  am  
  3   2   4  1   
  4   3   5  1   
  5   3  30  1   
  6   4   6  1   
  7   4   7  1   
  8   4   8  1   
  9   5   9  1   
 10   5  10  1   
 11   5  31  1   
 12   6  11  1   
 13   6  12  1   
 14   6  32  1   
 15   7  13  1   
 16   7  33  1   
 17   7  34  1   
 18   8  14  1   
 19   8  35  1   
 20   8  36  1   
 21   9  15  1   
 22   9  16  1   
 23   9  37  1   
 24  10  17  1   
 25  10  38  1   
 26  10  39  1   
 27  11  18  1   
 28  11  40  1   
 29  11  41  1   
 30  12  19  1   
 31  12  42  1   
 32  12  43  1   
 33  13  14  1   
 34  13  44  1   
 35  13  45  1   
 36  14  46  1   
 37  14  47  1   
 38  15  17  1   
 39  15  48  1   
 40  15  49  1   
 41  16  20  1   
 42  16  50  1   
 43  16  51  1   
 44  18  19  1   
 45  18  52  1   
 46  18  53  1   
 47  19  54  1   
 48  19  55  1   
 49  20  21  ar  
 50  20  22  ar  
 51  21  23  ar  
 52  21  24  ar  
 53  22  25  ar  
 54  22  56  1   
 55  23  26  ar  
 56  23  27  ar  
 57  24  28  ar  
 58  24  57  1   
 59  25  26  ar  
 60  25  58  1   
 61  27  29  ar  
 62  27  59  1   
 63  28  29  ar  
 64  28  60  1   
 65  29  61  1   
@<TRIPOS>SUBSTRUCTURE
  1 ****   9 GROUP 4 **** **** 0

# MOE 2024.06 (io_trps.svl 2023.06)
