@<TRIPOS>MOLECULE
NONAME
46 48 1 0 0 
SMALL
USER_CHARGES


@<TRIPOS>ATOM
  1 S       -0.7360     0.4790     1.2180 S.o2  1 <1>   1.4470 
  2 O       -1.4620     1.5990     1.7680 O.2   1 <1>  -0.6500 
  3 O       -0.7430    -0.7660     1.9530 O.2   1 <1>  -0.6500 
  4 N       -1.5260     0.1990    -0.2410 N.am  1 <1>  -0.9140 
  5 C        0.9640     0.9570     0.7650 C.ar  1 <1>  -0.0090 
  6 C       -1.5080    -1.1270    -0.8670 C.3   1 <1>   0.2760 
  7 C        1.2720     2.0490    -0.0530 C.ar  1 <1>  -0.1430 
  8 C        2.0240     0.1970     1.2510 C.ar  1 <1>  -0.1500 
  9 C       -2.3680    -2.1730    -0.1490 C.3   1 <1>  -0.0800 
 10 C       -0.1370    -1.7970    -1.0170 C.3   1 <1>   0.1200 
 11 C        2.5930     2.3360    -0.3690 C.ar  1 <1>  -0.1500 
 12 C        0.1920     2.9630    -0.6210 C.3   1 <1>  -0.0970 
 13 C        3.3380     0.4870     0.9340 C.ar  1 <1>  -0.1500 
 14 C       -1.3820    -3.3230     0.0800 C.3   1 <1>   0.1200 
 15 C       -3.5690    -2.6020    -1.0130 C.3   1 <1>  -0.0170 
 16 O       -0.3920    -3.1560    -0.8820 O.3   1 <1>  -0.5600 
 17 C        3.6290     1.5600     0.1150 C.ar  1 <1>  -0.1430 
 18 C       -4.4220    -3.6540    -0.3190 C.ar  1 <1>  -0.1430 
 19 C        5.0680     1.8890    -0.2410 C.3   1 <1>  -0.0970 
 20 C       -4.4400    -4.9700    -0.7360 C.ar  1 <1>  -0.1500 
 21 C       -5.2230    -3.3480     0.7630 C.ar  1 <1>  -0.1500 
 22 C       -5.2340    -5.8890    -0.0700 C.ar  1 <1>   0.1600 
 23 C       -5.9810    -4.3430     1.3580 C.ar  1 <1>   0.1600 
 24 N       -6.0050    -5.6070     0.9670 N.ar  1 <1>  -0.6200 
 25 H       -2.4900     0.4510    -0.0360 H     1 <1>   0.4200 
 26 H       -1.8890    -1.0010    -1.8660 H     1 <1>   0.0800 
 27 H        1.8230    -0.6450     1.8920 H     1 <1>   0.1500 
 28 H       -2.7290    -1.8240     0.8010 H     1 <1>   0.0800 
 29 H        0.5520    -1.5260    -0.2410 H     1 <1>   0.0800 
 30 H        0.2990    -1.6190    -1.9840 H     1 <1>   0.0800 
 31 H        2.8230     3.1760    -1.0010 H     1 <1>   0.1500 
 32 H        0.6260     3.7950    -1.1460 H     1 <1>   0.0800 
 33 H       -0.4190     3.3600     0.1700 H     1 <1>   0.0800 
 34 H       -0.4300     2.4230    -1.3120 H     1 <1>   0.0800 
 35 H        4.1300    -0.1260     1.3280 H     1 <1>   0.1500 
 36 H       -1.8200    -4.2990    -0.0280 H     1 <1>   0.0800 
 37 H       -0.9180    -3.2430     1.0490 H     1 <1>   0.0800 
 38 H       -3.2180    -2.9880    -1.9540 H     1 <1>   0.0800 
 39 H       -4.1850    -1.7450    -1.2220 H     1 <1>   0.0800 
 40 H        5.6800     1.0070    -0.1960 H     1 <1>   0.0800 
 41 H        5.4560     2.6170     0.4490 H     1 <1>   0.0800 
 42 H        5.1250     2.2900    -1.2370 H     1 <1>   0.0800 
 43 H       -3.8440    -5.2920    -1.5700 H     1 <1>   0.1500 
 44 H       -5.2680    -2.3460     1.1500 H     1 <1>   0.1500 
 45 H       -5.2350    -6.9110    -0.4100 H     1 <1>   0.1500 
 46 H       -6.5990    -4.0860     2.2010 H     1 <1>   0.1500 
@<TRIPOS>BOND
  1   1   2  2   
  2   1   3  2   
  3   1   4  am  
  4   1   5  1   
  5   4   6  1   
  6   4  25  1   
  7   5   7  ar  
  8   5   8  ar  
  9   6   9  1   
 10   6  10  1   
 11   6  26  1   
 12   7  11  ar  
 13   7  12  1   
 14   8  13  ar  
 15   8  27  1   
 16   9  14  1   
 17   9  15  1   
 18   9  28  1   
 19  10  16  1   
 20  10  29  1   
 21  10  30  1   
 22  11  17  ar  
 23  11  31  1   
 24  12  32  1   
 25  12  33  1   
 26  12  34  1   
 27  13  17  ar  
 28  13  35  1   
 29  14  16  1   
 30  14  36  1   
 31  14  37  1   
 32  15  18  1   
 33  15  38  1   
 34  15  39  1   
 35  17  19  1   
 36  18  20  ar  
 37  18  21  ar  
 38  19  40  1   
 39  19  41  1   
 40  19  42  1   
 41  20  22  ar  
 42  20  43  1   
 43  21  23  ar  
 44  21  44  1   
 45  22  24  ar  
 46  22  45  1   
 47  23  24  ar  
 48  23  46  1   
@<TRIPOS>SUBSTRUCTURE
  1 ****   6 GROUP 4 **** **** 0

# MOE 2024.06 (io_trps.svl 2023.06)
