@<TRIPOS>MOLECULE
NONAME
46 48 1 0 0 
SMALL
USER_CHARGES


@<TRIPOS>ATOM
  1 F        1.8830     0.6890    -0.9810 F     1 <1>  -0.3400 
  2 C        1.7150     0.0610     0.1730 C.3   1 <1>   1.1640 
  3 F        0.6370     0.5810     0.7400 F     1 <1>  -0.3400 
  4 F        2.7450     0.3980     0.9400 F     1 <1>  -0.3400 
  5 C        1.5930    -1.4650    -0.0130 C.ar  1 <1>  -0.1440 
  6 C        2.4910    -2.3610     0.5300 C.ar  1 <1>  -0.1500 
  7 C        0.5370    -1.9770    -0.7760 C.ar  1 <1>  -0.1500 
  8 C        2.3560    -3.7450     0.3430 C.ar  1 <1>   0.3610 
  9 C        0.3810    -3.3280    -0.9500 C.ar  1 <1>  -0.1500 
 10 N        3.3260    -4.6090     0.7990 N.ar  1 <1>  -0.1790 
 11 C        1.2470    -4.2640    -0.3540 C.ar  1 <1>   0.0000 
 12 C        3.2580    -5.9360     0.6020 C.ar  1 <1>   0.2180 
 13 C        1.0970    -5.6870    -0.4660 C.ar  1 <1>   0.1000 
 14 C        2.1640    -6.4730    -0.0240 C.ar  1 <1>  -0.1500 
 15 C        4.4020    -6.8040     1.1010 C.3   1 <1>  -0.0970 
 16 N       -0.0260    -6.2900    -0.9350 N.pl3 1 <1>  -0.8380 
 17 C       -0.0120    -7.5310    -1.7700 C.3   1 <1>   0.2090 
 18 C       -1.4120    -5.8610    -0.5660 C.3   1 <1>   0.2090 
 19 C       -0.6770    -8.6730    -1.0050 C.3   1 <1>  -0.1600 
 20 C       -2.1090    -6.9870     0.1980 C.3   1 <1>  -0.1600 
 21 C       -2.1000    -8.2820    -0.6120 C.3   1 <1>   0.2200 
 22 N       -2.6930    -9.3610     0.1920 N.am  1 <1>  -0.7300 
 23 C       -3.6990   -10.1670    -0.2250 C.2   1 <1>   0.5690 
 24 O       -4.1970   -10.0710    -1.3180 O.2   1 <1>  -0.5700 
 25 C       -4.2020   -11.2210     0.7240 C.3   1 <1>  -0.1790 
 26 H        3.3260    -1.9970     1.1050 H     1 <1>   0.1500 
 27 H       -0.1620    -1.2960    -1.2390 H     1 <1>   0.1500 
 28 H       -0.4220    -3.6810    -1.5720 H     1 <1>   0.1500 
 29 H        4.1320    -4.2070     1.2810 H     1 <1>   0.4570 
 30 H        2.1030    -7.5390    -0.1490 H     1 <1>   0.1500 
 31 H        5.3240    -6.5230     0.6230 H     1 <1>   0.0800 
 32 H        4.2160    -7.8410     0.8800 H     1 <1>   0.0800 
 33 H        4.5130    -6.7050     2.1660 H     1 <1>   0.0800 
 34 H        0.9940    -7.7980    -2.0430 H     1 <1>   0.0800 
 35 H       -0.5540    -7.3440    -2.6830 H     1 <1>   0.0800 
 36 H       -1.9650    -5.6230    -1.4600 H     1 <1>   0.0800 
 37 H       -1.3840    -4.9890     0.0630 H     1 <1>   0.0800 
 38 H       -0.0950    -8.9000    -0.1310 H     1 <1>   0.0800 
 39 H       -0.7100    -9.5450    -1.6340 H     1 <1>   0.0800 
 40 H       -3.1250    -6.6990     0.3970 H     1 <1>   0.0800 
 41 H       -1.6030    -7.1300     1.1350 H     1 <1>   0.0800 
 42 H       -2.6830    -8.1380    -1.5080 H     1 <1>   0.0800 
 43 H       -2.2970    -9.4890     1.1220 H     1 <1>   0.3700 
 44 H       -4.5470   -10.7610     1.6300 H     1 <1>   0.0800 
 45 H       -3.4130   -11.9140     0.9480 H     1 <1>   0.0800 
 46 H       -5.0170   -11.7560     0.2720 H     1 <1>   0.0800 
@<TRIPOS>BOND
  1   1   2  1   
  2   2   3  1   
  3   2   4  1   
  4   2   5  1   
  5   5   6  ar  
  6   5   7  ar  
  7   6   8  ar  
  8   6  26  1   
  9   7   9  ar  
 10   7  27  1   
 11   8  10  ar  
 12   8  11  ar  
 13   9  11  ar  
 14   9  28  1   
 15  10  12  ar  
 16  10  29  1   
 17  11  13  ar  
 18  12  14  ar  
 19  12  15  1   
 20  13  14  ar  
 21  13  16  1   
 22  14  30  1   
 23  15  31  1   
 24  15  32  1   
 25  15  33  1   
 26  16  17  1   
 27  16  18  1   
 28  17  19  1   
 29  17  34  1   
 30  17  35  1   
 31  18  20  1   
 32  18  36  1   
 33  18  37  1   
 34  19  21  1   
 35  19  38  1   
 36  19  39  1   
 37  20  21  1   
 38  20  40  1   
 39  20  41  1   
 40  21  22  1   
 41  21  42  1   
 42  22  23  am  
 43  22  43  1   
 44  23  24  2   
 45  23  25  1   
 46  25  44  1   
 47  25  45  1   
 48  25  46  1   
@<TRIPOS>SUBSTRUCTURE
  1 ****  13 GROUP 4 **** **** 0

# MOE 2024.06 (io_trps.svl 2023.06)
