@<TRIPOS>MOLECULE
NONAME
25 25 1 0 0 
SMALL
USER_CHARGES


@<TRIPOS>ATOM
  1 CL       0.0180     0.1340    -0.3840 Cl    1 <1>  -0.1770 
  2 C       -1.5020     0.9530    -0.1370 C.ar  1 <1>   0.1770 
  3 C       -1.7130     2.1840    -0.7290 C.ar  1 <1>  -0.1500 
  4 C       -2.4730     0.3600     0.6460 C.ar  1 <1>  -0.1500 
  5 C       -2.9210     2.8330    -0.5320 C.ar  1 <1>  -0.1500 
  6 C       -3.6790     1.0130     0.8400 C.ar  1 <1>  -0.1500 
  7 C       -3.9110     2.2530     0.2530 C.ar  1 <1>  -0.1430 
  8 C       -5.2350     2.9810     0.4550 C.3   1 <1>   0.3440 
  9 O       -5.5080     3.0020     1.8070 O.3   1 <1>  -0.6800 
 10 C       -6.3820     2.2900    -0.2720 C.3   1 <1>  -0.0990 
 11 C       -7.6260     3.1350    -0.1950 C.2   1 <1>   0.6590 
 12 O       -7.6730     4.2210    -0.7130 O.2   1 <1>  -0.5700 
 13 O       -8.6610     2.6050     0.4450 O.3   1 <1>  -0.4300 
 14 C       -9.8780     3.3060     0.5890 C.3   1 <1>   0.0400 
 15 H       -0.9410     2.6240    -1.3340 H     1 <1>   0.1500 
 16 H       -2.2860    -0.5990     1.0960 H     1 <1>   0.1500 
 17 H       -3.0840     3.7910    -0.9950 H     1 <1>   0.1500 
 18 H       -4.4380     0.5550     1.4510 H     1 <1>   0.1500 
 19 H       -5.1500     4.0040     0.1240 H     1 <1>   0.0800 
 20 H       -4.7010     3.2730     2.2860 H     1 <1>   0.4000 
 21 H       -6.5610     1.3180     0.1470 H     1 <1>   0.0800 
 22 H       -6.1240     2.1720    -1.3070 H     1 <1>   0.0800 
 23 H      -10.5640     2.6880     1.1390 H     1 <1>   0.0800 
 24 H      -10.2730     3.5230    -0.3880 H     1 <1>   0.0800 
 25 H       -9.6890     4.2200     1.1260 H     1 <1>   0.0800 
@<TRIPOS>BOND
  1   1   2  1   
  2   2   3  ar  
  3   2   4  ar  
  4   3   5  ar  
  5   3  15  1   
  6   4   6  ar  
  7   4  16  1   
  8   5   7  ar  
  9   5  17  1   
 10   6   7  ar  
 11   6  18  1   
 12   7   8  1   
 13   8   9  1   
 14   8  10  1   
 15   8  19  1   
 16   9  20  1   
 17  10  11  1   
 18  10  21  1   
 19  10  22  1   
 20  11  12  2   
 21  11  13  1   
 22  13  14  1   
 23  14  23  1   
 24  14  24  1   
 25  14  25  1   
@<TRIPOS>SUBSTRUCTURE
  1 ****   7 GROUP 4 **** **** 0

# MOE 2024.06 (io_trps.svl 2023.06)
