@<TRIPOS>MOLECULE
NONAME
46 48 1 0 0 
SMALL
USER_CHARGES


@<TRIPOS>ATOM
  1 O       -0.6990    -1.5410    -0.1420 O.2   1 <1>  -0.5700 
  2 C        0.4530    -1.8930    -0.2350 C.2   1 <1>   0.5690 
  3 N        1.0290    -2.7340     0.6790 N.am  1 <1>  -0.6600 
  4 C        1.2420    -1.3930    -1.4340 C.3   1 <1>  -0.0990 
  5 C        2.4450    -3.1950     0.6170 C.3   1 <1>   0.1400 
  6 C        0.2660    -3.2220     1.8790 C.3   1 <1>   0.2010 
  7 C        2.7590    -1.5770    -1.2950 C.3   1 <1>  -0.1600 
  8 C        3.0560    -2.9840    -0.7710 C.3   1 <1>  -0.1600 
  9 C       -0.0690    -4.7150     1.8180 C.2   1 <1>   0.5690 
 10 O        0.6100    -5.4760     2.4700 O.2   1 <1>  -0.5700 
 11 N       -1.1020    -5.1770     1.0470 N.am  1 <1>  -0.6600 
 12 C       -1.9970    -4.3560     0.1900 C.3   1 <1>   0.1400 
 13 C       -1.3820    -6.6190     0.8530 C.3   1 <1>   0.1400 
 14 C       -3.1340    -5.3070    -0.1830 C.3   1 <1>   0.2000 
 15 C       -2.4460    -6.6750    -0.2500 C.3   1 <1>  -0.0800 
 16 O       -4.0560    -5.3050     0.8530 O.3   1 <1>  -0.6800 
 17 C       -3.3840    -7.8920    -0.1500 C.3   1 <1>  -0.0170 
 18 C       -2.6060    -9.1890    -0.3060 C.ar  1 <1>  -0.1440 
 19 C       -2.1940    -9.9330     0.7820 C.ar  1 <1>  -0.1500 
 20 C       -2.2660    -9.6870    -1.5480 C.ar  1 <1>  -0.1500 
 21 C       -1.4800   -11.1030     0.5810 C.ar  1 <1>   0.1600 
 22 C       -1.5490   -10.8690    -1.6390 C.ar  1 <1>   0.1600 
 23 N       -1.1460   -11.5880    -0.6040 N.ar  1 <1>  -0.6200 
 24 H        0.8960    -1.9350    -2.2950 H     1 <1>   0.0800 
 25 H        1.0170    -0.3540    -1.5880 H     1 <1>   0.0800 
 26 H        3.0140    -2.6450     1.3470 H     1 <1>   0.0800 
 27 H        2.4990    -4.2410     0.8710 H     1 <1>   0.0800 
 28 H        0.8570    -3.0440     2.7590 H     1 <1>   0.0800 
 29 H       -0.6460    -2.6660     1.9950 H     1 <1>   0.0800 
 30 H        3.2350    -1.4250    -2.2490 H     1 <1>   0.0800 
 31 H        3.1480    -0.8480    -0.6040 H     1 <1>   0.0800 
 32 H        4.1200    -3.1360    -0.7130 H     1 <1>   0.0800 
 33 H        2.6590    -3.7210    -1.4480 H     1 <1>   0.0800 
 34 H       -2.3610    -3.4790     0.6960 H     1 <1>   0.0800 
 35 H       -1.4620    -4.0620    -0.6960 H     1 <1>   0.0800 
 36 H       -0.4880    -7.1490     0.5680 H     1 <1>   0.0800 
 37 H       -1.7580    -7.0280     1.7760 H     1 <1>   0.0800 
 38 H       -3.6370    -5.0310    -1.0930 H     1 <1>   0.0800 
 39 H       -1.9250    -6.7290    -1.1900 H     1 <1>   0.0800 
 40 H       -3.5710    -5.3690     1.7000 H     1 <1>   0.4000 
 41 H       -4.1320    -7.8300    -0.9210 H     1 <1>   0.0800 
 42 H       -3.8980    -7.8940     0.7960 H     1 <1>   0.0800 
 43 H       -2.4210    -9.6170     1.7830 H     1 <1>   0.1500 
 44 H       -2.5510    -9.1680    -2.4440 H     1 <1>   0.1500 
 45 H       -1.1660   -11.6690     1.4410 H     1 <1>   0.1500 
 46 H       -1.2930   -11.2420    -2.6160 H     1 <1>   0.1500 
@<TRIPOS>BOND
  1   1   2  2   
  2   2   3  am  
  3   2   4  1   
  4   3   5  1   
  5   3   6  1   
  6   4   7  1   
  7   4  24  1   
  8   4  25  1   
  9   5   8  1   
 10   5  26  1   
 11   5  27  1   
 12   6   9  1   
 13   6  28  1   
 14   6  29  1   
 15   7   8  1   
 16   7  30  1   
 17   7  31  1   
 18   8  32  1   
 19   8  33  1   
 20   9  10  2   
 21   9  11  am  
 22  11  12  1   
 23  11  13  1   
 24  12  14  1   
 25  12  34  1   
 26  12  35  1   
 27  13  15  1   
 28  13  36  1   
 29  13  37  1   
 30  14  15  1   
 31  14  16  1   
 32  14  38  1   
 33  15  17  1   
 34  15  39  1   
 35  16  40  1   
 36  17  18  1   
 37  17  41  1   
 38  17  42  1   
 39  18  19  ar  
 40  18  20  ar  
 41  19  21  ar  
 42  19  43  1   
 43  20  22  ar  
 44  20  44  1   
 45  21  23  ar  
 46  21  45  1   
 47  22  23  ar  
 48  22  46  1   
@<TRIPOS>SUBSTRUCTURE
  1 ****  11 GROUP 4 **** **** 0

# MOE 2024.06 (io_trps.svl 2023.06)
