@<TRIPOS>MOLECULE
NONAME
46 48 1 0 0 
SMALL
USER_CHARGES


@<TRIPOS>ATOM
  1 O        1.1630    -0.1040    -2.0350 O.2   1 <1>  -0.5700 
  2 C        2.0440    -0.7950    -1.5530 C.2   1 <1>   0.7150 
  3 N        3.3470    -0.5790    -1.9550 N.am  1 <1>  -0.6600 
  4 C        1.7060    -1.8170    -0.5990 C.2   1 <1>  -0.2370 
  5 C        3.6760     0.5620    -2.8600 C.3   1 <1>   0.1400 
  6 C        4.5220    -1.3100    -1.4130 C.3   1 <1>   0.1400 
  7 N        1.1740    -1.5950     0.6550 N.pl3 1 <1>   0.0480 
  8 C        1.8380    -3.1740    -0.7620 C.2   1 <1>  -0.1500 
  9 C        3.7870     1.8920    -2.0940 C.3   1 <1>   0.2090 
 10 C        5.2820    -0.4920    -0.3640 C.3   1 <1>  -0.1600 
 11 C        1.0060    -2.8090     1.2430 C.2   1 <1>  -0.3020 
 12 C        0.7760    -0.3250     1.3370 C.3   1 <1>   0.1760 
 13 C        1.4040    -3.7970     0.4000 C.2   1 <1>  -0.1500 
 14 N        4.6830     1.8610    -0.8880 N.pl3 1 <1>  -0.8380 
 15 C        5.7910     0.8680    -0.8530 C.3   1 <1>   0.2090 
 16 C       -0.5570     0.1970     0.7920 C.3   1 <1>  -0.2400 
 17 C        1.8670     0.7490     1.2880 C.3   1 <1>  -0.2400 
 18 C        4.4710     2.7410     0.1540 C.ar  1 <1>   0.7200 
 19 N        3.7150     3.8100    -0.1010 N.ar  1 <1>  -0.6200 
 20 N        5.0350     2.4500     1.3270 N.ar  1 <1>  -0.6200 
 21 C        3.5130     4.6340     0.8960 C.ar  1 <1>   0.1600 
 22 C        4.8160     3.2930     2.3060 C.ar  1 <1>   0.1600 
 23 C        4.0480     4.4190     2.1420 C.ar  1 <1>  -0.1500 
 24 H        2.9070     0.6590    -3.6060 H     1 <1>   0.0800 
 25 H        4.5960     0.3650    -3.3800 H     1 <1>   0.0800 
 26 H        5.1820    -1.5560    -2.2260 H     1 <1>   0.0800 
 27 H        4.2140    -2.2370    -0.9660 H     1 <1>   0.0800 
 28 H        2.2100    -3.6820    -1.6350 H     1 <1>   0.1500 
 29 H        2.7930     2.1720    -1.7910 H     1 <1>   0.0800 
 30 H        4.1420     2.6540    -2.7650 H     1 <1>   0.0800 
 31 H        6.1340    -1.0710    -0.0590 H     1 <1>   0.0800 
 32 H        4.6700    -0.3560     0.5080 H     1 <1>   0.0800 
 33 H        0.6050    -2.9190     2.2340 H     1 <1>   0.1500 
 34 H        0.6230    -0.5690     2.3740 H     1 <1>   0.0800 
 35 H        1.3890    -4.8590     0.5750 H     1 <1>   0.1500 
 36 H        6.2390     0.7790    -1.8270 H     1 <1>   0.0800 
 37 H        6.5610     1.2150    -0.1850 H     1 <1>   0.0800 
 38 H       -0.4570     0.5180    -0.2280 H     1 <1>   0.0800 
 39 H       -0.8880     1.0370     1.3760 H     1 <1>   0.0800 
 40 H       -1.3060    -0.5720     0.8450 H     1 <1>   0.0800 
 41 H        2.0110     1.1160     0.2900 H     1 <1>   0.0800 
 42 H        2.7950     0.3570     1.6610 H     1 <1>   0.0800 
 43 H        1.5870     1.5840     1.9030 H     1 <1>   0.0800 
 44 H        2.9050     5.5040     0.7140 H     1 <1>   0.1500 
 45 H        5.2600     3.0790     3.2630 H     1 <1>   0.1500 
 46 H        3.8760     5.1020     2.9510 H     1 <1>   0.1500 
@<TRIPOS>BOND
  1   1   2  2   
  2   2   3  am  
  3   2   4  1   
  4   3   5  1   
  5   3   6  1   
  6   4   7  1   
  7   4   8  2   
  8   5   9  1   
  9   5  24  1   
 10   5  25  1   
 11   6  10  1   
 12   6  26  1   
 13   6  27  1   
 14   7  11  1   
 15   7  12  1   
 16   8  13  1   
 17   8  28  1   
 18   9  14  1   
 19   9  29  1   
 20   9  30  1   
 21  10  15  1   
 22  10  31  1   
 23  10  32  1   
 24  11  13  2   
 25  11  33  1   
 26  12  16  1   
 27  12  17  1   
 28  12  34  1   
 29  13  35  1   
 30  14  15  1   
 31  14  18  1   
 32  15  36  1   
 33  15  37  1   
 34  16  38  1   
 35  16  39  1   
 36  16  40  1   
 37  17  41  1   
 38  17  42  1   
 39  17  43  1   
 40  18  19  ar  
 41  18  20  ar  
 42  19  21  ar  
 43  20  22  ar  
 44  21  23  ar  
 45  21  44  1   
 46  22  23  ar  
 47  22  45  1   
 48  23  46  1   
@<TRIPOS>SUBSTRUCTURE
  1 ****  17 GROUP 4 **** **** 0

# MOE 2024.06 (io_trps.svl 2023.06)
