@<TRIPOS>MOLECULE
NONAME
59 61 1 0 0 
SMALL
USER_CHARGES


@<TRIPOS>ATOM
  1 O        0.8070     3.6870    -1.8670 O.co2 1 <1>  -0.9000 
  2 C        0.0200     2.8030    -1.4960 C.2   1 <1>   0.9060 
  3 O       -0.5800     2.1110    -2.3250 O.co2 1 <1>  -0.9000 
  4 C       -0.2560     2.5620    -0.0090 C.3   1 <1>  -0.1060 
  5 C       -1.7830     2.4730     0.1930 C.3   1 <1>   0.2000 
  6 C        0.2780     3.7190     0.8620 C.3   1 <1>   0.1400 
  7 C        0.4260     1.2290     0.3990 C.3   1 <1>  -0.0160 
  8 O       -2.0640     2.3070     1.5430 O.3   1 <1>  -0.6800 
  9 C       -2.5100     3.7530    -0.2430 C.3   1 <1>  -0.1600 
 10 N       -0.5780     4.9540     0.8580 N.am  1 <1>  -0.6600 
 11 C        1.9460     1.3220     0.5180 C.ar  1 <1>  -0.1430 
 12 C       -1.6520     5.0270    -0.1790 C.3   1 <1>   0.1400 
 13 C       -0.0120     6.0640     1.4290 C.2   1 <1>   0.5690 
 14 C        2.5500     1.3870     1.7650 C.ar  1 <1>  -0.1500 
 15 C        2.7420     1.3400    -0.6170 C.ar  1 <1>  -0.1500 
 16 O        0.5420     6.0010     2.5050 O.2   1 <1>  -0.5700 
 17 C        0.0300     7.4160     0.6930 C.3   1 <1>   0.1710 
 18 C        3.9270     1.4680     1.8760 C.ar  1 <1>  -0.1500 
 19 C        4.1190     1.4200    -0.5100 C.ar  1 <1>  -0.1500 
 20 N        1.3230     7.6320    -0.0280 N.3   1 <1>  -0.8100 
 21 C        4.7140     1.4830     0.7380 C.ar  1 <1>  -0.1500 
 22 C        1.6640     9.0420    -0.2960 C.3   1 <1>   0.1100 
 23 C        1.4680     6.7650    -1.2160 C.3   1 <1>   0.1100 
 24 C        3.1630     9.1990    -0.6440 C.3   1 <1>   0.3430 
 25 C        2.8190     6.0490    -1.1720 C.3   1 <1>  -0.1600 
 26 N        3.9190     8.0020    -0.1630 N.4   1 <1>  -0.9590 
 27 C        4.0390     6.9660    -1.2200 C.3   1 <1>   0.3430 
 28 C        5.2000     8.3130     0.5240 C.3   1 <1>   0.2630 
 29 H       -2.1850     1.6220    -0.3310 H     1 <1>   0.0800 
 30 H        1.2720     3.9770     0.5410 H     1 <1>   0.0800 
 31 H        0.3590     3.3830     1.8800 H     1 <1>   0.0800 
 32 H        0.0340     0.8920     1.3410 H     1 <1>   0.0800 
 33 H        0.1770     0.4720    -0.3250 H     1 <1>   0.0800 
 34 H       -1.7440     3.1100     2.0040 H     1 <1>   0.4000 
 35 H       -2.8070     3.6270    -1.2700 H     1 <1>   0.0800 
 36 H       -3.4140     3.8820     0.3250 H     1 <1>   0.0800 
 37 H       -2.2930     5.8690     0.0130 H     1 <1>   0.0800 
 38 H       -1.1950     5.1720    -1.1420 H     1 <1>   0.0800 
 39 H        1.9460     1.3770     2.6560 H     1 <1>   0.1500 
 40 H        2.2850     1.2980    -1.5940 H     1 <1>   0.1500 
 41 H       -0.0880     8.1790     1.4420 H     1 <1>   0.0800 
 42 H       -0.7890     7.5030     0.0050 H     1 <1>   0.0800 
 43 H        4.3840     1.5180     2.8480 H     1 <1>   0.1500 
 44 H        4.7190     1.4330    -1.4020 H     1 <1>   0.1500 
 45 H        5.7840     1.5420     0.8220 H     1 <1>   0.1500 
 46 H        1.0510     9.4370    -1.0880 H     1 <1>   0.0800 
 47 H        1.4670     9.6220     0.5900 H     1 <1>   0.0800 
 48 H        0.7050     6.0110    -1.2290 H     1 <1>   0.0800 
 49 H        1.3640     7.3310    -2.1260 H     1 <1>   0.0800 
 50 H        3.5370    10.0960    -0.1810 H     1 <1>   0.0800 
 51 H        3.2760     9.3020    -1.7100 H     1 <1>   0.0800 
 52 H        2.8650     5.3750    -2.0100 H     1 <1>   0.0800 
 53 H        2.8600     5.4340    -0.2920 H     1 <1>   0.0800 
 54 H        3.2320     7.5710     0.4980 H     1 <1>   0.4500 
 55 H        4.1160     7.4290    -2.1900 H     1 <1>   0.0800 
 56 H        4.9210     6.3680    -1.0560 H     1 <1>   0.0800 
 57 H        5.8970     8.7590    -0.1660 H     1 <1>   0.0800 
 58 H        5.6340     7.4100     0.9220 H     1 <1>   0.0800 
 59 H        5.0290     8.9980     1.3390 H     1 <1>   0.0800 
@<TRIPOS>BOND
  1   1   2  ar  
  2   2   3  ar  
  3   2   4  1   
  4   4   5  1   
  5   4   6  1   
  6   4   7  1   
  7   5   8  1   
  8   5   9  1   
  9   5  29  1   
 10   6  10  1   
 11   6  30  1   
 12   6  31  1   
 13   7  11  1   
 14   7  32  1   
 15   7  33  1   
 16   8  34  1   
 17   9  12  1   
 18   9  35  1   
 19   9  36  1   
 20  10  12  1   
 21  10  13  am  
 22  11  14  ar  
 23  11  15  ar  
 24  12  37  1   
 25  12  38  1   
 26  13  16  2   
 27  13  17  1   
 28  14  18  ar  
 29  14  39  1   
 30  15  19  ar  
 31  15  40  1   
 32  17  20  1   
 33  17  41  1   
 34  17  42  1   
 35  18  21  ar  
 36  18  43  1   
 37  19  21  ar  
 38  19  44  1   
 39  20  22  1   
 40  20  23  1   
 41  21  45  1   
 42  22  24  1   
 43  22  46  1   
 44  22  47  1   
 45  23  25  1   
 46  23  48  1   
 47  23  49  1   
 48  24  26  1   
 49  24  50  1   
 50  24  51  1   
 51  25  27  1   
 52  25  52  1   
 53  25  53  1   
 54  26  27  1   
 55  26  28  1   
 56  26  54  1   
 57  27  55  1   
 58  27  56  1   
 59  28  57  1   
 60  28  58  1   
 61  28  59  1   
@<TRIPOS>SUBSTRUCTURE
  1 ****   6 GROUP 4 **** **** 0

# MOE 2024.06 (io_trps.svl 2023.06)
