@<TRIPOS>MOLECULE
NONAME
55 58 1 0 0 
SMALL
USER_CHARGES


@<TRIPOS>ATOM
  1 O        0.2690     0.6690    -0.2020 O.2   1 <1>  -0.5700 
  2 C       -0.4090     1.4980     0.3900 C.2   1 <1>   0.7160 
  3 N       -1.7880     1.3380     0.3550 N.am  1 <1>  -0.6600 
  4 C        0.2480     2.6240     1.0550 C.2   1 <1>   0.2030 
  5 C       -2.7630     2.4020     0.7500 C.3   1 <1>   0.1400 
  6 C       -2.4400     0.1610    -0.2800 C.3   1 <1>   0.1400 
  7 N       -0.0490     3.1030     2.2520 N.2   1 <1>  -0.7070 
  8 C        1.3070     3.3680     0.4980 C.2   1 <1>  -0.1810 
  9 C       -3.4960     2.9360    -0.4950 C.3   1 <1>   0.1430 
 10 C       -3.1790     0.6110    -1.5460 C.3   1 <1>  -0.1600 
 11 N        0.7960     4.1180     2.4540 N.pl3 1 <1>   0.3000 
 12 C        1.6260     4.3080     1.4120 C.2   1 <1>  -0.3320 
 13 C        1.9370     3.1200    -0.8640 C.3   1 <1>  -0.0590 
 14 C       -4.5500     3.9550    -0.1050 C.ar  1 <1>   0.1670 
 15 C       -4.1580     1.7680    -1.2630 C.3   1 <1>  -0.1600 
 16 C       -2.5510     3.7680    -1.4060 C.3   1 <1>  -0.1600 
 17 C        2.6800     5.4040     1.3960 C.3   1 <1>   0.0200 
 18 N       -5.4480     3.7920     0.8350 N.ar  1 <1>  -0.6200 
 19 C       -4.4620     5.0840    -0.8600 C.ar  1 <1>  -0.1430 
 20 C       -3.3450     5.0020    -1.8690 C.3   1 <1>  -0.0160 
 21 C        3.7980     5.0810     2.3870 C.3   1 <1>  -0.2400 
 22 C       -6.2830     4.8200     1.0090 C.ar  1 <1>   0.7200 
 23 C       -5.3630     6.0880    -0.6110 C.ar  1 <1>   0.1600 
 24 N       -6.2780     5.9670     0.3220 N.ar  1 <1>  -0.6200 
 25 N       -7.2430     4.6830     1.9940 N.pl3 1 <1>  -0.8380 
 26 C       -8.3950     5.6180     2.1090 C.3   1 <1>   0.1290 
 27 C       -7.1700     3.6110     3.0250 C.3   1 <1>   0.1290 
 28 H       -2.2860     3.2190     1.2550 H     1 <1>   0.0800 
 29 H       -3.4790     1.9790     1.4330 H     1 <1>   0.0800 
 30 H       -3.1380    -0.2680     0.4190 H     1 <1>   0.0800 
 31 H       -1.7150    -0.5960    -0.5280 H     1 <1>   0.0800 
 32 H       -3.7210    -0.2240    -1.9520 H     1 <1>   0.0800 
 33 H       -2.4510     0.9080    -2.2800 H     1 <1>   0.0800 
 34 H        0.7930     4.6690     3.3210 H     1 <1>   0.2700 
 35 H        1.1780     3.1180    -1.6250 H     1 <1>   0.0800 
 36 H        2.4280     2.1640    -0.8650 H     1 <1>   0.0800 
 37 H        2.6610     3.8750    -1.1030 H     1 <1>   0.0800 
 38 H       -4.5810     2.1270    -2.1850 H     1 <1>   0.0800 
 39 H       -4.9690     1.3880    -0.6650 H     1 <1>   0.0800 
 40 H       -2.1720     3.2060    -2.2390 H     1 <1>   0.0800 
 41 H       -1.7110     4.1120    -0.8270 H     1 <1>   0.0800 
 42 H        2.2270     6.3470     1.6490 H     1 <1>   0.0800 
 43 H        3.1000     5.4990     0.4120 H     1 <1>   0.0800 
 44 H       -3.7560     4.8430    -2.8510 H     1 <1>   0.0800 
 45 H       -2.7360     5.8890    -1.8640 H     1 <1>   0.0800 
 46 H        3.4160     5.0280     3.3900 H     1 <1>   0.0800 
 47 H        4.5580     5.8410     2.3470 H     1 <1>   0.0800 
 48 H        4.2450     4.1340     2.1380 H     1 <1>   0.0800 
 49 H       -5.3340     7.0000    -1.1810 H     1 <1>   0.1500 
 50 H       -8.6640     6.0070     1.1420 H     1 <1>   0.0800 
 51 H       -8.1290     6.4380     2.7530 H     1 <1>   0.0800 
 52 H       -9.2490     5.1060     2.5160 H     1 <1>   0.0800 
 53 H       -6.1450     3.3530     3.2270 H     1 <1>   0.0800 
 54 H       -7.6880     2.7370     2.6710 H     1 <1>   0.0800 
 55 H       -7.6220     3.9460     3.9420 H     1 <1>   0.0800 
@<TRIPOS>BOND
  1   1   2  2   
  2   2   3  am  
  3   2   4  1   
  4   3   5  1   
  5   3   6  1   
  6   4   7  2   
  7   4   8  1   
  8   5   9  1   
  9   5  28  1   
 10   5  29  1   
 11   6  10  1   
 12   6  30  1   
 13   6  31  1   
 14   7  11  1   
 15   8  12  2   
 16   8  13  1   
 17   9  14  1   
 18   9  15  1   
 19   9  16  1   
 20  10  15  1   
 21  10  32  1   
 22  10  33  1   
 23  11  12  1   
 24  11  34  1   
 25  12  17  1   
 26  13  35  1   
 27  13  36  1   
 28  13  37  1   
 29  14  18  ar  
 30  14  19  ar  
 31  15  38  1   
 32  15  39  1   
 33  16  20  1   
 34  16  40  1   
 35  16  41  1   
 36  17  21  1   
 37  17  42  1   
 38  17  43  1   
 39  18  22  ar  
 40  19  20  1   
 41  19  23  ar  
 42  20  44  1   
 43  20  45  1   
 44  21  46  1   
 45  21  47  1   
 46  21  48  1   
 47  22  24  ar  
 48  22  25  1   
 49  23  24  ar  
 50  23  49  1   
 51  25  26  1   
 52  25  27  1   
 53  26  50  1   
 54  26  51  1   
 55  26  52  1   
 56  27  53  1   
 57  27  54  1   
 58  27  55  1   
@<TRIPOS>SUBSTRUCTURE
  1 ****   5 GROUP 4 **** **** 0

# MOE 2024.06 (io_trps.svl 2023.06)
