@<TRIPOS>MOLECULE
NONAME
51 54 1 0 0 
SMALL
USER_CHARGES


@<TRIPOS>ATOM
  1 CL      -0.9030    -0.3420    -2.2340 Cl    1 <1>  -0.1770 
  2 C       -1.9730    -0.9300    -0.9740 C.ar  1 <1>   0.1770 
  3 C       -2.7510    -0.0370    -0.2240 C.ar  1 <1>   0.1000 
  4 C       -2.0170    -2.2920    -0.7720 C.ar  1 <1>  -0.1500 
  5 N       -2.7140     1.3450    -0.4290 N.pl3 1 <1>  -0.8380 
  6 C       -3.5700    -0.5980     0.7550 C.ar  1 <1>  -0.1500 
  7 C       -2.8540    -2.8480     0.1940 C.ar  1 <1>   0.0860 
  8 C       -1.4590     2.0930    -0.1760 C.3   1 <1>   0.2090 
  9 C       -3.8900     2.2390    -0.2870 C.3   1 <1>   0.2090 
 10 C       -3.6180    -1.9640     0.9580 C.ar  1 <1>  -0.1500 
 11 C       -2.9110    -4.2800     0.3870 C.2   1 <1>   0.5440 
 12 C       -1.9100     3.4340     0.3900 C.3   1 <1>  -0.1600 
 13 C       -3.3030     3.6420    -0.1950 C.3   1 <1>  -0.1600 
 14 O       -1.8910    -4.8990     0.6230 O.2   1 <1>  -0.5700 
 15 N       -4.0940    -4.9790     0.2960 N.am  1 <1>  -0.6600 
 16 C       -5.3620    -4.4550    -0.2770 C.3   1 <1>   0.1400 
 17 C       -4.1520    -6.4600     0.3940 C.3   1 <1>   0.1400 
 18 C       -6.3620    -5.5940    -0.0840 C.3   1 <1>   0.2000 
 19 C       -5.5020    -6.8550    -0.2180 C.3   1 <1>  -0.0800 
 20 O       -6.8620    -5.5090     1.2070 O.3   1 <1>  -0.6800 
 21 C       -6.1100    -8.1350     0.3830 C.3   1 <1>  -0.0160 
 22 C       -5.2200    -9.3390     0.1120 C.ar  1 <1>  -0.1430 
 23 C       -4.3090    -9.8020     1.0400 C.ar  1 <1>  -0.1500 
 24 C       -5.2780   -10.0290    -1.0820 C.ar  1 <1>  -0.1500 
 25 C       -3.5190   -10.8980     0.7360 C.ar  1 <1>   0.1600 
 26 C       -4.4430   -11.1150    -1.2860 C.ar  1 <1>   0.1600 
 27 N       -3.5640   -11.5660    -0.4060 N.ar  1 <1>  -0.6200 
 28 H       -1.3970    -2.9390    -1.3670 H     1 <1>   0.1500 
 29 H       -4.1670     0.0420     1.3760 H     1 <1>   0.1500 
 30 H       -0.8200     1.5640     0.5100 H     1 <1>   0.0800 
 31 H       -0.9450     2.2390    -1.1110 H     1 <1>   0.0800 
 32 H       -4.5440     2.1400    -1.1360 H     1 <1>   0.0800 
 33 H       -4.4280     2.0120     0.6150 H     1 <1>   0.0800 
 34 H       -4.2530    -2.3630     1.7300 H     1 <1>   0.1500 
 35 H       -1.9690     3.3560     1.4610 H     1 <1>   0.0800 
 36 H       -1.2310     4.2250     0.1290 H     1 <1>   0.0800 
 37 H       -3.2250     4.0510    -1.1880 H     1 <1>   0.0800 
 38 H       -3.9110     4.2930     0.4070 H     1 <1>   0.0800 
 39 H       -5.6920    -3.5560     0.2120 H     1 <1>   0.0800 
 40 H       -5.2190    -4.2650    -1.3260 H     1 <1>   0.0800 
 41 H       -3.3330    -6.9150    -0.1390 H     1 <1>   0.0800 
 42 H       -4.0980    -6.7420     1.4310 H     1 <1>   0.0800 
 43 H       -7.1860    -5.5580    -0.7760 H     1 <1>   0.0800 
 44 H       -5.3360    -7.0230    -1.2680 H     1 <1>   0.0800 
 45 H       -6.1100    -5.4130     1.8250 H     1 <1>   0.4000 
 46 H       -7.0810    -8.3060    -0.0480 H     1 <1>   0.0800 
 47 H       -6.2470    -8.0250     1.4450 H     1 <1>   0.0800 
 48 H       -4.2030    -9.3220     1.9950 H     1 <1>   0.1500 
 49 H       -5.9630    -9.7340    -1.8550 H     1 <1>   0.1500 
 50 H       -2.8130   -11.2440     1.4710 H     1 <1>   0.1500 
 51 H       -4.5020   -11.6420    -2.2230 H     1 <1>   0.1500 
@<TRIPOS>BOND
  1   1   2  1   
  2   2   3  ar  
  3   2   4  ar  
  4   3   5  1   
  5   3   6  ar  
  6   4   7  ar  
  7   4  28  1   
  8   5   8  1   
  9   5   9  1   
 10   6  10  ar  
 11   6  29  1   
 12   7  10  ar  
 13   7  11  1   
 14   8  12  1   
 15   8  30  1   
 16   8  31  1   
 17   9  13  1   
 18   9  32  1   
 19   9  33  1   
 20  10  34  1   
 21  11  14  2   
 22  11  15  am  
 23  12  13  1   
 24  12  35  1   
 25  12  36  1   
 26  13  37  1   
 27  13  38  1   
 28  15  16  1   
 29  15  17  1   
 30  16  18  1   
 31  16  39  1   
 32  16  40  1   
 33  17  19  1   
 34  17  41  1   
 35  17  42  1   
 36  18  19  1   
 37  18  20  1   
 38  18  43  1   
 39  19  21  1   
 40  19  44  1   
 41  20  45  1   
 42  21  22  1   
 43  21  46  1   
 44  21  47  1   
 45  22  23  ar  
 46  22  24  ar  
 47  23  25  ar  
 48  23  48  1   
 49  24  26  ar  
 50  24  49  1   
 51  25  27  ar  
 52  25  50  1   
 53  26  27  ar  
 54  26  51  1   
@<TRIPOS>SUBSTRUCTURE
  1 ****  11 GROUP 4 **** **** 0

# MOE 2024.06 (io_trps.svl 2023.06)
