@<TRIPOS>MOLECULE
NONAME
40 43 1 0 0 
SMALL
USER_CHARGES


@<TRIPOS>ATOM
  1 S       -0.3580     0.7760    -2.4540 S.3   1 <1>  -0.0800 
  2 C       -1.0660     1.0690    -0.8730 C.2   1 <1>  -0.1400 
  3 C       -1.6320    -0.3710    -2.8480 C.2   1 <1>  -0.1100 
  4 C       -2.1810     0.3430    -0.7120 C.2   1 <1>  -0.1810 
  5 C       -0.4550     2.0300     0.1420 C.3   1 <1>   0.4600 
  6 C       -2.5080    -0.4860    -1.8310 C.2   1 <1>  -0.1500 
  7 C       -2.9630     0.4540     0.5770 C.3   1 <1>   0.0210 
  8 O       -1.1700     1.9080     1.3590 O.3   1 <1>  -0.5600 
  9 C        0.9940     1.6450     0.4560 C.3   1 <1>  -0.1600 
 10 C       -0.5310     3.4840    -0.3430 C.3   1 <1>  -0.1600 
 11 C       -2.5690     1.7600     1.2940 C.3   1 <1>   0.1200 
 12 C        1.6350     2.6200     1.4420 C.3   1 <1>   0.2090 
 13 C        0.1160     4.4350     0.6600 C.3   1 <1>   0.2090 
 14 N        1.5210     4.0020     0.8960 N.pl3 1 <1>  -0.8380 
 15 C        2.6110     4.8140     0.6650 C.ar  1 <1>   0.7200 
 16 N        2.4160     5.8910    -0.0930 N.ar  1 <1>  -0.6200 
 17 N        3.7700     4.4590     1.2130 N.ar  1 <1>  -0.6200 
 18 C        3.4540     6.6800    -0.3280 C.ar  1 <1>   0.1670 
 19 C        4.7920     5.2390     0.9810 C.ar  1 <1>   0.1600 
 20 C        4.6880     6.3700     0.2110 C.ar  1 <1>  -0.1500 
 21 C        3.2720     7.9460    -1.2080 C.3   1 <1>   1.1630 
 22 F        4.3890     8.6640    -1.3170 F     1 <1>  -0.3400 
 23 F        2.9080     7.6620    -2.4550 F     1 <1>  -0.3400 
 24 F        2.3550     8.7830    -0.7320 F     1 <1>  -0.3400 
 25 H       -1.5880    -0.8430    -3.8130 H     1 <1>   0.1500 
 26 H       -3.3750    -1.1230    -1.8200 H     1 <1>   0.1500 
 27 H       -2.7470    -0.3890     1.2070 H     1 <1>   0.0800 
 28 H       -4.0180     0.4660     0.3700 H     1 <1>   0.0800 
 29 H        1.5750     1.6500    -0.4470 H     1 <1>   0.0800 
 30 H        1.0180     0.6480     0.8560 H     1 <1>   0.0800 
 31 H       -1.5500     3.7660    -0.5190 H     1 <1>   0.0800 
 32 H       -0.0080     3.5730    -1.2780 H     1 <1>   0.0800 
 33 H       -2.9440     1.7570     2.3020 H     1 <1>   0.0800 
 34 H       -2.9790     2.6090     0.7770 H     1 <1>   0.0800 
 35 H        2.6620     2.3380     1.5970 H     1 <1>   0.0800 
 36 H        1.1310     2.5730     2.3920 H     1 <1>   0.0800 
 37 H       -0.4200     4.4050     1.5940 H     1 <1>   0.0800 
 38 H        0.0660     5.4430     0.2870 H     1 <1>   0.0800 
 39 H        5.7390     4.9690     1.4170 H     1 <1>   0.1500 
 40 H        5.5560     6.9820     0.0460 H     1 <1>   0.1500 
@<TRIPOS>BOND
  1   1   2  1   
  2   1   3  1   
  3   2   4  2   
  4   2   5  1   
  5   3   6  2   
  6   3  25  1   
  7   4   6  1   
  8   4   7  1   
  9   5   8  1   
 10   5   9  1   
 11   5  10  1   
 12   6  26  1   
 13   7  11  1   
 14   7  27  1   
 15   7  28  1   
 16   8  11  1   
 17   9  12  1   
 18   9  29  1   
 19   9  30  1   
 20  10  13  1   
 21  10  31  1   
 22  10  32  1   
 23  11  33  1   
 24  11  34  1   
 25  12  14  1   
 26  12  35  1   
 27  12  36  1   
 28  13  14  1   
 29  13  37  1   
 30  13  38  1   
 31  14  15  1   
 32  15  16  ar  
 33  15  17  ar  
 34  16  18  ar  
 35  17  19  ar  
 36  18  20  ar  
 37  18  21  1   
 38  19  20  ar  
 39  19  39  1   
 40  20  40  1   
 41  21  22  1   
 42  21  23  1   
 43  21  24  1   
@<TRIPOS>SUBSTRUCTURE
  1 ****  14 GROUP 4 **** **** 0

# MOE 2024.06 (io_trps.svl 2023.06)
