@<TRIPOS>MOLECULE
NONAME
55 57 1 0 0 
SMALL
USER_CHARGES


@<TRIPOS>ATOM
  1 O        2.3580    -0.0620    -1.5040 O.2   1 <1>  -0.5700 
  2 C        2.0200    -0.5130    -0.4250 C.2   1 <1>   0.7150 
  3 N        1.6720     0.3900     0.5520 N.am  1 <1>  -0.6600 
  4 C        2.1320    -1.9130    -0.1420 C.2   1 <1>  -0.2370 
  5 C        1.2370     1.7800     0.1990 C.3   1 <1>   0.1400 
  6 C        2.1250     0.1990     1.9510 C.3   1 <1>   0.1400 
  7 N        1.0760    -2.7760     0.0580 N.pl3 1 <1>   0.0480 
  8 C        3.2930    -2.6310    -0.0130 C.2   1 <1>  -0.1500 
  9 C        2.4080     2.6650    -0.2830 C.3   1 <1>   0.3430 
 10 C        3.6010     0.6010     2.0810 C.3   1 <1>  -0.1600 
 11 C        1.6010    -3.9980     0.3320 C.2   1 <1>  -0.3020 
 12 C       -0.3970    -2.5530    -0.0560 C.3   1 <1>   0.1760 
 13 C        2.9570    -3.9430     0.2950 C.2   1 <1>  -0.1500 
 14 N        3.7420     2.0960     0.0910 N.4   1 <1>  -0.9590 
 15 C        3.9490     2.0040     1.5690 C.3   1 <1>   0.3430 
 16 C       -0.7750    -1.8280    -1.3540 C.3   1 <1>  -0.2400 
 17 C       -0.9490    -1.8300     1.1770 C.3   1 <1>  -0.2400 
 18 C        4.8450     2.7170    -0.6870 C.3   1 <1>   0.4230 
 19 C        6.0800     1.8080    -0.6560 C.3   1 <1>  -0.1600 
 20 C        5.1770     4.1350    -0.1940 C.3   1 <1>  -0.1600 
 21 C        7.2220     2.4140    -1.4830 C.3   1 <1>  -0.1600 
 22 C        6.3190     4.7420    -1.0220 C.3   1 <1>  -0.1600 
 23 C        7.5570     3.8360    -1.0100 C.3   1 <1>  -0.1600 
 24 H        0.7680     2.2400     1.0520 H     1 <1>   0.0800 
 25 H        0.4960     1.7320    -0.5800 H     1 <1>   0.0800 
 26 H        2.0030    -0.8330     2.2380 H     1 <1>   0.0800 
 27 H        1.5150     0.7910     2.6130 H     1 <1>   0.0800 
 28 H        4.3000    -2.2700    -0.1270 H     1 <1>   0.1500 
 29 H        2.2970     3.6630     0.1050 H     1 <1>   0.0800 
 30 H        2.3470     2.7240    -1.3580 H     1 <1>   0.0800 
 31 H        4.2180    -0.1260     1.5830 H     1 <1>   0.0800 
 32 H        3.8600     0.5550     3.1240 H     1 <1>   0.0800 
 33 H        0.9890    -4.8600     0.5320 H     1 <1>   0.1500 
 34 H       -0.8540    -3.5270    -0.0920 H     1 <1>   0.0800 
 35 H        3.6530    -4.7480     0.4610 H     1 <1>   0.1500 
 36 H        3.6680     1.1230    -0.2560 H     1 <1>   0.4500 
 37 H        4.9810     2.2040     1.8020 H     1 <1>   0.0800 
 38 H        3.3480     2.7440     2.0730 H     1 <1>   0.0800 
 39 H       -0.4720    -0.7980    -1.3350 H     1 <1>   0.0800 
 40 H       -1.8410    -1.8560    -1.4860 H     1 <1>   0.0800 
 41 H       -0.3190    -2.3170    -2.1970 H     1 <1>   0.0800 
 42 H       -0.6030    -0.8150     1.2190 H     1 <1>   0.0800 
 43 H       -0.6530    -2.3470     2.0720 H     1 <1>   0.0800 
 44 H       -2.0230    -1.8150     1.1370 H     1 <1>   0.0800 
 45 H        4.5330     2.7910    -1.7170 H     1 <1>   0.0800 
 46 H        5.8300     0.8450    -1.0660 H     1 <1>   0.0800 
 47 H        6.4280     1.6750     0.3520 H     1 <1>   0.0800 
 48 H        5.4870     4.1140     0.8350 H     1 <1>   0.0800 
 49 H        4.3150     4.7710    -0.2820 H     1 <1>   0.0800 
 50 H        6.9410     2.4430    -2.5230 H     1 <1>   0.0800 
 51 H        8.0990     1.7930    -1.4010 H     1 <1>   0.0800 
 52 H        6.5810     5.7090    -0.6260 H     1 <1>   0.0800 
 53 H        5.9940     4.8850    -2.0400 H     1 <1>   0.0800 
 54 H        8.3160     4.2560    -1.6500 H     1 <1>   0.0800 
 55 H        7.9630     3.7950    -0.0130 H     1 <1>   0.0800 
@<TRIPOS>BOND
  1   1   2  2   
  2   2   3  am  
  3   2   4  1   
  4   3   5  1   
  5   3   6  1   
  6   4   7  1   
  7   4   8  2   
  8   5   9  1   
  9   5  24  1   
 10   5  25  1   
 11   6  10  1   
 12   6  26  1   
 13   6  27  1   
 14   7  11  1   
 15   7  12  1   
 16   8  13  1   
 17   8  28  1   
 18   9  14  1   
 19   9  29  1   
 20   9  30  1   
 21  10  15  1   
 22  10  31  1   
 23  10  32  1   
 24  11  13  2   
 25  11  33  1   
 26  12  16  1   
 27  12  17  1   
 28  12  34  1   
 29  13  35  1   
 30  14  15  1   
 31  14  18  1   
 32  14  36  1   
 33  15  37  1   
 34  15  38  1   
 35  16  39  1   
 36  16  40  1   
 37  16  41  1   
 38  17  42  1   
 39  17  43  1   
 40  17  44  1   
 41  18  19  1   
 42  18  20  1   
 43  18  45  1   
 44  19  21  1   
 45  19  46  1   
 46  19  47  1   
 47  20  22  1   
 48  20  48  1   
 49  20  49  1   
 50  21  23  1   
 51  21  50  1   
 52  21  51  1   
 53  22  23  1   
 54  22  52  1   
 55  22  53  1   
 56  23  54  1   
 57  23  55  1   
@<TRIPOS>SUBSTRUCTURE
  1 ****   2 GROUP 4 **** **** 0

# MOE 2024.06 (io_trps.svl 2023.06)
