@<TRIPOS>MOLECULE
NONAME
49 52 1 0 0 
SMALL
USER_CHARGES


@<TRIPOS>ATOM
  1 O       -0.2030     1.9680    -1.6510 O.2   1 <1>  -0.5700 
  2 C       -0.5090     3.1300    -1.5130 C.2   1 <1>   0.5690 
  3 N       -0.7770     3.7090    -0.3040 N.am  1 <1>  -0.5090 
  4 C       -0.6010     4.0200    -2.7470 C.3   1 <1>   0.1810 
  5 C       -1.1900     5.1450    -0.2450 C.3   1 <1>   0.3640 
  6 C       -0.5210     3.0280     0.9860 C.3   1 <1>   0.0490 
  7 O       -0.0330     5.2790    -2.4840 O.3   1 <1>  -0.5600 
  8 C       -2.7160     5.2890    -0.2050 C.ar  1 <1>  -0.1440 
  9 C       -0.6160     6.0110    -1.4080 C.3   1 <1>   0.2610 
 10 C       -1.2660     1.7650     1.2850 C.3   1 <1>  -0.2000 
 11 C       -1.5780     3.0110     2.0490 C.3   1 <1>  -0.2000 
 12 C       -3.5910     4.3140    -0.6760 C.ar  1 <1>  -0.1500 
 13 C       -3.2490     6.4580     0.3250 C.ar  1 <1>  -0.1500 
 14 C        0.4010     6.9940    -0.8240 C.2   1 <1>   0.5690 
 15 C       -4.9610     4.5030    -0.6220 C.ar  1 <1>  -0.1500 
 16 C       -4.6170     6.6490     0.3800 C.ar  1 <1>  -0.1500 
 17 O        0.0250     7.8300    -0.0320 O.2   1 <1>  -0.5700 
 18 N        1.7090     6.8890    -1.1660 N.am  1 <1>  -0.7300 
 19 C       -5.4830     5.6780    -0.0910 C.ar  1 <1>   0.0830 
 20 C        2.8180     7.7170    -0.6390 C.3   1 <1>   0.3200 
 21 O       -6.8100     5.9430     0.0020 O.3   1 <1>  -0.3630 
 22 C        3.1380     7.3320     0.7950 C.2   1 <1>   0.0060 
 23 C       -7.7770     5.0050    -0.4150 C.3   1 <1>   0.0400 
 24 N        4.2640     6.8340     1.1980 N.2   1 <1>  -0.5650 
 25 N        2.2360     7.4950     1.7850 N.pl3 1 <1>   0.0330 
 26 C        4.0830     6.6620     2.5220 C.2   1 <1>   0.0770 
 27 C        2.8490     7.0610     2.9000 C.2   1 <1>  -0.3020 
 28 H       -1.6270     4.1530    -3.0390 H     1 <1>   0.0800 
 29 H       -0.0550     3.5730    -3.5570 H     1 <1>   0.0800 
 30 H       -0.8210     5.5410     0.6860 H     1 <1>   0.0800 
 31 H        0.5140     3.0830     1.2830 H     1 <1>   0.1000 
 32 H       -1.4110     6.5980    -1.8310 H     1 <1>   0.0800 
 33 H       -1.9690     1.4040     0.5540 H     1 <1>   0.1000 
 34 H       -0.7430     0.9690     1.7840 H     1 <1>   0.1000 
 35 H       -1.2770     3.0550     3.0810 H     1 <1>   0.1000 
 36 H       -2.5330     3.4740     1.8800 H     1 <1>   0.1000 
 37 H       -3.2230     3.3890    -1.0840 H     1 <1>   0.1500 
 38 H       -2.6020     7.2340     0.7020 H     1 <1>   0.1500 
 39 H       -5.6020     3.7270    -0.9930 H     1 <1>   0.1500 
 40 H       -5.0250     7.5550     0.7910 H     1 <1>   0.1500 
 41 H        1.9790     6.1250    -1.7940 H     1 <1>   0.3700 
 42 H        3.6930     7.5770    -1.2510 H     1 <1>   0.0800 
 43 H        2.5400     8.7560    -0.6770 H     1 <1>   0.0800 
 44 H       -8.7490     5.4250    -0.2340 H     1 <1>   0.0800 
 45 H       -7.6560     4.1020     0.1570 H     1 <1>   0.0800 
 46 H       -7.6500     4.8160    -1.4660 H     1 <1>   0.0800 
 47 H        1.2810     7.8570     1.6570 H     1 <1>   0.2700 
 48 H        4.8640     6.2540     3.1430 H     1 <1>   0.1500 
 49 H        2.3870     7.0580     3.8700 H     1 <1>   0.1500 
@<TRIPOS>BOND
  1   1   2  2   
  2   2   3  am  
  3   2   4  1   
  4   3   5  1   
  5   3   6  1   
  6   4   7  1   
  7   4  28  1   
  8   4  29  1   
  9   5   8  1   
 10   5   9  1   
 11   5  30  1   
 12   6  10  1   
 13   6  11  1   
 14   6  31  1   
 15   7   9  1   
 16   8  12  ar  
 17   8  13  ar  
 18   9  14  1   
 19   9  32  1   
 20  10  11  1   
 21  10  33  1   
 22  10  34  1   
 23  11  35  1   
 24  11  36  1   
 25  12  15  ar  
 26  12  37  1   
 27  13  16  ar  
 28  13  38  1   
 29  14  17  2   
 30  14  18  am  
 31  15  19  ar  
 32  15  39  1   
 33  16  19  ar  
 34  16  40  1   
 35  18  20  1   
 36  18  41  1   
 37  19  21  1   
 38  20  22  1   
 39  20  42  1   
 40  20  43  1   
 41  21  23  1   
 42  22  24  2   
 43  22  25  1   
 44  23  44  1   
 45  23  45  1   
 46  23  46  1   
 47  24  26  1   
 48  25  27  1   
 49  25  47  1   
 50  26  27  2   
 51  26  48  1   
 52  27  49  1   
@<TRIPOS>SUBSTRUCTURE
  1 ****   5 GROUP 4 **** **** 0

# MOE 2024.06 (io_trps.svl 2023.06)
