@<TRIPOS>MOLECULE
NONAME
51 53 1 0 0 
SMALL
USER_CHARGES


@<TRIPOS>ATOM
  1 S        0.3510    -0.0400     0.7410 S.o2  1 <1>   1.3330 
  2 O       -0.2860    -0.9760     1.6400 O.2   1 <1>  -0.6500 
  3 O        1.7910     0.0890     0.7500 O.2   1 <1>  -0.6500 
  4 N       -0.1200    -0.4560    -0.8380 N.am  1 <1>  -0.8490 
  5 C       -0.3670     1.5870     0.9750 C.3   1 <1>  -0.0550 
  6 C        0.7840    -1.4430    -1.4370 C.3   1 <1>   0.1160 
  7 C       -1.5020    -0.9400    -0.9220 C.3   1 <1>   0.1160 
  8 C        0.1460     2.6500    -0.0200 C.3   1 <1>  -0.0800 
  9 C       -0.6330     3.9650     0.0010 C.3   1 <1>   0.2000 
 10 C        1.6090     3.0650     0.2150 C.3   1 <1>   0.1100 
 11 O       -0.9380     4.2900     1.3100 O.3   1 <1>  -0.6800 
 12 C        0.4090     4.9650    -0.4800 C.3   1 <1>   0.1100 
 13 N        1.6380     4.5350     0.2000 N.3   1 <1>  -0.8100 
 14 C        2.8630     5.0760    -0.4180 C.3   1 <1>   0.2900 
 15 C        2.8560     6.5970    -0.4420 C.2   1 <1>  -0.0400 
 16 O        2.3370     7.2040    -1.5080 O.3   1 <1>  -0.2800 
 17 C        3.3080     7.4960     0.4560 C.2   1 <1>  -0.1810 
 18 C        2.4490     8.5170    -1.3100 C.ar  1 <1>   0.1400 
 19 C        3.0530     8.7710    -0.0930 C.ar  1 <1>   0.0000 
 20 C        3.9570     7.2720     1.8080 C.3   1 <1>  -0.0590 
 21 C        2.0430     9.5400    -2.1560 C.ar  1 <1>  -0.1500 
 22 C        3.2630    10.0930     0.3030 C.ar  1 <1>  -0.1500 
 23 C        2.2560    10.8440    -1.7550 C.ar  1 <1>  -0.1500 
 24 C        2.8650    11.1240    -0.5270 C.ar  1 <1>  -0.1440 
 25 C        3.0800    12.5720    -0.1250 C.3   1 <1>  -0.0970 
 26 H       -1.4320     1.5140     0.8780 H     1 <1>   0.0800 
 27 H       -0.1640     1.9170     1.9760 H     1 <1>   0.0800 
 28 H        0.4690    -1.6800    -2.4380 H     1 <1>   0.0800 
 29 H        0.7970    -2.3450    -0.8460 H     1 <1>   0.0800 
 30 H        1.7840    -1.0470    -1.4840 H     1 <1>   0.0800 
 31 H       -1.7720    -1.1130    -1.9500 H     1 <1>   0.0800 
 32 H       -2.1790    -0.2090    -0.5130 H     1 <1>   0.0800 
 33 H       -1.6140    -1.8600    -0.3710 H     1 <1>   0.0800 
 34 H        0.0780     2.2510    -1.0180 H     1 <1>   0.0800 
 35 H       -1.5370     3.9540    -0.5830 H     1 <1>   0.0800 
 36 H        2.2320     2.6520    -0.5620 H     1 <1>   0.0800 
 37 H        1.9720     2.7180     1.1680 H     1 <1>   0.0800 
 38 H       -0.0920     4.5890     1.7130 H     1 <1>   0.4000 
 39 H        0.1450     5.9780    -0.2250 H     1 <1>   0.0800 
 40 H        0.5270     4.8850    -1.5470 H     1 <1>   0.0800 
 41 H        3.7110     4.7420     0.1530 H     1 <1>   0.0800 
 42 H        2.9700     4.7070    -1.4240 H     1 <1>   0.0800 
 43 H        3.3960     7.7830     2.5690 H     1 <1>   0.0800 
 44 H        4.9630     7.6520     1.7990 H     1 <1>   0.0800 
 45 H        3.9810     6.2240     2.0460 H     1 <1>   0.0800 
 46 H        1.5770     9.3010    -3.0930 H     1 <1>   0.1500 
 47 H        3.7320    10.2840     1.2500 H     1 <1>   0.1500 
 48 H        1.9500    11.6550    -2.3930 H     1 <1>   0.1500 
 49 H        3.7010    13.0650    -0.8520 H     1 <1>   0.0800 
 50 H        3.5600    12.6370     0.8350 H     1 <1>   0.0800 
 51 H        2.1350    13.0800    -0.0710 H     1 <1>   0.0800 
@<TRIPOS>BOND
  1   1   2  2   
  2   1   3  2   
  3   1   4  am  
  4   1   5  1   
  5   4   6  1   
  6   4   7  1   
  7   5   8  1   
  8   5  26  1   
  9   5  27  1   
 10   6  28  1   
 11   6  29  1   
 12   6  30  1   
 13   7  31  1   
 14   7  32  1   
 15   7  33  1   
 16   8   9  1   
 17   8  10  1   
 18   8  34  1   
 19   9  11  1   
 20   9  12  1   
 21   9  35  1   
 22  10  13  1   
 23  10  36  1   
 24  10  37  1   
 25  11  38  1   
 26  12  13  1   
 27  12  39  1   
 28  12  40  1   
 29  13  14  1   
 30  14  15  1   
 31  14  41  1   
 32  14  42  1   
 33  15  16  1   
 34  15  17  2   
 35  16  18  1   
 36  17  19  1   
 37  17  20  1   
 38  18  19  ar  
 39  18  21  ar  
 40  19  22  ar  
 41  20  43  1   
 42  20  44  1   
 43  20  45  1   
 44  21  23  ar  
 45  21  46  1   
 46  22  24  ar  
 47  22  47  1   
 48  23  24  ar  
 49  23  48  1   
 50  24  25  1   
 51  25  49  1   
 52  25  50  1   
 53  25  51  1   
@<TRIPOS>SUBSTRUCTURE
  1 ****  13 GROUP 4 **** **** 0

# MOE 2024.06 (io_trps.svl 2023.06)
