@<TRIPOS>MOLECULE
NONAME
43 45 1 0 0 
SMALL
USER_CHARGES


@<TRIPOS>ATOM
  1 CL       1.0220    -0.1810     3.0910 Cl    1 <1>  -0.1770 
  2 C        1.9250    -0.9330     1.8020 C.ar  1 <1>   0.1770 
  3 C        2.6500    -0.1400     0.9370 C.ar  1 <1>  -0.1500 
  4 C        1.8930    -2.3070     1.6750 C.ar  1 <1>  -0.1500 
  5 C        3.3680    -0.7500    -0.0860 C.ar  1 <1>   0.0830 
  6 C        2.5970    -2.9360     0.6490 C.ar  1 <1>   0.0860 
  7 O        4.1150    -0.0680    -0.9880 O.3   1 <1>  -0.3630 
  8 C        3.3370    -2.1290    -0.2150 C.ar  1 <1>  -0.1500 
  9 C        2.5700    -4.3770     0.4840 C.2   1 <1>   0.5440 
 10 C        4.2630     1.3330    -0.9120 C.3   1 <1>   0.0400 
 11 O        3.6110    -4.9880     0.3390 O.2   1 <1>  -0.5700 
 12 N        1.3870    -5.0800     0.4750 N.am  1 <1>  -0.6600 
 13 C        0.0580    -4.4950     0.1620 C.3   1 <1>   0.1400 
 14 C        1.3550    -6.5560     0.3290 C.3   1 <1>   0.1400 
 15 C       -0.7390    -5.6470    -0.4450 C.3   1 <1>   0.2000 
 16 C       -0.1200    -6.9150     0.1360 C.3   1 <1>  -0.0800 
 17 O       -2.0820    -5.5730    -0.1140 O.3   1 <1>  -0.6800 
 18 C       -0.3390    -8.1520    -0.7470 C.3   1 <1>   0.0200 
 19 C        0.3540    -9.3670    -0.1610 C.2   1 <1>  -0.0400 
 20 O       -0.0170    -9.8320     1.0020 O.3   1 <1>  -0.0190 
 21 C        1.3580   -10.1320    -0.6120 C.2   1 <1>  -0.1500 
 22 N        0.6900   -10.8660     1.3560 N.2   1 <1>  -0.4100 
 23 C        1.5260   -11.0710     0.4030 C.2   1 <1>   0.1080 
 24 C        2.5510   -12.1830     0.3940 C.3   1 <1>  -0.0590 
 25 H        2.6410     0.9240     1.0780 H     1 <1>   0.1500 
 26 H        1.3270    -2.8930     2.3750 H     1 <1>   0.1500 
 27 H        3.9030    -2.5900    -1.0040 H     1 <1>   0.1500 
 28 H        4.9120     1.6430    -1.7110 H     1 <1>   0.0800 
 29 H        4.7050     1.5880     0.0350 H     1 <1>   0.0800 
 30 H        3.2990     1.7950    -1.0260 H     1 <1>   0.0800 
 31 H       -0.4010    -4.1540     1.0730 H     1 <1>   0.0800 
 32 H        0.1510    -3.6830    -0.5390 H     1 <1>   0.0800 
 33 H        1.9370    -6.8350    -0.5330 H     1 <1>   0.0800 
 34 H        1.7670    -7.0330     1.2020 H     1 <1>   0.0800 
 35 H       -0.6510    -5.6220    -1.5180 H     1 <1>   0.0800 
 36 H       -0.5300    -7.0990     1.1140 H     1 <1>   0.0800 
 37 H       -2.2050    -5.6830     0.8490 H     1 <1>   0.4000 
 38 H        0.0430    -7.9700    -1.7360 H     1 <1>   0.0800 
 39 H       -1.3930    -8.3560    -0.8290 H     1 <1>   0.0800 
 40 H        1.9230   -10.0680    -1.5230 H     1 <1>   0.1500 
 41 H        2.3910   -12.8200    -0.4550 H     1 <1>   0.0800 
 42 H        2.4630   -12.7690     1.2910 H     1 <1>   0.0800 
 43 H        3.5400   -11.7660     0.3460 H     1 <1>   0.0800 
@<TRIPOS>BOND
  1   1   2  1   
  2   2   3  ar  
  3   2   4  ar  
  4   3   5  ar  
  5   3  25  1   
  6   4   6  ar  
  7   4  26  1   
  8   5   7  1   
  9   5   8  ar  
 10   6   8  ar  
 11   6   9  1   
 12   7  10  1   
 13   8  27  1   
 14   9  11  2   
 15   9  12  am  
 16  10  28  1   
 17  10  29  1   
 18  10  30  1   
 19  12  13  1   
 20  12  14  1   
 21  13  15  1   
 22  13  31  1   
 23  13  32  1   
 24  14  16  1   
 25  14  33  1   
 26  14  34  1   
 27  15  16  1   
 28  15  17  1   
 29  15  35  1   
 30  16  18  1   
 31  16  36  1   
 32  17  37  1   
 33  18  19  1   
 34  18  38  1   
 35  18  39  1   
 36  19  20  1   
 37  19  21  2   
 38  20  22  1   
 39  21  23  1   
 40  21  40  1   
 41  22  23  2   
 42  23  24  1   
 43  24  41  1   
 44  24  42  1   
 45  24  43  1   
@<TRIPOS>SUBSTRUCTURE
  1 ****  12 GROUP 4 **** **** 0

# MOE 2024.06 (io_trps.svl 2023.06)
