@<TRIPOS>MOLECULE
NONAME
49 52 1 0 0 
SMALL
USER_CHARGES


@<TRIPOS>ATOM
  1 O       -2.0390     0.3740    -1.5730 O.2   1 <1>  -0.5700 
  2 C       -1.9970     0.2920    -0.3710 C.2   1 <1>   0.5690 
  3 N       -1.9880    -0.8990     0.2700 N.am  1 <1>  -0.7300 
  4 C       -1.9630     1.5640     0.4370 C.3   1 <1>  -0.0990 
  5 C       -1.9940    -2.2250    -0.3940 C.3   1 <1>   0.2200 
  6 C       -0.7580     2.4140     0.0210 C.3   1 <1>   0.0960 
  7 C       -3.3670    -2.8850    -0.3100 C.3   1 <1>  -0.0800 
  8 C       -1.1750    -3.1890     0.4530 C.3   1 <1>   0.1200 
  9 N       -0.7670     3.6980     0.7440 N.pl3 1 <1>   0.3140 
 10 C       -3.3510    -3.5190     1.0890 C.3   1 <1>   0.1200 
 11 C       -4.5640    -1.9480    -0.5760 C.3   1 <1>  -0.0170 
 12 O       -2.0170    -3.5350     1.5090 O.3   1 <1>  -0.5600 
 13 N       -0.3820     3.8070     1.9950 N.2   1 <1>  -0.4180 
 14 C       -1.1610     4.8950     0.3390 C.2   1 <1>   0.0060 
 15 C       -5.9530    -2.5960    -0.6080 C.ar  1 <1>  -0.1440 
 16 N       -0.5420     5.0400     2.3160 N.2   1 <1>   0.0000 
 17 N       -1.0290     5.7340     1.2930 N.2   1 <1>  -0.3380 
 18 C       -1.6940     5.2360    -1.0400 C.3   1 <1>  -0.0600 
 19 C       -7.1070    -1.7740    -0.6550 C.ar  1 <1>   0.0000 
 20 C       -6.1580    -3.9480    -0.6000 C.ar  1 <1>  -0.1500 
 21 C       -8.3750    -2.4050    -0.6530 C.ar  1 <1>   0.3100 
 22 C       -7.0770    -0.3600    -0.7100 C.ar  1 <1>  -0.1500 
 23 C       -7.4570    -4.4700    -0.6110 C.ar  1 <1>   0.1600 
 24 N       -8.5330    -3.7520    -0.6310 N.ar  1 <1>  -0.6200 
 25 C       -9.5330    -1.6110    -0.6810 C.ar  1 <1>  -0.1500 
 26 C       -8.2240     0.3850    -0.7400 C.ar  1 <1>  -0.1500 
 27 C       -9.4700    -0.2450    -0.7220 C.ar  1 <1>  -0.1500 
 28 H       -1.9870    -0.9580     1.2920 H     1 <1>   0.3700 
 29 H       -2.8740     2.1030     0.2500 H     1 <1>   0.0800 
 30 H       -1.9040     1.3330     1.4850 H     1 <1>   0.0800 
 31 H       -1.6270    -2.1500    -1.4040 H     1 <1>   0.0800 
 32 H       -0.7810     2.6060    -1.0360 H     1 <1>   0.0800 
 33 H        0.1560     1.8980     0.2540 H     1 <1>   0.0800 
 34 H       -3.3810    -3.6760    -1.0390 H     1 <1>   0.0800 
 35 H       -0.2710    -2.7490     0.8340 H     1 <1>   0.0800 
 36 H       -0.9460    -4.0850    -0.0970 H     1 <1>   0.0800 
 37 H       -3.7210    -4.5290     1.0800 H     1 <1>   0.0800 
 38 H       -3.9100    -2.9340     1.7980 H     1 <1>   0.0800 
 39 H       -4.4040    -1.4520    -1.5180 H     1 <1>   0.0800 
 40 H       -4.5740    -1.1940     0.1910 H     1 <1>   0.0800 
 41 H       -1.9840     6.2720    -1.0730 H     1 <1>   0.0800 
 42 H       -2.5540     4.6330    -1.2680 H     1 <1>   0.0800 
 43 H       -0.9340     5.0700    -1.7830 H     1 <1>   0.0800 
 44 H       -5.3570    -4.6600    -0.5870 H     1 <1>   0.1500 
 45 H       -6.1330     0.1510    -0.7340 H     1 <1>   0.1500 
 46 H       -7.5680    -5.5410    -0.6020 H     1 <1>   0.1500 
 47 H      -10.4790    -2.1200    -0.6710 H     1 <1>   0.1500 
 48 H       -8.1840     1.4600    -0.7790 H     1 <1>   0.1500 
 49 H      -10.3660     0.3510    -0.7440 H     1 <1>   0.1500 
@<TRIPOS>BOND
  1   1   2  2   
  2   2   3  am  
  3   2   4  1   
  4   3   5  1   
  5   3  28  1   
  6   4   6  1   
  7   4  29  1   
  8   4  30  1   
  9   5   7  1   
 10   5   8  1   
 11   5  31  1   
 12   6   9  1   
 13   6  32  1   
 14   6  33  1   
 15   7  10  1   
 16   7  11  1   
 17   7  34  1   
 18   8  12  1   
 19   8  35  1   
 20   8  36  1   
 21   9  13  1   
 22   9  14  1   
 23  10  12  1   
 24  10  37  1   
 25  10  38  1   
 26  11  15  1   
 27  11  39  1   
 28  11  40  1   
 29  13  16  2   
 30  14  17  2   
 31  14  18  1   
 32  15  19  ar  
 33  15  20  ar  
 34  16  17  1   
 35  18  41  1   
 36  18  42  1   
 37  18  43  1   
 38  19  21  ar  
 39  19  22  ar  
 40  20  23  ar  
 41  20  44  1   
 42  21  24  ar  
 43  21  25  ar  
 44  22  26  ar  
 45  22  45  1   
 46  23  24  ar  
 47  23  46  1   
 48  25  27  ar  
 49  25  47  1   
 50  26  27  ar  
 51  26  48  1   
 52  27  49  1   
@<TRIPOS>SUBSTRUCTURE
  1 ****  11 GROUP 4 **** **** 0

# MOE 2024.06 (io_trps.svl 2023.06)
