@<TRIPOS>MOLECULE
NONAME
47 49 1 0 0 
SMALL
USER_CHARGES


@<TRIPOS>ATOM
  1 S        0.3190     0.0390    -1.0780 S.o2  1 <1>   1.3330 
  2 O        1.5570     0.4790    -1.6830 O.2   1 <1>  -0.6500 
  3 O       -0.4100    -1.0820    -1.6150 O.2   1 <1>  -0.6500 
  4 N        0.6360    -0.2540     0.5630 N.am  1 <1>  -0.8490 
  5 C       -0.7440     1.4850    -1.0260 C.3   1 <1>  -0.0550 
  6 C       -0.4770    -0.9300     1.2460 C.3   1 <1>   0.1160 
  7 C        1.8500    -1.0640     0.7390 C.3   1 <1>   0.1160 
  8 C       -0.1140     2.6800    -0.2790 C.3   1 <1>  -0.0800 
  9 C       -0.9950     3.9210    -0.3030 C.3   1 <1>   0.2000 
 10 C        1.2080     3.1680    -0.8740 C.3   1 <1>   0.3430 
 11 O       -1.9630     3.8360     0.6840 O.3   1 <1>  -0.6800 
 12 C       -0.0360     5.0930    -0.0790 C.3   1 <1>   0.3430 
 13 N        1.3110     4.6190    -0.5420 N.4   1 <1>  -0.9590 
 14 C        2.3910     4.9100     0.4400 C.3   1 <1>   0.4860 
 15 C        2.5090     6.4140     0.5720 C.ar  1 <1>  -0.1440 
 16 C        3.1200     7.1520    -0.4200 C.ar  1 <1>  -0.1500 
 17 C        1.9850     7.0570     1.7060 C.ar  1 <1>  -0.1500 
 18 C        3.1970     8.5420    -0.2990 C.ar  1 <1>   0.0000 
 19 C        2.0570     8.4240     1.8350 C.ar  1 <1>  -0.1500 
 20 C        2.6650     9.1670     0.8220 C.ar  1 <1>  -0.1520 
 21 C        3.7320     9.5640    -1.1120 C.2   1 <1>  -0.1500 
 22 N        2.8680    10.5190     0.6980 N.pl3 1 <1>   0.0330 
 23 C        3.5180    10.7430    -0.4830 C.2   1 <1>  -0.3020 
 24 H       -0.9790     1.7730    -2.0330 H     1 <1>   0.0800 
 25 H       -1.6690     1.2240    -0.5480 H     1 <1>   0.0800 
 26 H       -0.2540    -1.0480     2.2930 H     1 <1>   0.0800 
 27 H       -0.6500    -1.9050     0.8170 H     1 <1>   0.0800 
 28 H       -1.3810    -0.3530     1.1570 H     1 <1>   0.0800 
 29 H        2.0410    -1.2320     1.7850 H     1 <1>   0.0800 
 30 H        2.7020    -0.5550     0.3200 H     1 <1>   0.0800 
 31 H        1.7420    -2.0150     0.2430 H     1 <1>   0.0800 
 32 H        0.0820     2.3980     0.7410 H     1 <1>   0.0800 
 33 H       -1.4940     4.0380    -1.2510 H     1 <1>   0.0800 
 34 H        1.1860     3.0440    -1.9460 H     1 <1>   0.0800 
 35 H        2.0410     2.6030    -0.4850 H     1 <1>   0.0800 
 36 H       -1.6020     3.5840     1.5580 H     1 <1>   0.4000 
 37 H       -0.0040     5.3350     0.9700 H     1 <1>   0.0800 
 38 H       -0.3530     5.9610    -0.6360 H     1 <1>   0.0800 
 39 H        1.5570     5.1460    -1.3920 H     1 <1>   0.4500 
 40 H        2.1630     4.4690     1.3970 H     1 <1>   0.0800 
 41 H        3.3290     4.5100     0.0910 H     1 <1>   0.0800 
 42 H        3.5500     6.7010    -1.2960 H     1 <1>   0.1500 
 43 H        1.5230     6.4830     2.4910 H     1 <1>   0.1500 
 44 H        1.6600     8.9260     2.7010 H     1 <1>   0.1500 
 45 H        4.2200     9.3970    -2.0560 H     1 <1>   0.1500 
 46 H        2.5870    11.2300     1.3820 H     1 <1>   0.2700 
 47 H        3.7900    11.7340    -0.8040 H     1 <1>   0.1500 
@<TRIPOS>BOND
  1   1   2  2   
  2   1   3  2   
  3   1   4  am  
  4   1   5  1   
  5   4   6  1   
  6   4   7  1   
  7   5   8  1   
  8   5  24  1   
  9   5  25  1   
 10   6  26  1   
 11   6  27  1   
 12   6  28  1   
 13   7  29  1   
 14   7  30  1   
 15   7  31  1   
 16   8   9  1   
 17   8  10  1   
 18   8  32  1   
 19   9  11  1   
 20   9  12  1   
 21   9  33  1   
 22  10  13  1   
 23  10  34  1   
 24  10  35  1   
 25  11  36  1   
 26  12  13  1   
 27  12  37  1   
 28  12  38  1   
 29  13  14  1   
 30  13  39  1   
 31  14  15  1   
 32  14  40  1   
 33  14  41  1   
 34  15  16  ar  
 35  15  17  ar  
 36  16  18  ar  
 37  16  42  1   
 38  17  19  ar  
 39  17  43  1   
 40  18  20  ar  
 41  18  21  1   
 42  19  20  ar  
 43  19  44  1   
 44  20  22  1   
 45  21  23  2   
 46  21  45  1   
 47  22  23  1   
 48  22  46  1   
 49  23  47  1   
@<TRIPOS>SUBSTRUCTURE
  1 ****  13 GROUP 4 **** **** 0

# MOE 2024.06 (io_trps.svl 2023.06)
