@<TRIPOS>MOLECULE
NONAME
39 41 1 0 0 
SMALL
USER_CHARGES


@<TRIPOS>ATOM
  1 CL      -0.5860     0.0030    -2.7240 Cl    1 <1>  -0.1770 
  2 C       -1.7910     0.9030    -1.8380 C.ar  1 <1>   0.1770 
  3 C       -1.6850     2.2850    -1.7730 C.ar  1 <1>  -0.1500 
  4 C       -2.8250     0.2190    -1.2210 C.ar  1 <1>  -0.1500 
  5 C       -2.6290     3.0210    -1.0670 C.ar  1 <1>  -0.1440 
  6 C       -3.7680     0.9580    -0.5290 C.ar  1 <1>  -0.1440 
  7 C       -3.6690     2.3260    -0.4640 C.ar  1 <1>   0.0830 
  8 C       -2.5460     4.5360    -0.9590 C.3   1 <1>   0.2540 
  9 C       -4.9900     0.5160     0.2300 C.3   1 <1>   0.1440 
 10 O       -4.6760     2.8850     0.2280 O.3   1 <1>  -0.3630 
 11 N       -1.8490     4.9440     0.2730 N.3   1 <1>  -0.8100 
 12 C       -5.5150     1.8720     0.7630 C.3   1 <1>   0.1200 
 13 C       -4.6050    -0.4320     1.3730 C.3   1 <1>  -0.2400 
 14 C       -5.9960    -0.1470    -0.7180 C.3   1 <1>  -0.2400 
 15 C       -0.4460     4.4860     0.3990 C.3   1 <1>   0.1100 
 16 C       -1.8660     6.4000     0.5240 C.3   1 <1>   0.1100 
 17 C        0.3830     5.6830     0.8780 C.3   1 <1>   0.2600 
 18 C       -0.4200     6.8880     0.4060 C.3   1 <1>   0.2000 
 19 F        0.3810     5.6880     2.2110 F     1 <1>  -0.3400 
 20 O       -0.1450     7.1290    -0.9390 O.3   1 <1>  -0.6800 
 21 H       -0.8660     2.7680    -2.2720 H     1 <1>   0.1500 
 22 H       -2.8840    -0.8510    -1.2840 H     1 <1>   0.1500 
 23 H       -3.5470     4.9340    -0.9420 H     1 <1>   0.0800 
 24 H       -2.0430     4.9380    -1.8200 H     1 <1>   0.0800 
 25 H       -5.4520     1.9300     1.8350 H     1 <1>   0.0800 
 26 H       -6.5230     2.0700     0.4460 H     1 <1>   0.0800 
 27 H       -4.1890    -1.3420     0.9800 H     1 <1>   0.0800 
 28 H       -5.4680    -0.6760     1.9660 H     1 <1>   0.0800 
 29 H       -3.8690     0.0320     2.0060 H     1 <1>   0.0800 
 30 H       -5.5830    -1.0500    -1.1310 H     1 <1>   0.0800 
 31 H       -6.2350     0.5180    -1.5290 H     1 <1>   0.0800 
 32 H       -6.9030    -0.3920    -0.1940 H     1 <1>   0.0800 
 33 H       -0.3740     3.6560     1.0820 H     1 <1>   0.0800 
 34 H       -0.0730     4.1810    -0.5620 H     1 <1>   0.0800 
 35 H       -2.5280     6.9310    -0.1380 H     1 <1>   0.0800 
 36 H       -2.1990     6.5550     1.5360 H     1 <1>   0.0800 
 37 H        1.4110     5.6780     0.5670 H     1 <1>   0.0800 
 38 H       -0.2120     7.7830     0.9650 H     1 <1>   0.0800 
 39 H       -0.5250     6.4020    -1.4690 H     1 <1>   0.4000 
@<TRIPOS>BOND
  1   1   2  1   
  2   2   3  ar  
  3   2   4  ar  
  4   3   5  ar  
  5   3  21  1   
  6   4   6  ar  
  7   4  22  1   
  8   5   7  ar  
  9   5   8  1   
 10   6   7  ar  
 11   6   9  1   
 12   7  10  1   
 13   8  11  1   
 14   8  23  1   
 15   8  24  1   
 16   9  12  1   
 17   9  13  1   
 18   9  14  1   
 19  10  12  1   
 20  11  15  1   
 21  11  16  1   
 22  12  25  1   
 23  12  26  1   
 24  13  27  1   
 25  13  28  1   
 26  13  29  1   
 27  14  30  1   
 28  14  31  1   
 29  14  32  1   
 30  15  17  1   
 31  15  33  1   
 32  15  34  1   
 33  16  18  1   
 34  16  35  1   
 35  16  36  1   
 36  17  18  1   
 37  17  19  1   
 38  17  37  1   
 39  18  20  1   
 40  18  38  1   
 41  20  39  1   
@<TRIPOS>SUBSTRUCTURE
  1 ****   5 GROUP 4 **** **** 0

# MOE 2024.06 (io_trps.svl 2023.06)
