@<TRIPOS>MOLECULE
NONAME
45 46 1 0 0 
SMALL
USER_CHARGES


@<TRIPOS>ATOM
  1 S        0.5530     0.3480    -1.4050 S.o2  1 <1>   1.3330 
  2 O        0.8600    -1.0150    -1.7770 O.2   1 <1>  -0.6500 
  3 O       -0.2620     1.1620    -2.2780 O.2   1 <1>  -0.6500 
  4 N       -0.2180     0.3110     0.1090 N.am  1 <1>  -0.8490 
  5 C        2.1000     1.1960    -1.0760 C.3   1 <1>  -0.0550 
  6 C       -1.1410    -0.8220     0.2310 C.3   1 <1>   0.1160 
  7 C       -0.9220     1.5570     0.4320 C.3   1 <1>   0.1160 
  8 C        3.0890     0.3950    -0.2020 C.3   1 <1>  -0.0800 
  9 C        4.4700     1.0170    -0.0660 C.3   1 <1>   0.2200 
 10 C        2.6630     0.1950     1.2590 C.3   1 <1>   0.1200 
 11 N        4.3710     2.4770     0.1730 N.am  1 <1>  -0.7300 
 12 C        4.9450     0.3500     1.2160 C.3   1 <1>   0.1200 
 13 O        3.8190     0.3240     2.0380 O.3   1 <1>  -0.5600 
 14 C        4.5880     3.4500    -0.7590 C.2   1 <1>   0.5440 
 15 O        4.7990     3.1000    -1.9030 O.2   1 <1>  -0.5700 
 16 C        4.5580     4.8590    -0.4000 C.ar  1 <1>   0.0860 
 17 C        5.1130     5.8240    -1.2400 C.ar  1 <1>  -0.1500 
 18 C        3.9820     5.3210     0.7850 C.ar  1 <1>  -0.1500 
 19 C        5.1000     7.1680    -0.9180 C.ar  1 <1>  -0.1500 
 20 C        3.9690     6.6650     1.1070 C.ar  1 <1>  -0.1500 
 21 C        4.5220     7.6300     0.2660 C.ar  1 <1>   0.0860 
 22 C        4.4890     9.0380     0.6220 C.2   1 <1>   0.5440 
 23 O        4.3070     9.4010     1.7640 O.2   1 <1>  -0.5700 
 24 N        4.6410    10.0230    -0.2940 N.am  1 <1>  -0.8000 
 25 H        2.5790     1.3950    -2.0160 H     1 <1>   0.0800 
 26 H        1.8950     2.1440    -0.6200 H     1 <1>   0.0800 
 27 H       -1.6060    -0.8240     1.2020 H     1 <1>   0.0800 
 28 H       -0.6050    -1.7490     0.1140 H     1 <1>   0.0800 
 29 H       -1.9030    -0.7670    -0.5290 H     1 <1>   0.0800 
 30 H       -1.3130     1.5120     1.4340 H     1 <1>   0.0800 
 31 H       -1.7370     1.7190    -0.2550 H     1 <1>   0.0800 
 32 H       -0.2470     2.3930     0.3680 H     1 <1>   0.0800 
 33 H        3.2120    -0.5810    -0.6400 H     1 <1>   0.0800 
 34 H        5.1130     0.8040    -0.9050 H     1 <1>   0.0800 
 35 H        2.2370    -0.7820     1.4200 H     1 <1>   0.0800 
 36 H        1.9690     0.9500     1.5820 H     1 <1>   0.0800 
 37 H        4.2100     2.7140     1.1540 H     1 <1>   0.3700 
 38 H        5.7400     0.8890     1.7010 H     1 <1>   0.0800 
 39 H        5.2470    -0.6670     1.0330 H     1 <1>   0.0800 
 40 H        5.5670     5.5060    -2.1650 H     1 <1>   0.1500 
 41 H        3.5320     4.6250     1.4700 H     1 <1>   0.1500 
 42 H        5.5530     7.8690    -1.5970 H     1 <1>   0.1500 
 43 H        3.5180     6.9860     2.0320 H     1 <1>   0.1500 
 44 H        4.5760    10.9910     0.0230 H     1 <1>   0.3700 
 45 H        4.6750     9.8710    -1.3000 H     1 <1>   0.3700 
@<TRIPOS>BOND
  1   1   2  2   
  2   1   3  2   
  3   1   4  am  
  4   1   5  1   
  5   4   6  1   
  6   4   7  1   
  7   5   8  1   
  8   5  25  1   
  9   5  26  1   
 10   6  27  1   
 11   6  28  1   
 12   6  29  1   
 13   7  30  1   
 14   7  31  1   
 15   7  32  1   
 16   8   9  1   
 17   8  10  1   
 18   8  33  1   
 19   9  11  1   
 20   9  12  1   
 21   9  34  1   
 22  10  13  1   
 23  10  35  1   
 24  10  36  1   
 25  11  14  am  
 26  11  37  1   
 27  12  13  1   
 28  12  38  1   
 29  12  39  1   
 30  14  15  2   
 31  14  16  1   
 32  16  17  ar  
 33  16  18  ar  
 34  17  19  ar  
 35  17  40  1   
 36  18  20  ar  
 37  18  41  1   
 38  19  21  ar  
 39  19  42  1   
 40  20  21  ar  
 41  20  43  1   
 42  21  22  1   
 43  22  23  2   
 44  22  24  am  
 45  24  44  1   
 46  24  45  1   
@<TRIPOS>SUBSTRUCTURE
  1 ****  11 GROUP 4 **** **** 0

# MOE 2024.06 (io_trps.svl 2023.06)
