@<TRIPOS>MOLECULE
NONAME
49 51 1 0 0 
SMALL
USER_CHARGES


@<TRIPOS>ATOM
  1 S       -0.2100    -0.7290     0.2870 S.3   1 <1>  -0.0800 
  2 C       -1.1730    -1.5830    -0.9230 C.2   1 <1>  -0.0450 
  3 C       -1.0330     0.7850    -0.0180 C.2   1 <1>  -0.1100 
  4 C       -0.9320    -2.9880    -1.1360 C.2   1 <1>   0.7150 
  5 C       -2.0390    -0.7000    -1.4860 C.2   1 <1>  -0.1500 
  6 C       -1.9640     0.6290    -0.9770 C.2   1 <1>  -0.1500 
  7 O        0.1610    -3.4850    -0.9630 O.2   1 <1>  -0.5700 
  8 N       -1.9170    -3.8270    -1.5450 N.am  1 <1>  -0.7300 
  9 C       -3.0450    -4.3360    -0.7110 C.3   1 <1>   0.3610 
 10 C       -3.2470    -5.8630    -1.0230 C.2   1 <1>   0.5690 
 11 C       -4.2660    -3.4870    -1.0920 C.3   1 <1>  -0.2400 
 12 C       -2.7030    -4.1300     0.7760 C.3   1 <1>  -0.2400 
 13 O       -2.3940    -6.3970    -1.7040 O.2   1 <1>  -0.5700 
 14 N       -4.3070    -6.6280    -0.5780 N.am  1 <1>  -0.6600 
 15 C       -5.5040    -6.2340     0.2140 C.3   1 <1>   0.1400 
 16 C       -4.3570    -8.0870    -0.8460 C.3   1 <1>   0.1400 
 17 C       -6.2250    -7.5420     0.5560 C.3   1 <1>   0.2000 
 18 C       -5.2290    -8.6630     0.2670 C.3   1 <1>  -0.0800 
 19 O       -6.6020    -7.5770     1.8890 O.3   1 <1>  -0.6800 
 20 C       -5.9140    -9.9860    -0.1060 C.3   1 <1>   0.0200 
 21 C       -4.9290   -11.1090    -0.3850 C.2   1 <1>  -0.0400 
 22 O       -5.3700   -12.2080    -0.9350 O.3   1 <1>  -0.0190 
 23 C       -3.6090   -11.2560    -0.1830 C.2   1 <1>  -0.1500 
 24 N       -4.4190   -13.0770    -1.1200 N.2   1 <1>  -0.4100 
 25 C       -3.3460   -12.5300    -0.6760 C.2   1 <1>   0.1080 
 26 C       -1.9850   -13.1910    -0.6920 C.3   1 <1>  -0.0590 
 27 H       -0.7290     1.6420     0.5570 H     1 <1>   0.1500 
 28 H       -2.7360    -0.9510    -2.2670 H     1 <1>   0.1500 
 29 H       -2.6070     1.4060    -1.3520 H     1 <1>   0.1500 
 30 H       -1.5150    -4.6540    -2.0060 H     1 <1>   0.3700 
 31 H       -5.1030    -3.7010    -0.4590 H     1 <1>   0.0800 
 32 H       -4.5460    -3.6790    -2.1120 H     1 <1>   0.0800 
 33 H       -4.0510    -2.4420    -0.9760 H     1 <1>   0.0800 
 34 H       -3.4770    -4.5160     1.4060 H     1 <1>   0.0800 
 35 H       -2.5900    -3.0860     1.0100 H     1 <1>   0.0800 
 36 H       -1.7910    -4.6480     1.0190 H     1 <1>   0.0800 
 37 H       -5.2140    -5.7180     1.1100 H     1 <1>   0.0800 
 38 H       -6.1540    -5.6190    -0.3820 H     1 <1>   0.0800 
 39 H       -4.8050    -8.2490    -1.8120 H     1 <1>   0.0800 
 40 H       -3.3700    -8.5170    -0.8390 H     1 <1>   0.0800 
 41 H       -7.1120    -7.6350    -0.0470 H     1 <1>   0.0800 
 42 H       -4.5980    -8.8140     1.1260 H     1 <1>   0.0800 
 43 H       -5.8180    -7.5910     2.4710 H     1 <1>   0.4000 
 44 H       -6.5230    -9.8420    -0.9820 H     1 <1>   0.0800 
 45 H       -6.5630   -10.2940     0.6950 H     1 <1>   0.0800 
 46 H       -2.8880   -10.5870     0.2480 H     1 <1>   0.1500 
 47 H       -1.2620   -12.5290    -1.1310 H     1 <1>   0.0800 
 48 H       -2.0250   -14.0960    -1.2700 H     1 <1>   0.0800 
 49 H       -1.6860   -13.4300     0.3110 H     1 <1>   0.0800 
@<TRIPOS>BOND
  1   1   2  1   
  2   1   3  1   
  3   2   4  1   
  4   2   5  2   
  5   3   6  2   
  6   3  27  1   
  7   4   7  2   
  8   4   8  am  
  9   5   6  1   
 10   5  28  1   
 11   6  29  1   
 12   8   9  1   
 13   8  30  1   
 14   9  10  1   
 15   9  11  1   
 16   9  12  1   
 17  10  13  2   
 18  10  14  am  
 19  11  31  1   
 20  11  32  1   
 21  11  33  1   
 22  12  34  1   
 23  12  35  1   
 24  12  36  1   
 25  14  15  1   
 26  14  16  1   
 27  15  17  1   
 28  15  37  1   
 29  15  38  1   
 30  16  18  1   
 31  16  39  1   
 32  16  40  1   
 33  17  18  1   
 34  17  19  1   
 35  17  41  1   
 36  18  20  1   
 37  18  42  1   
 38  19  43  1   
 39  20  21  1   
 40  20  44  1   
 41  20  45  1   
 42  21  22  1   
 43  21  23  2   
 44  22  24  1   
 45  23  25  1   
 46  23  46  1   
 47  24  25  2   
 48  25  26  1   
 49  26  47  1   
 50  26  48  1   
 51  26  49  1   
@<TRIPOS>SUBSTRUCTURE
  1 ****  10 GROUP 4 **** **** 0

# MOE 2024.06 (io_trps.svl 2023.06)
