@<TRIPOS>MOLECULE
NONAME
36 37 1 0 0 
SMALL
USER_CHARGES


@<TRIPOS>ATOM
  1 CL       0.1240    -0.9410    -1.5720 Cl    1 <1>  -0.1770 
  2 C       -0.1430    -2.2820    -0.4830 C.ar  1 <1>   0.1770 
  3 C        0.9250    -3.0480    -0.0420 C.ar  1 <1>  -0.1440 
  4 C       -1.4380    -2.5500    -0.0820 C.ar  1 <1>  -0.1500 
  5 C        0.6650    -4.1010     0.8190 C.ar  1 <1>  -0.1500 
  6 C        2.3490    -2.7480    -0.4870 C.3   1 <1>  -0.0960 
  7 C       -1.7080    -3.6030     0.7810 C.ar  1 <1>  -0.0090 
  8 C       -0.6330    -4.3700     1.2220 C.ar  1 <1>  -0.1500 
  9 S       -3.4100    -3.9640     1.2990 S.o2  1 <1>   1.4470 
 10 O       -3.4140    -5.1410     2.1400 O.2   1 <1>  -0.6500 
 11 O       -3.9910    -2.7300     1.7850 O.2   1 <1>  -0.6500 
 12 N       -4.1620    -4.3430    -0.1730 N.am  1 <1>  -0.8490 
 13 C       -3.7360    -5.6320    -0.7600 C.3   1 <1>   0.1960 
 14 C       -5.6240    -4.1160    -0.2040 C.3   1 <1>   0.1960 
 15 C       -4.4520    -6.8810    -0.1910 C.3   1 <1>   0.2000 
 16 C       -6.4600    -5.3860    -0.4340 C.3   1 <1>  -0.1600 
 17 O       -4.5200    -7.7910    -1.2290 O.3   1 <1>  -0.6800 
 18 C       -5.8700    -6.5780     0.3390 C.3   1 <1>  -0.1860 
 19 C       -6.8300    -7.7590     0.4230 C.2   1 <1>   0.9060 
 20 O       -7.8490    -7.6250     1.1050 O.co2 1 <1>  -0.9000 
 21 O       -6.5900    -8.8080    -0.1920 O.co2 1 <1>  -0.9000 
 22 H       -2.2440    -1.9360    -0.4450 H     1 <1>   0.1500 
 23 H        1.4700    -4.7160     1.1830 H     1 <1>   0.1500 
 24 H        3.0460    -3.4400    -0.0480 H     1 <1>   0.0800 
 25 H        2.6250    -1.7520    -0.1900 H     1 <1>   0.0800 
 26 H        2.4230    -2.8230    -1.5570 H     1 <1>   0.0800 
 27 H       -0.8160    -5.1940     1.8930 H     1 <1>   0.1500 
 28 H       -3.9480    -5.5830    -1.8150 H     1 <1>   0.0800 
 29 H       -2.6740    -5.7580    -0.6540 H     1 <1>   0.0800 
 30 H       -5.9470    -3.6760     0.7250 H     1 <1>   0.0800 
 31 H       -5.8480    -3.4070    -0.9830 H     1 <1>   0.0800 
 32 H       -3.8670    -7.3350     0.5900 H     1 <1>   0.0800 
 33 H       -7.4690    -5.2060    -0.1050 H     1 <1>   0.0800 
 34 H       -6.5010    -5.6210    -1.4830 H     1 <1>   0.0800 
 35 H       -5.2900    -8.4060    -0.9970 H     1 <1>   0.4000 
 36 H       -5.7550    -6.2560     1.3570 H     1 <1>   0.0800 
@<TRIPOS>BOND
  1   1   2  1   
  2   2   3  ar  
  3   2   4  ar  
  4   3   5  ar  
  5   3   6  1   
  6   4   7  ar  
  7   4  22  1   
  8   5   8  ar  
  9   5  23  1   
 10   6  24  1   
 11   6  25  1   
 12   6  26  1   
 13   7   8  ar  
 14   7   9  1   
 15   8  27  1   
 16   9  10  2   
 17   9  11  2   
 18   9  12  am  
 19  12  13  1   
 20  12  14  1   
 21  13  15  1   
 22  13  28  1   
 23  13  29  1   
 24  14  16  1   
 25  14  30  1   
 26  14  31  1   
 27  15  17  1   
 28  15  18  1   
 29  15  32  1   
 30  16  18  1   
 31  16  33  1   
 32  16  34  1   
 33  17  35  1   
 34  18  19  1   
 35  18  36  1   
 36  19  20  ar  
 37  19  21  ar  
@<TRIPOS>SUBSTRUCTURE
  1 ****  12 GROUP 4 **** **** 0

# MOE 2024.06 (io_trps.svl 2023.06)
