@<TRIPOS>MOLECULE
NONAME
42 42 1 0 0 
SMALL
USER_CHARGES


@<TRIPOS>ATOM
  1 CL      -0.9200     0.3050    -1.8600 Cl    1 <1>  -0.1770 
  2 C       -1.6510     1.1310    -0.4920 C.ar  1 <1>   0.1770 
  3 C       -1.4370     2.5250    -0.3540 C.ar  1 <1>   0.4100 
  4 C       -2.4050     0.4690     0.4270 C.ar  1 <1>   0.2170 
  5 N       -1.9390     3.2120     0.6600 N.ar  1 <1>  -0.6200 
  6 N       -0.7030     3.2050    -1.2680 N.pl3 1 <1>  -0.8690 
  7 N       -2.9140     1.2170     1.4420 N.ar  1 <1>  -0.1790 
  8 C       -2.7200    -1.0220     0.4080 C.3   1 <1>  -0.0970 
  9 C       -2.6760     2.5410     1.5310 C.ar  1 <1>   0.7710 
 10 C       -0.4970     4.6820    -1.3430 C.3   1 <1>   0.2090 
 11 N       -3.1950     3.2410     2.5350 N.pl3 1 <1>  -0.9000 
 12 C        0.4940     5.2160    -0.2730 C.3   1 <1>   0.4230 
 13 N        0.5400     6.7290    -0.3160 N.4   1 <1>  -0.9590 
 14 C        1.8790     4.5370    -0.4210 C.3   1 <1>  -0.1600 
 15 C        1.4400     7.2940    -1.3760 C.3   1 <1>   0.2630 
 16 C        0.8580     7.3250     1.0220 C.3   1 <1>   0.2630 
 17 C        2.9350     4.9050     0.6360 C.3   1 <1>  -0.1600 
 18 C        4.1570     3.9900     0.5240 C.3   1 <1>  -0.2400 
 19 H       -0.3230     2.6780    -2.0700 H     1 <1>   0.4000 
 20 H       -3.4940     0.8010     2.1670 H     1 <1>   0.4570 
 21 H       -2.2670    -1.5100    -0.4370 H     1 <1>   0.0800 
 22 H       -3.7820    -1.1820     0.3470 H     1 <1>   0.0800 
 23 H       -2.3460    -1.4970     1.2980 H     1 <1>   0.0800 
 24 H       -1.4520     5.1600    -1.2090 H     1 <1>   0.0800 
 25 H       -0.1330     4.9250    -2.3260 H     1 <1>   0.0800 
 26 H       -3.7900     2.9120     3.3000 H     1 <1>   0.4000 
 27 H       -3.0240     4.2500     2.5700 H     1 <1>   0.4000 
 28 H        0.0880     4.9250     0.6820 H     1 <1>   0.0800 
 29 H       -0.4170     7.0420    -0.5380 H     1 <1>   0.4500 
 30 H        2.2760     4.7060    -1.4060 H     1 <1>   0.0800 
 31 H        1.7220     3.4760    -0.3410 H     1 <1>   0.0800 
 32 H        2.4670     7.0340    -1.1780 H     1 <1>   0.0800 
 33 H        1.3590     8.3690    -1.4020 H     1 <1>   0.0800 
 34 H        1.1700     6.9080    -2.3460 H     1 <1>   0.0800 
 35 H        1.8690     7.1010     1.3150 H     1 <1>   0.0800 
 36 H        0.1900     6.9370     1.7740 H     1 <1>   0.0800 
 37 H        0.7470     8.3970     0.9880 H     1 <1>   0.0800 
 38 H        2.5200     4.8040     1.6250 H     1 <1>   0.0800 
 39 H        3.2700     5.9180     0.5030 H     1 <1>   0.0800 
 40 H        3.8830     2.9620     0.6910 H     1 <1>   0.0800 
 41 H        4.8930     4.2640     1.2600 H     1 <1>   0.0800 
 42 H        4.6080     4.0710    -0.4500 H     1 <1>   0.0800 
@<TRIPOS>BOND
  1   1   2  1   
  2   2   3  ar  
  3   2   4  ar  
  4   3   5  ar  
  5   3   6  1   
  6   4   7  ar  
  7   4   8  1   
  8   5   9  ar  
  9   6  10  1   
 10   6  19  1   
 11   7   9  ar  
 12   7  20  1   
 13   8  21  1   
 14   8  22  1   
 15   8  23  1   
 16   9  11  1   
 17  10  12  1   
 18  10  24  1   
 19  10  25  1   
 20  11  26  1   
 21  11  27  1   
 22  12  13  1   
 23  12  14  1   
 24  12  28  1   
 25  13  15  1   
 26  13  16  1   
 27  13  29  1   
 28  14  17  1   
 29  14  30  1   
 30  14  31  1   
 31  15  32  1   
 32  15  33  1   
 33  15  34  1   
 34  16  35  1   
 35  16  36  1   
 36  16  37  1   
 37  17  18  1   
 38  17  38  1   
 39  17  39  1   
 40  18  40  1   
 41  18  41  1   
 42  18  42  1   
@<TRIPOS>SUBSTRUCTURE
  1 ****   3 GROUP 4 **** **** 0

# MOE 2024.06 (io_trps.svl 2023.06)
