@<TRIPOS>MOLECULE
NONAME
55 57 1 0 0 
SMALL
USER_CHARGES


@<TRIPOS>ATOM
  1 O       -0.2510     0.4950     0.2370 O.3   1 <1>  -0.5600 
  2 C        0.9740     1.1620     0.2610 C.3   1 <1>   0.2640 
  3 C       -1.3530     1.3210     0.0950 C.3   1 <1>   0.1200 
  4 C        2.0930     0.1500     0.4580 C.ar  1 <1>  -0.1440 
  5 C       -2.5860     0.4180     0.1050 C.3   1 <1>  -0.1600 
  6 C        2.2070    -0.9430    -0.3880 C.ar  1 <1>  -0.1500 
  7 C        3.0170     0.3130     1.4800 C.ar  1 <1>  -0.1500 
  8 C       -3.8910     1.2160    -0.0330 C.3   1 <1>  -0.1600 
  9 C        3.2310    -1.8580    -0.2210 C.ar  1 <1>  -0.1500 
 10 C        4.0430    -0.6020     1.6500 C.ar  1 <1>  -0.1500 
 11 C       -5.0930     0.2690    -0.0090 C.3   1 <1>   0.3430 
 12 C        4.1510    -1.6870     0.7990 C.ar  1 <1>  -0.1500 
 13 N       -6.3700     1.0350    -0.0310 N.4   1 <1>  -0.9590 
 14 C       -7.5180     0.1630     0.4030 C.3   1 <1>   0.3430 
 15 C       -6.6440     1.6770    -1.3460 C.3   1 <1>   0.3430 
 16 C       -8.9170     0.7700     0.1180 C.3   1 <1>   0.0000 
 17 C       -7.8050     2.6670    -1.1980 C.3   1 <1>  -0.1600 
 18 C       -9.8530     0.3560     1.2720 C.3   1 <1>   0.2000 
 19 C       -8.8090     2.3010    -0.0870 C.3   1 <1>  -0.1600 
 20 C       -9.5480     0.0660    -1.1020 C.3   1 <1>  -0.1600 
 21 O      -11.0000     1.1230     1.2590 O.3   1 <1>  -0.6800 
 22 C      -10.2600    -1.0810     0.9580 C.3   1 <1>  -0.1600 
 23 C      -10.2150    -1.2110    -0.5710 C.3   1 <1>  -0.1600 
 24 H        1.1060     1.6760    -0.6760 H     1 <1>   0.0800 
 25 H        0.9620     1.8740     1.0680 H     1 <1>   0.0800 
 26 H       -1.3750     2.0140     0.9200 H     1 <1>   0.0800 
 27 H       -1.2690     1.8540    -0.8380 H     1 <1>   0.0800 
 28 H       -2.5000    -0.2830    -0.7090 H     1 <1>   0.0800 
 29 H       -2.5930    -0.1340     1.0300 H     1 <1>   0.0800 
 30 H        1.4900    -1.0820    -1.1780 H     1 <1>   0.1500 
 31 H        2.9450     1.1520     2.1490 H     1 <1>   0.1500 
 32 H       -3.8620     1.7630    -0.9580 H     1 <1>   0.0800 
 33 H       -3.9600     1.9120     0.7860 H     1 <1>   0.0800 
 34 H        3.3100    -2.7030    -0.8820 H     1 <1>   0.1500 
 35 H        4.7560    -0.4690     2.4440 H     1 <1>   0.1500 
 36 H       -5.0440    -0.3220     0.8920 H     1 <1>   0.0800 
 37 H       -5.0480    -0.4030    -0.8510 H     1 <1>   0.0800 
 38 H        4.9470    -2.3990     0.9310 H     1 <1>   0.1500 
 39 H       -6.3010     1.7980     0.6550 H     1 <1>   0.4500 
 40 H       -7.4560    -0.7930    -0.0900 H     1 <1>   0.0800 
 41 H       -7.4280    -0.0180     1.4620 H     1 <1>   0.0800 
 42 H       -5.7750     2.1990    -1.7100 H     1 <1>   0.0800 
 43 H       -6.9070     0.9180    -2.0660 H     1 <1>   0.0800 
 44 H       -7.4140     3.6520    -1.0100 H     1 <1>   0.0800 
 45 H       -8.3200     2.7150    -2.1430 H     1 <1>   0.0800 
 46 H       -9.4040     0.4610     2.2460 H     1 <1>   0.0800 
 47 H       -9.7690     2.7290    -0.3250 H     1 <1>   0.0800 
 48 H       -8.4930     2.7490     0.8400 H     1 <1>   0.0800 
 49 H      -10.3120     0.6960    -1.5260 H     1 <1>   0.0800 
 50 H       -8.8360    -0.1590    -1.8770 H     1 <1>   0.0800 
 51 H      -11.5450     0.8950     0.4810 H     1 <1>   0.4000 
 52 H       -9.5400    -1.7540     1.3890 H     1 <1>   0.0800 
 53 H      -11.2270    -1.3260     1.3640 H     1 <1>   0.0800 
 54 H       -9.6560    -2.0870    -0.8540 H     1 <1>   0.0800 
 55 H      -11.2120    -1.3020    -0.9720 H     1 <1>   0.0800 
@<TRIPOS>BOND
  1   1   2  1   
  2   1   3  1   
  3   2   4  1   
  4   2  24  1   
  5   2  25  1   
  6   3   5  1   
  7   3  26  1   
  8   3  27  1   
  9   4   6  ar  
 10   4   7  ar  
 11   5   8  1   
 12   5  28  1   
 13   5  29  1   
 14   6   9  ar  
 15   6  30  1   
 16   7  10  ar  
 17   7  31  1   
 18   8  11  1   
 19   8  32  1   
 20   8  33  1   
 21   9  12  ar  
 22   9  34  1   
 23  10  12  ar  
 24  10  35  1   
 25  11  13  1   
 26  11  36  1   
 27  11  37  1   
 28  12  38  1   
 29  13  14  1   
 30  13  15  1   
 31  13  39  1   
 32  14  16  1   
 33  14  40  1   
 34  14  41  1   
 35  15  17  1   
 36  15  42  1   
 37  15  43  1   
 38  16  18  1   
 39  16  19  1   
 40  16  20  1   
 41  17  19  1   
 42  17  44  1   
 43  17  45  1   
 44  18  21  1   
 45  18  22  1   
 46  18  46  1   
 47  19  47  1   
 48  19  48  1   
 49  20  23  1   
 50  20  49  1   
 51  20  50  1   
 52  21  51  1   
 53  22  23  1   
 54  22  52  1   
 55  22  53  1   
 56  23  54  1   
 57  23  55  1   
@<TRIPOS>SUBSTRUCTURE
  1 ****   8 GROUP 4 **** **** 0

# MOE 2024.06 (io_trps.svl 2023.06)
