@<TRIPOS>MOLECULE
NONAME
50 52 1 0 0 
SMALL
USER_CHARGES


@<TRIPOS>ATOM
  1 S        0.1570     0.3930    -1.8930 S.o2  1 <1>   1.4470 
  2 O        0.0910    -0.5250    -3.0090 O.2   1 <1>  -0.6500 
  3 O        0.5430     1.7700    -2.1180 O.2   1 <1>  -0.6500 
  4 N       -1.3720     0.4140    -1.1600 N.am  1 <1>  -0.8490 
  5 C        1.2000    -0.3350    -0.5990 C.ar  1 <1>  -0.0090 
  6 C       -1.4640     1.4280    -0.1090 C.3   1 <1>   0.1960 
  7 C       -2.4310     0.6310    -2.1490 C.3   1 <1>   0.1960 
  8 C        2.2660     0.3660    -0.0480 C.ar  1 <1>  -0.1500 
  9 C        0.9450    -1.6140    -0.1140 C.ar  1 <1>  -0.1500 
 10 C       -2.7880     1.2730     0.6420 C.3   1 <1>  -0.1600 
 11 C       -3.7990     0.4590    -1.4860 C.3   1 <1>  -0.1600 
 12 C        3.0330    -0.2010     0.9520 C.ar  1 <1>   0.1900 
 13 C        1.7180    -2.1790     0.8880 C.ar  1 <1>  -0.1500 
 14 C       -3.9940     1.4200    -0.3040 C.3   1 <1>   0.2800 
 15 F        4.0110     0.5360     1.4170 F     1 <1>  -0.1900 
 16 C        2.7800    -1.4850     1.4450 C.ar  1 <1>   0.0820 
 17 O       -3.9650     2.7010    -0.8620 O.3   1 <1>  -0.5600 
 18 C       -5.3540     1.1290     0.3890 C.3   1 <1>  -0.1600 
 19 O        3.4600    -2.1430     2.4240 O.3   1 <1>  -0.3630 
 20 C       -4.3240     3.8350    -0.1070 C.3   1 <1>   0.1200 
 21 C       -6.2870     2.3420     0.5410 C.3   1 <1>   0.2800 
 22 C        4.6010    -1.6120     3.0600 C.3   1 <1>   0.0400 
 23 C       -5.4590     3.5940     0.9070 C.3   1 <1>   0.2000 
 24 O       -6.9140     2.5640    -0.6710 O.3   1 <1>  -0.6800 
 25 C       -7.4180     2.0580     1.5350 C.3   1 <1>  -0.2400 
 26 O       -4.8980     3.4520     2.1800 O.3   1 <1>  -0.6800 
 27 H       -0.6520     1.3080     0.5890 H     1 <1>   0.0800 
 28 H       -1.3950     2.4170    -0.5370 H     1 <1>   0.0800 
 29 H       -2.3430     1.6170    -2.5780 H     1 <1>   0.0800 
 30 H       -2.3440    -0.0900    -2.9460 H     1 <1>   0.0800 
 31 H        2.5010     1.3570    -0.3970 H     1 <1>   0.1500 
 32 H        0.1240    -2.1750    -0.5300 H     1 <1>   0.1500 
 33 H       -2.8270     1.9980     1.4310 H     1 <1>   0.0800 
 34 H       -2.8020     0.2990     1.0960 H     1 <1>   0.0800 
 35 H       -3.8840    -0.5580    -1.1490 H     1 <1>   0.0800 
 36 H       -4.5710     0.6300    -2.2140 H     1 <1>   0.0800 
 37 H        1.5000    -3.1710     1.2450 H     1 <1>   0.1500 
 38 H       -5.8810     0.3440    -0.1210 H     1 <1>   0.0800 
 39 H       -5.1480     0.7390     1.3690 H     1 <1>   0.0800 
 40 H       -3.4450     4.2180     0.3800 H     1 <1>   0.0800 
 41 H       -4.6560     4.5680    -0.8210 H     1 <1>   0.0800 
 42 H        4.9610    -2.3410     3.7630 H     1 <1>   0.0800 
 43 H        4.3260    -0.7110     3.5790 H     1 <1>   0.0800 
 44 H        5.3570    -1.4160     2.3200 H     1 <1>   0.0800 
 45 H       -6.0980     4.4580     0.9510 H     1 <1>   0.0800 
 46 H       -7.4200     1.7740    -0.9330 H     1 <1>   0.4000 
 47 H       -7.0180     1.8740     2.5160 H     1 <1>   0.0800 
 48 H       -7.9860     1.1960     1.2380 H     1 <1>   0.0800 
 49 H       -8.0710     2.9100     1.6020 H     1 <1>   0.0800 
 50 H       -4.3290     2.6620     2.2020 H     1 <1>   0.4000 
@<TRIPOS>BOND
  1   1   2  2   
  2   1   3  2   
  3   1   4  am  
  4   1   5  1   
  5   4   6  1   
  6   4   7  1   
  7   5   8  ar  
  8   5   9  ar  
  9   6  10  1   
 10   6  27  1   
 11   6  28  1   
 12   7  11  1   
 13   7  29  1   
 14   7  30  1   
 15   8  12  ar  
 16   8  31  1   
 17   9  13  ar  
 18   9  32  1   
 19  10  14  1   
 20  10  33  1   
 21  10  34  1   
 22  11  14  1   
 23  11  35  1   
 24  11  36  1   
 25  12  15  1   
 26  12  16  ar  
 27  13  16  ar  
 28  13  37  1   
 29  14  17  1   
 30  14  18  1   
 31  16  19  1   
 32  17  20  1   
 33  18  21  1   
 34  18  38  1   
 35  18  39  1   
 36  19  22  1   
 37  20  23  1   
 38  20  40  1   
 39  20  41  1   
 40  21  23  1   
 41  21  24  1   
 42  21  25  1   
 43  22  42  1   
 44  22  43  1   
 45  22  44  1   
 46  23  26  1   
 47  23  45  1   
 48  24  46  1   
 49  25  47  1   
 50  25  48  1   
 51  25  49  1   
 52  26  50  1   
@<TRIPOS>SUBSTRUCTURE
  1 ****   6 GROUP 4 **** **** 0

# MOE 2024.06 (io_trps.svl 2023.06)
