@<TRIPOS>MOLECULE
NONAME
50 51 1 0 0 
SMALL
USER_CHARGES


@<TRIPOS>ATOM
  1 O       -2.1880     0.3490     2.3180 O.2   1 <1>  -0.5700 
  2 C       -2.1920     0.9630     1.2810 C.2   1 <1>   0.5690 
  3 N       -2.5530     0.3520     0.1110 N.am  1 <1>  -0.6600 
  4 C       -1.8330     2.4410     1.3190 C.3   1 <1>  -0.0990 
  5 C       -2.2020    -1.0830    -0.0860 C.3   1 <1>   0.3200 
  6 C       -3.3240     1.0440    -0.9720 C.3   1 <1>   0.1400 
  7 C       -0.5350     2.7640     0.5550 C.3   1 <1>  -0.0800 
  8 C       -3.4760    -1.8970    -0.0730 C.2   1 <1>  -0.3320 
  9 C       -4.7080     1.5380    -0.4820 C.3   1 <1>   0.3430 
 10 C        0.6750     2.0330     1.1690 C.3   1 <1>  -0.1600 
 11 C       -0.2910     4.2830     0.5420 C.3   1 <1>  -0.1600 
 12 N       -4.0610    -2.4440    -1.1580 N.pl3 1 <1>   0.0330 
 13 C       -4.2430    -2.2330     0.9880 C.2   1 <1>   0.0770 
 14 N       -5.3700     0.5350     0.4110 N.4   1 <1>  -0.9590 
 15 C        1.9760     2.3870     0.4360 C.3   1 <1>  -0.1600 
 16 C        1.0080     4.6370    -0.1950 C.3   1 <1>  -0.1600 
 17 C       -5.1780    -3.0360    -0.6880 C.2   1 <1>   0.0360 
 18 N       -5.3370    -2.9050     0.5900 N.2   1 <1>  -0.5650 
 19 C       -6.6710     0.0260    -0.1120 C.3   1 <1>   0.2630 
 20 C       -5.5100     1.0080     1.8220 C.3   1 <1>   0.2630 
 21 C        2.2080     3.9020     0.4140 C.3   1 <1>  -0.1600 
 22 H       -1.7130     2.7320     2.3480 H     1 <1>   0.0800 
 23 H       -2.6430     3.0180     0.9210 H     1 <1>   0.0800 
 24 H       -1.5550    -1.4180     0.7100 H     1 <1>   0.0800 
 25 H       -1.6710    -1.2070    -1.0140 H     1 <1>   0.0800 
 26 H       -3.4710     0.3680    -1.7960 H     1 <1>   0.0800 
 27 H       -2.7580     1.8790    -1.3460 H     1 <1>   0.0800 
 28 H       -0.6380     2.4360    -0.4650 H     1 <1>   0.0800 
 29 H       -5.3320     1.7460    -1.3350 H     1 <1>   0.0800 
 30 H       -4.5780     2.4640     0.0540 H     1 <1>   0.0800 
 31 H        0.5320     0.9680     1.1240 H     1 <1>   0.0800 
 32 H        0.7730     2.3050     2.2060 H     1 <1>   0.0800 
 33 H       -0.2260     4.6480     1.5530 H     1 <1>   0.0800 
 34 H       -1.1120     4.7860     0.0620 H     1 <1>   0.0800 
 35 H       -3.7250    -2.4610    -2.1280 H     1 <1>   0.2700 
 36 H       -4.0640    -2.0080     2.0300 H     1 <1>   0.1500 
 37 H       -4.7190    -0.2780     0.4500 H     1 <1>   0.4500 
 38 H        1.9290     2.0190    -0.5750 H     1 <1>   0.0800 
 39 H        2.8060     1.9040     0.9230 H     1 <1>   0.0800 
 40 H        1.1750     5.6990    -0.1430 H     1 <1>   0.0800 
 41 H        0.9170     4.3700    -1.2340 H     1 <1>   0.0800 
 42 H       -5.8590    -3.5700    -1.3300 H     1 <1>   0.1500 
 43 H       -7.4060     0.8140    -0.1340 H     1 <1>   0.0800 
 44 H       -7.0330    -0.7720     0.5190 H     1 <1>   0.0800 
 45 H       -6.5460    -0.3670    -1.1080 H     1 <1>   0.0800 
 46 H       -6.1570     1.8680     1.8700 H     1 <1>   0.0800 
 47 H       -4.5470     1.2700     2.2280 H     1 <1>   0.0800 
 48 H       -5.9290     0.2240     2.4330 H     1 <1>   0.0800 
 49 H        3.0940     4.1240    -0.1540 H     1 <1>   0.0800 
 50 H        2.3660     4.2520     1.4200 H     1 <1>   0.0800 
@<TRIPOS>BOND
  1   1   2  2   
  2   2   3  am  
  3   2   4  1   
  4   3   5  1   
  5   3   6  1   
  6   4   7  1   
  7   4  22  1   
  8   4  23  1   
  9   5   8  1   
 10   5  24  1   
 11   5  25  1   
 12   6   9  1   
 13   6  26  1   
 14   6  27  1   
 15   7  10  1   
 16   7  11  1   
 17   7  28  1   
 18   8  12  1   
 19   8  13  2   
 20   9  14  1   
 21   9  29  1   
 22   9  30  1   
 23  10  15  1   
 24  10  31  1   
 25  10  32  1   
 26  11  16  1   
 27  11  33  1   
 28  11  34  1   
 29  12  17  1   
 30  12  35  1   
 31  13  18  1   
 32  13  36  1   
 33  14  19  1   
 34  14  20  1   
 35  14  37  1   
 36  15  21  1   
 37  15  38  1   
 38  15  39  1   
 39  16  21  1   
 40  16  40  1   
 41  16  41  1   
 42  17  18  2   
 43  17  42  1   
 44  19  43  1   
 45  19  44  1   
 46  19  45  1   
 47  20  46  1   
 48  20  47  1   
 49  20  48  1   
 50  21  49  1   
 51  21  50  1   
@<TRIPOS>SUBSTRUCTURE
  1 ****   3 GROUP 4 **** **** 0

# MOE 2024.06 (io_trps.svl 2023.06)
