@<TRIPOS>MOLECULE
NONAME
40 42 1 0 0 
SMALL
USER_CHARGES


@<TRIPOS>ATOM
  1 O        0.0960     0.6670     0.9740 O.2   1 <1>  -0.5700 
  2 C        0.0240     1.8520     0.7010 C.2   1 <1>   0.7160 
  3 N       -1.2250     2.4170     0.5500 N.am  1 <1>  -0.6600 
  4 C        1.2380     2.6160     0.5480 C.2   1 <1>  -0.0860 
  5 C       -2.4110     1.5360     0.3000 C.3   1 <1>   0.1400 
  6 C       -1.5050     3.8630     0.7610 C.3   1 <1>   0.1400 
  7 C        1.4880     3.5970    -0.4160 C.2   1 <1>   0.1390 
  8 C        2.4070     2.5650     1.2450 C.2   1 <1>  -0.3020 
  9 C       -3.6380     2.2880    -0.2850 C.3   1 <1>   0.0000 
 10 C       -2.2660     4.4540    -0.4350 C.3   1 <1>  -0.1600 
 11 N        2.6710     4.1170    -0.3200 N.2   1 <1>  -0.7070 
 12 N        3.2420     3.4690     0.7110 N.pl3 1 <1>   0.3000 
 13 C       -4.5870     2.7200     0.8580 C.3   1 <1>   0.2000 
 14 C       -3.1370     3.4350    -1.1930 C.3   1 <1>  -0.1600 
 15 C       -4.5150     1.3080    -1.0810 C.3   1 <1>  -0.1600 
 16 O       -5.4510     3.7210     0.4010 O.3   1 <1>  -0.5600 
 17 C       -5.4190     1.4720     1.1870 C.3   1 <1>  -0.1600 
 18 C       -5.3520     0.5570    -0.0430 C.3   1 <1>  -0.1600 
 19 C       -5.9850     4.5390     1.3930 C.3   1 <1>   0.0400 
 20 H       -2.1040     0.7780    -0.4000 H     1 <1>   0.0800 
 21 H       -2.6730     1.0320     1.2140 H     1 <1>   0.0800 
 22 H       -2.1050     3.9620     1.6490 H     1 <1>   0.0800 
 23 H       -0.6020     4.4210     0.9350 H     1 <1>   0.0800 
 24 H        0.7720     3.8900    -1.1670 H     1 <1>   0.1500 
 25 H        2.6620     1.9300     2.0740 H     1 <1>   0.1500 
 26 H       -2.8920     5.2500    -0.0700 H     1 <1>   0.0800 
 27 H       -1.5660     4.8960    -1.1210 H     1 <1>   0.0800 
 28 H        4.2040     3.6660     1.0140 H     1 <1>   0.2700 
 29 H       -4.0480     3.0830     1.7160 H     1 <1>   0.0800 
 30 H       -2.5450     3.0020    -1.9810 H     1 <1>   0.0800 
 31 H       -3.9630     3.9440    -1.6590 H     1 <1>   0.0800 
 32 H       -5.1860     1.8700    -1.7100 H     1 <1>   0.0800 
 33 H       -3.9450     0.6420    -1.7040 H     1 <1>   0.0800 
 34 H       -4.9830     0.9630     2.0280 H     1 <1>   0.0800 
 35 H       -6.4370     1.7230     1.4290 H     1 <1>   0.0800 
 36 H       -4.8700    -0.3700     0.2180 H     1 <1>   0.0800 
 37 H       -6.3350     0.3440    -0.4270 H     1 <1>   0.0800 
 38 H       -6.6530     5.2390     0.9230 H     1 <1>   0.0800 
 39 H       -5.1870     5.0720     1.8790 H     1 <1>   0.0800 
 40 H       -6.5290     3.9400     2.1020 H     1 <1>   0.0800 
@<TRIPOS>BOND
  1   1   2  2   
  2   2   3  am  
  3   2   4  1   
  4   3   5  1   
  5   3   6  1   
  6   4   7  1   
  7   4   8  2   
  8   5   9  1   
  9   5  20  1   
 10   5  21  1   
 11   6  10  1   
 12   6  22  1   
 13   6  23  1   
 14   7  11  2   
 15   7  24  1   
 16   8  12  1   
 17   8  25  1   
 18   9  13  1   
 19   9  14  1   
 20   9  15  1   
 21  10  14  1   
 22  10  26  1   
 23  10  27  1   
 24  11  12  1   
 25  12  28  1   
 26  13  16  1   
 27  13  17  1   
 28  13  29  1   
 29  14  30  1   
 30  14  31  1   
 31  15  18  1   
 32  15  32  1   
 33  15  33  1   
 34  16  19  1   
 35  17  18  1   
 36  17  34  1   
 37  17  35  1   
 38  18  36  1   
 39  18  37  1   
 40  19  38  1   
 41  19  39  1   
 42  19  40  1   
@<TRIPOS>SUBSTRUCTURE
  1 ****   3 GROUP 4 **** **** 0

# MOE 2024.06 (io_trps.svl 2023.06)
