@<TRIPOS>MOLECULE
NONAME
58 62 1 0 0 
SMALL
USER_CHARGES


@<TRIPOS>ATOM
  1 O        0.3710     0.0940    -1.2340 O.2   1 <1>  -0.5700 
  2 C        1.1880    -0.8010    -1.1190 C.2   1 <1>   0.5440 
  3 N        2.4610    -0.5050    -0.6760 N.am  1 <1>  -0.6600 
  4 C        0.7860    -2.1520    -1.4480 C.ar  1 <1>   0.0860 
  5 C        2.9160     0.9020    -0.4870 C.3   1 <1>   0.1400 
  6 C        3.4160    -1.5260    -0.1590 C.3   1 <1>   0.1400 
  7 C       -0.2820    -2.7710    -0.8300 C.ar  1 <1>  -0.1500 
  8 C        1.4340    -2.9170    -2.4090 C.ar  1 <1>  -0.1500 
  9 C        3.1690     1.1670     1.0000 C.3   1 <1>  -0.1600 
 10 C        3.6780    -1.2800     1.3310 C.3   1 <1>  -0.1600 
 11 C       -0.6490    -4.0690    -1.1590 C.ar  1 <1>   0.4100 
 12 C        1.0070    -4.2020    -2.6700 C.ar  1 <1>   0.1600 
 13 C        4.1560     0.1540     1.5960 C.3   1 <1>  -0.1600 
 14 N       -0.0080    -4.7950    -2.0670 N.ar  1 <1>  -0.6200 
 15 N       -1.7350    -4.6500    -0.5320 N.pl3 1 <1>  -0.8380 
 16 C       -1.7650    -6.1380    -0.3900 C.3   1 <1>   0.2090 
 17 C       -3.0670    -4.0530    -0.8050 C.3   1 <1>   0.2090 
 18 C       -2.7130    -6.5500     0.7430 C.3   1 <1>   0.1000 
 19 C       -4.0310    -4.4200     0.3270 C.3   1 <1>  -0.1600 
 20 C       -2.7370    -8.0690     0.8570 C.2   1 <1>   0.2980 
 21 C       -4.1160    -5.9420     0.5280 C.3   1 <1>  -0.1600 
 22 O       -1.6600    -8.6650     1.2970 O.3   1 <1>  -0.0190 
 23 N       -3.7020    -8.8430     0.5650 N.2   1 <1>  -0.5650 
 24 N       -1.9640    -9.9240     1.2820 N.2   1 <1>  -0.4100 
 25 C       -3.1700   -10.0360     0.8500 C.2   1 <1>   0.4620 
 26 C       -3.8980   -11.2830     0.6790 C.ar  1 <1>   0.0540 
 27 C       -3.3060   -12.5130     0.9760 C.ar  1 <1>  -0.1500 
 28 C       -5.2140   -11.3080     0.2120 C.ar  1 <1>  -0.1500 
 29 C       -3.9900   -13.7040     0.8160 C.ar  1 <1>  -0.1500 
 30 C       -5.9040   -12.4950     0.0500 C.ar  1 <1>  -0.1500 
 31 C       -5.2930   -13.6980     0.3520 C.ar  1 <1>  -0.1500 
 32 H        2.1810     1.5950    -0.8590 H     1 <1>   0.0800 
 33 H        3.8240     1.0530    -1.0450 H     1 <1>   0.0800 
 34 H        4.3390    -1.4510    -0.7090 H     1 <1>   0.0800 
 35 H        3.0290    -2.5210    -0.2860 H     1 <1>   0.0800 
 36 H       -0.8390    -2.2450    -0.0800 H     1 <1>   0.1500 
 37 H        2.2660    -2.4990    -2.9460 H     1 <1>   0.1500 
 38 H        2.2290     1.1120     1.5220 H     1 <1>   0.0800 
 39 H        3.5530     2.1640     1.1230 H     1 <1>   0.0800 
 40 H        4.4180    -1.9780     1.6820 H     1 <1>   0.0800 
 41 H        2.7690    -1.4640     1.8760 H     1 <1>   0.0800 
 42 H        1.5250    -4.7780    -3.4180 H     1 <1>   0.1500 
 43 H        4.2490     0.3170     2.6560 H     1 <1>   0.0800 
 44 H        5.1260     0.2960     1.1500 H     1 <1>   0.0800 
 45 H       -0.7720    -6.4970    -0.1790 H     1 <1>   0.0800 
 46 H       -2.0900    -6.5750    -1.3190 H     1 <1>   0.0800 
 47 H       -3.4370    -4.4320    -1.7430 H     1 <1>   0.0800 
 48 H       -2.9880    -2.9820    -0.8840 H     1 <1>   0.0800 
 49 H       -2.3120    -6.1630     1.6630 H     1 <1>   0.0800 
 50 H       -5.0080    -4.0310     0.1000 H     1 <1>   0.0800 
 51 H       -3.6930    -3.9490     1.2340 H     1 <1>   0.0800 
 52 H       -4.7420    -6.1660     1.3750 H     1 <1>   0.0800 
 53 H       -4.5670    -6.3860    -0.3430 H     1 <1>   0.0800 
 54 H       -2.2930   -12.5360     1.3380 H     1 <1>   0.1500 
 55 H       -5.7060   -10.3810    -0.0280 H     1 <1>   0.1500 
 56 H       -3.5090   -14.6380     1.0530 H     1 <1>   0.1500 
 57 H       -6.9180   -12.4850    -0.3120 H     1 <1>   0.1500 
 58 H       -5.8270   -14.6240     0.2270 H     1 <1>   0.1500 
@<TRIPOS>BOND
  1   1   2  2   
  2   2   3  am  
  3   2   4  1   
  4   3   5  1   
  5   3   6  1   
  6   4   7  ar  
  7   4   8  ar  
  8   5   9  1   
  9   5  32  1   
 10   5  33  1   
 11   6  10  1   
 12   6  34  1   
 13   6  35  1   
 14   7  11  ar  
 15   7  36  1   
 16   8  12  ar  
 17   8  37  1   
 18   9  13  1   
 19   9  38  1   
 20   9  39  1   
 21  10  13  1   
 22  10  40  1   
 23  10  41  1   
 24  11  14  ar  
 25  11  15  1   
 26  12  14  ar  
 27  12  42  1   
 28  13  43  1   
 29  13  44  1   
 30  15  16  1   
 31  15  17  1   
 32  16  18  1   
 33  16  45  1   
 34  16  46  1   
 35  17  19  1   
 36  17  47  1   
 37  17  48  1   
 38  18  20  1   
 39  18  21  1   
 40  18  49  1   
 41  19  21  1   
 42  19  50  1   
 43  19  51  1   
 44  20  22  1   
 45  20  23  2   
 46  21  52  1   
 47  21  53  1   
 48  22  24  1   
 49  23  25  1   
 50  24  25  2   
 51  25  26  1   
 52  26  27  ar  
 53  26  28  ar  
 54  27  29  ar  
 55  27  54  1   
 56  28  30  ar  
 57  28  55  1   
 58  29  31  ar  
 59  29  56  1   
 60  30  31  ar  
 61  30  57  1   
 62  31  58  1   
@<TRIPOS>SUBSTRUCTURE
  1 ****  16 GROUP 4 **** **** 0

# MOE 2024.06 (io_trps.svl 2023.06)
