@<TRIPOS>MOLECULE
NONAME
43 43 1 0 0 
SMALL
USER_CHARGES


@<TRIPOS>ATOM
  1 O       -0.6850     1.4610    -0.6500 O.3   1 <1>  -0.3630 
  2 C       -0.2480     2.2670     0.3150 C.ar  1 <1>   0.3920 
  3 C       -1.3380     0.2300    -0.3980 C.3   1 <1>   0.0400 
  4 N       -0.4220     1.9100     1.5860 N.ar  1 <1>  -0.6200 
  5 C        0.3680     3.4410    -0.0630 C.ar  1 <1>  -0.1500 
  6 C        0.0270     2.7500     2.4850 C.ar  1 <1>   0.7710 
  7 C        0.8330     4.2950     0.9110 C.ar  1 <1>   0.4610 
  8 N        0.6380     3.9110     2.1800 N.ar  1 <1>  -0.1790 
  9 N       -0.1450     2.4040     3.7620 N.pl3 1 <1>  -0.9000 
 10 N        1.4590     5.4740     0.6890 N.pl3 1 <1>  -0.8690 
 11 C        1.8440     6.1090    -0.5990 C.3   1 <1>   0.2890 
 12 C        3.1990     6.8770    -0.3950 C.3   1 <1>   0.2800 
 13 C        0.6490     6.9810    -1.0030 C.3   1 <1>  -0.2400 
 14 O        3.1220     7.5650     0.8180 O.3   1 <1>  -0.6800 
 15 C        4.3670     5.8540    -0.2830 C.3   1 <1>  -0.0220 
 16 C        3.4520     7.9370    -1.4990 C.3   1 <1>  -0.0220 
 17 C        5.5380     6.2620     0.6130 C.2   1 <1>  -0.2880 
 18 C        4.7710     8.6890    -1.3840 C.2   1 <1>  -0.2880 
 19 C        5.9140     5.6090     1.7160 C.2   1 <1>  -0.3000 
 20 C        4.8940     9.9420    -0.9390 C.2   1 <1>  -0.3000 
 21 H       -1.5870    -0.2210    -1.3410 H     1 <1>   0.0800 
 22 H       -2.2340     0.4180     0.1680 H     1 <1>   0.0800 
 23 H       -0.6730    -0.4120     0.1530 H     1 <1>   0.0800 
 24 H        0.4710     3.6680    -1.1060 H     1 <1>   0.1500 
 25 H        0.9500     4.5080     2.9310 H     1 <1>   0.4570 
 26 H        0.1230     2.9160     4.6040 H     1 <1>   0.4000 
 27 H       -0.6140     1.5120     3.9510 H     1 <1>   0.4000 
 28 H        1.8080     6.1020     1.4340 H     1 <1>   0.4000 
 29 H        1.9840     5.3560    -1.3570 H     1 <1>   0.0800 
 30 H        0.5320     7.7990    -0.3140 H     1 <1>   0.0800 
 31 H       -0.2550     6.3990    -1.0140 H     1 <1>   0.0800 
 32 H        0.7870     7.3800    -1.9910 H     1 <1>   0.0800 
 33 H        3.9750     8.0330     0.9470 H     1 <1>   0.4000 
 34 H        4.7420     5.6380    -1.2680 H     1 <1>   0.0800 
 35 H        3.9850     4.9230     0.0940 H     1 <1>   0.0800 
 36 H        2.6600     8.6640    -1.4730 H     1 <1>   0.0800 
 37 H        3.4160     7.4650    -2.4640 H     1 <1>   0.0800 
 38 H        6.0640     7.1390     0.2770 H     1 <1>   0.1500 
 39 H        5.6210     8.1120    -1.7110 H     1 <1>   0.1500 
 40 H        6.7450     5.9090     2.3330 H     1 <1>   0.1500 
 41 H        5.4350     4.7250     2.0990 H     1 <1>   0.1500 
 42 H        5.8330    10.4660    -0.8700 H     1 <1>   0.1500 
 43 H        4.0730    10.5560    -0.6080 H     1 <1>   0.1500 
@<TRIPOS>BOND
  1   1   2  1   
  2   1   3  1   
  3   2   4  ar  
  4   2   5  ar  
  5   3  21  1   
  6   3  22  1   
  7   3  23  1   
  8   4   6  ar  
  9   5   7  ar  
 10   5  24  1   
 11   6   8  ar  
 12   6   9  1   
 13   7   8  ar  
 14   7  10  1   
 15   8  25  1   
 16   9  26  1   
 17   9  27  1   
 18  10  11  1   
 19  10  28  1   
 20  11  12  1   
 21  11  13  1   
 22  11  29  1   
 23  12  14  1   
 24  12  15  1   
 25  12  16  1   
 26  13  30  1   
 27  13  31  1   
 28  13  32  1   
 29  14  33  1   
 30  15  17  1   
 31  15  34  1   
 32  15  35  1   
 33  16  18  1   
 34  16  36  1   
 35  16  37  1   
 36  17  19  2   
 37  17  38  1   
 38  18  20  2   
 39  18  39  1   
 40  19  40  1   
 41  19  41  1   
 42  20  42  1   
 43  20  43  1   
@<TRIPOS>SUBSTRUCTURE
  1 ****  10 GROUP 4 **** **** 0

# MOE 2024.06 (io_trps.svl 2023.06)
