@<TRIPOS>MOLECULE
NONAME
48 51 1 0 0 
SMALL
USER_CHARGES


@<TRIPOS>ATOM
  1 O        0.4350    -0.1160     1.1970 O.2   1 <1>  -0.5700 
  2 C        1.4630    -0.4570     0.6450 C.2   1 <1>   0.7150 
  3 N        2.4200     0.4690     0.3280 N.am  1 <1>  -0.4940 
  4 C        1.7360    -1.8290     0.3320 C.2   1 <1>  -0.2370 
  5 C        2.5480     1.8520     0.5860 C.2   1 <1>  -0.0880 
  6 N        0.7640    -2.7680     0.0850 N.pl3 1 <1>   0.2940 
  7 C        2.9570    -2.4540     0.2230 C.2   1 <1>  -0.1500 
  8 N        1.5750     2.8010     0.6510 N.pl3 1 <1>   0.3140 
  9 C        3.7340     2.4920     0.7850 C.2   1 <1>  -0.0540 
 10 C        1.3830    -3.9490    -0.1610 C.2   1 <1>  -0.3020 
 11 C       -0.7050    -2.5660     0.0460 C.3   1 <1>  -0.0910 
 12 C        2.7310    -3.7900    -0.0860 C.2   1 <1>  -0.1500 
 13 N        2.0970     4.0250     0.8850 N.2   1 <1>  -0.7070 
 14 C        0.1310     2.6630     0.4260 C.3   1 <1>   0.0160 
 15 C        5.0530     1.9050     0.8240 C.ar  1 <1>   0.0540 
 16 C        3.3730     3.8310     0.9610 C.2   1 <1>   0.1080 
 17 C       -1.5460    -3.2480    -0.9950 C.3   1 <1>  -0.2000 
 18 C       -1.3000    -1.7750    -1.0810 C.3   1 <1>  -0.2000 
 19 C        6.0520     2.2200    -0.1050 C.ar  1 <1>   0.0830 
 20 C        5.3450     0.9750     1.8180 C.ar  1 <1>  -0.1500 
 21 C        4.3400     4.9650     1.2190 C.3   1 <1>  -0.0590 
 22 O        5.7460     3.1240    -1.0760 O.3   1 <1>  -0.3630 
 23 C        7.3010     1.6100    -0.0220 C.ar  1 <1>  -0.1500 
 24 C        6.5850     0.3700     1.8970 C.ar  1 <1>  -0.1500 
 25 C        6.6790     3.5170    -2.0580 C.3   1 <1>   0.0400 
 26 C        7.5660     0.6880     0.9750 C.ar  1 <1>  -0.1500 
 27 H        3.2630     0.0450    -0.0560 H     1 <1>   0.3700 
 28 H        3.9340    -2.0210     0.3570 H     1 <1>   0.1500 
 29 H        0.8320    -4.8450    -0.3790 H     1 <1>   0.1500 
 30 H       -1.1110    -2.4200     1.0320 H     1 <1>   0.1000 
 31 H        3.4910    -4.5390    -0.2320 H     1 <1>   0.1500 
 32 H       -0.0420     1.9420    -0.3500 H     1 <1>   0.0800 
 33 H       -0.2720     3.6140     0.1320 H     1 <1>   0.0800 
 34 H       -0.3350     2.3410     1.3380 H     1 <1>   0.0800 
 35 H       -2.5350    -3.5800    -0.7290 H     1 <1>   0.1000 
 36 H       -1.0780    -3.8860    -1.7240 H     1 <1>   0.1000 
 37 H       -0.6490    -1.4010    -1.8530 H     1 <1>   0.1000 
 38 H       -2.1120    -1.1040    -0.8630 H     1 <1>   0.1000 
 39 H        4.5840     0.7310     2.5390 H     1 <1>   0.1500 
 40 H        5.2040     4.6060     1.7450 H     1 <1>   0.0800 
 41 H        3.8600     5.7230     1.8100 H     1 <1>   0.0800 
 42 H        4.6460     5.3910     0.2820 H     1 <1>   0.0800 
 43 H        8.0820     1.8370    -0.7220 H     1 <1>   0.1500 
 44 H        6.7890    -0.3450     2.6760 H     1 <1>   0.1500 
 45 H        6.2020     4.2360    -2.7000 H     1 <1>   0.0800 
 46 H        6.9700     2.6540    -2.6300 H     1 <1>   0.0800 
 47 H        7.5280     3.9660    -1.5740 H     1 <1>   0.0800 
 48 H        8.5330     0.2200     1.0360 H     1 <1>   0.1500 
@<TRIPOS>BOND
  1   1   2  2   
  2   2   3  am  
  3   2   4  1   
  4   3   5  1   
  5   3  27  1   
  6   4   6  1   
  7   4   7  2   
  8   5   8  1   
  9   5   9  2   
 10   6  10  1   
 11   6  11  1   
 12   7  12  1   
 13   7  28  1   
 14   8  13  1   
 15   8  14  1   
 16   9  15  1   
 17   9  16  1   
 18  10  12  2   
 19  10  29  1   
 20  11  17  1   
 21  11  18  1   
 22  11  30  1   
 23  12  31  1   
 24  13  16  2   
 25  14  32  1   
 26  14  33  1   
 27  14  34  1   
 28  15  19  ar  
 29  15  20  ar  
 30  16  21  1   
 31  17  18  1   
 32  17  35  1   
 33  17  36  1   
 34  18  37  1   
 35  18  38  1   
 36  19  22  1   
 37  19  23  ar  
 38  20  24  ar  
 39  20  39  1   
 40  21  40  1   
 41  21  41  1   
 42  21  42  1   
 43  22  25  1   
 44  23  26  ar  
 45  23  43  1   
 46  24  26  ar  
 47  24  44  1   
 48  25  45  1   
 49  25  46  1   
 50  25  47  1   
 51  26  48  1   
@<TRIPOS>SUBSTRUCTURE
  1 ****   3 GROUP 4 **** **** 0

# MOE 2024.06 (io_trps.svl 2023.06)
