@<TRIPOS>MOLECULE
NONAME
54 56 1 0 0 
SMALL
USER_CHARGES


@<TRIPOS>ATOM
  1 O        1.4650     3.0780    -0.4520 O.2   1 <1>  -0.5700 
  2 C        0.3600     2.8220    -0.8750 C.2   1 <1>   0.5690 
  3 N       -0.7690     3.3030    -0.2710 N.am  1 <1>  -0.6600 
  4 C        0.2590     1.9430    -2.1100 C.3   1 <1>  -0.0990 
  5 C       -2.1150     3.2760    -0.9130 C.3   1 <1>   0.1400 
  6 C       -0.6810     4.1610     0.9580 C.3   1 <1>   0.2010 
  7 C       -1.0260     2.1790    -2.9140 C.3   1 <1>  -0.1600 
  8 C       -2.2270     2.1680    -1.9650 C.3   1 <1>  -0.1600 
  9 C       -0.3180     5.6210     0.6450 C.2   1 <1>   0.5690 
 10 O       -1.1190     6.2530    -0.0060 O.2   1 <1>  -0.5700 
 11 N        0.8660     6.2050     1.0490 N.am  1 <1>  -0.6600 
 12 C        1.9110     5.5920     1.9330 C.3   1 <1>   0.1400 
 13 C        1.2400     7.5440     0.5190 C.3   1 <1>   0.1400 
 14 C        3.1420     5.0390     1.1750 C.3   1 <1>   0.3430 
 15 C        1.8960     7.3830    -0.8560 C.3   1 <1>  -0.1600 
 16 N        3.6690     5.9230     0.0780 N.4   1 <1>  -0.9590 
 17 C        2.6820     6.0810    -1.0270 C.3   1 <1>   0.3430 
 18 C        4.9960     5.4410    -0.4120 C.3   1 <1>   0.3430 
 19 C        5.9140     6.6340    -0.7480 C.3   1 <1>   0.2000 
 20 O        5.5960     7.7010     0.1190 O.3   1 <1>  -0.5600 
 21 C        5.7750     7.1030    -2.2100 C.3   1 <1>   0.1200 
 22 C        6.3910     8.8380    -0.0940 C.3   1 <1>   0.1200 
 23 O        6.5740     8.2260    -2.4190 O.3   1 <1>  -0.5600 
 24 C        6.2940     9.2950    -1.5610 C.3   1 <1>   0.1200 
 25 H        0.2930     0.9200    -1.7840 H     1 <1>   0.0800 
 26 H        1.1130     2.1170    -2.7390 H     1 <1>   0.0800 
 27 H       -2.2900     4.2320    -1.3790 H     1 <1>   0.0800 
 28 H       -2.8730     3.1270    -0.1630 H     1 <1>   0.0800 
 29 H        0.0330     3.7210     1.6240 H     1 <1>   0.0800 
 30 H       -1.6290     4.1550     1.4630 H     1 <1>   0.0800 
 31 H       -1.1360     1.4120    -3.6620 H     1 <1>   0.0800 
 32 H       -0.9710     3.1320    -3.4120 H     1 <1>   0.0800 
 33 H       -3.1340     2.3080    -2.5260 H     1 <1>   0.0800 
 34 H       -2.2960     1.2150    -1.4700 H     1 <1>   0.0800 
 35 H        1.4890     4.8060     2.5290 H     1 <1>   0.0800 
 36 H        2.2500     6.3400     2.6290 H     1 <1>   0.0800 
 37 H        1.9190     8.0290     1.2000 H     1 <1>   0.0800 
 38 H        0.3660     8.1700     0.4370 H     1 <1>   0.0800 
 39 H        2.8970     4.0760     0.7680 H     1 <1>   0.0800 
 40 H        3.9230     4.8740     1.8990 H     1 <1>   0.0800 
 41 H        2.5280     8.2290    -1.0570 H     1 <1>   0.0800 
 42 H        1.1160     7.3930    -1.5970 H     1 <1>   0.0800 
 43 H        3.8810     6.8630     0.4600 H     1 <1>   0.4500 
 44 H        3.1810     6.0950    -1.9810 H     1 <1>   0.0800 
 45 H        1.9980     5.2470    -1.0260 H     1 <1>   0.0800 
 46 H        4.8830     4.7910    -1.2640 H     1 <1>   0.0800 
 47 H        5.4770     4.8740     0.3670 H     1 <1>   0.0800 
 48 H        6.9370     6.3440    -0.5760 H     1 <1>   0.0800 
 49 H        4.7600     7.3650    -2.4480 H     1 <1>   0.0800 
 50 H        6.1090     6.3380    -2.8890 H     1 <1>   0.0800 
 51 H        7.4120     8.6020     0.1570 H     1 <1>   0.0800 
 52 H        6.0470     9.6170     0.5640 H     1 <1>   0.0800 
 53 H        7.0090    10.0740    -1.7600 H     1 <1>   0.0800 
 54 H        5.3080     9.6680    -1.7810 H     1 <1>   0.0800 
@<TRIPOS>BOND
  1   1   2  2   
  2   2   3  am  
  3   2   4  1   
  4   3   5  1   
  5   3   6  1   
  6   4   7  1   
  7   4  25  1   
  8   4  26  1   
  9   5   8  1   
 10   5  27  1   
 11   5  28  1   
 12   6   9  1   
 13   6  29  1   
 14   6  30  1   
 15   7   8  1   
 16   7  31  1   
 17   7  32  1   
 18   8  33  1   
 19   8  34  1   
 20   9  10  2   
 21   9  11  am  
 22  11  12  1   
 23  11  13  1   
 24  12  14  1   
 25  12  35  1   
 26  12  36  1   
 27  13  15  1   
 28  13  37  1   
 29  13  38  1   
 30  14  16  1   
 31  14  39  1   
 32  14  40  1   
 33  15  17  1   
 34  15  41  1   
 35  15  42  1   
 36  16  17  1   
 37  16  18  1   
 38  16  43  1   
 39  17  44  1   
 40  17  45  1   
 41  18  19  1   
 42  18  46  1   
 43  18  47  1   
 44  19  20  1   
 45  19  21  1   
 46  19  48  1   
 47  20  22  1   
 48  21  23  1   
 49  21  49  1   
 50  21  50  1   
 51  22  24  1   
 52  22  51  1   
 53  22  52  1   
 54  23  24  1   
 55  24  53  1   
 56  24  54  1   
@<TRIPOS>SUBSTRUCTURE
  1 ****  17 GROUP 4 **** **** 0

# MOE 2024.06 (io_trps.svl 2023.06)
