@<TRIPOS>MOLECULE
NONAME
58 60 1 0 0 
SMALL
USER_CHARGES


@<TRIPOS>ATOM
  1 CL       0.9830     0.0720     2.2280 Cl    1 <1>  -0.1770 
  2 C        1.9640    -1.0700     1.3370 C.ar  1 <1>   0.1770 
  3 C        3.0130    -0.6300     0.5380 C.ar  1 <1>   0.0820 
  4 C        1.6580    -2.4120     1.4530 C.ar  1 <1>  -0.1500 
  5 O        3.2540     0.7060     0.4720 O.3   1 <1>  -0.3630 
  6 C        3.7630    -1.5790    -0.1530 C.ar  1 <1>  -0.1500 
  7 C        2.4010    -3.3520     0.7530 C.ar  1 <1>  -0.1430 
  8 C        4.3620     1.2340    -0.2200 C.3   1 <1>   0.1200 
  9 C        3.4570    -2.9260    -0.0430 C.ar  1 <1>  -0.1500 
 10 C        2.0660    -4.8270     0.8520 C.3   1 <1>   0.4870 
 11 C        4.3520     2.7480    -0.0330 C.3   1 <1>  -0.2400 
 12 N        1.2600    -5.1950    -0.3410 N.4   1 <1>  -0.9590 
 13 C        1.2220    -6.6820    -0.5220 C.3   1 <1>   0.5660 
 14 C       -0.1200    -4.6050    -0.3000 C.3   1 <1>   0.3430 
 15 C        2.6390    -7.1350    -0.8480 C.ar  1 <1>  -0.1430 
 16 C        0.2110    -7.1550    -1.6030 C.3   1 <1>   0.2000 
 17 C       -0.9850    -5.1100    -1.4670 C.3   1 <1>   0.1200 
 18 C        3.2850    -7.9950     0.0280 C.ar  1 <1>  -0.1500 
 19 C        3.3050    -6.7020    -1.9900 C.ar  1 <1>  -0.1500 
 20 O       -1.0300    -6.5050    -1.4580 O.3   1 <1>  -0.5600 
 21 C       -0.0180    -8.6710    -1.4930 C.3   1 <1>   0.1200 
 22 C        4.5820    -8.4100    -0.2140 C.ar  1 <1>   0.0820 
 23 C        4.6070    -7.1070    -2.2320 C.ar  1 <1>  -0.1500 
 24 O       -0.2350    -9.0280    -0.1640 O.3   1 <1>  -0.6800 
 25 O        5.1300    -9.2650     0.6820 O.3   1 <1>  -0.3630 
 26 C        5.2610    -7.9420    -1.3440 C.ar  1 <1>   0.0820 
 27 C        5.4500   -10.5580     0.2120 C.3   1 <1>   0.0400 
 28 O        6.5450    -8.2660    -1.6290 O.3   1 <1>  -0.3630 
 29 C        7.5340    -7.8370    -0.7180 C.3   1 <1>   0.0400 
 30 H        0.8420    -2.6960     2.0950 H     1 <1>   0.1500 
 31 H        4.5870    -1.2850    -0.7770 H     1 <1>   0.1500 
 32 H        5.2600     0.8070     0.1930 H     1 <1>   0.0800 
 33 H        4.2690     0.9810    -1.2620 H     1 <1>   0.0800 
 34 H        4.0600    -3.6390    -0.5830 H     1 <1>   0.1500 
 35 H        1.5180    -5.0300     1.7580 H     1 <1>   0.0800 
 36 H        2.9850    -5.3920     0.8760 H     1 <1>   0.0800 
 37 H        4.4270     2.9910     1.0120 H     1 <1>   0.0800 
 38 H        3.4450     3.1640    -0.4320 H     1 <1>   0.0800 
 39 H        5.1870     3.1860    -0.5480 H     1 <1>   0.0800 
 40 H        1.7550    -4.8130    -1.1510 H     1 <1>   0.4500 
 41 H        0.9250    -7.1340     0.4100 H     1 <1>   0.0800 
 42 H       -0.6070    -4.8760     0.6220 H     1 <1>   0.0800 
 43 H       -0.0610    -3.5290    -0.3410 H     1 <1>   0.0800 
 44 H        0.5770    -6.9310    -2.5890 H     1 <1>   0.0800 
 45 H       -0.6020    -4.7760    -2.4160 H     1 <1>   0.0800 
 46 H       -1.9940    -4.7520    -1.3600 H     1 <1>   0.0800 
 47 H        2.7920    -8.3670     0.9110 H     1 <1>   0.1500 
 48 H        2.8340    -6.0520    -2.7070 H     1 <1>   0.1500 
 49 H        0.8460    -9.2120    -1.8420 H     1 <1>   0.0800 
 50 H       -0.8750    -8.9610    -2.0770 H     1 <1>   0.0800 
 51 H        5.1310    -6.7760    -3.1130 H     1 <1>   0.1500 
 52 H       -0.6140    -9.9310    -0.1060 H     1 <1>   0.4000 
 53 H        5.7800   -11.1470     1.0480 H     1 <1>   0.0800 
 54 H        6.2360   -10.4900    -0.5190 H     1 <1>   0.0800 
 55 H        4.5710   -10.9980    -0.2250 H     1 <1>   0.0800 
 56 H        8.4970    -8.0720    -1.1340 H     1 <1>   0.0800 
 57 H        7.4080    -8.3500     0.2180 H     1 <1>   0.0800 
 58 H        7.4430    -6.7750    -0.5780 H     1 <1>   0.0800 
@<TRIPOS>BOND
  1   1   2  1   
  2   2   3  ar  
  3   2   4  ar  
  4   3   5  1   
  5   3   6  ar  
  6   4   7  ar  
  7   4  30  1   
  8   5   8  1   
  9   6   9  ar  
 10   6  31  1   
 11   7   9  ar  
 12   7  10  1   
 13   8  11  1   
 14   8  32  1   
 15   8  33  1   
 16   9  34  1   
 17  10  12  1   
 18  10  35  1   
 19  10  36  1   
 20  11  37  1   
 21  11  38  1   
 22  11  39  1   
 23  12  13  1   
 24  12  14  1   
 25  12  40  1   
 26  13  15  1   
 27  13  16  1   
 28  13  41  1   
 29  14  17  1   
 30  14  42  1   
 31  14  43  1   
 32  15  18  ar  
 33  15  19  ar  
 34  16  20  1   
 35  16  21  1   
 36  16  44  1   
 37  17  20  1   
 38  17  45  1   
 39  17  46  1   
 40  18  22  ar  
 41  18  47  1   
 42  19  23  ar  
 43  19  48  1   
 44  21  24  1   
 45  21  49  1   
 46  21  50  1   
 47  22  25  1   
 48  22  26  ar  
 49  23  26  ar  
 50  23  51  1   
 51  24  52  1   
 52  25  27  1   
 53  26  28  1   
 54  27  53  1   
 55  27  54  1   
 56  27  55  1   
 57  28  29  1   
 58  29  56  1   
 59  29  57  1   
 60  29  58  1   
@<TRIPOS>SUBSTRUCTURE
  1 ****  10 GROUP 4 **** **** 0

# MOE 2024.06 (io_trps.svl 2023.06)
