@<TRIPOS>MOLECULE
NONAME
45 47 1 0 0 
SMALL
USER_CHARGES


@<TRIPOS>ATOM
  1 O        0.5690     0.0360     0.1230 O.3   1 <1>  -0.6800 
  2 C        1.8590    -0.0830    -0.3780 C.3   1 <1>   0.2000 
  3 C        2.5080    -1.3760     0.1130 C.3   1 <1>  -0.0800 
  4 C        2.7630     1.0360     0.1330 C.3   1 <1>   0.2090 
  5 C        4.0070    -1.0630     0.1600 C.3   1 <1>   0.2090 
  6 C        2.1760    -2.5870    -0.7730 C.3   1 <1>   0.0210 
  7 N        4.1060     0.4120     0.2370 N.pl3 1 <1>  -0.8380 
  8 C        2.8400    -3.8430    -0.2490 C.2   1 <1>   0.1080 
  9 C        5.2820     1.0980     0.0470 C.ar  1 <1>   0.7200 
 10 N        2.3830    -4.4970     0.7730 N.2   1 <1>  -0.7070 
 11 C        3.9860    -4.4260    -0.7780 C.2   1 <1>  -0.1500 
 12 N        5.2030     2.4240    -0.0060 N.ar  1 <1>  -0.6200 
 13 N        6.3900     0.3730    -0.0680 N.ar  1 <1>  -0.6200 
 14 N        3.2370    -5.5270     0.9260 N.pl3 1 <1>   0.3000 
 15 C        4.2170    -5.5050    -0.0010 C.2   1 <1>  -0.3320 
 16 C        6.3250     3.0800    -0.1750 C.ar  1 <1>   0.1670 
 17 C        7.4980     1.0480    -0.2340 C.ar  1 <1>   0.1600 
 18 C        5.3320    -6.5310    -0.0890 C.3   1 <1>  -0.0600 
 19 C        7.5360     2.4240    -0.2950 C.ar  1 <1>  -0.1440 
 20 C        6.2010     4.5990    -0.2240 C.3   1 <1>  -0.0170 
 21 C        8.8670     3.1420    -0.4830 C.3   1 <1>  -0.0970 
 22 C        6.2080     5.2060     1.1840 C.3   1 <1>  -0.2400 
 23 H        0.0730    -0.7940    -0.0130 H     1 <1>   0.4000 
 24 H        1.8180    -0.0480    -1.4530 H     1 <1>   0.0800 
 25 H        2.1940    -1.5710     1.1240 H     1 <1>   0.0800 
 26 H        2.4520     1.3610     1.1100 H     1 <1>   0.0800 
 27 H        2.7680     1.8670    -0.5520 H     1 <1>   0.0800 
 28 H        4.5020    -1.4030    -0.7350 H     1 <1>   0.0800 
 29 H        4.4730    -1.5190     1.0170 H     1 <1>   0.0800 
 30 H        2.4990    -2.4090    -1.7830 H     1 <1>   0.0800 
 31 H        1.1140    -2.7470    -0.7860 H     1 <1>   0.0800 
 32 H        4.5490    -4.0700    -1.6220 H     1 <1>   0.1500 
 33 H        3.1230    -6.2240     1.6710 H     1 <1>   0.2700 
 34 H        8.4090     0.4830    -0.3230 H     1 <1>   0.1500 
 35 H        5.9880    -6.2950    -0.9080 H     1 <1>   0.0800 
 36 H        4.9230    -7.5130    -0.2490 H     1 <1>   0.0800 
 37 H        5.9080    -6.5330     0.8200 H     1 <1>   0.0800 
 38 H        6.9940     5.0260    -0.8080 H     1 <1>   0.0800 
 39 H        5.2760     4.8530    -0.7120 H     1 <1>   0.0800 
 40 H        9.6890     2.4520    -0.4150 H     1 <1>   0.0800 
 41 H        8.9970     3.8910     0.2780 H     1 <1>   0.0800 
 42 H        8.8980     3.6130    -1.4490 H     1 <1>   0.0800 
 43 H        7.1270     4.9690     1.6900 H     1 <1>   0.0800 
 44 H        5.3890     4.8060     1.7570 H     1 <1>   0.0800 
 45 H        6.1020     6.2740     1.1300 H     1 <1>   0.0800 
@<TRIPOS>BOND
  1   1   2  1   
  2   1  23  1   
  3   2   3  1   
  4   2   4  1   
  5   2  24  1   
  6   3   5  1   
  7   3   6  1   
  8   3  25  1   
  9   4   7  1   
 10   4  26  1   
 11   4  27  1   
 12   5   7  1   
 13   5  28  1   
 14   5  29  1   
 15   6   8  1   
 16   6  30  1   
 17   6  31  1   
 18   7   9  1   
 19   8  10  2   
 20   8  11  1   
 21   9  12  ar  
 22   9  13  ar  
 23  10  14  1   
 24  11  15  2   
 25  11  32  1   
 26  12  16  ar  
 27  13  17  ar  
 28  14  15  1   
 29  14  33  1   
 30  15  18  1   
 31  16  19  ar  
 32  16  20  1   
 33  17  19  ar  
 34  17  34  1   
 35  18  35  1   
 36  18  36  1   
 37  18  37  1   
 38  19  21  1   
 39  20  22  1   
 40  20  38  1   
 41  20  39  1   
 42  21  40  1   
 43  21  41  1   
 44  21  42  1   
 45  22  43  1   
 46  22  44  1   
 47  22  45  1   
@<TRIPOS>SUBSTRUCTURE
  1 ****   5 GROUP 4 **** **** 0

# MOE 2024.06 (io_trps.svl 2023.06)
