@<TRIPOS>MOLECULE
NONAME
37 40 1 0 0 
SMALL
USER_CHARGES


@<TRIPOS>ATOM
  1 S       -0.2970     0.0080     1.8990 S.3   1 <1>  -0.0800 
  2 C       -1.1960     0.8700     0.6590 C.2   1 <1>  -0.1400 
  3 C       -1.5820    -1.1840     2.0470 C.2   1 <1>  -0.1100 
  4 C       -2.3710     0.2710     0.4240 C.2   1 <1>  -0.1810 
  5 C       -0.6650     2.1270    -0.0240 C.3   1 <1>   0.4600 
  6 C       -2.5970    -0.9060     1.2060 C.2   1 <1>  -0.1500 
  7 C       -3.3150     0.8580    -0.6000 C.3   1 <1>   0.0210 
  8 O       -1.5490     2.4690    -1.0770 O.3   1 <1>  -0.5600 
  9 C        0.6960     1.8610    -0.6740 C.3   1 <1>  -0.1600 
 10 C       -0.5690     3.3030     0.9560 C.3   1 <1>  -0.1600 
 11 C       -2.9320     2.3290    -0.8530 C.3   1 <1>   0.1200 
 12 C        1.2530     3.1200    -1.3350 C.3   1 <1>   0.2090 
 13 C        0.0030     4.5500     0.2840 C.3   1 <1>   0.2090 
 14 N        1.3210     4.2110    -0.3210 N.pl3 1 <1>  -0.8380 
 15 C        2.4760     4.9190    -0.0590 C.ar  1 <1>   0.7200 
 16 N        2.3410     6.1070     0.5430 N.ar  1 <1>  -0.6200 
 17 N        3.6330     4.3560    -0.4260 N.ar  1 <1>  -0.6200 
 18 C        3.4480     6.7730     0.7900 C.ar  1 <1>   0.1600 
 19 C        4.7290     5.0360    -0.1680 C.ar  1 <1>   0.1600 
 20 C        4.6730     6.2620     0.4450 C.ar  1 <1>   0.1900 
 21 F        5.7720     6.9320     0.6970 F     1 <1>  -0.1900 
 22 H       -1.4380    -1.9780     2.7570 H     1 <1>   0.1500 
 23 H       -3.5010    -1.4810     1.1010 H     1 <1>   0.1500 
 24 H       -4.3270     0.8100    -0.2420 H     1 <1>   0.0800 
 25 H       -3.2500     0.3000    -1.5170 H     1 <1>   0.0800 
 26 H        0.5960     1.0770    -1.4010 H     1 <1>   0.0800 
 27 H        1.3980     1.5320     0.0700 H     1 <1>   0.0800 
 28 H        0.0800     3.0320     1.7680 H     1 <1>   0.0800 
 29 H       -1.5320     3.5170     1.3770 H     1 <1>   0.0800 
 30 H       -3.2050     2.9370    -0.0090 H     1 <1>   0.0800 
 31 H       -3.4430     2.7010    -1.7240 H     1 <1>   0.0800 
 32 H        0.6060     3.4280    -2.1380 H     1 <1>   0.0800 
 33 H        2.2190     2.9060    -1.7570 H     1 <1>   0.0800 
 34 H        0.0940     5.3310     1.0170 H     1 <1>   0.0800 
 35 H       -0.6620     4.8930    -0.4910 H     1 <1>   0.0800 
 36 H        3.3820     7.7320     1.2710 H     1 <1>   0.1500 
 37 H        5.6790     4.6160    -0.4470 H     1 <1>   0.1500 
@<TRIPOS>BOND
  1   1   2  1   
  2   1   3  1   
  3   2   4  2   
  4   2   5  1   
  5   3   6  2   
  6   3  22  1   
  7   4   6  1   
  8   4   7  1   
  9   5   8  1   
 10   5   9  1   
 11   5  10  1   
 12   6  23  1   
 13   7  11  1   
 14   7  24  1   
 15   7  25  1   
 16   8  11  1   
 17   9  12  1   
 18   9  26  1   
 19   9  27  1   
 20  10  13  1   
 21  10  28  1   
 22  10  29  1   
 23  11  30  1   
 24  11  31  1   
 25  12  14  1   
 26  12  32  1   
 27  12  33  1   
 28  13  14  1   
 29  13  34  1   
 30  13  35  1   
 31  14  15  1   
 32  15  16  ar  
 33  15  17  ar  
 34  16  18  ar  
 35  17  19  ar  
 36  18  20  ar  
 37  18  36  1   
 38  19  20  ar  
 39  19  37  1   
 40  20  21  1   
@<TRIPOS>SUBSTRUCTURE
  1 ****  10 GROUP 4 **** **** 0

# MOE 2024.06 (io_trps.svl 2023.06)
