@<TRIPOS>MOLECULE
NONAME
50 52 1 0 0 
SMALL
USER_CHARGES


@<TRIPOS>ATOM
  1 O       -4.9180     3.7130     0.1500 O.2   1 <1>  -0.5700 
  2 C       -3.7670     3.5520    -0.1720 C.2   1 <1>   0.5690 
  3 N       -3.4140     2.7260    -1.1880 N.am  1 <1>  -0.7300 
  4 C       -2.6590     4.2520     0.5990 C.3   1 <1>   0.0440 
  5 C       -4.2890     1.7600    -1.8830 C.3   1 <1>   0.2200 
  6 C       -1.5220     3.2760     0.8870 C.ar  1 <1>  -0.1440 
  7 C       -3.9820     0.3370    -1.4270 C.3   1 <1>  -0.0800 
  8 C       -3.8480     1.6790    -3.3380 C.3   1 <1>   0.1200 
  9 C       -0.4890     3.1160    -0.0250 C.ar  1 <1>  -0.1500 
 10 C       -1.5440     2.4980     2.0350 C.ar  1 <1>  -0.1500 
 11 C       -2.7600    -0.0370    -2.2730 C.3   1 <1>   0.1200 
 12 C       -3.7780     0.1340     0.0880 C.3   1 <1>  -0.0160 
 13 O       -2.7020     0.8790    -3.3290 O.3   1 <1>  -0.5600 
 14 C        0.4910     2.1610     0.1820 C.ar  1 <1>   0.0820 
 15 C       -0.5550     1.5560     2.2610 C.ar  1 <1>  -0.1500 
 16 C       -3.3760    -1.2970     0.4060 C.ar  1 <1>  -0.1430 
 17 O        1.4360     2.0160    -0.7760 O.3   1 <1>  -0.3630 
 18 C        0.4660     1.3800     1.3420 C.ar  1 <1>   0.0820 
 19 C       -4.2830    -2.3370     0.3860 C.ar  1 <1>  -0.1500 
 20 C       -2.0760    -1.6280     0.7340 C.ar  1 <1>  -0.1500 
 21 C        1.3290     0.8600    -1.5770 C.3   1 <1>   0.0400 
 22 O        1.3950     0.4300     1.6130 O.3   1 <1>  -0.3630 
 23 C       -3.8560    -3.6220     0.6790 C.ar  1 <1>   0.1600 
 24 C       -1.7540    -2.9450     1.0120 C.ar  1 <1>   0.1600 
 25 C        2.7190     0.8780     1.8020 C.3   1 <1>   0.0400 
 26 N       -2.6130    -3.9520     0.9880 N.ar  1 <1>  -0.6200 
 27 H       -2.4200     2.5740    -1.3780 H     1 <1>   0.3700 
 28 H       -2.3050     5.0840     0.0200 H     1 <1>   0.0800 
 29 H       -3.0600     4.6350     1.5200 H     1 <1>   0.0800 
 30 H       -5.3260     2.0300    -1.7720 H     1 <1>   0.0800 
 31 H       -4.7930    -0.2950    -1.7420 H     1 <1>   0.0800 
 32 H       -3.6160     2.6430    -3.7570 H     1 <1>   0.0800 
 33 H       -4.5920     1.1860    -3.9370 H     1 <1>   0.0800 
 34 H       -0.4400     3.7170    -0.9160 H     1 <1>   0.1500 
 35 H       -2.3380     2.6130     2.7540 H     1 <1>   0.1500 
 36 H       -2.8390    -1.0330    -2.6730 H     1 <1>   0.0800 
 37 H       -1.8470     0.0570    -1.7100 H     1 <1>   0.0800 
 38 H       -4.6860     0.3810     0.6100 H     1 <1>   0.0800 
 39 H       -3.0100     0.7870     0.4530 H     1 <1>   0.0800 
 40 H       -0.5730     0.9500     3.1490 H     1 <1>   0.1500 
 41 H       -5.3150    -2.1600     0.1460 H     1 <1>   0.1500 
 42 H       -1.3080    -0.8760     0.7790 H     1 <1>   0.1500 
 43 H        2.1400     0.8640    -2.2830 H     1 <1>   0.0800 
 44 H        0.3880     0.8840    -2.0990 H     1 <1>   0.0800 
 45 H        1.3910    -0.0130    -0.9520 H     1 <1>   0.0800 
 46 H       -4.5770    -4.4210     0.6570 H     1 <1>   0.1500 
 47 H       -0.7350    -3.1820     1.2670 H     1 <1>   0.1500 
 48 H        3.3040     0.0530     2.1650 H     1 <1>   0.0800 
 49 H        2.7180     1.6750     2.5240 H     1 <1>   0.0800 
 50 H        3.1180     1.2230     0.8660 H     1 <1>   0.0800 
@<TRIPOS>BOND
  1   1   2  2   
  2   2   3  am  
  3   2   4  1   
  4   3   5  1   
  5   3  27  1   
  6   4   6  1   
  7   4  28  1   
  8   4  29  1   
  9   5   7  1   
 10   5   8  1   
 11   5  30  1   
 12   6   9  ar  
 13   6  10  ar  
 14   7  11  1   
 15   7  12  1   
 16   7  31  1   
 17   8  13  1   
 18   8  32  1   
 19   8  33  1   
 20   9  14  ar  
 21   9  34  1   
 22  10  15  ar  
 23  10  35  1   
 24  11  13  1   
 25  11  36  1   
 26  11  37  1   
 27  12  16  1   
 28  12  38  1   
 29  12  39  1   
 30  14  17  1   
 31  14  18  ar  
 32  15  18  ar  
 33  15  40  1   
 34  16  19  ar  
 35  16  20  ar  
 36  17  21  1   
 37  18  22  1   
 38  19  23  ar  
 39  19  41  1   
 40  20  24  ar  
 41  20  42  1   
 42  21  43  1   
 43  21  44  1   
 44  21  45  1   
 45  22  25  1   
 46  23  26  ar  
 47  23  46  1   
 48  24  26  ar  
 49  24  47  1   
 50  25  48  1   
 51  25  49  1   
 52  25  50  1   
@<TRIPOS>SUBSTRUCTURE
  1 ****  12 GROUP 4 **** **** 0

# MOE 2024.06 (io_trps.svl 2023.06)
