@<TRIPOS>MOLECULE
NONAME
47 50 1 0 0 
SMALL
USER_CHARGES


@<TRIPOS>ATOM
  1 S       -0.2800    -0.3230    -1.2340 S.3   1 <1>   0.1810 
  2 N       -1.5940    -0.9770    -2.1190 N.2   1 <1>  -0.5100 
  3 C       -1.2570     0.8150    -0.3680 C.2   1 <1>  -0.1100 
  4 C       -2.6480    -0.3560    -1.7550 C.2   1 <1>   0.3720 
  5 C       -2.5350     0.6840    -0.7720 C.2   1 <1>  -0.0860 
  6 N       -3.8500    -0.7110    -2.2960 N.pl3 1 <1>  -0.8830 
  7 C       -3.6920     1.4170    -0.3220 C.2   1 <1>   0.7160 
  8 O       -4.6250     0.7830     0.1370 O.2   1 <1>  -0.5700 
  9 N       -3.7640     2.7970    -0.3760 N.am  1 <1>  -0.6600 
 10 C       -4.7600     3.5530     0.4720 C.3   1 <1>   0.2200 
 11 C       -2.7040     3.6280    -1.0270 C.3   1 <1>   0.1400 
 12 C       -4.4640     5.0820     0.6250 C.3   1 <1>   0.1380 
 13 C       -6.2380     3.2630     0.1510 C.3   1 <1>  -0.1600 
 14 C       -2.0320     4.5760    -0.0160 C.3   1 <1>  -0.1600 
 15 C       -4.6700     5.9930    -0.6280 C.2   1 <1>  -0.2760 
 16 C       -5.4010     5.5840     1.7650 C.3   1 <1>   0.1200 
 17 C       -2.9810     5.1490     1.0610 C.3   1 <1>  -0.1600 
 18 C       -7.1420     4.3730     0.7020 C.3   1 <1>   0.1200 
 19 C       -5.1930     5.6390    -1.8120 C.2   1 <1>  -0.2880 
 20 C       -4.1950     7.4470    -0.4880 C.3   1 <1>  -0.0220 
 21 O       -6.5890     4.8420     1.8930 O.3   1 <1>  -0.5600 
 22 C       -5.3470     6.5700    -3.0080 C.3   1 <1>   0.2580 
 23 C       -4.7900     8.3430    -1.5820 C.3   1 <1>   0.1200 
 24 O       -4.6050     7.7370    -2.8220 O.3   1 <1>  -0.5600 
 25 H       -0.7820     1.4570     0.3500 H     1 <1>   0.1500 
 26 H       -3.8300    -1.6360    -2.7290 H     1 <1>   0.4000 
 27 H       -4.6480    -0.5820    -1.6610 H     1 <1>   0.4000 
 28 H       -4.6290     3.1540     1.4650 H     1 <1>   0.0800 
 29 H       -1.9570     3.0220    -1.5050 H     1 <1>   0.0800 
 30 H       -3.1540     4.2030    -1.8130 H     1 <1>   0.0800 
 31 H       -6.5240     2.3480     0.6360 H     1 <1>   0.0800 
 32 H       -6.4090     3.1290    -0.8980 H     1 <1>   0.0800 
 33 H       -1.2210     4.0610     0.4670 H     1 <1>   0.0800 
 34 H       -1.5980     5.3880    -0.5730 H     1 <1>   0.0800 
 35 H       -5.6880     6.6080     1.6200 H     1 <1>   0.0800 
 36 H       -4.9000     5.5140     2.7140 H     1 <1>   0.0800 
 37 H       -2.6890     6.1510     1.3180 H     1 <1>   0.0800 
 38 H       -2.8620     4.5590     1.9540 H     1 <1>   0.0800 
 39 H       -8.1250     3.9910     0.9150 H     1 <1>   0.0800 
 40 H       -7.2290     5.1980     0.0160 H     1 <1>   0.0800 
 41 H       -5.5470     4.6570    -2.0490 H     1 <1>   0.1500 
 42 H       -3.1240     7.4850    -0.5710 H     1 <1>   0.0800 
 43 H       -4.4620     7.8700     0.4610 H     1 <1>   0.0800 
 44 H       -6.3790     6.8380    -3.1550 H     1 <1>   0.0800 
 45 H       -4.9760     6.0970    -3.9010 H     1 <1>   0.0800 
 46 H       -4.2940     9.2970    -1.6020 H     1 <1>   0.0800 
 47 H       -5.8440     8.4950    -1.4270 H     1 <1>   0.0800 
@<TRIPOS>BOND
  1   1   2  1   
  2   1   3  1   
  3   2   4  2   
  4   3   5  2   
  5   3  25  1   
  6   4   5  1   
  7   4   6  1   
  8   5   7  1   
  9   6  26  1   
 10   6  27  1   
 11   7   8  2   
 12   7   9  am  
 13   9  10  1   
 14   9  11  1   
 15  10  12  1   
 16  10  13  1   
 17  10  28  1   
 18  11  14  1   
 19  11  29  1   
 20  11  30  1   
 21  12  15  1   
 22  12  16  1   
 23  12  17  1   
 24  13  18  1   
 25  13  31  1   
 26  13  32  1   
 27  14  17  1   
 28  14  33  1   
 29  14  34  1   
 30  15  19  2   
 31  15  20  1   
 32  16  21  1   
 33  16  35  1   
 34  16  36  1   
 35  17  37  1   
 36  17  38  1   
 37  18  21  1   
 38  18  39  1   
 39  18  40  1   
 40  19  22  1   
 41  19  41  1   
 42  20  23  1   
 43  20  42  1   
 44  20  43  1   
 45  22  24  1   
 46  22  44  1   
 47  22  45  1   
 48  23  24  1   
 49  23  46  1   
 50  23  47  1   
@<TRIPOS>SUBSTRUCTURE
  1 ****   9 GROUP 4 **** **** 0

# MOE 2024.06 (io_trps.svl 2023.06)
