@<TRIPOS>MOLECULE
NONAME
52 54 1 0 0 
SMALL
USER_CHARGES


@<TRIPOS>ATOM
  1 O       -0.2670     0.5010    -0.3770 O.2   1 <1>  -0.5700 
  2 C        0.8050     0.0350    -0.7070 C.2   1 <1>   0.7160 
  3 N        1.7100     0.8470    -1.3090 N.am  1 <1>  -0.7300 
  4 C        1.0920    -1.3630    -0.4860 C.2   1 <1>  -0.0860 
  5 C        1.5990     2.3120    -1.4220 C.3   1 <1>   0.3200 
  6 C        2.2550    -2.0770    -0.4590 C.2   1 <1>  -0.0400 
  7 C        0.0960    -2.3260    -0.2270 C.2   1 <1>  -0.1500 
  8 C        2.9750     2.9100    -1.2180 C.2   1 <1>  -0.0400 
  9 O        2.0180    -3.3460    -0.2340 O.3   1 <1>  -0.2800 
 10 C        3.7090    -1.6670    -0.6160 C.3   1 <1>  -0.0600 
 11 C        0.7240    -3.5130    -0.0870 C.2   1 <1>  -0.0400 
 12 O        3.9360     2.6240    -2.0510 O.3   1 <1>  -0.0190 
 13 C        3.4760     3.7300    -0.2870 C.2   1 <1>  -0.1500 
 14 C        0.2260    -4.9180     0.2040 C.3   1 <1>   0.5230 
 15 N        5.0520     3.2020    -1.7300 N.2   1 <1>  -0.4100 
 16 C        4.8190     3.8960    -0.6510 C.2   1 <1>   0.2350 
 17 N       -1.2680    -4.9780     0.1460 N.4   1 <1>  -0.9590 
 18 C        5.7850     4.7120     0.0680 C.ar  1 <1>   0.3640 
 19 C       -1.7980    -6.2140     0.7810 C.3   1 <1>   0.3430 
 20 C       -1.7370    -4.8260    -1.2580 C.3   1 <1>   0.3430 
 21 N        5.3820     5.3350     1.1850 N.ar  1 <1>  -0.6200 
 22 C        7.0930     4.8330    -0.4040 C.ar  1 <1>  -0.1500 
 23 C       -1.6910    -6.0990     2.2970 C.3   1 <1>  -0.2400 
 24 C       -3.1860    -4.3560    -1.2620 C.3   1 <1>  -0.2400 
 25 C        6.2810     6.0690     1.8180 C.ar  1 <1>   0.1600 
 26 C        8.0210     5.6000     0.2650 C.ar  1 <1>  -0.1500 
 27 C        7.5910     6.2340     1.4100 C.ar  1 <1>  -0.1500 
 28 H        2.5890     0.4590    -1.6490 H     1 <1>   0.3700 
 29 H        0.9180     2.6930    -0.6790 H     1 <1>   0.0800 
 30 H        1.2280     2.5720    -2.3980 H     1 <1>   0.0800 
 31 H       -0.9490    -2.0770    -0.1640 H     1 <1>   0.1500 
 32 H        3.8270    -0.6010    -0.6010 H     1 <1>   0.0800 
 33 H        4.1010    -2.0530    -1.5400 H     1 <1>   0.0800 
 34 H        4.2850    -2.0750     0.1960 H     1 <1>   0.0800 
 35 H        3.0050     4.1830     0.5670 H     1 <1>   0.1500 
 36 H        0.5770    -5.2020     1.1820 H     1 <1>   0.0800 
 37 H        0.6500    -5.6010    -0.5140 H     1 <1>   0.0800 
 38 H       -1.6090    -4.1700     0.6810 H     1 <1>   0.4500 
 39 H       -1.2580    -7.0790     0.4310 H     1 <1>   0.0800 
 40 H       -2.8370    -6.3410     0.5210 H     1 <1>   0.0800 
 41 H       -1.6450    -5.7610    -1.7890 H     1 <1>   0.0800 
 42 H       -1.1350    -4.0910    -1.7700 H     1 <1>   0.0800 
 43 H        7.3790     4.3180    -1.3030 H     1 <1>   0.1500 
 44 H       -0.6680    -6.0600     2.6250 H     1 <1>   0.0800 
 45 H       -2.1420    -6.9660     2.7470 H     1 <1>   0.0800 
 46 H       -2.2190    -5.2320     2.6540 H     1 <1>   0.0800 
 47 H       -3.8430    -5.0890    -0.8300 H     1 <1>   0.0800 
 48 H       -3.5000    -4.1970    -2.2790 H     1 <1>   0.0800 
 49 H       -3.2880    -3.4230    -0.7380 H     1 <1>   0.0800 
 50 H        5.9560     6.5690     2.7140 H     1 <1>   0.1500 
 51 H        9.0320     5.7000    -0.0900 H     1 <1>   0.1500 
 52 H        8.2640     6.8490     1.9800 H     1 <1>   0.1500 
@<TRIPOS>BOND
  1   1   2  2   
  2   2   3  am  
  3   2   4  1   
  4   3   5  1   
  5   3  28  1   
  6   4   6  2   
  7   4   7  1   
  8   5   8  1   
  9   5  29  1   
 10   5  30  1   
 11   6   9  1   
 12   6  10  1   
 13   7  11  2   
 14   7  31  1   
 15   8  12  1   
 16   8  13  2   
 17   9  11  1   
 18  10  32  1   
 19  10  33  1   
 20  10  34  1   
 21  11  14  1   
 22  12  15  1   
 23  13  16  1   
 24  13  35  1   
 25  14  17  1   
 26  14  36  1   
 27  14  37  1   
 28  15  16  2   
 29  16  18  1   
 30  17  19  1   
 31  17  20  1   
 32  17  38  1   
 33  18  21  ar  
 34  18  22  ar  
 35  19  23  1   
 36  19  39  1   
 37  19  40  1   
 38  20  24  1   
 39  20  41  1   
 40  20  42  1   
 41  21  25  ar  
 42  22  26  ar  
 43  22  43  1   
 44  23  44  1   
 45  23  45  1   
 46  23  46  1   
 47  24  47  1   
 48  24  48  1   
 49  24  49  1   
 50  25  27  ar  
 51  25  50  1   
 52  26  27  ar  
 53  26  51  1   
 54  27  52  1   
@<TRIPOS>SUBSTRUCTURE
  1 ****   3 GROUP 4 **** **** 0

# MOE 2024.06 (io_trps.svl 2023.06)
