@<TRIPOS>MOLECULE
NONAME
61 64 1 0 0 
SMALL
USER_CHARGES


@<TRIPOS>ATOM
  1 O       -0.9000     1.6140     1.7210 O.2   1 <1>  -0.5700 
  2 C       -1.3310     1.3880     0.6140 C.2   1 <1>   0.5690 
  3 N       -2.0010     0.2330     0.3650 N.am  1 <1>  -0.7300 
  4 C       -1.1060     2.3810    -0.5370 C.3   1 <1>   0.0610 
  5 C       -2.3930    -0.7460     1.3900 C.3   1 <1>   0.2840 
  6 C       -0.9870     3.8540    -0.0750 C.3   1 <1>   0.1900 
  7 C       -2.3260     2.5110    -1.5040 C.3   1 <1>  -0.1600 
  8 C        0.1480     1.9370    -1.3440 C.3   1 <1>  -0.0170 
  9 C       -3.7380    -1.3210     0.9890 C.ar  1 <1>  -0.1440 
 10 N       -1.2200     4.5210    -1.3560 N.3   1 <1>  -0.8100 
 11 C       -2.2130     4.2730     0.7720 C.3   1 <1>  -0.1600 
 12 C       -2.5670     4.0300    -1.5630 C.3   1 <1>   0.1900 
 13 C        1.4910     2.2620    -0.6930 C.ar  1 <1>  -0.1430 
 14 C       -4.8930    -0.5790     1.1820 C.ar  1 <1>  -0.1500 
 15 C       -3.8280    -2.5840     0.4240 C.ar  1 <1>  -0.1500 
 16 C       -0.9900     5.9970    -1.5150 C.3   1 <1>   0.1710 
 17 C       -3.3010     4.4520    -0.2890 C.3   1 <1>  -0.1600 
 18 C        1.9660     1.5360     0.3880 C.ar  1 <1>  -0.1500 
 19 C        2.2610     3.3000    -1.1970 C.ar  1 <1>  -0.1500 
 20 C       -6.1250    -1.0930     0.8170 C.ar  1 <1>  -0.1500 
 21 C       -5.0590    -3.1000     0.0580 C.ar  1 <1>  -0.1500 
 22 C       -1.0340     6.9400    -0.2970 C.2   1 <1>   0.5690 
 23 C        3.1860     1.8480     0.9620 C.ar  1 <1>  -0.1500 
 24 C        3.4830     3.6120    -0.6280 C.ar  1 <1>  -0.1500 
 25 C       -6.2080    -2.3550     0.2550 C.ar  1 <1>  -0.1500 
 26 O       -2.0360     7.6060    -0.1580 O.2   1 <1>  -0.5700 
 27 N        0.0270     7.0550     0.5810 N.am  1 <1>  -0.6600 
 28 C        3.9460     2.8870     0.4550 C.ar  1 <1>  -0.1500 
 29 C       -0.0600     7.9220     1.7890 C.3   1 <1>   0.0600 
 30 C        1.3270     6.3380     0.4570 C.3   1 <1>   0.0600 
 31 H       -2.3980     0.0510    -0.5570 H     1 <1>   0.3700 
 32 H       -1.6490    -1.5220     1.4480 H     1 <1>   0.0800 
 33 H       -2.4640    -0.2680     2.3530 H     1 <1>   0.0800 
 34 H       -0.0440     4.0790     0.3880 H     1 <1>   0.0800 
 35 H       -3.2070     2.0120    -1.1440 H     1 <1>   0.0800 
 36 H       -2.1070     2.1400    -2.4880 H     1 <1>   0.0800 
 37 H        0.1000     0.8780    -1.5250 H     1 <1>   0.0800 
 38 H        0.1340     2.4110    -2.3090 H     1 <1>   0.0800 
 39 H       -2.4930     3.5400     1.5040 H     1 <1>   0.0800 
 40 H       -2.0270     5.1890     1.2990 H     1 <1>   0.0800 
 41 H       -3.0230     4.3690    -2.4790 H     1 <1>   0.0800 
 42 H       -4.8350     0.4040     1.6180 H     1 <1>   0.1500 
 43 H       -2.9410    -3.1730     0.2660 H     1 <1>   0.1500 
 44 H       -0.0310     6.1250    -1.9780 H     1 <1>   0.0800 
 45 H       -1.7040     6.3700    -2.2270 H     1 <1>   0.0800 
 46 H       -3.6100     5.4800    -0.3570 H     1 <1>   0.0800 
 47 H       -4.1650     3.8420    -0.0960 H     1 <1>   0.0800 
 48 H        1.3890     0.7240     0.7940 H     1 <1>   0.1500 
 49 H        1.9060     3.8720    -2.0370 H     1 <1>   0.1500 
 50 H       -7.0190    -0.5130     0.9700 H     1 <1>   0.1500 
 51 H       -5.1240    -4.0820    -0.3780 H     1 <1>   0.1500 
 52 H        3.5410     1.2810     1.8040 H     1 <1>   0.1500 
 53 H        4.0740     4.4170    -1.0290 H     1 <1>   0.1500 
 54 H       -7.1660    -2.7570    -0.0280 H     1 <1>   0.1500 
 55 H        4.8960     3.1270     0.9010 H     1 <1>   0.1500 
 56 H        0.1230     7.3340     2.6710 H     1 <1>   0.0800 
 57 H       -1.0350     8.3700     1.8750 H     1 <1>   0.0800 
 58 H        0.6730     8.7060     1.7260 H     1 <1>   0.0800 
 59 H        1.4560     5.6730     1.2950 H     1 <1>   0.0800 
 60 H        2.1340     7.0480     0.4470 H     1 <1>   0.0800 
 61 H        1.3730     5.7570    -0.4440 H     1 <1>   0.0800 
@<TRIPOS>BOND
  1   1   2  2   
  2   2   3  am  
  3   2   4  1   
  4   3   5  1   
  5   3  31  1   
  6   4   6  1   
  7   4   7  1   
  8   4   8  1   
  9   5   9  1   
 10   5  32  1   
 11   5  33  1   
 12   6  10  1   
 13   6  11  1   
 14   6  34  1   
 15   7  12  1   
 16   7  35  1   
 17   7  36  1   
 18   8  13  1   
 19   8  37  1   
 20   8  38  1   
 21   9  14  ar  
 22   9  15  ar  
 23  10  12  1   
 24  10  16  1   
 25  11  17  1   
 26  11  39  1   
 27  11  40  1   
 28  12  17  1   
 29  12  41  1   
 30  13  18  ar  
 31  13  19  ar  
 32  14  20  ar  
 33  14  42  1   
 34  15  21  ar  
 35  15  43  1   
 36  16  22  1   
 37  16  44  1   
 38  16  45  1   
 39  17  46  1   
 40  17  47  1   
 41  18  23  ar  
 42  18  48  1   
 43  19  24  ar  
 44  19  49  1   
 45  20  25  ar  
 46  20  50  1   
 47  21  25  ar  
 48  21  51  1   
 49  22  26  2   
 50  22  27  am  
 51  23  28  ar  
 52  23  52  1   
 53  24  28  ar  
 54  24  53  1   
 55  25  54  1   
 56  27  29  1   
 57  27  30  1   
 58  28  55  1   
 59  29  56  1   
 60  29  57  1   
 61  29  58  1   
 62  30  59  1   
 63  30  60  1   
 64  30  61  1   
@<TRIPOS>SUBSTRUCTURE
  1 ****   4 GROUP 4 **** **** 0

# MOE 2024.06 (io_trps.svl 2023.06)
