@<TRIPOS>MOLECULE
NONAME
49 51 1 0 0 
SMALL
USER_CHARGES


@<TRIPOS>ATOM
  1 O       -1.2060     0.3310    -2.3210 O.2   1 <1>  -0.5700 
  2 C       -1.7300     0.9910    -1.4540 C.2   1 <1>   0.5690 
  3 N       -2.5690     0.4170    -0.5340 N.am  1 <1>  -0.6600 
  4 C       -1.4640     2.4950    -1.4510 C.3   1 <1>   0.1810 
  5 C       -3.2080     1.1020     0.6180 C.3   1 <1>   0.1400 
  6 C       -2.8480    -1.0390    -0.5000 C.3   1 <1>   0.1400 
  7 O       -0.9150     2.9330    -0.2150 O.3   1 <1>  -0.3620 
  8 C       -3.9670     0.0010     1.3610 C.3   1 <1>   0.2000 
  9 C       -3.3230    -1.3150     0.9270 C.3   1 <1>  -0.0800 
 10 C       -0.6710     4.2500     0.0120 C.ar  1 <1>   0.0820 
 11 O       -3.8620     0.1470     2.7350 O.3   1 <1>  -0.6800 
 12 C       -4.2820    -2.5110     1.0560 C.3   1 <1>  -0.0170 
 13 C       -0.2010     4.5870     1.2710 C.ar  1 <1>  -0.1500 
 14 C       -0.8690     5.2510    -0.9360 C.ar  1 <1>  -0.1500 
 15 C       -3.6180    -3.8160     0.6460 C.ar  1 <1>   0.1670 
 16 C        0.0680     5.9060     1.5940 C.ar  1 <1>  -0.1500 
 17 C       -0.6000     6.5690    -0.6120 C.ar  1 <1>  -0.1500 
 18 N       -3.5910    -4.0830    -0.6500 N.ar  1 <1>  -0.6200 
 19 C       -3.0770    -4.6580     1.6160 C.ar  1 <1>   0.1600 
 20 C       -0.1330     6.9070     0.6480 C.ar  1 <1>   0.0820 
 21 C       -2.9880    -5.2310    -0.9090 C.ar  1 <1>   0.1600 
 22 N       -2.4750    -5.8080     1.3600 N.ar  1 <1>  -0.6200 
 23 O        0.1020     8.2260     0.8760 O.3   1 <1>  -0.3620 
 24 C       -2.4490    -6.0650     0.0630 C.ar  1 <1>   0.1600 
 25 C        0.5980     8.6740     2.1160 C.3   1 <1>   0.1200 
 26 C        0.7570    10.1890     2.0400 C.3   1 <1>  -0.2400 
 27 H       -2.3870     3.0170    -1.6180 H     1 <1>   0.0800 
 28 H       -0.7620     2.7330    -2.2300 H     1 <1>   0.0800 
 29 H       -2.4470     1.5310     1.2470 H     1 <1>   0.0800 
 30 H       -3.8820     1.8660     0.2740 H     1 <1>   0.0800 
 31 H       -3.6220    -1.2640    -1.2150 H     1 <1>   0.0800 
 32 H       -1.9670    -1.6100    -0.7430 H     1 <1>   0.0800 
 33 H       -5.0100     0.0340     1.0940 H     1 <1>   0.0800 
 34 H       -2.4440    -1.4960     1.5210 H     1 <1>   0.0800 
 35 H       -2.9230     0.1550     3.0040 H     1 <1>   0.4000 
 36 H       -5.1510    -2.3540     0.4410 H     1 <1>   0.0800 
 37 H       -4.6180    -2.5850     2.0750 H     1 <1>   0.0800 
 38 H       -0.0460     3.8100     1.9960 H     1 <1>   0.1500 
 39 H       -1.2250     5.0310    -1.9250 H     1 <1>   0.1500 
 40 H        0.4300     6.1310     2.5790 H     1 <1>   0.1500 
 41 H       -0.7490     7.3490    -1.3360 H     1 <1>   0.1500 
 42 H       -3.1430    -4.3680     2.6490 H     1 <1>   0.1500 
 43 H       -2.9180    -5.5280    -1.9400 H     1 <1>   0.1500 
 44 H       -1.9770    -6.9810    -0.2470 H     1 <1>   0.1500 
 45 H       -0.1070     8.4040     2.8830 H     1 <1>   0.0800 
 46 H        1.5480     8.2000     2.2950 H     1 <1>   0.0800 
 47 H       -0.1940    10.6510     1.8440 H     1 <1>   0.0800 
 48 H        1.4500    10.4480     1.2600 H     1 <1>   0.0800 
 49 H        1.1350    10.5630     2.9740 H     1 <1>   0.0800 
@<TRIPOS>BOND
  1   1   2  2   
  2   2   3  am  
  3   2   4  1   
  4   3   5  1   
  5   3   6  1   
  6   4   7  1   
  7   4  27  1   
  8   4  28  1   
  9   5   8  1   
 10   5  29  1   
 11   5  30  1   
 12   6   9  1   
 13   6  31  1   
 14   6  32  1   
 15   7  10  1   
 16   8   9  1   
 17   8  11  1   
 18   8  33  1   
 19   9  12  1   
 20   9  34  1   
 21  10  13  ar  
 22  10  14  ar  
 23  11  35  1   
 24  12  15  1   
 25  12  36  1   
 26  12  37  1   
 27  13  16  ar  
 28  13  38  1   
 29  14  17  ar  
 30  14  39  1   
 31  15  18  ar  
 32  15  19  ar  
 33  16  20  ar  
 34  16  40  1   
 35  17  20  ar  
 36  17  41  1   
 37  18  21  ar  
 38  19  22  ar  
 39  19  42  1   
 40  20  23  1   
 41  21  24  ar  
 42  21  43  1   
 43  22  24  ar  
 44  23  25  1   
 45  24  44  1   
 46  25  26  1   
 47  25  45  1   
 48  25  46  1   
 49  26  47  1   
 50  26  48  1   
 51  26  49  1   
@<TRIPOS>SUBSTRUCTURE
  1 ****   5 GROUP 4 **** **** 0

# MOE 2024.06 (io_trps.svl 2023.06)
