@<TRIPOS>MOLECULE
NONAME
56 59 1 0 0 
SMALL
USER_CHARGES


@<TRIPOS>ATOM
  1 S        0.9120    -0.4940     0.8320 S.3   1 <1>  -0.0800 
  2 C       -0.3830    -1.6940     0.7740 C.2   1 <1>   0.0400 
  3 C       -0.2140     0.8130     1.1440 C.2   1 <1>  -0.1100 
  4 C       -0.0570    -3.0710     0.5300 C.2   1 <1>   0.1400 
  5 C       -1.5670    -1.0650     0.9870 C.2   1 <1>  -0.1500 
  6 C       -1.4740     0.3430     1.1950 C.2   1 <1>  -0.1500 
  7 O        1.2000    -3.4540     0.3470 O.3   1 <1>  -0.2800 
  8 C       -0.8590    -4.1650     0.4400 C.2   1 <1>  -0.1500 
  9 C        1.2280    -4.7540     0.1440 C.2   1 <1>  -0.0400 
 10 C       -0.0250    -5.2560     0.1900 C.2   1 <1>  -0.1500 
 11 C        2.5810    -5.4030    -0.0890 C.3   1 <1>   0.0200 
 12 C        2.4770    -6.9270    -0.2520 C.3   1 <1>  -0.0990 
 13 C        3.8230    -7.6180    -0.4380 C.2   1 <1>   0.5690 
 14 O        4.7820    -6.9360    -0.7130 O.2   1 <1>  -0.5700 
 15 N        3.9500    -8.9810    -0.2900 N.am  1 <1>  -0.6600 
 16 C        5.3130    -9.6080    -0.4650 C.3   1 <1>   0.2200 
 17 C        2.7590    -9.8860    -0.1810 C.3   1 <1>   0.1400 
 18 C        5.3550   -11.1560    -0.3390 C.3   1 <1>   0.0000 
 19 C        6.4120    -8.9360     0.3980 C.3   1 <1>   0.3430 
 20 C        2.8670   -11.1650    -1.0300 C.3   1 <1>  -0.1600 
 21 C        6.7580   -11.6460    -0.8180 C.3   1 <1>  -0.1600 
 22 C        4.2850   -11.7000    -1.3070 C.3   1 <1>  -0.1600 
 23 C        5.0550   -11.7190     1.0890 C.3   1 <1>   0.1200 
 24 N        7.6480    -9.7810     0.5450 N.4   1 <1>  -0.9590 
 25 C        7.9030   -10.6310    -0.6440 C.3   1 <1>   0.3430 
 26 O        6.0870   -11.5070     2.0010 O.3   1 <1>  -0.6800 
 27 C        8.8280    -8.9750     0.9630 C.3   1 <1>   0.2630 
 28 H        0.1920     1.8020     1.2570 H     1 <1>   0.1500 
 29 H       -2.5220    -1.5590     1.0040 H     1 <1>   0.1500 
 30 H       -2.3520     0.9380     1.3730 H     1 <1>   0.1500 
 31 H       -1.9280    -4.2050     0.5390 H     1 <1>   0.1500 
 32 H       -0.3560    -6.2720     0.0650 H     1 <1>   0.1500 
 33 H        3.0210    -4.9700    -0.9710 H     1 <1>   0.0800 
 34 H        3.2200    -5.1710     0.7450 H     1 <1>   0.0800 
 35 H        1.8650    -7.1410    -1.1090 H     1 <1>   0.0800 
 36 H        2.0030    -7.3270     0.6250 H     1 <1>   0.0800 
 37 H        5.5840    -9.3870    -1.4840 H     1 <1>   0.0800 
 38 H        2.6220   -10.1450     0.8540 H     1 <1>   0.0800 
 39 H        1.8640    -9.3750    -0.4850 H     1 <1>   0.0800 
 40 H        6.0060    -8.7370     1.3750 H     1 <1>   0.0800 
 41 H        6.6720    -7.9950    -0.0580 H     1 <1>   0.0800 
 42 H        2.2900   -11.9310    -0.5420 H     1 <1>   0.0800 
 43 H        2.3830   -10.9840    -1.9760 H     1 <1>   0.0800 
 44 H        6.7320   -11.8960    -1.8650 H     1 <1>   0.0800 
 45 H        7.0220   -12.5560    -0.3080 H     1 <1>   0.0800 
 46 H        4.5440   -11.4060    -2.3110 H     1 <1>   0.0800 
 47 H        4.2720   -12.7770    -1.2920 H     1 <1>   0.0800 
 48 H        4.9080   -12.7850     1.0270 H     1 <1>   0.0800 
 49 H        4.1680   -11.2910     1.5130 H     1 <1>   0.0800 
 50 H        7.3960   -10.4540     1.3020 H     1 <1>   0.4500 
 51 H        7.9690   -10.0040    -1.5190 H     1 <1>   0.0800 
 52 H        8.8370   -11.1580    -0.5360 H     1 <1>   0.0800 
 53 H        5.8760   -11.9560     2.8500 H     1 <1>   0.4000 
 54 H        9.0880    -8.2660     0.1940 H     1 <1>   0.0800 
 55 H        9.6740    -9.6170     1.1440 H     1 <1>   0.0800 
 56 H        8.6070    -8.4350     1.8700 H     1 <1>   0.0800 
@<TRIPOS>BOND
  1   1   2  1   
  2   1   3  1   
  3   2   4  1   
  4   2   5  2   
  5   3   6  2   
  6   3  28  1   
  7   4   7  1   
  8   4   8  2   
  9   5   6  1   
 10   5  29  1   
 11   6  30  1   
 12   7   9  1   
 13   8  10  1   
 14   8  31  1   
 15   9  10  2   
 16   9  11  1   
 17  10  32  1   
 18  11  12  1   
 19  11  33  1   
 20  11  34  1   
 21  12  13  1   
 22  12  35  1   
 23  12  36  1   
 24  13  14  2   
 25  13  15  am  
 26  15  16  1   
 27  15  17  1   
 28  16  18  1   
 29  16  19  1   
 30  16  37  1   
 31  17  20  1   
 32  17  38  1   
 33  17  39  1   
 34  18  21  1   
 35  18  22  1   
 36  18  23  1   
 37  19  24  1   
 38  19  40  1   
 39  19  41  1   
 40  20  22  1   
 41  20  42  1   
 42  20  43  1   
 43  21  25  1   
 44  21  44  1   
 45  21  45  1   
 46  22  46  1   
 47  22  47  1   
 48  23  26  1   
 49  23  48  1   
 50  23  49  1   
 51  24  25  1   
 52  24  27  1   
 53  24  50  1   
 54  25  51  1   
 55  25  52  1   
 56  26  53  1   
 57  27  54  1   
 58  27  55  1   
 59  27  56  1   
@<TRIPOS>SUBSTRUCTURE
  1 ****  12 GROUP 4 **** **** 0

# MOE 2024.06 (io_trps.svl 2023.06)
