@<TRIPOS>MOLECULE
NONAME
50 52 1 0 0 
SMALL
USER_CHARGES


@<TRIPOS>ATOM
  1 CL      -4.8470     1.5500     4.3770 Cl    1 <1>  -0.1770 
  2 C       -4.2240     0.8770     2.8890 C.ar  1 <1>   0.1770 
  3 C       -3.1050     0.0620     2.8910 C.ar  1 <1>   0.1770 
  4 C       -4.8780     1.1680     1.7050 C.ar  1 <1>  -0.1500 
  5 CL      -2.2780    -0.3210     4.3820 Cl    1 <1>  -0.1770 
  6 C       -2.6260    -0.4660     1.7060 C.ar  1 <1>  -0.1500 
  7 C       -4.4130     0.6310     0.5120 C.ar  1 <1>  -0.1440 
  8 C       -3.2820    -0.1780     0.5200 C.ar  1 <1>  -0.1500 
  9 C       -5.1330     0.9040    -0.8060 C.3   1 <1>   0.0440 
 10 C       -5.5550    -0.3900    -1.4920 C.2   1 <1>   0.5690 
 11 O       -5.0210    -0.6440    -2.5450 O.2   1 <1>  -0.5700 
 12 N       -6.4720    -1.2420    -0.9210 N.am  1 <1>  -0.6600 
 13 C       -6.6520    -2.6430    -1.4320 C.3   1 <1>   0.1400 
 14 C       -7.3690    -0.8890     0.2130 C.3   1 <1>   0.1400 
 15 C       -6.4150    -3.6910    -0.3130 C.3   1 <1>   0.0000 
 16 C       -7.1420    -1.8640     1.3660 C.3   1 <1>  -0.1600 
 17 C       -7.3380    -3.2990     0.8730 C.3   1 <1>   0.2000 
 18 C       -6.8830    -5.0840    -0.8050 C.3   1 <1>   0.1200 
 19 C       -4.9140    -3.7120     0.1220 C.3   1 <1>  -0.0160 
 20 O       -7.1720    -4.1490     1.9520 O.3   1 <1>  -0.6800 
 21 O       -6.3790    -5.3820    -2.0630 O.3   1 <1>  -0.6800 
 22 C       -3.9520    -4.3870    -0.8520 C.ar  1 <1>  -0.1430 
 23 C       -3.4070    -3.6850    -1.9150 C.ar  1 <1>  -0.1500 
 24 C       -3.6120    -5.7210    -0.6790 C.ar  1 <1>  -0.1500 
 25 C       -2.5480    -4.3100    -2.8030 C.ar  1 <1>  -0.1500 
 26 C       -2.7530    -6.3470    -1.5650 C.ar  1 <1>  -0.1500 
 27 C       -2.2220    -5.6420    -2.6290 C.ar  1 <1>  -0.1500 
 28 H       -5.7420     1.8080     1.7300 H     1 <1>   0.1500 
 29 H       -1.7530    -1.0950     1.7130 H     1 <1>   0.1500 
 30 H       -2.9080    -0.5930    -0.4030 H     1 <1>   0.1500 
 31 H       -4.4640     1.4350    -1.4590 H     1 <1>   0.0800 
 32 H       -5.9940     1.5280    -0.6620 H     1 <1>   0.0800 
 33 H       -7.6550    -2.7420    -1.8100 H     1 <1>   0.0800 
 34 H       -5.9880    -2.8310    -2.2570 H     1 <1>   0.0800 
 35 H       -7.2030     0.1160     0.5520 H     1 <1>   0.0800 
 36 H       -8.3900    -0.9560    -0.1220 H     1 <1>   0.0800 
 37 H       -7.8550    -1.6520     2.1430 H     1 <1>   0.0800 
 38 H       -6.1530    -1.7200     1.7620 H     1 <1>   0.0800 
 39 H       -8.3640    -3.4070     0.5580 H     1 <1>   0.0800 
 40 H       -7.9560    -5.1170    -0.8850 H     1 <1>   0.0800 
 41 H       -6.5710    -5.8560    -0.1230 H     1 <1>   0.0800 
 42 H       -4.5700    -2.7090     0.2930 H     1 <1>   0.0800 
 43 H       -4.8170    -4.2260     1.0590 H     1 <1>   0.0800 
 44 H       -6.3390    -3.9500     2.4200 H     1 <1>   0.4000 
 45 H       -5.3940    -5.3300    -2.0480 H     1 <1>   0.4000 
 46 H       -3.6460    -2.6490    -2.0650 H     1 <1>   0.1500 
 47 H       -4.0170    -6.2840     0.1440 H     1 <1>   0.1500 
 48 H       -2.1370    -3.7550    -3.6290 H     1 <1>   0.1500 
 49 H       -2.4980    -7.3840    -1.4260 H     1 <1>   0.1500 
 50 H       -1.5550    -6.1280    -3.3210 H     1 <1>   0.1500 
@<TRIPOS>BOND
  1   1   2  1   
  2   2   3  ar  
  3   2   4  ar  
  4   3   5  1   
  5   3   6  ar  
  6   4   7  ar  
  7   4  28  1   
  8   6   8  ar  
  9   6  29  1   
 10   7   8  ar  
 11   7   9  1   
 12   8  30  1   
 13   9  10  1   
 14   9  31  1   
 15   9  32  1   
 16  10  11  2   
 17  10  12  am  
 18  12  13  1   
 19  12  14  1   
 20  13  15  1   
 21  13  33  1   
 22  13  34  1   
 23  14  16  1   
 24  14  35  1   
 25  14  36  1   
 26  15  17  1   
 27  15  18  1   
 28  15  19  1   
 29  16  17  1   
 30  16  37  1   
 31  16  38  1   
 32  17  20  1   
 33  17  39  1   
 34  18  21  1   
 35  18  40  1   
 36  18  41  1   
 37  19  22  1   
 38  19  42  1   
 39  19  43  1   
 40  20  44  1   
 41  21  45  1   
 42  22  23  ar  
 43  22  24  ar  
 44  23  25  ar  
 45  23  46  1   
 46  24  26  ar  
 47  24  47  1   
 48  25  27  ar  
 49  25  48  1   
 50  26  27  ar  
 51  26  49  1   
 52  27  50  1   
@<TRIPOS>SUBSTRUCTURE
  1 ****  19 GROUP 4 **** **** 0

# MOE 2024.06 (io_trps.svl 2023.06)
