@<TRIPOS>MOLECULE
NONAME
52 53 1 0 0 
SMALL
USER_CHARGES


@<TRIPOS>ATOM
  1 O        2.2720     1.5380     2.6280 O.3   1 <1>  -0.6800 
  2 C        2.6770     2.0110     1.3930 C.3   1 <1>   0.1200 
  3 C        3.3360     3.3810     1.6130 C.3   1 <1>   0.3430 
  4 N        3.7820     4.0290     0.3370 N.4   1 <1>  -0.9590 
  5 C        4.9170     3.2960    -0.3020 C.3   1 <1>   0.3430 
  6 C        4.1400     5.4540     0.6030 C.3   1 <1>   0.3430 
  7 C        5.2870     3.9590    -1.6310 C.3   1 <1>  -0.1600 
  8 C        4.4880     6.1520    -0.7080 C.3   1 <1>  -0.1600 
  9 C        5.6460     5.4380    -1.4280 C.3   1 <1>  -0.0800 
 10 C        6.0220     6.1150    -2.7620 C.3   1 <1>   0.2090 
 11 N        6.3440     7.5530    -2.5540 N.pl3 1 <1>  -0.8380 
 12 C        7.3650     7.8960    -1.6880 C.ar  1 <1>   0.4100 
 13 C        6.2110     8.3880    -3.7760 C.3   1 <1>   0.1290 
 14 N        8.4490     7.1420    -1.6770 N.ar  1 <1>  -0.6200 
 15 C        7.2430     8.9810    -0.8570 C.ar  1 <1>  -0.1500 
 16 C        9.3810     7.5160    -0.8220 C.ar  1 <1>   0.4700 
 17 C        8.2710     9.2670     0.0070 C.ar  1 <1>   0.4100 
 18 N        9.3620     8.5220     0.0290 N.ar  1 <1>  -0.6200 
 19 N        8.1940    10.3440     0.8730 N.pl3 1 <1>  -0.8380 
 20 C        8.9640    10.3330     2.1470 C.3   1 <1>   0.2090 
 21 C        7.9100    11.6920     0.3080 C.3   1 <1>   0.1290 
 22 C        8.1070    10.9050     3.2720 C.3   1 <1>  -0.2400 
 23 H        1.8230     0.6670     2.5600 H     1 <1>   0.4000 
 24 H        1.8040     2.0970     0.7690 H     1 <1>   0.0800 
 25 H        3.3700     1.2990     0.9790 H     1 <1>   0.0800 
 26 H        4.1810     3.2590     2.2710 H     1 <1>   0.0800 
 27 H        2.6180     4.0170     2.1030 H     1 <1>   0.0800 
 28 H        2.9950     4.0410    -0.3250 H     1 <1>   0.4500 
 29 H        4.6450     2.2680    -0.4820 H     1 <1>   0.0800 
 30 H        5.7730     3.3090     0.3530 H     1 <1>   0.0800 
 31 H        4.9880     5.5020     1.2670 H     1 <1>   0.0800 
 32 H        3.3140     5.9650     1.0710 H     1 <1>   0.0800 
 33 H        4.4700     3.8600    -2.3240 H     1 <1>   0.0800 
 34 H        6.1340     3.4420    -2.0500 H     1 <1>   0.0800 
 35 H        4.7740     7.1650    -0.4800 H     1 <1>   0.0800 
 36 H        3.6210     6.2010    -1.3430 H     1 <1>   0.0800 
 37 H        6.5140     5.4730    -0.7910 H     1 <1>   0.0800 
 38 H        5.1990     6.0330    -3.4510 H     1 <1>   0.0800 
 39 H        6.8750     5.6220    -3.1980 H     1 <1>   0.0800 
 40 H        5.1750     8.4640    -4.0570 H     1 <1>   0.0800 
 41 H        6.7690     7.9460    -4.5840 H     1 <1>   0.0800 
 42 H        6.5940     9.3780    -3.5970 H     1 <1>   0.0800 
 43 H        6.3580     9.5790    -0.8730 H     1 <1>   0.1500 
 44 H       10.2760     6.9170    -0.8140 H     1 <1>   0.1500 
 45 H        9.8680    10.9060     2.0290 H     1 <1>   0.0800 
 46 H        9.2390     9.3230     2.4020 H     1 <1>   0.0800 
 47 H        7.7790    11.6370    -0.7580 H     1 <1>   0.0800 
 48 H        8.7280    12.3590     0.5150 H     1 <1>   0.0800 
 49 H        7.0110    12.0870     0.7500 H     1 <1>   0.0800 
 50 H        7.8880    11.9410     3.0960 H     1 <1>   0.0800 
 51 H        8.6380    10.8240     4.2030 H     1 <1>   0.0800 
 52 H        7.1900    10.3500     3.3510 H     1 <1>   0.0800 
@<TRIPOS>BOND
  1   1   2  1   
  2   1  23  1   
  3   2   3  1   
  4   2  24  1   
  5   2  25  1   
  6   3   4  1   
  7   3  26  1   
  8   3  27  1   
  9   4   5  1   
 10   4   6  1   
 11   4  28  1   
 12   5   7  1   
 13   5  29  1   
 14   5  30  1   
 15   6   8  1   
 16   6  31  1   
 17   6  32  1   
 18   7   9  1   
 19   7  33  1   
 20   7  34  1   
 21   8   9  1   
 22   8  35  1   
 23   8  36  1   
 24   9  10  1   
 25   9  37  1   
 26  10  11  1   
 27  10  38  1   
 28  10  39  1   
 29  11  12  1   
 30  11  13  1   
 31  12  14  ar  
 32  12  15  ar  
 33  13  40  1   
 34  13  41  1   
 35  13  42  1   
 36  14  16  ar  
 37  15  17  ar  
 38  15  43  1   
 39  16  18  ar  
 40  16  44  1   
 41  17  18  ar  
 42  17  19  1   
 43  19  20  1   
 44  19  21  1   
 45  20  22  1   
 46  20  45  1   
 47  20  46  1   
 48  21  47  1   
 49  21  48  1   
 50  21  49  1   
 51  22  50  1   
 52  22  51  1   
 53  22  52  1   
@<TRIPOS>SUBSTRUCTURE
  1 ****   9 GROUP 4 **** **** 0

# MOE 2024.06 (io_trps.svl 2023.06)
