@<TRIPOS>MOLECULE
NONAME
45 47 1 0 0 
SMALL
USER_CHARGES


@<TRIPOS>ATOM
  1 S       -0.2400     0.0560    -0.1610 S.o2  1 <1>   1.3330 
  2 O       -0.6050     1.4370     0.0310 O.2   1 <1>  -0.6500 
  3 O        0.4220    -0.3570    -1.3750 O.2   1 <1>  -0.6500 
  4 N       -1.6830    -0.7880    -0.0620 N.am  1 <1>  -0.9140 
  5 C        0.6670    -0.5140     1.2600 C.3   1 <1>  -0.1350 
  6 C       -1.6540    -2.1170    -0.6630 C.3   1 <1>   0.1960 
  7 C       -3.0090    -2.7920    -0.4490 C.3   1 <1>  -0.0990 
  8 C       -3.0520    -4.2040    -1.0110 C.2   1 <1>   0.5690 
  9 O       -2.0240    -4.6750    -1.4390 O.2   1 <1>  -0.5700 
 10 N       -4.2280    -4.9120    -1.0220 N.am  1 <1>  -0.6600 
 11 C       -5.5240    -4.4560    -0.4440 C.3   1 <1>   0.1400 
 12 C       -4.3090    -6.2630    -1.6510 C.3   1 <1>   0.1400 
 13 C       -5.9810    -5.4580     0.6190 C.3   1 <1>  -0.1600 
 14 C       -4.7570    -7.2840    -0.6050 C.3   1 <1>  -0.1600 
 15 C       -6.0830    -6.8810     0.0500 C.3   1 <1>   0.4610 
 16 O       -7.0500    -6.8950    -0.9850 O.3   1 <1>  -0.5600 
 17 C       -6.4680    -7.8860     1.1390 C.2   1 <1>  -0.1810 
 18 C       -8.4130    -6.9740    -0.6370 C.3   1 <1>   0.1200 
 19 C       -7.6550    -8.5050     1.1160 C.2   1 <1>  -0.1400 
 20 C       -5.6570    -8.2740     2.2580 C.2   1 <1>  -0.1500 
 21 C       -8.7290    -8.2950     0.0830 C.3   1 <1>   0.0200 
 22 S       -7.8400    -9.6150     2.4580 S.3   1 <1>  -0.0800 
 23 C       -6.2430    -9.1880     3.0550 C.2   1 <1>  -0.1100 
 24 H       -2.3260    -0.2070    -0.5990 H     1 <1>   0.4200 
 25 H        1.6070    -0.0030     1.3230 H     1 <1>   0.0800 
 26 H        0.8510    -1.5670     1.1850 H     1 <1>   0.0800 
 27 H        0.1080    -0.3200     2.1540 H     1 <1>   0.0800 
 28 H       -0.8800    -2.7090    -0.2030 H     1 <1>   0.0800 
 29 H       -1.4430    -2.0460    -1.7190 H     1 <1>   0.0800 
 30 H       -3.7680    -2.2090    -0.9340 H     1 <1>   0.0800 
 31 H       -3.2130    -2.8420     0.6040 H     1 <1>   0.0800 
 32 H       -6.2570    -4.4000    -1.2320 H     1 <1>   0.0800 
 33 H       -5.4370    -3.4820     0.0010 H     1 <1>   0.0800 
 34 H       -3.3550    -6.5570    -2.0550 H     1 <1>   0.0800 
 35 H       -5.0160    -6.2320    -2.4620 H     1 <1>   0.0800 
 36 H       -6.9250    -5.1580     1.0320 H     1 <1>   0.0800 
 37 H       -5.2680    -5.4520     1.4230 H     1 <1>   0.0800 
 38 H       -3.9890    -7.3640     0.1410 H     1 <1>   0.0800 
 39 H       -4.8690    -8.2500    -1.0610 H     1 <1>   0.0800 
 40 H       -8.9890    -6.8980    -1.5420 H     1 <1>   0.0800 
 41 H       -8.6530    -6.1380    -0.0050 H     1 <1>   0.0800 
 42 H       -4.6790    -7.8540     2.4130 H     1 <1>   0.1500 
 43 H       -8.7300    -9.1110    -0.6160 H     1 <1>   0.0800 
 44 H       -9.6950    -8.2350     0.5500 H     1 <1>   0.0800 
 45 H       -5.9080    -9.6750     3.9540 H     1 <1>   0.1500 
@<TRIPOS>BOND
  1   1   2  2   
  2   1   3  2   
  3   1   4  am  
  4   1   5  1   
  5   4   6  1   
  6   4  24  1   
  7   5  25  1   
  8   5  26  1   
  9   5  27  1   
 10   6   7  1   
 11   6  28  1   
 12   6  29  1   
 13   7   8  1   
 14   7  30  1   
 15   7  31  1   
 16   8   9  2   
 17   8  10  am  
 18  10  11  1   
 19  10  12  1   
 20  11  13  1   
 21  11  32  1   
 22  11  33  1   
 23  12  14  1   
 24  12  34  1   
 25  12  35  1   
 26  13  15  1   
 27  13  36  1   
 28  13  37  1   
 29  14  15  1   
 30  14  38  1   
 31  14  39  1   
 32  15  16  1   
 33  15  17  1   
 34  16  18  1   
 35  17  19  2   
 36  17  20  1   
 37  18  21  1   
 38  18  40  1   
 39  18  41  1   
 40  19  21  1   
 41  19  22  1   
 42  20  23  2   
 43  20  42  1   
 44  21  43  1   
 45  21  44  1   
 46  22  23  1   
 47  23  45  1   
@<TRIPOS>SUBSTRUCTURE
  1 ****  10 GROUP 4 **** **** 0

# MOE 2024.06 (io_trps.svl 2023.06)
