@<TRIPOS>MOLECULE
NONAME
53 56 1 0 0 
SMALL
USER_CHARGES


@<TRIPOS>ATOM
  1 O       -1.0820     1.3040    -1.5840 O.2   1 <1>  -0.5700 
  2 C       -2.1250     1.4350    -0.9770 C.2   1 <1>   0.5690 
  3 N       -3.2450     0.7220    -1.3500 N.am  1 <1>  -0.6600 
  4 C       -2.1660     2.4450     0.1970 C.3   1 <1>   0.2610 
  5 C       -4.5760     0.8110    -0.6900 C.3   1 <1>   0.1400 
  6 C       -3.1830    -0.3460    -2.3850 C.3   1 <1>   0.1400 
  7 O       -2.6080     1.8710     1.4090 O.3   1 <1>  -0.5600 
  8 C       -0.8390     3.1260     0.5430 C.3   1 <1>  -0.1600 
  9 C       -4.8620    -0.5170     0.0140 C.3   1 <1>  -0.1600 
 10 C       -3.4620    -1.6960    -1.7190 C.3   1 <1>  -0.1600 
 11 C       -1.8860     2.3360     2.5080 C.3   1 <1>   0.1200 
 12 C       -1.0190     3.4790     2.0030 C.3   1 <1>  -0.1600 
 13 C       -4.8010    -1.7020    -0.9660 C.3   1 <1>   0.4240 
 14 O       -5.7820    -1.4990    -1.9580 O.3   1 <1>  -0.5600 
 15 C       -5.0020    -3.0460    -0.2330 C.ar  1 <1>  -0.1430 
 16 C       -7.0840    -1.9020    -1.6690 C.3   1 <1>   0.1200 
 17 C       -6.0920    -3.8630    -0.5040 C.ar  1 <1>  -0.1430 
 18 C       -4.0890    -3.4670     0.7260 C.ar  1 <1>  -0.1500 
 19 C       -7.1110    -3.4210    -1.5360 C.3   1 <1>  -0.0170 
 20 C       -6.2570    -5.0670     0.1610 C.ar  1 <1>  -0.1500 
 21 C       -4.2340    -4.6700     1.3960 C.ar  1 <1>   0.0820 
 22 C       -5.3410    -5.4870     1.1220 C.ar  1 <1>   0.0820 
 23 O       -3.2500    -4.9500     2.2960 O.3   1 <1>  -0.3620 
 24 O       -5.5120    -6.6570     1.8070 O.3   1 <1>  -0.3630 
 25 C       -2.7990    -6.2730     2.4830 C.3   1 <1>   0.0400 
 26 C       -6.6890    -7.4260     1.6980 C.3   1 <1>   0.0400 
 27 H       -2.8800     3.2080    -0.0530 H     1 <1>   0.0800 
 28 H       -4.6130     1.6160     0.0200 H     1 <1>   0.0800 
 29 H       -5.3270     0.9980    -1.4380 H     1 <1>   0.0800 
 30 H       -3.9200    -0.1480    -3.1450 H     1 <1>   0.0800 
 31 H       -2.2160    -0.3690    -2.8580 H     1 <1>   0.0800 
 32 H       -0.0290     2.4250     0.4340 H     1 <1>   0.0800 
 33 H       -0.6510     3.9810    -0.0810 H     1 <1>   0.0800 
 34 H       -5.8200    -0.4810     0.4950 H     1 <1>   0.0800 
 35 H       -4.1270    -0.6470     0.7870 H     1 <1>   0.0800 
 36 H       -2.6540    -1.9030    -1.0430 H     1 <1>   0.0800 
 37 H       -3.4700    -2.4750    -2.4590 H     1 <1>   0.0800 
 38 H       -2.5720     2.6480     3.2770 H     1 <1>   0.0800 
 39 H       -1.2790     1.5210     2.8640 H     1 <1>   0.0800 
 40 H       -1.5530     4.4080     2.1060 H     1 <1>   0.0800 
 41 H       -0.0850     3.5430     2.5340 H     1 <1>   0.0800 
 42 H       -7.4100    -1.4270    -0.7600 H     1 <1>   0.0800 
 43 H       -7.7160    -1.5830    -2.4790 H     1 <1>   0.0800 
 44 H       -3.2370    -2.8600     0.9720 H     1 <1>   0.1500 
 45 H       -8.0970    -3.7330    -1.2450 H     1 <1>   0.0800 
 46 H       -6.8800    -3.8670    -2.4870 H     1 <1>   0.0800 
 47 H       -7.1110    -5.6660    -0.0840 H     1 <1>   0.1500 
 48 H       -1.8100    -6.2340     2.9000 H     1 <1>   0.0800 
 49 H       -2.7810    -6.7760     1.5320 H     1 <1>   0.0800 
 50 H       -3.4620    -6.7720     3.1660 H     1 <1>   0.0800 
 51 H       -6.6130    -8.2510     2.3830 H     1 <1>   0.0800 
 52 H       -6.7740    -7.7940     0.6910 H     1 <1>   0.0800 
 53 H       -7.5330    -6.8110     1.9590 H     1 <1>   0.0800 
@<TRIPOS>BOND
  1   1   2  2   
  2   2   3  am  
  3   2   4  1   
  4   3   5  1   
  5   3   6  1   
  6   4   7  1   
  7   4   8  1   
  8   4  27  1   
  9   5   9  1   
 10   5  28  1   
 11   5  29  1   
 12   6  10  1   
 13   6  30  1   
 14   6  31  1   
 15   7  11  1   
 16   8  12  1   
 17   8  32  1   
 18   8  33  1   
 19   9  13  1   
 20   9  34  1   
 21   9  35  1   
 22  10  13  1   
 23  10  36  1   
 24  10  37  1   
 25  11  12  1   
 26  11  38  1   
 27  11  39  1   
 28  12  40  1   
 29  12  41  1   
 30  13  14  1   
 31  13  15  1   
 32  14  16  1   
 33  15  17  ar  
 34  15  18  ar  
 35  16  19  1   
 36  16  42  1   
 37  16  43  1   
 38  17  19  1   
 39  17  20  ar  
 40  18  21  ar  
 41  18  44  1   
 42  19  45  1   
 43  19  46  1   
 44  20  22  ar  
 45  20  47  1   
 46  21  22  ar  
 47  21  23  1   
 48  22  24  1   
 49  23  25  1   
 50  24  26  1   
 51  25  48  1   
 52  25  49  1   
 53  25  50  1   
 54  26  51  1   
 55  26  52  1   
 56  26  53  1   
@<TRIPOS>SUBSTRUCTURE
  1 ****  13 GROUP 4 **** **** 0

# MOE 2024.06 (io_trps.svl 2023.06)
