@<TRIPOS>MOLECULE
NONAME
52 54 1 0 0 
SMALL
USER_CHARGES


@<TRIPOS>ATOM
  1 O       -2.0430     1.8160    -3.2260 O.2   1 <1>  -0.5700 
  2 C       -2.7520     2.2180    -2.3340 C.2   1 <1>   0.5690 
  3 N       -3.5180     1.3750    -1.5760 N.am  1 <1>  -0.6600 
  4 C       -2.6250     3.6730    -1.9790 C.3   1 <1>  -0.0380 
  5 C       -4.4530     1.7620    -0.4810 C.3   1 <1>   0.1400 
  6 C       -2.9970     0.0340    -1.2340 C.3   1 <1>   0.1400 
  7 C       -1.7920     3.6880    -0.7270 C.2   1 <1>   0.5690 
  8 C       -3.9540     1.0100     0.7580 C.3   1 <1>   0.2000 
  9 C       -2.8000     0.1210     0.2800 C.3   1 <1>  -0.0800 
 10 O       -2.3010     4.0660     0.3010 O.2   1 <1>  -0.5700 
 11 N       -0.5250     3.1840    -0.8030 N.am  1 <1>  -0.5470 
 12 O       -3.4940     1.8940     1.7230 O.3   1 <1>  -0.6800 
 13 C       -2.7540    -1.2380     0.9930 C.3   1 <1>  -0.0170 
 14 C        0.3820     2.8720     0.2200 C.ar  1 <1>   0.1170 
 15 C       -1.5760    -2.0780     0.5290 C.ar  1 <1>   0.1670 
 16 C        1.1770     1.7220     0.1370 C.ar  1 <1>  -0.1440 
 17 C        0.5150     3.7150     1.3170 C.ar  1 <1>  -0.1500 
 18 N       -1.7400    -2.7500    -0.6010 N.ar  1 <1>  -0.6200 
 19 C       -0.4140    -2.1080     1.2860 C.ar  1 <1>  -0.1500 
 20 C        2.1110     1.4590     1.1380 C.ar  1 <1>  -0.1440 
 21 C        1.0270     0.7540    -1.0410 C.3   1 <1>  -0.0970 
 22 C        1.4250     3.4390     2.3150 C.ar  1 <1>  -0.1500 
 23 C       -0.7090    -3.4830    -0.9890 C.ar  1 <1>   0.1600 
 24 C        0.6490    -2.8820     0.8730 C.ar  1 <1>  -0.1500 
 25 C        2.2230     2.3160     2.2220 C.ar  1 <1>  -0.1500 
 26 C        3.0360     0.2500     1.0900 C.3   1 <1>  -0.0970 
 27 C        0.4880    -3.5840    -0.3010 C.ar  1 <1>  -0.1500 
 28 H       -2.1190     4.2070    -2.7600 H     1 <1>   0.0800 
 29 H       -3.5860     4.1220    -1.8180 H     1 <1>   0.0800 
 30 H       -4.4940     2.8220    -0.3100 H     1 <1>   0.0800 
 31 H       -5.4380     1.4140    -0.7370 H     1 <1>   0.0800 
 32 H       -3.7290    -0.7140    -1.4900 H     1 <1>   0.0800 
 33 H       -2.0740    -0.1890    -1.7420 H     1 <1>   0.0800 
 34 H       -4.7550     0.4350     1.1920 H     1 <1>   0.0800 
 35 H       -1.8660     0.6290     0.4500 H     1 <1>   0.0800 
 36 H       -0.2780     2.7810    -1.7100 H     1 <1>   0.3700 
 37 H       -2.9260     2.5970     1.3190 H     1 <1>   0.4000 
 38 H       -3.6650    -1.7820     0.8120 H     1 <1>   0.0800 
 39 H       -2.6800    -1.0730     2.0530 H     1 <1>   0.0800 
 40 H       -0.0960     4.5960     1.3900 H     1 <1>   0.1500 
 41 H       -0.3420    -1.5320     2.1910 H     1 <1>   0.1500 
 42 H        1.1600    -0.2630    -0.7230 H     1 <1>   0.0800 
 43 H        1.7600     0.9800    -1.7940 H     1 <1>   0.0800 
 44 H        0.0510     0.8040    -1.4860 H     1 <1>   0.0800 
 45 H        1.5140     4.0980     3.1610 H     1 <1>   0.1500 
 46 H       -0.8250    -4.0360    -1.9050 H     1 <1>   0.1500 
 47 H        1.5610    -2.9370     1.4420 H     1 <1>   0.1500 
 48 H        2.9340     2.1160     3.0040 H     1 <1>   0.1500 
 49 H        3.8170     0.3320     1.8240 H     1 <1>   0.0800 
 50 H        3.4980     0.1700     0.1230 H     1 <1>   0.0800 
 51 H        2.4760    -0.6450     1.2890 H     1 <1>   0.0800 
 52 H        1.2770    -4.2070    -0.6810 H     1 <1>   0.1500 
@<TRIPOS>BOND
  1   1   2  2   
  2   2   3  am  
  3   2   4  1   
  4   3   5  1   
  5   3   6  1   
  6   4   7  1   
  7   4  28  1   
  8   4  29  1   
  9   5   8  1   
 10   5  30  1   
 11   5  31  1   
 12   6   9  1   
 13   6  32  1   
 14   6  33  1   
 15   7  10  2   
 16   7  11  am  
 17   8   9  1   
 18   8  12  1   
 19   8  34  1   
 20   9  13  1   
 21   9  35  1   
 22  11  14  1   
 23  11  36  1   
 24  12  37  1   
 25  13  15  1   
 26  13  38  1   
 27  13  39  1   
 28  14  16  ar  
 29  14  17  ar  
 30  15  18  ar  
 31  15  19  ar  
 32  16  20  ar  
 33  16  21  1   
 34  17  22  ar  
 35  17  40  1   
 36  18  23  ar  
 37  19  24  ar  
 38  19  41  1   
 39  20  25  ar  
 40  20  26  1   
 41  21  42  1   
 42  21  43  1   
 43  21  44  1   
 44  22  25  ar  
 45  22  45  1   
 46  23  27  ar  
 47  23  46  1   
 48  24  27  ar  
 49  24  47  1   
 50  25  48  1   
 51  26  49  1   
 52  26  50  1   
 53  26  51  1   
 54  27  52  1   
@<TRIPOS>SUBSTRUCTURE
  1 ****   9 GROUP 4 **** **** 0

# MOE 2024.06 (io_trps.svl 2023.06)
