@<TRIPOS>MOLECULE
NONAME
53 56 1 0 0 
SMALL
USER_CHARGES


@<TRIPOS>ATOM
  1 O        2.3760    -0.1180    -1.9380 O.2   1 <1>  -0.5700 
  2 C        2.5350     0.3950    -0.8450 C.2   1 <1>   0.5440 
  3 N        2.7020     1.7510    -0.7650 N.am  1 <1>  -0.7300 
  4 C        2.5890    -0.4100     0.3460 C.ar  1 <1>   0.0860 
  5 C        2.6980     2.6930    -1.9130 C.3   1 <1>   0.0600 
  6 C        1.4450    -1.0490     0.8620 C.ar  1 <1>   0.4100 
  7 C        3.7860    -0.5780     1.0270 C.ar  1 <1>  -0.1500 
  8 N        1.4480    -1.8230     1.9490 N.ar  1 <1>  -0.6200 
  9 N        0.2080    -0.9300     0.2590 N.pl3 1 <1>  -0.8380 
 10 C        3.7880    -1.3650     2.1550 C.ar  1 <1>  -0.1500 
 11 C        2.6070    -1.9580     2.5660 C.ar  1 <1>   0.1600 
 12 C       -0.0320    -1.7680    -0.9500 C.3   1 <1>   0.2090 
 13 C       -0.9970    -0.7240     1.1130 C.3   1 <1>   0.2090 
 14 C       -0.7120    -3.0970    -0.5650 C.3   1 <1>   0.3430 
 15 C       -1.6580    -2.0730     1.4650 C.3   1 <1>   0.3430 
 16 N       -1.9820    -2.9130     0.2440 N.4   1 <1>  -0.9590 
 17 C       -2.6330    -4.2170     0.6120 C.3   1 <1>   0.4230 
 18 C       -2.7950    -5.1390    -0.6110 C.3   1 <1>  -0.0170 
 19 C       -4.0120    -3.9580     1.2380 C.3   1 <1>  -0.1600 
 20 C       -3.6800    -6.3440    -0.3380 C.ar  1 <1>  -0.1430 
 21 C       -4.6070    -5.2650     1.7740 C.3   1 <1>  -0.0170 
 22 C       -4.5270    -6.3970     0.7630 C.ar  1 <1>  -0.1430 
 23 C       -3.6420    -7.4100    -1.2240 C.ar  1 <1>  -0.1500 
 24 C       -5.3210    -7.5160     0.9620 C.ar  1 <1>  -0.1500 
 25 C       -4.4370    -8.5230    -1.0190 C.ar  1 <1>  -0.1500 
 26 C       -5.2780    -8.5760     0.0760 C.ar  1 <1>  -0.1500 
 27 H        2.8020     2.1790     0.1580 H     1 <1>   0.3700 
 28 H        2.6020     2.1570    -2.8420 H     1 <1>   0.0800 
 29 H        3.6180     3.2510    -1.9300 H     1 <1>   0.0800 
 30 H        1.8700     3.3750    -1.8210 H     1 <1>   0.0800 
 31 H        4.6870    -0.1070     0.6710 H     1 <1>   0.1500 
 32 H        4.6940    -1.5240     2.7130 H     1 <1>   0.1500 
 33 H        2.6260    -2.5750     3.4500 H     1 <1>   0.1500 
 34 H        0.9020    -1.9950    -1.4330 H     1 <1>   0.0800 
 35 H       -0.6370    -1.2220    -1.6530 H     1 <1>   0.0800 
 36 H       -1.6970    -0.0900     0.5970 H     1 <1>   0.0800 
 37 H       -0.7110    -0.2210     2.0220 H     1 <1>   0.0800 
 38 H       -0.0040    -3.6730     0.0080 H     1 <1>   0.0800 
 39 H       -0.9240    -3.6390    -1.4710 H     1 <1>   0.0800 
 40 H       -2.5510    -1.8700     2.0290 H     1 <1>   0.0800 
 41 H       -0.9800    -2.6150     2.1040 H     1 <1>   0.0800 
 42 H       -2.6420    -2.3810    -0.3350 H     1 <1>   0.4500 
 43 H       -2.0190    -4.7270     1.3380 H     1 <1>   0.0800 
 44 H       -1.8320    -5.5070    -0.9150 H     1 <1>   0.0800 
 45 H       -3.2340    -4.5910    -1.4260 H     1 <1>   0.0800 
 46 H       -4.6790    -3.5570     0.4940 H     1 <1>   0.0800 
 47 H       -3.9600    -3.2720     2.0610 H     1 <1>   0.0800 
 48 H       -5.6350    -5.1000     2.0480 H     1 <1>   0.0800 
 49 H       -4.0770    -5.5670     2.6610 H     1 <1>   0.0800 
 50 H       -2.9960    -7.3860    -2.0850 H     1 <1>   0.1500 
 51 H       -5.9800    -7.5720     1.8120 H     1 <1>   0.1500 
 52 H       -4.4040    -9.3480    -1.7110 H     1 <1>   0.1500 
 53 H       -5.8980    -9.4410     0.2380 H     1 <1>   0.1500 
@<TRIPOS>BOND
  1   1   2  2   
  2   2   3  am  
  3   2   4  1   
  4   3   5  1   
  5   3  27  1   
  6   4   6  ar  
  7   4   7  ar  
  8   5  28  1   
  9   5  29  1   
 10   5  30  1   
 11   6   8  ar  
 12   6   9  1   
 13   7  10  ar  
 14   7  31  1   
 15   8  11  ar  
 16   9  12  1   
 17   9  13  1   
 18  10  11  ar  
 19  10  32  1   
 20  11  33  1   
 21  12  14  1   
 22  12  34  1   
 23  12  35  1   
 24  13  15  1   
 25  13  36  1   
 26  13  37  1   
 27  14  16  1   
 28  14  38  1   
 29  14  39  1   
 30  15  16  1   
 31  15  40  1   
 32  15  41  1   
 33  16  17  1   
 34  16  42  1   
 35  17  18  1   
 36  17  19  1   
 37  17  43  1   
 38  18  20  1   
 39  18  44  1   
 40  18  45  1   
 41  19  21  1   
 42  19  46  1   
 43  19  47  1   
 44  20  22  ar  
 45  20  23  ar  
 46  21  22  1   
 47  21  48  1   
 48  21  49  1   
 49  22  24  ar  
 50  23  25  ar  
 51  23  50  1   
 52  24  26  ar  
 53  24  51  1   
 54  25  26  ar  
 55  25  52  1   
 56  26  53  1   
@<TRIPOS>SUBSTRUCTURE
  1 ****  14 GROUP 4 **** **** 0

# MOE 2024.06 (io_trps.svl 2023.06)
