@<TRIPOS>MOLECULE
NONAME
57 59 1 0 0 
SMALL
USER_CHARGES


@<TRIPOS>ATOM
  1 O        0.5840    -2.2870    -0.7720 O.3   1 <1>  -0.5600 
  2 C        0.1040    -2.5450     0.5130 C.3   1 <1>   0.1200 
  3 C        0.0550    -3.0950    -1.7800 C.3   1 <1>   0.1200 
  4 C       -1.4250    -2.3610     0.5530 C.3   1 <1>   0.3430 
  5 C       -1.4760    -2.9330    -1.8370 C.3   1 <1>   0.3430 
  6 N       -2.1200    -3.2030    -0.4960 N.4   1 <1>  -0.9590 
  7 C       -3.5920    -2.9050    -0.5380 C.3   1 <1>   0.3430 
  8 C       -4.5010    -3.8980     0.2420 C.3   1 <1>   0.0000 
  9 C       -4.5270    -5.2450    -0.5470 C.3   1 <1>   0.3430 
 10 C       -3.9780    -4.0830     1.6850 C.3   1 <1>  -0.2400 
 11 C       -5.8870    -3.2250     0.3170 C.3   1 <1>  -0.2400 
 12 N       -5.6260    -6.2400    -0.2920 N.4   1 <1>  -0.9590 
 13 C       -6.9100    -5.9890    -1.0320 C.3   1 <1>   0.3430 
 14 C       -6.0190    -6.5990     1.1040 C.3   1 <1>   0.3430 
 15 C       -8.0440    -6.5540    -0.1610 C.3   1 <1>   0.2000 
 16 C       -7.3630    -7.3230     0.9770 C.3   1 <1>  -0.0800 
 17 O       -8.7020    -5.4720     0.4050 O.3   1 <1>  -0.6800 
 18 C       -7.2340    -8.8470     0.7190 C.3   1 <1>   0.0200 
 19 C       -6.1010    -9.2190    -0.2210 C.2   1 <1>  -0.0400 
 20 O       -6.1090    -8.7940    -1.4540 O.3   1 <1>  -0.0190 
 21 C       -4.9760    -9.9260    -0.0370 C.2   1 <1>  -0.1500 
 22 N       -5.0190    -9.1090    -2.0810 N.2   1 <1>  -0.4100 
 23 C       -4.3310    -9.8270    -1.2660 C.2   1 <1>   0.1080 
 24 C       -3.0030   -10.4710    -1.6040 C.3   1 <1>  -0.0590 
 25 H        0.3910    -3.5420     0.7990 H     1 <1>   0.0800 
 26 H        0.5790    -1.8480     1.1830 H     1 <1>   0.0800 
 27 H        0.4970    -2.7830    -2.7120 H     1 <1>   0.0800 
 28 H        0.3390    -4.1160    -1.5930 H     1 <1>   0.0800 
 29 H       -1.6400    -1.3180     0.3860 H     1 <1>   0.0800 
 30 H       -1.7820    -2.6170     1.5360 H     1 <1>   0.0800 
 31 H       -1.8730    -3.6020    -2.5820 H     1 <1>   0.0800 
 32 H       -1.6930    -1.9240    -2.1500 H     1 <1>   0.0800 
 33 H       -1.9380    -4.1830    -0.2570 H     1 <1>   0.4500 
 34 H       -3.7540    -1.9130    -0.1460 H     1 <1>   0.0800 
 35 H       -3.9230    -2.8860    -1.5640 H     1 <1>   0.0800 
 36 H       -3.5890    -5.7420    -0.3670 H     1 <1>   0.0800 
 37 H       -4.5510    -5.0100    -1.5990 H     1 <1>   0.0800 
 38 H       -3.8230    -3.1260     2.1530 H     1 <1>   0.0800 
 39 H       -3.0520    -4.6290     1.7070 H     1 <1>   0.0800 
 40 H       -4.6810    -4.6090     2.3030 H     1 <1>   0.0800 
 41 H       -5.8210    -2.2710     0.8120 H     1 <1>   0.0800 
 42 H       -6.5890    -3.8170     0.8750 H     1 <1>   0.0800 
 43 H       -6.2950    -3.0560    -0.6650 H     1 <1>   0.0800 
 44 H       -5.3000    -7.1380    -0.7040 H     1 <1>   0.4500 
 45 H       -7.0780    -4.9390    -1.1960 H     1 <1>   0.0800 
 46 H       -6.8880    -6.4960    -1.9830 H     1 <1>   0.0800 
 47 H       -5.2760    -7.2130     1.5870 H     1 <1>   0.0800 
 48 H       -6.1810    -5.7040     1.6790 H     1 <1>   0.0800 
 49 H       -8.7550    -7.1300    -0.7300 H     1 <1>   0.0800 
 50 H       -7.9240    -7.2060     1.8890 H     1 <1>   0.0800 
 51 H       -9.5710    -5.7350     0.7780 H     1 <1>   0.4000 
 52 H       -8.1600    -9.2390     0.3350 H     1 <1>   0.0800 
 53 H       -7.0520    -9.3380     1.6600 H     1 <1>   0.0800 
 54 H       -4.6160   -10.4510     0.8310 H     1 <1>   0.1500 
 55 H       -2.2410   -10.1350    -0.9250 H     1 <1>   0.0800 
 56 H       -2.7130   -10.2190    -2.6080 H     1 <1>   0.0800 
 57 H       -3.0900   -11.5400    -1.5320 H     1 <1>   0.0800 
@<TRIPOS>BOND
  1   1   2  1   
  2   1   3  1   
  3   2   4  1   
  4   2  25  1   
  5   2  26  1   
  6   3   5  1   
  7   3  27  1   
  8   3  28  1   
  9   4   6  1   
 10   4  29  1   
 11   4  30  1   
 12   5   6  1   
 13   5  31  1   
 14   5  32  1   
 15   6   7  1   
 16   6  33  1   
 17   7   8  1   
 18   7  34  1   
 19   7  35  1   
 20   8   9  1   
 21   8  10  1   
 22   8  11  1   
 23   9  12  1   
 24   9  36  1   
 25   9  37  1   
 26  10  38  1   
 27  10  39  1   
 28  10  40  1   
 29  11  41  1   
 30  11  42  1   
 31  11  43  1   
 32  12  13  1   
 33  12  14  1   
 34  12  44  1   
 35  13  15  1   
 36  13  45  1   
 37  13  46  1   
 38  14  16  1   
 39  14  47  1   
 40  14  48  1   
 41  15  16  1   
 42  15  17  1   
 43  15  49  1   
 44  16  18  1   
 45  16  50  1   
 46  17  51  1   
 47  18  19  1   
 48  18  52  1   
 49  18  53  1   
 50  19  20  1   
 51  19  21  2   
 52  20  22  1   
 53  21  23  1   
 54  21  54  1   
 55  22  23  2   
 56  23  24  1   
 57  24  55  1   
 58  24  56  1   
 59  24  57  1   
@<TRIPOS>SUBSTRUCTURE
  1 ****   9 GROUP 4 **** **** 0

# MOE 2024.06 (io_trps.svl 2023.06)
