@<TRIPOS>MOLECULE
NONAME
52 56 1 0 0 
SMALL
USER_CHARGES


@<TRIPOS>ATOM
  1 O        0.0290     0.5780     0.3820 O.2   1 <1>  -0.5700 
  2 C       -0.4630     1.5810    -0.0830 C.2   1 <1>   0.5690 
  3 N       -1.8090     1.6700    -0.3380 N.am  1 <1>  -0.6600 
  4 C        0.4520     2.7590    -0.3780 C.3   1 <1>  -0.0990 
  5 C       -2.5140     2.8670    -0.9020 C.3   1 <1>   0.1400 
  6 C       -2.7260     0.5290    -0.0640 C.3   1 <1>   0.1400 
  7 C        1.9270     2.4990    -0.0260 C.3   1 <1>   0.0200 
  8 C       -3.5950     3.3750     0.0730 C.3   1 <1>   0.1440 
  9 C       -3.8110     0.9640     0.9270 C.3   1 <1>  -0.1600 
 10 C        2.8170     3.7000    -0.3080 C.2   1 <1>   0.0060 
 11 C       -4.3890     4.5150    -0.5410 C.ar  1 <1>   0.1660 
 12 C       -4.5560     2.2250     0.4500 C.3   1 <1>  -0.1600 
 13 C       -2.9770     4.0440     1.3320 C.3   1 <1>  -0.1600 
 14 N        2.4030     4.8600    -0.6890 N.2   1 <1>  -0.5650 
 15 N        4.1650     3.6240    -0.1650 N.pl3 1 <1>   0.0330 
 16 N       -4.9150     4.5160    -1.7430 N.ar  1 <1>  -0.6200 
 17 C       -4.5090     5.5650     0.3220 C.ar  1 <1>  -0.1440 
 18 C       -3.8160     5.2980     1.6340 C.3   1 <1>  -0.0170 
 19 C        3.5370     5.6050    -0.8110 C.ar  1 <1>   0.2270 
 20 C        4.6480     4.8490    -0.4880 C.ar  1 <1>  -0.1520 
 21 C       -5.5660     5.6290    -2.0460 C.ar  1 <1>   0.7200 
 22 C       -5.2140     6.6660    -0.1020 C.ar  1 <1>   0.1600 
 23 C        3.6900     6.9360    -1.1960 C.ar  1 <1>  -0.1500 
 24 C        5.9340     5.3920    -0.5360 C.ar  1 <1>  -0.1500 
 25 N       -5.7590     6.7070    -1.2980 N.ar  1 <1>  -0.6200 
 26 N       -6.1270     5.6600    -3.2550 N.pl3 1 <1>  -0.9000 
 27 C        4.9550     7.4810    -1.2470 C.ar  1 <1>  -0.1500 
 28 C        6.0760     6.7080    -0.9170 C.ar  1 <1>  -0.1500 
 29 H        0.1120     3.6070     0.1840 H     1 <1>   0.0800 
 30 H        0.3850     2.9940    -1.4240 H     1 <1>   0.0800 
 31 H       -2.9840     2.5800    -1.8280 H     1 <1>   0.0800 
 32 H       -1.8290     3.6640    -1.1270 H     1 <1>   0.0800 
 33 H       -2.1860    -0.3110     0.3390 H     1 <1>   0.0800 
 34 H       -3.1800     0.2160    -0.9890 H     1 <1>   0.0800 
 35 H        2.2800     1.6580    -0.5970 H     1 <1>   0.0800 
 36 H        2.0020     2.2500     1.0180 H     1 <1>   0.0800 
 37 H       -3.3510     1.1380     1.8840 H     1 <1>   0.0800 
 38 H       -4.5130     0.1590     1.0520 H     1 <1>   0.0800 
 39 H       -5.1350     1.9670    -0.4210 H     1 <1>   0.0800 
 40 H       -5.2450     2.5520     1.2080 H     1 <1>   0.0800 
 41 H       -1.9750     4.3650     1.1090 H     1 <1>   0.0800 
 42 H       -2.9330     3.3840     2.1790 H     1 <1>   0.0800 
 43 H        4.7120     2.8120     0.1260 H     1 <1>   0.2700 
 44 H       -3.1980     6.1250     1.9360 H     1 <1>   0.0800 
 45 H       -4.5490     5.0900     2.3940 H     1 <1>   0.0800 
 46 H       -5.3360     7.5180     0.5450 H     1 <1>   0.1500 
 47 H        2.8130     7.5030    -1.4430 H     1 <1>   0.1500 
 48 H        6.7890     4.7900    -0.2810 H     1 <1>   0.1500 
 49 H       -6.8650     6.3500    -3.3700 H     1 <1>   0.4000 
 50 H       -6.2710     4.7540    -3.6900 H     1 <1>   0.4000 
 51 H        5.0920     8.5070    -1.5410 H     1 <1>   0.1500 
 52 H        7.0530     7.1570    -0.9640 H     1 <1>   0.1500 
@<TRIPOS>BOND
  1   1   2  2   
  2   2   3  am  
  3   2   4  1   
  4   3   5  1   
  5   3   6  1   
  6   4   7  1   
  7   4  29  1   
  8   4  30  1   
  9   5   8  1   
 10   5  31  1   
 11   5  32  1   
 12   6   9  1   
 13   6  33  1   
 14   6  34  1   
 15   7  10  1   
 16   7  35  1   
 17   7  36  1   
 18   8  11  1   
 19   8  12  1   
 20   8  13  1   
 21   9  12  1   
 22   9  37  1   
 23   9  38  1   
 24  10  14  2   
 25  10  15  1   
 26  11  16  ar  
 27  11  17  ar  
 28  12  39  1   
 29  12  40  1   
 30  13  18  1   
 31  13  41  1   
 32  13  42  1   
 33  14  19  1   
 34  15  20  1   
 35  15  43  1   
 36  16  21  ar  
 37  17  18  1   
 38  17  22  ar  
 39  18  44  1   
 40  18  45  1   
 41  19  20  ar  
 42  19  23  ar  
 43  20  24  ar  
 44  21  25  ar  
 45  21  26  1   
 46  22  25  ar  
 47  22  46  1   
 48  23  27  ar  
 49  23  47  1   
 50  24  28  ar  
 51  24  48  1   
 52  26  49  1   
 53  26  50  1   
 54  27  28  ar  
 55  27  51  1   
 56  28  52  1   
@<TRIPOS>SUBSTRUCTURE
  1 ****   4 GROUP 4 **** **** 0

# MOE 2024.06 (io_trps.svl 2023.06)
