@<TRIPOS>MOLECULE
NONAME
51 54 1 0 0 
SMALL
USER_CHARGES


@<TRIPOS>ATOM
  1 O       -0.5280     0.3300    -0.0350 O.2   1 <1>  -0.5700 
  2 C       -1.4720     0.9810     0.3880 C.2   1 <1>   0.7160 
  3 N       -2.6630     0.2940     0.5710 N.am  1 <1>  -0.6600 
  4 C       -1.2990     2.4130     0.6590 C.2   1 <1>   0.2030 
  5 C       -2.7110    -1.1960     0.7140 C.3   1 <1>   0.1400 
  6 C       -4.0150     0.9320     0.5660 C.3   1 <1>   0.1400 
  7 N       -2.1490     3.2200     1.2870 N.2   1 <1>  -0.7070 
  8 C       -0.1610     3.1500     0.2870 C.2   1 <1>  -0.1810 
  9 C       -3.7420    -1.8140    -0.2430 C.3   1 <1>   0.3440 
 10 C       -5.0070     0.1740    -0.3470 C.3   1 <1>   0.2000 
 11 N       -1.5680     4.4300     1.3080 N.pl3 1 <1>   0.3000 
 12 C       -0.3730     4.4080     0.6970 C.2   1 <1>  -0.3320 
 13 C        1.1170     2.7330    -0.4310 C.3   1 <1>   0.3010 
 14 O       -4.9870    -1.1970    -0.0530 O.3   1 <1>  -0.5600 
 15 C       -3.8690    -3.3160    -0.0040 C.ar  1 <1>  -0.1430 
 16 C       -6.4650     0.6730    -0.2070 C.3   1 <1>  -0.0800 
 17 C        0.6280     5.5210     0.4710 C.3   1 <1>   0.0200 
 18 O        2.0880     3.7490    -0.3130 O.3   1 <1>  -0.5600 
 19 C       -4.7640    -3.8300     0.9250 C.ar  1 <1>  -0.1500 
 20 C       -3.0640    -4.1920    -0.7180 C.ar  1 <1>  -0.1500 
 21 C       -7.4230    -0.1190    -1.1130 C.3   1 <1>  -0.2400 
 22 C       -6.6020     2.1700    -0.5350 C.3   1 <1>  -0.2400 
 23 C        1.6440     5.0520    -0.5900 C.3   1 <1>   0.1200 
 24 C       -4.8530    -5.1950     1.1360 C.ar  1 <1>  -0.1500 
 25 C       -3.1520    -5.5580    -0.5090 C.ar  1 <1>  -0.1500 
 26 C       -4.0460    -6.0610     0.4190 C.ar  1 <1>  -0.1500 
 27 H       -1.7480    -1.6340     0.5190 H     1 <1>   0.0800 
 28 H       -2.9820    -1.4450     1.7240 H     1 <1>   0.0800 
 29 H       -4.3960     0.9620     1.5720 H     1 <1>   0.0800 
 30 H       -3.9420     1.9410     0.2070 H     1 <1>   0.0800 
 31 H       -3.4390    -1.6430    -1.2610 H     1 <1>   0.0800 
 32 H       -4.7000     0.2940    -1.3720 H     1 <1>   0.0800 
 33 H       -2.0060     5.2480     1.7480 H     1 <1>   0.2700 
 34 H        0.9270     2.5590    -1.4750 H     1 <1>   0.0800 
 35 H        1.5270     1.8420     0.0080 H     1 <1>   0.0800 
 36 H       -6.7700     0.5270     0.8160 H     1 <1>   0.0800 
 37 H        1.1440     5.7420     1.3890 H     1 <1>   0.0800 
 38 H        0.1370     6.4130     0.1270 H     1 <1>   0.0800 
 39 H       -5.3980    -3.1650     1.4860 H     1 <1>   0.1500 
 40 H       -2.3630    -3.8160    -1.4430 H     1 <1>   0.1500 
 41 H       -7.1400    -0.0170    -2.1460 H     1 <1>   0.0800 
 42 H       -8.4320     0.2340    -0.9960 H     1 <1>   0.0800 
 43 H       -7.4060    -1.1640    -0.8570 H     1 <1>   0.0800 
 44 H       -6.2450     2.3750    -1.5290 H     1 <1>   0.0800 
 45 H       -6.0500     2.7730     0.1630 H     1 <1>   0.0800 
 46 H       -7.6340     2.4700    -0.4770 H     1 <1>   0.0800 
 47 H        2.5030     5.6990    -0.5990 H     1 <1>   0.0800 
 48 H        1.1960     5.0520    -1.5690 H     1 <1>   0.0800 
 49 H       -5.5520    -5.5830     1.8570 H     1 <1>   0.1500 
 50 H       -2.5240    -6.2300    -1.0680 H     1 <1>   0.1500 
 51 H       -4.1150    -7.1220     0.5820 H     1 <1>   0.1500 
@<TRIPOS>BOND
  1   1   2  2   
  2   2   3  am  
  3   2   4  1   
  4   3   5  1   
  5   3   6  1   
  6   4   7  2   
  7   4   8  1   
  8   5   9  1   
  9   5  27  1   
 10   5  28  1   
 11   6  10  1   
 12   6  29  1   
 13   6  30  1   
 14   7  11  1   
 15   8  12  2   
 16   8  13  1   
 17   9  14  1   
 18   9  15  1   
 19   9  31  1   
 20  10  14  1   
 21  10  16  1   
 22  10  32  1   
 23  11  12  1   
 24  11  33  1   
 25  12  17  1   
 26  13  18  1   
 27  13  34  1   
 28  13  35  1   
 29  15  19  ar  
 30  15  20  ar  
 31  16  21  1   
 32  16  22  1   
 33  16  36  1   
 34  17  23  1   
 35  17  37  1   
 36  17  38  1   
 37  18  23  1   
 38  19  24  ar  
 39  19  39  1   
 40  20  25  ar  
 41  20  40  1   
 42  21  41  1   
 43  21  42  1   
 44  21  43  1   
 45  22  44  1   
 46  22  45  1   
 47  22  46  1   
 48  23  47  1   
 49  23  48  1   
 50  24  26  ar  
 51  24  49  1   
 52  25  26  ar  
 53  25  50  1   
 54  26  51  1   
@<TRIPOS>SUBSTRUCTURE
  1 ****   3 GROUP 4 **** **** 0

# MOE 2024.06 (io_trps.svl 2023.06)
