@<TRIPOS>MOLECULE
NONAME
52 54 1 0 0 
SMALL
USER_CHARGES


@<TRIPOS>ATOM
  1 O       -0.0770    -1.1330    -1.5370 O.2   1 <1>  -0.5700 
  2 C       -0.2970    -1.8660    -0.5930 C.2   1 <1>   0.5440 
  3 N        0.6190    -1.9120     0.4240 N.am  1 <1>  -0.7300 
  4 C       -1.5080    -2.6550    -0.5430 C.ar  1 <1>   0.0860 
  5 C        1.8920    -1.1680     0.4520 C.3   1 <1>   0.1400 
  6 C       -2.6240    -2.2850    -1.2940 C.ar  1 <1>   0.1600 
  7 C       -1.6370    -3.8040     0.2360 C.ar  1 <1>  -0.1500 
  8 C        2.9470    -2.0340     1.1300 C.3   1 <1>  -0.2400 
  9 N       -3.7890    -2.9120    -1.3250 N.ar  1 <1>  -0.6200 
 10 C       -2.8400    -4.4690     0.2170 C.ar  1 <1>  -0.1500 
 11 C       -3.8810    -3.9920    -0.5740 C.ar  1 <1>   0.4100 
 12 N       -5.0970    -4.5940    -0.6410 N.pl3 1 <1>  -0.8690 
 13 C       -5.2620    -6.0260    -0.9420 C.3   1 <1>   0.2090 
 14 C       -6.2930    -6.6380     0.0180 C.3   1 <1>  -0.0800 
 15 C       -6.3540    -8.1650    -0.1850 C.3   1 <1>   0.3430 
 16 C       -7.6870    -5.9880    -0.1200 C.3   1 <1>  -0.1600 
 17 N       -7.7070    -8.7350     0.1130 N.4   1 <1>  -0.9590 
 18 C       -8.6890    -6.6100     0.8720 C.3   1 <1>  -0.1600 
 19 C       -8.3680    -8.0570     1.2620 C.3   1 <1>   0.3430 
 20 C       -7.6800   -10.2150     0.2800 C.3   1 <1>   0.5230 
 21 C       -9.0180   -10.7880    -0.1480 C.2   1 <1>  -0.0400 
 22 O      -10.1130   -10.4200     0.4910 O.3   1 <1>  -0.2800 
 23 C       -9.3200   -11.6650    -1.1320 C.2   1 <1>  -0.1500 
 24 C      -11.1310   -11.0500    -0.0620 C.2   1 <1>  -0.0100 
 25 C      -10.7090   -11.8360    -1.0740 C.2   1 <1>  -0.1500 
 26 H        0.3860    -2.4040     1.2860 H     1 <1>   0.3700 
 27 H        1.7560    -0.2480     0.9960 H     1 <1>   0.0800 
 28 H        2.2020    -0.9290    -0.5530 H     1 <1>   0.0800 
 29 H       -2.5380    -1.4040    -1.9090 H     1 <1>   0.1500 
 30 H       -0.8190    -4.1630     0.8330 H     1 <1>   0.1500 
 31 H        2.6620    -2.2540     2.1430 H     1 <1>   0.0800 
 32 H        3.8850    -1.5090     1.1470 H     1 <1>   0.0800 
 33 H        3.0820    -2.9500     0.5830 H     1 <1>   0.0800 
 34 H       -2.9920    -5.3490     0.8100 H     1 <1>   0.1500 
 35 H       -5.7360    -3.9920    -1.1710 H     1 <1>   0.4000 
 36 H       -4.3130    -6.5270    -0.8400 H     1 <1>   0.0800 
 37 H       -5.5880    -6.1320    -1.9640 H     1 <1>   0.0800 
 38 H       -5.9340    -6.4580     1.0180 H     1 <1>   0.0800 
 39 H       -5.6130    -8.6230     0.4510 H     1 <1>   0.0800 
 40 H       -6.0990    -8.3960    -1.2070 H     1 <1>   0.0800 
 41 H       -8.0460    -6.1250    -1.1260 H     1 <1>   0.0800 
 42 H       -7.6310    -4.9270     0.0600 H     1 <1>   0.0800 
 43 H       -8.3220    -8.5600    -0.6930 H     1 <1>   0.4500 
 44 H       -9.6800    -6.5640     0.4530 H     1 <1>   0.0800 
 45 H       -8.7080    -6.0240     1.7750 H     1 <1>   0.0800 
 46 H       -7.7050    -8.0630     2.1130 H     1 <1>   0.0800 
 47 H       -9.2780    -8.5630     1.5410 H     1 <1>   0.0800 
 48 H       -7.4780   -10.4750     1.3060 H     1 <1>   0.0800 
 49 H       -6.9100   -10.6430    -0.3410 H     1 <1>   0.0800 
 50 H       -8.6740   -12.1600    -1.8370 H     1 <1>   0.1500 
 51 H      -12.1240   -10.8860     0.3240 H     1 <1>   0.1500 
 52 H      -11.2910   -12.4740    -1.7180 H     1 <1>   0.1500 
@<TRIPOS>BOND
  1   1   2  2   
  2   2   3  am  
  3   2   4  1   
  4   3   5  1   
  5   3  26  1   
  6   4   6  ar  
  7   4   7  ar  
  8   5   8  1   
  9   5  27  1   
 10   5  28  1   
 11   6   9  ar  
 12   6  29  1   
 13   7  10  ar  
 14   7  30  1   
 15   8  31  1   
 16   8  32  1   
 17   8  33  1   
 18   9  11  ar  
 19  10  11  ar  
 20  10  34  1   
 21  11  12  1   
 22  12  13  1   
 23  12  35  1   
 24  13  14  1   
 25  13  36  1   
 26  13  37  1   
 27  14  15  1   
 28  14  16  1   
 29  14  38  1   
 30  15  17  1   
 31  15  39  1   
 32  15  40  1   
 33  16  18  1   
 34  16  41  1   
 35  16  42  1   
 36  17  19  1   
 37  17  20  1   
 38  17  43  1   
 39  18  19  1   
 40  18  44  1   
 41  18  45  1   
 42  19  46  1   
 43  19  47  1   
 44  20  21  1   
 45  20  48  1   
 46  20  49  1   
 47  21  22  1   
 48  21  23  2   
 49  22  24  1   
 50  23  25  1   
 51  23  50  1   
 52  24  25  2   
 53  24  51  1   
 54  25  52  1   
@<TRIPOS>SUBSTRUCTURE
  1 ****  13 GROUP 4 **** **** 0

# MOE 2024.06 (io_trps.svl 2023.06)
