@<TRIPOS>MOLECULE
NONAME
43 44 1 0 0 
SMALL
USER_CHARGES


@<TRIPOS>ATOM
  1 O       -0.4600     0.5860     0.3000 O.2   1 <1>  -0.5700 
  2 C       -0.2040     1.7620     0.1750 C.2   1 <1>   0.5690 
  3 N       -1.1630     2.7270     0.3530 N.am  1 <1>  -0.6600 
  4 C        1.2140     2.1480    -0.2080 C.3   1 <1>  -0.0990 
  5 C       -2.5410     2.3680     0.8070 C.3   1 <1>   0.1400 
  6 C       -0.9870     4.1870     0.1060 C.3   1 <1>   0.1400 
  7 C        2.2110     1.0070     0.0050 C.3   1 <1>   0.1400 
  8 C       -3.6020     2.7900    -0.2400 C.3   1 <1>   0.0000 
  9 C       -2.0110     4.6650    -0.9300 C.3   1 <1>  -0.1600 
 10 N        3.5600     1.4310    -0.4370 N.am  1 <1>  -0.7300 
 11 C       -5.0360     2.4430     0.2140 C.3   1 <1>   0.2000 
 12 C       -3.4520     4.2990    -0.5310 C.3   1 <1>  -0.1600 
 13 C       -3.4660     1.9370    -1.5140 C.3   1 <1>  -0.1600 
 14 C        4.4040     2.1960     0.2960 C.2   1 <1>   0.5690 
 15 O       -5.2250     2.5940     1.5770 O.3   1 <1>  -0.6800 
 16 C       -5.2930     0.9890    -0.1930 C.3   1 <1>  -0.1600 
 17 C       -4.1980     0.6300    -1.2060 C.3   1 <1>  -0.1600 
 18 O        4.0960     2.6600     1.3650 O.2   1 <1>  -0.5700 
 19 C        5.7730     2.4770    -0.2620 C.3   1 <1>  -0.1790 
 20 H        1.2170     2.4430    -1.2400 H     1 <1>   0.0800 
 21 H        1.5250     2.9740     0.4030 H     1 <1>   0.0800 
 22 H       -2.6130     1.3130     1.0000 H     1 <1>   0.0800 
 23 H       -2.7240     2.8810     1.7350 H     1 <1>   0.0800 
 24 H       -1.1360     4.7150     1.0330 H     1 <1>   0.0800 
 25 H        0.0010     4.4110    -0.2490 H     1 <1>   0.0800 
 26 H        1.9080     0.1360    -0.5520 H     1 <1>   0.0800 
 27 H        2.2400     0.7460     1.0500 H     1 <1>   0.0800 
 28 H       -1.9310     5.7330    -1.0360 H     1 <1>   0.0800 
 29 H       -1.7730     4.2270    -1.8830 H     1 <1>   0.0800 
 30 H        3.8680     1.0640    -1.3390 H     1 <1>   0.3700 
 31 H       -5.7410     3.0840    -0.2890 H     1 <1>   0.0800 
 32 H       -4.1290     4.5980    -1.3120 H     1 <1>   0.0800 
 33 H       -3.7180     4.8500     0.3560 H     1 <1>   0.0800 
 34 H       -3.9640     2.4270    -2.3330 H     1 <1>   0.0800 
 35 H       -2.4430     1.7590    -1.7950 H     1 <1>   0.0800 
 36 H       -4.7380     1.8990     2.0570 H     1 <1>   0.4000 
 37 H       -5.2440     0.3210     0.6490 H     1 <1>   0.0800 
 38 H       -6.2630     0.9120    -0.6510 H     1 <1>   0.0800 
 39 H       -3.5080    -0.0680    -0.7600 H     1 <1>   0.0800 
 40 H       -4.6060     0.1880    -2.0990 H     1 <1>   0.0800 
 41 H        5.6840     2.9950    -1.1980 H     1 <1>   0.0800 
 42 H        6.3020     1.5550    -0.4070 H     1 <1>   0.0800 
 43 H        6.3250     3.0920     0.4260 H     1 <1>   0.0800 
@<TRIPOS>BOND
  1   1   2  2   
  2   2   3  am  
  3   2   4  1   
  4   3   5  1   
  5   3   6  1   
  6   4   7  1   
  7   4  20  1   
  8   4  21  1   
  9   5   8  1   
 10   5  22  1   
 11   5  23  1   
 12   6   9  1   
 13   6  24  1   
 14   6  25  1   
 15   7  10  1   
 16   7  26  1   
 17   7  27  1   
 18   8  11  1   
 19   8  12  1   
 20   8  13  1   
 21   9  12  1   
 22   9  28  1   
 23   9  29  1   
 24  10  14  am  
 25  10  30  1   
 26  11  15  1   
 27  11  16  1   
 28  11  31  1   
 29  12  32  1   
 30  12  33  1   
 31  13  17  1   
 32  13  34  1   
 33  13  35  1   
 34  14  18  2   
 35  14  19  1   
 36  15  36  1   
 37  16  17  1   
 38  16  37  1   
 39  16  38  1   
 40  17  39  1   
 41  17  40  1   
 42  19  41  1   
 43  19  42  1   
 44  19  43  1   
@<TRIPOS>SUBSTRUCTURE
  1 ****   3 GROUP 4 **** **** 0

# MOE 2024.06 (io_trps.svl 2023.06)
