@<TRIPOS>MOLECULE
NONAME
50 53 1 0 0 
SMALL
USER_CHARGES


@<TRIPOS>ATOM
  1 O       -0.8960     1.1680    -1.6980 O.2   1 <1>  -0.5700 
  2 C       -0.7750     2.2540    -1.1810 C.2   1 <1>   0.5690 
  3 N       -1.7360     2.8150    -0.3820 N.am  1 <1>  -0.5090 
  4 C        0.5060     3.0350    -1.4770 C.3   1 <1>   0.1810 
  5 C       -1.6300     4.2270     0.1020 C.3   1 <1>   0.3640 
  6 C       -2.9410     2.0680     0.0580 C.3   1 <1>   0.0490 
  7 O        0.7260     4.1130    -0.5940 O.3   1 <1>  -0.5600 
  8 C       -2.8930     5.0040    -0.2720 C.ar  1 <1>  -0.1440 
  9 C       -0.3880     4.9760    -0.4540 C.3   1 <1>   0.2610 
 10 C       -3.1960     1.9140     1.5260 C.3   1 <1>  -0.2000 
 11 C       -2.7830     0.7310     0.7110 C.3   1 <1>  -0.2000 
 12 C       -3.5250     5.7930     0.6790 C.ar  1 <1>   0.1600 
 13 C       -3.4290     4.9500    -1.5470 C.ar  1 <1>  -0.1500 
 14 C       -0.0140     6.1890     0.4200 C.2   1 <1>   0.5690 
 15 N       -4.6150     6.5120     0.4650 N.ar  1 <1>  -0.6200 
 16 C       -4.5650     5.6930    -1.7850 C.ar  1 <1>  -0.1500 
 17 O       -0.4960     6.2840     1.5260 O.2   1 <1>  -0.5700 
 18 N        0.8780     7.1470    -0.0170 N.am  1 <1>  -0.6600 
 19 C       -5.1090     6.4460    -0.7590 C.ar  1 <1>   0.1600 
 20 C        1.2130     8.3200     0.8480 C.3   1 <1>   0.1400 
 21 C        1.8670     6.9440    -1.1180 C.3   1 <1>   0.1400 
 22 C        2.6120     8.1300     1.4620 C.3   1 <1>   0.3430 
 23 C        3.2750     6.7500    -0.5170 C.3   1 <1>   0.3430 
 24 N        3.6660     7.8820     0.4060 N.4   1 <1>  -0.9590 
 25 C        4.9960     7.6200     1.0380 C.3   1 <1>   0.2630 
 26 H        0.4630     3.4160    -2.4810 H     1 <1>   0.0800 
 27 H        1.3450     2.3690    -1.3960 H     1 <1>   0.0800 
 28 H       -1.5530     4.1790     1.1730 H     1 <1>   0.0800 
 29 H       -3.7830     2.2130    -0.5990 H     1 <1>   0.1000 
 30 H       -0.6280     5.3490    -1.4330 H     1 <1>   0.0800 
 31 H       -2.4910     2.2930     2.2440 H     1 <1>   0.1000 
 32 H       -4.2110     1.9570     1.8800 H     1 <1>   0.1000 
 33 H       -3.5130    -0.0290     0.5000 H     1 <1>   0.1000 
 34 H       -1.7920     0.3300     0.8270 H     1 <1>   0.1000 
 35 H       -3.1140     5.8410     1.6750 H     1 <1>   0.1500 
 36 H       -2.9920     4.3490    -2.3270 H     1 <1>   0.1500 
 37 H       -5.0300     5.6890    -2.7540 H     1 <1>   0.1500 
 38 H       -5.9980     7.0220    -0.9560 H     1 <1>   0.1500 
 39 H        1.1850     9.2210     0.2600 H     1 <1>   0.0800 
 40 H        0.4900     8.4340     1.6380 H     1 <1>   0.0800 
 41 H        1.6160     6.0910    -1.7200 H     1 <1>   0.0800 
 42 H        1.8610     7.8040    -1.7650 H     1 <1>   0.0800 
 43 H        2.5690     7.2910     2.1370 H     1 <1>   0.0800 
 44 H        2.8670     9.0040     2.0380 H     1 <1>   0.0800 
 45 H        3.9920     6.6660    -1.3170 H     1 <1>   0.0800 
 46 H        3.2810     5.8200     0.0290 H     1 <1>   0.0800 
 47 H        3.7370     8.7380    -0.1620 H     1 <1>   0.4500 
 48 H        4.9540     6.7280     1.6430 H     1 <1>   0.0800 
 49 H        5.2830     8.4480     1.6670 H     1 <1>   0.0800 
 50 H        5.7520     7.4870     0.2820 H     1 <1>   0.0800 
@<TRIPOS>BOND
  1   1   2  2   
  2   2   3  am  
  3   2   4  1   
  4   3   5  1   
  5   3   6  1   
  6   4   7  1   
  7   4  26  1   
  8   4  27  1   
  9   5   8  1   
 10   5   9  1   
 11   5  28  1   
 12   6  10  1   
 13   6  11  1   
 14   6  29  1   
 15   7   9  1   
 16   8  12  ar  
 17   8  13  ar  
 18   9  14  1   
 19   9  30  1   
 20  10  11  1   
 21  10  31  1   
 22  10  32  1   
 23  11  33  1   
 24  11  34  1   
 25  12  15  ar  
 26  12  35  1   
 27  13  16  ar  
 28  13  36  1   
 29  14  17  2   
 30  14  18  am  
 31  15  19  ar  
 32  16  19  ar  
 33  16  37  1   
 34  18  20  1   
 35  18  21  1   
 36  19  38  1   
 37  20  22  1   
 38  20  39  1   
 39  20  40  1   
 40  21  23  1   
 41  21  41  1   
 42  21  42  1   
 43  22  24  1   
 44  22  43  1   
 45  22  44  1   
 46  23  24  1   
 47  23  45  1   
 48  23  46  1   
 49  24  25  1   
 50  24  47  1   
 51  25  48  1   
 52  25  49  1   
 53  25  50  1   
@<TRIPOS>SUBSTRUCTURE
  1 ****   9 GROUP 4 **** **** 0

# MOE 2024.06 (io_trps.svl 2023.06)
