@<TRIPOS>MOLECULE
NONAME
43 44 1 0 0 
SMALL
USER_CHARGES


@<TRIPOS>ATOM
  1 S        0.4420     0.0370    -0.8020 S.o2  1 <1>   1.3330 
  2 O        0.1750    -0.4200     0.5440 O.2   1 <1>  -0.6500 
  3 O        0.5550    -0.9290    -1.8720 O.2   1 <1>  -0.6500 
  4 N       -0.7620     1.1580    -1.2190 N.am  1 <1>  -0.8490 
  5 C        1.9360     1.0240    -0.8000 C.3   1 <1>  -0.0550 
  6 C       -1.2170     1.9730    -0.0880 C.3   1 <1>   0.1160 
  7 C       -1.9100     0.5200    -1.8690 C.3   1 <1>   0.1160 
  8 C        3.2110     0.1890    -0.5630 C.3   1 <1>  -0.0800 
  9 C        4.5180     0.9630    -0.6620 C.3   1 <1>   0.2200 
 10 C        3.3000    -0.4610     0.8240 C.3   1 <1>   0.1200 
 11 N        4.4030     2.2800     0.0060 N.am  1 <1>  -0.7300 
 12 C        5.4300     0.0720     0.1690 C.3   1 <1>   0.1200 
 13 O        4.6350    -0.3630     1.2290 O.3   1 <1>  -0.5600 
 14 C        4.2570     3.4890    -0.6060 C.2   1 <1>   0.7150 
 15 O        4.1480     3.5060    -1.8180 O.2   1 <1>  -0.5700 
 16 C        4.2100     4.6940     0.1900 C.2   1 <1>   0.0550 
 17 O        4.2770     4.6070     1.5140 O.3   1 <1>  -0.2800 
 18 C        4.1000     5.9980    -0.1490 C.2   1 <1>   0.0460 
 19 C        4.2030     5.8700     1.8770 C.2   1 <1>   0.2980 
 20 N        4.0950     6.7440     0.9490 N.2   1 <1>  -0.5650 
 21 C        3.9910     6.6750    -1.5010 C.3   1 <1>  -0.0590 
 22 C        4.2510     6.1850     3.3530 C.3   1 <1>  -0.0600 
 23 H        2.0240     1.5170    -1.7490 H     1 <1>   0.0800 
 24 H        1.8540     1.7810    -0.0460 H     1 <1>   0.0800 
 25 H       -1.9160     2.7190    -0.4280 H     1 <1>   0.0800 
 26 H       -0.3830     2.4760     0.3690 H     1 <1>   0.0800 
 27 H       -1.6970     1.3550     0.6540 H     1 <1>   0.0800 
 28 H       -2.6450     1.2590    -2.1380 H     1 <1>   0.0800 
 29 H       -2.3580    -0.2060    -1.2110 H     1 <1>   0.0800 
 30 H       -1.5920     0.0200    -2.7690 H     1 <1>   0.0800 
 31 H        3.2380    -0.6010    -1.2940 H     1 <1>   0.0800 
 32 H        4.8640     1.0740    -1.6760 H     1 <1>   0.0800 
 33 H        3.0170    -1.5010     0.7980 H     1 <1>   0.0800 
 34 H        2.7000     0.0570     1.5530 H     1 <1>   0.0800 
 35 H        4.4740     2.2550     1.0260 H     1 <1>   0.3700 
 36 H        6.2930     0.5920     0.5480 H     1 <1>   0.0800 
 37 H        5.7370    -0.7930    -0.3920 H     1 <1>   0.0800 
 38 H        4.0350     5.9630    -2.3030 H     1 <1>   0.0800 
 39 H        4.7980     7.3750    -1.6170 H     1 <1>   0.0800 
 40 H        3.0600     7.2080    -1.5620 H     1 <1>   0.0800 
 41 H        4.1780     7.2470     3.5020 H     1 <1>   0.0800 
 42 H        5.1780     5.8350     3.7660 H     1 <1>   0.0800 
 43 H        3.4330     5.7020     3.8530 H     1 <1>   0.0800 
@<TRIPOS>BOND
  1   1   2  2   
  2   1   3  2   
  3   1   4  am  
  4   1   5  1   
  5   4   6  1   
  6   4   7  1   
  7   5   8  1   
  8   5  23  1   
  9   5  24  1   
 10   6  25  1   
 11   6  26  1   
 12   6  27  1   
 13   7  28  1   
 14   7  29  1   
 15   7  30  1   
 16   8   9  1   
 17   8  10  1   
 18   8  31  1   
 19   9  11  1   
 20   9  12  1   
 21   9  32  1   
 22  10  13  1   
 23  10  33  1   
 24  10  34  1   
 25  11  14  am  
 26  11  35  1   
 27  12  13  1   
 28  12  36  1   
 29  12  37  1   
 30  14  15  2   
 31  14  16  1   
 32  16  17  1   
 33  16  18  2   
 34  17  19  1   
 35  18  20  1   
 36  18  21  1   
 37  19  20  2   
 38  19  22  1   
 39  21  38  1   
 40  21  39  1   
 41  21  40  1   
 42  22  41  1   
 43  22  42  1   
 44  22  43  1   
@<TRIPOS>SUBSTRUCTURE
  1 ****  11 GROUP 4 **** **** 0

# MOE 2024.06 (io_trps.svl 2023.06)
