@<TRIPOS>MOLECULE
NONAME
50 51 1 0 0 
SMALL
USER_CHARGES


@<TRIPOS>ATOM
  1 CL       0.4640     1.6950     2.3120 Cl    1 <1>  -0.1770 
  2 C        1.8760     2.5420     1.7070 C.ar  1 <1>   0.1770 
  3 C        3.0810     1.8570     1.5970 C.ar  1 <1>  -0.1440 
  4 C        1.7610     3.8810     1.3530 C.ar  1 <1>  -0.1440 
  5 C        4.1900     2.5340     1.1140 C.ar  1 <1>  -0.1500 
  6 C        3.1970     0.3940     2.0000 C.3   1 <1>  -0.0960 
  7 C        2.8810     4.5390     0.8730 C.ar  1 <1>  -0.1500 
  8 C        0.4450     4.6330     1.4810 C.3   1 <1>  -0.0960 
  9 C        4.0850     3.8640     0.7380 C.ar  1 <1>   0.0820 
 10 O        5.1660     4.5290     0.2730 O.3   1 <1>  -0.3630 
 11 C        5.5170     4.5300    -1.1130 C.3   1 <1>   0.3410 
 12 C        6.4310     5.7670    -1.3320 C.2   1 <1>   0.5690 
 13 C        6.2450     3.2070    -1.4150 C.3   1 <1>  -0.2400 
 14 C        4.2590     4.6370    -2.0010 C.3   1 <1>  -0.2400 
 15 O        7.5980     5.6470    -1.6330 O.2   1 <1>  -0.5700 
 16 N        5.9070     7.0090    -1.1490 N.am  1 <1>  -0.7300 
 17 C        6.6800     8.2700    -1.1650 C.3   1 <1>   0.2200 
 18 C        6.9880     8.6830     0.2730 C.3   1 <1>   0.3430 
 19 C        5.7760     9.4000    -1.6360 C.3   1 <1>  -0.1600 
 20 N        5.7020     9.2410     0.7800 N.4   1 <1>  -0.9590 
 21 C        4.9150     9.7530    -0.4140 C.3   1 <1>   0.3170 
 22 C        5.7740    10.1800     1.9270 C.3   1 <1>   0.2630 
 23 C        3.5500     9.0380    -0.4900 C.2   1 <1>   0.9060 
 24 O        3.5100     7.9060     0.0230 O.co2 1 <1>  -0.9000 
 25 O        2.5830     9.5860    -1.0120 O.co2 1 <1>  -0.9000 
 26 H        5.1410     2.0410     1.0300 H     1 <1>   0.1500 
 27 H        4.1980     0.0300     1.8520 H     1 <1>   0.0800 
 28 H        2.5250    -0.2020     1.4090 H     1 <1>   0.0800 
 29 H        2.9420     0.2790     3.0380 H     1 <1>   0.0800 
 30 H        2.8300     5.5790     0.5980 H     1 <1>   0.1500 
 31 H        0.5530     5.6530     1.1560 H     1 <1>   0.0800 
 32 H        0.1210     4.6360     2.5060 H     1 <1>   0.0800 
 33 H       -0.3090     4.1620     0.8770 H     1 <1>   0.0800 
 34 H        6.6190     3.2210    -2.4230 H     1 <1>   0.0800 
 35 H        5.5790     2.3690    -1.3180 H     1 <1>   0.0800 
 36 H        7.0800     3.0860    -0.7480 H     1 <1>   0.0800 
 37 H        4.5510     4.7260    -3.0310 H     1 <1>   0.0800 
 38 H        3.6810     5.5070    -1.7410 H     1 <1>   0.0800 
 39 H        3.6400     3.7630    -1.9060 H     1 <1>   0.0800 
 40 H        4.9280     7.0770    -0.7960 H     1 <1>   0.3700 
 41 H        7.5700     8.1650    -1.7620 H     1 <1>   0.0800 
 42 H        7.7440     9.4490     0.2700 H     1 <1>   0.0800 
 43 H        7.3220     7.8410     0.8560 H     1 <1>   0.0800 
 44 H        5.1820     9.1230    -2.4910 H     1 <1>   0.0800 
 45 H        6.3690    10.2560    -1.9010 H     1 <1>   0.0800 
 46 H        5.1000     8.4200     1.0380 H     1 <1>   0.4500 
 47 H        4.7410    10.8120    -0.3580 H     1 <1>   0.0800 
 48 H        6.3290    11.0610     1.6540 H     1 <1>   0.0800 
 49 H        6.2570     9.7060     2.7650 H     1 <1>   0.0800 
 50 H        4.7790    10.4720     2.2230 H     1 <1>   0.0800 
@<TRIPOS>BOND
  1   1   2  1   
  2   2   3  ar  
  3   2   4  ar  
  4   3   5  ar  
  5   3   6  1   
  6   4   7  ar  
  7   4   8  1   
  8   5   9  ar  
  9   5  26  1   
 10   6  27  1   
 11   6  28  1   
 12   6  29  1   
 13   7   9  ar  
 14   7  30  1   
 15   8  31  1   
 16   8  32  1   
 17   8  33  1   
 18   9  10  1   
 19  10  11  1   
 20  11  12  1   
 21  11  13  1   
 22  11  14  1   
 23  12  15  2   
 24  12  16  am  
 25  13  34  1   
 26  13  35  1   
 27  13  36  1   
 28  14  37  1   
 29  14  38  1   
 30  14  39  1   
 31  16  17  1   
 32  16  40  1   
 33  17  18  1   
 34  17  19  1   
 35  17  41  1   
 36  18  20  1   
 37  18  42  1   
 38  18  43  1   
 39  19  21  1   
 40  19  44  1   
 41  19  45  1   
 42  20  21  1   
 43  20  22  1   
 44  20  46  1   
 45  21  23  1   
 46  21  47  1   
 47  22  48  1   
 48  22  49  1   
 49  22  50  1   
 50  23  24  ar  
 51  23  25  ar  
@<TRIPOS>SUBSTRUCTURE
  1 ****  10 GROUP 4 **** **** 0

# MOE 2024.06 (io_trps.svl 2023.06)
