@<TRIPOS>MOLECULE
NONAME
39 41 1 0 0 
SMALL
USER_CHARGES


@<TRIPOS>ATOM
  1 O        0.0990    -0.1900    -0.7130 O.2   1 <1>  -0.5700 
  2 C        1.0700    -0.6890    -0.1690 C.2   1 <1>   0.7160 
  3 N        2.0830     0.1040     0.3110 N.am  1 <1>  -0.4940 
  4 C        1.2350    -2.1280    -0.0130 C.2   1 <1>   0.1410 
  5 C        2.2770     1.5060     0.3030 C.2   1 <1>  -0.0880 
  6 N        2.3840    -2.6470     0.5300 N.2   1 <1>  -0.5650 
  7 C        0.4000    -3.1680    -0.3290 C.2   1 <1>  -0.3320 
  8 N        3.4780     2.1040     0.0670 N.pl3 1 <1>   0.3140 
  9 C        1.3900     2.5070     0.5280 C.2   1 <1>  -0.1810 
 10 C        2.2100    -3.9240     0.5240 C.2   1 <1>   0.0370 
 11 N        1.0230    -4.3030     0.0130 N.pl3 1 <1>   0.0330 
 12 C       -0.9900    -3.1760    -0.9510 C.3   1 <1>  -0.0600 
 13 N        3.3770     3.4560     0.1430 N.2   1 <1>  -0.7070 
 14 C        4.7460     1.3860    -0.2560 C.3   1 <1>   0.1760 
 15 C        2.1290     3.6780     0.4110 C.2   1 <1>   0.1390 
 16 C       -0.0890     2.4300     0.8540 C.3   1 <1>  -0.0590 
 17 C        5.4810     0.9060     0.9990 C.3   1 <1>  -0.1600 
 18 C        5.7920     2.2200    -0.9990 C.3   1 <1>  -0.1600 
 19 C        6.9630     0.8100     0.6100 C.3   1 <1>  -0.1600 
 20 C        7.0990     1.4640    -0.7700 C.3   1 <1>  -0.1600 
 21 H        2.8340    -0.4780     0.6920 H     1 <1>   0.3700 
 22 H        2.9290    -4.6400     0.8860 H     1 <1>   0.1500 
 23 H        0.6780    -5.2620    -0.0880 H     1 <1>   0.2700 
 24 H       -1.3410    -2.1770    -1.1370 H     1 <1>   0.0800 
 25 H       -1.6890    -3.6570    -0.2910 H     1 <1>   0.0800 
 26 H       -0.9740    -3.7040    -1.8870 H     1 <1>   0.0800 
 27 H        4.5040     0.5340    -0.8660 H     1 <1>   0.0800 
 28 H        1.7200     4.6660     0.5310 H     1 <1>   0.1500 
 29 H       -0.3100     1.5080     1.3610 H     1 <1>   0.0800 
 30 H       -0.6620     2.4690    -0.0550 H     1 <1>   0.0800 
 31 H       -0.3760     3.2480     1.4890 H     1 <1>   0.0800 
 32 H        5.1010    -0.0410     1.3400 H     1 <1>   0.0800 
 33 H        5.3700     1.6400     1.7810 H     1 <1>   0.0800 
 34 H        5.8740     3.1970    -0.5540 H     1 <1>   0.0800 
 35 H        5.5570     2.3180    -2.0440 H     1 <1>   0.0800 
 36 H        7.2840    -0.2170     0.5690 H     1 <1>   0.0800 
 37 H        7.5650     1.3320     1.3340 H     1 <1>   0.0800 
 38 H        7.9510     2.1210    -0.8200 H     1 <1>   0.0800 
 39 H        7.2060     0.6980    -1.5200 H     1 <1>   0.0800 
@<TRIPOS>BOND
  1   1   2  2   
  2   2   3  am  
  3   2   4  1   
  4   3   5  1   
  5   3  21  1   
  6   4   6  1   
  7   4   7  2   
  8   5   8  1   
  9   5   9  2   
 10   6  10  2   
 11   7  11  1   
 12   7  12  1   
 13   8  13  1   
 14   8  14  1   
 15   9  15  1   
 16   9  16  1   
 17  10  11  1   
 18  10  22  1   
 19  11  23  1   
 20  12  24  1   
 21  12  25  1   
 22  12  26  1   
 23  13  15  2   
 24  14  17  1   
 25  14  18  1   
 26  14  27  1   
 27  15  28  1   
 28  16  29  1   
 29  16  30  1   
 30  16  31  1   
 31  17  19  1   
 32  17  32  1   
 33  17  33  1   
 34  18  20  1   
 35  18  34  1   
 36  18  35  1   
 37  19  20  1   
 38  19  36  1   
 39  19  37  1   
 40  20  38  1   
 41  20  39  1   
@<TRIPOS>SUBSTRUCTURE
  1 ****   3 GROUP 4 **** **** 0

# MOE 2024.06 (io_trps.svl 2023.06)
