@<TRIPOS>MOLECULE
NONAME
53 56 1 0 0 
SMALL
USER_CHARGES


@<TRIPOS>ATOM
  1 S       -0.1440    -0.7410     0.8990 S.3   1 <1>  -0.0800 
  2 C        0.5640    -1.4110    -0.5590 C.2   1 <1>  -0.0450 
  3 C        0.1590     0.8740     0.3150 C.2   1 <1>   0.1980 
  4 C        0.9510    -0.3590    -1.3220 C.2   1 <1>   0.0460 
  5 C        0.6150    -2.8440    -0.7040 C.2   1 <1>   0.7150 
  6 N        0.7200     0.9070    -0.8270 N.2   1 <1>  -0.5650 
  7 C       -0.2720     2.0300     1.2160 C.3   1 <1>   0.1000 
  8 C        1.6200    -0.4000    -2.6820 C.3   1 <1>  -0.0590 
  9 O        1.0450    -3.3730    -1.7100 O.2   1 <1>  -0.5700 
 10 N        0.1550    -3.6510     0.2930 N.am  1 <1>  -0.7300 
 11 C       -1.7870     2.2540     1.1170 C.3   1 <1>  -0.2400 
 12 C        0.4710     3.3290     0.8700 C.3   1 <1>  -0.2400 
 13 C        0.1500    -5.1320     0.2890 C.3   1 <1>   0.2200 
 14 C       -1.2570    -5.6740     0.0780 C.3   1 <1>  -0.0800 
 15 C        0.4250    -5.6250     1.7030 C.3   1 <1>   0.1200 
 16 C       -1.8590    -5.6150     1.4860 C.3   1 <1>   0.1200 
 17 C       -2.0850    -4.9850    -1.0260 C.3   1 <1>  -0.0170 
 18 O       -0.7880    -5.4900     2.3780 O.3   1 <1>  -0.5600 
 19 C       -3.4370    -5.6720    -1.2060 C.ar  1 <1>  -0.1430 
 20 C       -4.6360    -5.2210    -0.6000 C.ar  1 <1>   0.0000 
 21 C       -3.5090    -6.7900    -1.9850 C.ar  1 <1>  -0.1500 
 22 C       -5.8110    -5.9810    -0.8280 C.ar  1 <1>   0.3100 
 23 C       -4.7490    -4.0670     0.2120 C.ar  1 <1>  -0.1500 
 24 C       -4.7260    -7.4590    -2.1540 C.ar  1 <1>   0.1600 
 25 N       -5.8390    -7.0930    -1.6050 N.ar  1 <1>  -0.6200 
 26 C       -7.0140    -5.5750    -0.2280 C.ar  1 <1>  -0.1500 
 27 C       -5.9380    -3.6980     0.7800 C.ar  1 <1>  -0.1500 
 28 C       -7.0870    -4.4610     0.5620 C.ar  1 <1>  -0.1500 
 29 H       -0.0280     1.7680     2.2300 H     1 <1>   0.0800 
 30 H        1.7930    -1.4050    -3.0150 H     1 <1>   0.0800 
 31 H        2.5640     0.1110    -2.6320 H     1 <1>   0.0800 
 32 H        0.9980     0.0990    -3.4020 H     1 <1>   0.0800 
 33 H       -0.2140    -3.2290     1.1470 H     1 <1>   0.3700 
 34 H       -2.0590     2.4980     0.1040 H     1 <1>   0.0800 
 35 H       -2.0910     3.0580     1.7620 H     1 <1>   0.0800 
 36 H       -2.3150     1.3640     1.4070 H     1 <1>   0.0800 
 37 H        0.2440     3.6320    -0.1370 H     1 <1>   0.0800 
 38 H        1.5330     3.1740     0.9440 H     1 <1>   0.0800 
 39 H        0.1900     4.1180     1.5440 H     1 <1>   0.0800 
 40 H        0.8590    -5.5180    -0.4240 H     1 <1>   0.0800 
 41 H       -1.1670    -6.7140    -0.1810 H     1 <1>   0.0800 
 42 H        1.1880    -5.0560     2.2040 H     1 <1>   0.0800 
 43 H        0.6870    -6.6690     1.7000 H     1 <1>   0.0800 
 44 H       -2.4130    -6.5070     1.7230 H     1 <1>   0.0800 
 45 H       -2.4860    -4.7530     1.6190 H     1 <1>   0.0800 
 46 H       -1.5380    -5.0500    -1.9510 H     1 <1>   0.0800 
 47 H       -2.2100    -3.9380    -0.8270 H     1 <1>   0.0800 
 48 H       -2.6420    -7.1840    -2.4830 H     1 <1>   0.1500 
 49 H       -3.8870    -3.4560     0.3930 H     1 <1>   0.1500 
 50 H       -4.7350    -8.3370    -2.7790 H     1 <1>   0.1500 
 51 H       -7.8850    -6.1760    -0.4140 H     1 <1>   0.1500 
 52 H       -6.0060    -2.8180     1.3980 H     1 <1>   0.1500 
 53 H       -8.0160    -4.1620     1.0150 H     1 <1>   0.1500 
@<TRIPOS>BOND
  1   1   2  1   
  2   1   3  1   
  3   2   4  2   
  4   2   5  1   
  5   3   6  2   
  6   3   7  1   
  7   4   6  1   
  8   4   8  1   
  9   5   9  2   
 10   5  10  am  
 11   7  11  1   
 12   7  12  1   
 13   7  29  1   
 14   8  30  1   
 15   8  31  1   
 16   8  32  1   
 17  10  13  1   
 18  10  33  1   
 19  11  34  1   
 20  11  35  1   
 21  11  36  1   
 22  12  37  1   
 23  12  38  1   
 24  12  39  1   
 25  13  14  1   
 26  13  15  1   
 27  13  40  1   
 28  14  16  1   
 29  14  17  1   
 30  14  41  1   
 31  15  18  1   
 32  15  42  1   
 33  15  43  1   
 34  16  18  1   
 35  16  44  1   
 36  16  45  1   
 37  17  19  1   
 38  17  46  1   
 39  17  47  1   
 40  19  20  ar  
 41  19  21  ar  
 42  20  22  ar  
 43  20  23  ar  
 44  21  24  ar  
 45  21  48  1   
 46  22  25  ar  
 47  22  26  ar  
 48  23  27  ar  
 49  23  49  1   
 50  24  25  ar  
 51  24  50  1   
 52  26  28  ar  
 53  26  51  1   
 54  27  28  ar  
 55  27  52  1   
 56  28  53  1   
@<TRIPOS>SUBSTRUCTURE
  1 ****  17 GROUP 4 **** **** 0

# MOE 2024.06 (io_trps.svl 2023.06)
