@<TRIPOS>MOLECULE
NONAME
45 48 1 0 0 
SMALL
USER_CHARGES


@<TRIPOS>ATOM
  1 S        0.4950     0.5000    -1.1950 S.o2  1 <1>   1.4470 
  2 O        0.1830     1.9110    -1.0920 O.2   1 <1>  -0.6500 
  3 O        1.0240    -0.0510    -2.4230 O.2   1 <1>  -0.6500 
  4 N        1.5620     0.0790     0.0660 N.am  1 <1>  -0.8490 
  5 C       -0.9870    -0.4450    -0.7470 C.ar  1 <1>  -0.0090 
  6 C        1.6510     1.0250     1.1950 C.3   1 <1>   0.1960 
  7 C        2.7960    -0.6260    -0.3150 C.3   1 <1>   0.1960 
  8 C       -0.9110    -1.8110    -0.4980 C.ar  1 <1>  -0.1500 
  9 C       -2.2340     0.1690    -0.6440 C.ar  1 <1>  -0.1500 
 10 C        2.8730     1.9750     1.1880 C.3   1 <1>   0.2200 
 11 C        3.9670     0.2350    -0.8480 C.3   1 <1>  -0.0190 
 12 C       -2.0330    -2.5400    -0.1500 C.ar  1 <1>   0.0820 
 13 C       -3.3660    -0.5490    -0.2920 C.ar  1 <1>  -0.1500 
 14 N        3.1480     2.4980    -0.1880 N.am  1 <1>  -0.6600 
 15 C        4.1010     1.3100     1.8730 C.3   1 <1>   0.1200 
 16 C        3.6450     1.6840    -1.1710 C.2   1 <1>   0.5690 
 17 C        5.2010     0.1700     0.0700 C.3   1 <1>   0.1200 
 18 O       -1.9070    -3.8720     0.0720 O.3   1 <1>  -0.3630 
 19 C       -3.2690    -1.9040    -0.0360 C.ar  1 <1>   0.0820 
 20 C        2.7300     3.8990    -0.4630 C.3   1 <1>   0.0600 
 21 O        5.2220     1.1680     1.0480 O.3   1 <1>  -0.5600 
 22 O        3.8650     2.0760    -2.2940 O.2   1 <1>  -0.5700 
 23 C       -3.1010    -4.6320     0.0980 C.3   1 <1>   0.1200 
 24 O       -4.3820    -2.5880     0.3270 O.3   1 <1>  -0.3630 
 25 C       -4.1940    -3.8810     0.8720 C.3   1 <1>   0.1200 
 26 H        0.7580     1.6250     1.2340 H     1 <1>   0.0800 
 27 H        1.6590     0.4580     2.1100 H     1 <1>   0.0800 
 28 H        3.1300    -1.1850     0.5410 H     1 <1>   0.0800 
 29 H        2.5530    -1.3620    -1.0630 H     1 <1>   0.0800 
 30 H        0.0330    -2.3190    -0.5800 H     1 <1>   0.1500 
 31 H       -2.3210     1.2250    -0.8410 H     1 <1>   0.1500 
 32 H        2.6060     2.8080     1.8130 H     1 <1>   0.0800 
 33 H        4.2650    -0.2290    -1.7700 H     1 <1>   0.0800 
 34 H       -4.3230    -0.0640    -0.2130 H     1 <1>   0.1500 
 35 H        3.8580     0.3460     2.2830 H     1 <1>   0.0800 
 36 H        4.4080     1.9360     2.6920 H     1 <1>   0.0800 
 37 H        6.0830     0.3230    -0.5270 H     1 <1>   0.0800 
 38 H        5.2890    -0.7870     0.5540 H     1 <1>   0.0800 
 39 H        3.2660     4.5730     0.1820 H     1 <1>   0.0800 
 40 H        1.6720     4.0020    -0.2960 H     1 <1>   0.0800 
 41 H        2.9390     4.1640    -1.4850 H     1 <1>   0.0800 
 42 H       -3.4120    -4.8020    -0.9180 H     1 <1>   0.0800 
 43 H       -2.8830    -5.5760     0.5630 H     1 <1>   0.0800 
 44 H       -3.9120    -3.7710     1.9040 H     1 <1>   0.0800 
 45 H       -5.1310    -4.4040     0.8150 H     1 <1>   0.0800 
@<TRIPOS>BOND
  1   1   2  2   
  2   1   3  2   
  3   1   4  am  
  4   1   5  1   
  5   4   6  1   
  6   4   7  1   
  7   5   8  ar  
  8   5   9  ar  
  9   6  10  1   
 10   6  26  1   
 11   6  27  1   
 12   7  11  1   
 13   7  28  1   
 14   7  29  1   
 15   8  12  ar  
 16   8  30  1   
 17   9  13  ar  
 18   9  31  1   
 19  10  14  1   
 20  10  15  1   
 21  10  32  1   
 22  11  16  1   
 23  11  17  1   
 24  11  33  1   
 25  12  18  1   
 26  12  19  ar  
 27  13  19  ar  
 28  13  34  1   
 29  14  16  am  
 30  14  20  1   
 31  15  21  1   
 32  15  35  1   
 33  15  36  1   
 34  16  22  2   
 35  17  21  1   
 36  17  37  1   
 37  17  38  1   
 38  18  23  1   
 39  19  24  1   
 40  20  39  1   
 41  20  40  1   
 42  20  41  1   
 43  23  25  1   
 44  23  42  1   
 45  23  43  1   
 46  24  25  1   
 47  25  44  1   
 48  25  45  1   
@<TRIPOS>SUBSTRUCTURE
  1 ****   4 GROUP 4 **** **** 0

# MOE 2024.06 (io_trps.svl 2023.06)
