@<TRIPOS>MOLECULE
NONAME
52 54 1 0 0 
SMALL
USER_CHARGES


@<TRIPOS>ATOM
  1 O       -0.6370     1.7420    -1.4020 O.2   1 <1>  -0.5700 
  2 C       -0.8690     2.8860    -1.0830 C.2   1 <1>   0.5690 
  3 N       -1.4180     3.2430     0.1170 N.am  1 <1>  -0.5090 
  4 C       -0.5350     4.0020    -2.0650 C.3   1 <1>   0.1810 
  5 C       -1.7110     4.6830     0.4110 C.3   1 <1>   0.3640 
  6 C       -1.5770     2.2850     1.2370 C.3   1 <1>   0.0490 
  7 O       -0.0030     5.1100    -1.3880 O.3   1 <1>  -0.5600 
  8 C       -3.1990     4.9910     0.1960 C.ar  1 <1>  -0.1440 
  9 C       -0.8580     5.6950    -0.4110 C.3   1 <1>   0.2610 
 10 C       -2.4510     1.0880     1.0330 C.3   1 <1>  -0.2000 
 11 C       -2.8840     2.1740     1.9640 C.3   1 <1>  -0.2000 
 12 C       -3.7840     5.9950     0.9550 C.ar  1 <1>  -0.1500 
 13 C       -3.9840     4.3150    -0.7330 C.ar  1 <1>  -0.1500 
 14 C       -0.0520     6.5680     0.5560 C.2   1 <1>   0.5690 
 15 C       -5.1200     6.3160     0.7920 C.ar  1 <1>  -0.1500 
 16 C       -5.3210     4.6330    -0.8970 C.ar  1 <1>  -0.1500 
 17 O       -0.6450     7.2410     1.3680 O.2   1 <1>  -0.5700 
 18 N        1.3040     6.5710     0.4910 N.am  1 <1>  -0.7300 
 19 C       -5.8980     5.6400    -0.1310 C.ar  1 <1>   0.0820 
 20 C        2.2330     7.4240     1.2780 C.3   1 <1>   0.1400 
 21 O       -7.1990     6.0120    -0.2270 O.3   1 <1>  -0.3630 
 22 C        3.1820     8.2400     0.3690 C.3   1 <1>   0.2800 
 23 C       -8.0860     5.3620    -1.1100 C.3   1 <1>   0.0400 
 24 O        3.8270     7.3770    -0.4900 O.3   1 <1>  -0.6800 
 25 C        4.2660     8.9400     1.1860 C.3   1 <1>  -0.2400 
 26 C        2.4250     9.2450    -0.5020 C.3   1 <1>  -0.2400 
 27 H       -1.4150     4.3080    -2.6010 H     1 <1>   0.0800 
 28 H        0.2050     3.6570    -2.7650 H     1 <1>   0.0800 
 29 H       -1.5040     4.8390     1.4570 H     1 <1>   0.0800 
 30 H       -0.6640     2.1510     1.7940 H     1 <1>   0.1000 
 31 H       -1.5210     6.3550    -0.9410 H     1 <1>   0.0800 
 32 H       -2.9500     0.9770     0.0860 H     1 <1>   0.1000 
 33 H       -2.1360     0.1470     1.4470 H     1 <1>   0.1000 
 34 H       -2.8740     1.9650     3.0190 H     1 <1>   0.1000 
 35 H       -3.7280     2.7710     1.6720 H     1 <1>   0.1000 
 36 H       -3.2040     6.5410     1.6820 H     1 <1>   0.1500 
 37 H       -3.5700     3.5250    -1.3340 H     1 <1>   0.1500 
 38 H       -5.5680     7.0940     1.3830 H     1 <1>   0.1500 
 39 H       -5.8950     4.0860    -1.6210 H     1 <1>   0.1500 
 40 H        1.7570     6.0580    -0.2760 H     1 <1>   0.3700 
 41 H        1.6680     8.0950     1.9010 H     1 <1>   0.0800 
 42 H        2.8190     6.7920     1.9220 H     1 <1>   0.0800 
 43 H       -9.0550     5.8150    -1.0020 H     1 <1>   0.0800 
 44 H       -8.1380     4.3200    -0.8480 H     1 <1>   0.0800 
 45 H       -7.7330     5.4910    -2.1170 H     1 <1>   0.0800 
 46 H        4.4040     7.8870    -1.0870 H     1 <1>   0.4000 
 47 H        3.8160     9.6280     1.8790 H     1 <1>   0.0800 
 48 H        4.9320     9.4940     0.5480 H     1 <1>   0.0800 
 49 H        4.8340     8.2200     1.7480 H     1 <1>   0.0800 
 50 H        1.8780     9.9280     0.1220 H     1 <1>   0.0800 
 51 H        1.7190     8.7370    -1.1360 H     1 <1>   0.0800 
 52 H        3.1020     9.8140    -1.1130 H     1 <1>   0.0800 
@<TRIPOS>BOND
  1   1   2  2   
  2   2   3  am  
  3   2   4  1   
  4   3   5  1   
  5   3   6  1   
  6   4   7  1   
  7   4  27  1   
  8   4  28  1   
  9   5   8  1   
 10   5   9  1   
 11   5  29  1   
 12   6  10  1   
 13   6  11  1   
 14   6  30  1   
 15   7   9  1   
 16   8  12  ar  
 17   8  13  ar  
 18   9  14  1   
 19   9  31  1   
 20  10  11  1   
 21  10  32  1   
 22  10  33  1   
 23  11  34  1   
 24  11  35  1   
 25  12  15  ar  
 26  12  36  1   
 27  13  16  ar  
 28  13  37  1   
 29  14  17  2   
 30  14  18  am  
 31  15  19  ar  
 32  15  38  1   
 33  16  19  ar  
 34  16  39  1   
 35  18  20  1   
 36  18  40  1   
 37  19  21  1   
 38  20  22  1   
 39  20  41  1   
 40  20  42  1   
 41  21  23  1   
 42  22  24  1   
 43  22  25  1   
 44  22  26  1   
 45  23  43  1   
 46  23  44  1   
 47  23  45  1   
 48  24  46  1   
 49  25  47  1   
 50  25  48  1   
 51  25  49  1   
 52  26  50  1   
 53  26  51  1   
 54  26  52  1   
@<TRIPOS>SUBSTRUCTURE
  1 ****   5 GROUP 4 **** **** 0

# MOE 2024.06 (io_trps.svl 2023.06)
