@<TRIPOS>MOLECULE
NONAME
40 42 1 0 0 
SMALL
USER_CHARGES


@<TRIPOS>ATOM
  1 F        1.6290     1.3130     0.0970 F     1 <1>  -0.1900 
  2 C        2.0370     0.0880    -0.0970 C.ar  1 <1>   0.1900 
  3 C        3.3300    -0.2820     0.2920 C.ar  1 <1>   0.0860 
  4 C        1.1320    -0.7840    -0.6830 C.ar  1 <1>  -0.1500 
  5 C        4.2770     0.6370     0.8940 C.2   1 <1>   0.5440 
  6 C        3.6800    -1.6170     0.0770 C.ar  1 <1>  -0.1500 
  7 C        1.5080    -2.0980    -0.8960 C.ar  1 <1>  -0.1500 
  8 O        5.0970     0.2440     1.7010 O.2   1 <1>  -0.5700 
  9 N        4.3770     1.9560     0.5290 N.am  1 <1>  -0.6600 
 10 C        2.7780    -2.4850    -0.5080 C.ar  1 <1>   0.1900 
 11 C        4.6530     2.9910     1.5940 C.3   1 <1>   0.2200 
 12 C        4.6120     2.3020    -0.9000 C.3   1 <1>   0.1400 
 13 F        3.1400    -3.7240    -0.7040 F     1 <1>  -0.1900 
 14 C        4.1410     4.3900     1.2160 C.3   1 <1>   0.1200 
 15 C        6.1590     3.0470     1.9520 C.3   1 <1>   0.3430 
 16 C        5.7120     3.3620    -1.1070 C.3   1 <1>  -0.0800 
 17 O        5.1100     5.0850     0.4860 O.3   1 <1>  -0.5600 
 18 N        7.0060     2.3730     0.9110 N.4   1 <1>  -0.9590 
 19 C        5.1830     4.7860    -0.8670 C.3   1 <1>   0.1200 
 20 C        7.0650     3.1020    -0.4000 C.3   1 <1>   0.3430 
 21 C        8.3590     2.0530     1.4430 C.3   1 <1>   0.2630 
 22 H        0.1520    -0.4390    -0.9620 H     1 <1>   0.1500 
 23 H        4.6510    -1.9800     0.3660 H     1 <1>   0.1500 
 24 H        0.8390    -2.8100    -1.3480 H     1 <1>   0.1500 
 25 H        4.1150     2.6950     2.4790 H     1 <1>   0.0800 
 26 H        4.8910     1.4080    -1.4330 H     1 <1>   0.0800 
 27 H        3.6870     2.6510    -1.3270 H     1 <1>   0.0800 
 28 H        3.9720     4.9580     2.1150 H     1 <1>   0.0800 
 29 H        3.2150     4.3470     0.6670 H     1 <1>   0.0800 
 30 H        6.2870     2.5370     2.8920 H     1 <1>   0.0800 
 31 H        6.4690     4.0700     2.0890 H     1 <1>   0.0800 
 32 H        5.9290     3.3420    -2.1600 H     1 <1>   0.0800 
 33 H        6.4890     1.4830     0.7640 H     1 <1>   0.4500 
 34 H        4.2100     4.9310    -1.3090 H     1 <1>   0.0800 
 35 H        5.8550     5.5040    -1.3060 H     1 <1>   0.0800 
 36 H        7.5610     4.0490    -0.2560 H     1 <1>   0.0800 
 37 H        7.6770     2.5230    -1.0720 H     1 <1>   0.0800 
 38 H        8.8980     2.9590     1.6670 H     1 <1>   0.0800 
 39 H        8.9190     1.4840     0.7190 H     1 <1>   0.0800 
 40 H        8.2730     1.4670     2.3440 H     1 <1>   0.0800 
@<TRIPOS>BOND
  1   1   2  1   
  2   2   3  ar  
  3   2   4  ar  
  4   3   5  1   
  5   3   6  ar  
  6   4   7  ar  
  7   4  22  1   
  8   5   8  2   
  9   5   9  am  
 10   6  10  ar  
 11   6  23  1   
 12   7  10  ar  
 13   7  24  1   
 14   9  11  1   
 15   9  12  1   
 16  10  13  1   
 17  11  14  1   
 18  11  15  1   
 19  11  25  1   
 20  12  16  1   
 21  12  26  1   
 22  12  27  1   
 23  14  17  1   
 24  14  28  1   
 25  14  29  1   
 26  15  18  1   
 27  15  30  1   
 28  15  31  1   
 29  16  19  1   
 30  16  20  1   
 31  16  32  1   
 32  17  19  1   
 33  18  20  1   
 34  18  21  1   
 35  18  33  1   
 36  19  34  1   
 37  19  35  1   
 38  20  36  1   
 39  20  37  1   
 40  21  38  1   
 41  21  39  1   
 42  21  40  1   
@<TRIPOS>SUBSTRUCTURE
  1 ****   9 GROUP 4 **** **** 0

# MOE 2024.06 (io_trps.svl 2023.06)
