@<TRIPOS>MOLECULE
NONAME
50 54 1 0 0 
SMALL
USER_CHARGES


@<TRIPOS>ATOM
  1 O        1.0310    -0.8950    -1.5530 O.3   1 <1>  -0.5600 
  2 C        1.9590    -1.1810    -0.5290 C.3   1 <1>   0.4600 
  3 C       -0.3380    -1.0920    -1.2840 C.3   1 <1>   0.1200 
  4 C        1.5250    -2.4350     0.2190 C.2   1 <1>  -0.3320 
  5 C        2.0570     0.0270     0.4080 C.3   1 <1>  -0.1600 
  6 C        3.2950    -1.4130    -1.2350 C.3   1 <1>  -0.1600 
  7 C       -0.6400    -2.5740    -1.0090 C.3   1 <1>   0.0210 
  8 N        2.2230    -3.0910     1.1970 N.pl3 1 <1>   0.0330 
  9 C        0.3590    -3.0760     0.0030 C.2   1 <1>  -0.1810 
 10 C        2.5460     1.2650    -0.3410 C.3   1 <1>   0.2090 
 11 C        3.7550    -0.1540    -1.9700 C.3   1 <1>   0.2090 
 12 C        1.4780    -4.1750     1.5960 C.ar  1 <1>  -0.1520 
 13 C        0.2980    -4.1950     0.8590 C.ar  1 <1>   0.0000 
 14 N        3.8720     0.9690    -0.9850 N.pl3 1 <1>  -0.8380 
 15 C        1.7400    -5.1570     2.5550 C.ar  1 <1>  -0.1500 
 16 C       -0.6380    -5.2100     1.0770 C.ar  1 <1>  -0.1500 
 17 C        4.9980     1.6550    -0.6460 C.ar  1 <1>   0.7710 
 18 C        0.8100    -6.1500     2.7610 C.ar  1 <1>  -0.1500 
 19 C       -0.3790    -6.1770     2.0210 C.ar  1 <1>  -0.1500 
 20 N        4.9880     2.4420     0.4220 N.ar  1 <1>  -0.6200 
 21 N        6.1010     1.5170    -1.4060 N.ar  1 <1>  -0.1790 
 22 C        6.0870     3.0890     0.7320 C.ar  1 <1>   0.4100 
 23 C        7.2560     2.1640    -1.1140 C.ar  1 <1>   0.2110 
 24 N        5.9970     3.8620     1.8240 N.pl3 1 <1>  -0.8690 
 25 C        7.2660     2.9670    -0.0250 C.ar  1 <1>  -0.1500 
 26 C        6.9840     4.7970     2.4290 C.3   1 <1>   0.1290 
 27 H       -0.8940    -0.7540    -2.1400 H     1 <1>   0.0800 
 28 H       -0.6110    -0.4930    -0.4340 H     1 <1>   0.0800 
 29 H        2.7440    -0.1870     1.2050 H     1 <1>   0.0800 
 30 H        1.1010     0.2200     0.8570 H     1 <1>   0.0800 
 31 H        3.1800    -2.2250    -1.9310 H     1 <1>   0.0800 
 32 H        4.0420    -1.7000    -0.5190 H     1 <1>   0.0800 
 33 H       -0.5580    -3.1440    -1.9160 H     1 <1>   0.0800 
 34 H       -1.6390    -2.6760    -0.6250 H     1 <1>   0.0800 
 35 H        3.1350    -2.8380     1.5870 H     1 <1>   0.2700 
 36 H        2.6010     2.0950     0.3420 H     1 <1>   0.0800 
 37 H        1.8330     1.5290    -1.1050 H     1 <1>   0.0800 
 38 H        3.0330     0.1080    -2.7280 H     1 <1>   0.0800 
 39 H        4.6880    -0.3620    -2.4610 H     1 <1>   0.0800 
 40 H        2.6550    -5.1300     3.1190 H     1 <1>   0.1500 
 41 H       -1.5450    -5.2190     0.5020 H     1 <1>   0.1500 
 42 H        0.9880    -6.9180     3.4930 H     1 <1>   0.1500 
 43 H       -1.0890    -6.9650     2.2010 H     1 <1>   0.1500 
 44 H        5.9980     0.9240    -2.2190 H     1 <1>   0.4570 
 45 H        8.1180     2.0240    -1.7470 H     1 <1>   0.1500 
 46 H        5.0960     3.8250     2.3150 H     1 <1>   0.4000 
 47 H        8.1440     3.5070     0.2730 H     1 <1>   0.1500 
 48 H        7.7110     5.1150     1.7040 H     1 <1>   0.0800 
 49 H        7.4870     4.3150     3.2500 H     1 <1>   0.0800 
 50 H        6.4730     5.6700     2.8000 H     1 <1>   0.0800 
@<TRIPOS>BOND
  1   1   2  1   
  2   1   3  1   
  3   2   4  1   
  4   2   5  1   
  5   2   6  1   
  6   3   7  1   
  7   3  27  1   
  8   3  28  1   
  9   4   8  1   
 10   4   9  2   
 11   5  10  1   
 12   5  29  1   
 13   5  30  1   
 14   6  11  1   
 15   6  31  1   
 16   6  32  1   
 17   7   9  1   
 18   7  33  1   
 19   7  34  1   
 20   8  12  1   
 21   8  35  1   
 22   9  13  1   
 23  10  14  1   
 24  10  36  1   
 25  10  37  1   
 26  11  14  1   
 27  11  38  1   
 28  11  39  1   
 29  12  13  ar  
 30  12  15  ar  
 31  13  16  ar  
 32  14  17  1   
 33  15  18  ar  
 34  15  40  1   
 35  16  19  ar  
 36  16  41  1   
 37  17  20  ar  
 38  17  21  ar  
 39  18  19  ar  
 40  18  42  1   
 41  19  43  1   
 42  20  22  ar  
 43  21  23  ar  
 44  21  44  1   
 45  22  24  1   
 46  22  25  ar  
 47  23  25  ar  
 48  23  45  1   
 49  24  26  1   
 50  24  46  1   
 51  25  47  1   
 52  26  48  1   
 53  26  49  1   
 54  26  50  1   
@<TRIPOS>SUBSTRUCTURE
  1 ****   5 GROUP 4 **** **** 0

# MOE 2024.06 (io_trps.svl 2023.06)
