@<TRIPOS>MOLECULE
NONAME
44 47 1 0 0 
SMALL
USER_CHARGES


@<TRIPOS>ATOM
  1 S        0.2020    -0.8760    -0.0140 S.3   1 <1>  -0.2820 
  2 C       -1.3190    -1.7280     0.0210 C.2   1 <1>   0.6510 
  3 C       -0.6220     0.5540    -0.6280 C.2   1 <1>   0.5910 
  4 N       -1.4340    -2.9520     0.4160 N.2   1 <1>  -0.6210 
  5 N       -2.2960    -0.8830    -0.4270 N.am  1 <1>  -0.0580 
  6 N       -1.8710     0.4070    -0.7890 N.2   1 <1>  -0.5120 
  7 C        0.2510     1.7720    -0.8870 C.3   1 <1>  -0.1000 
  8 C       -2.6950    -3.4810     0.3860 C.2   1 <1>   0.0330 
  9 C       -3.5840    -1.3920    -0.4680 C.2   1 <1>   0.6160 
 10 C        0.6450     2.6870     0.2340 C.3   1 <1>  -0.2000 
 11 C       -0.3050     3.1640    -0.8240 C.3   1 <1>  -0.2000 
 12 C       -3.7520    -2.7350    -0.0430 C.2   1 <1>  -0.1360 
 13 C       -2.7410    -4.9340     0.8800 C.3   1 <1>   0.2480 
 14 O       -4.5340    -0.7210    -0.8480 O.2   1 <1>  -0.5700 
 15 N       -4.0080    -5.6840     0.7550 N.3   1 <1>  -0.8100 
 16 C       -4.4560    -5.9190    -0.6380 C.3   1 <1>   0.2900 
 17 C       -5.0750    -5.2800     1.6860 C.3   1 <1>   0.0300 
 18 C       -5.5440    -6.9840    -0.7230 C.2   1 <1>   0.0060 
 19 N       -6.7300    -6.7450    -1.1900 N.2   1 <1>  -0.5650 
 20 N       -5.3650    -8.2710    -0.3270 N.pl3 1 <1>   0.0480 
 21 C       -7.3590    -7.9290    -1.0960 C.2   1 <1>   0.0770 
 22 C       -6.5450    -8.8700    -0.5740 C.2   1 <1>  -0.3020 
 23 C       -4.1700    -8.9210     0.2540 C.3   1 <1>   0.0960 
 24 C       -3.2550    -9.4570    -0.8500 C.3   1 <1>  -0.2400 
 25 H        0.9870     1.5750    -1.6450 H     1 <1>   0.1000 
 26 H        1.6460     3.0840     0.2500 H     1 <1>   0.1000 
 27 H        0.2580     2.5050     1.2230 H     1 <1>   0.1000 
 28 H       -1.3430     3.2970    -0.5670 H     1 <1>   0.1000 
 29 H        0.0370     3.8900    -1.5410 H     1 <1>   0.1000 
 30 H       -4.7570    -3.0980    -0.0880 H     1 <1>   0.1500 
 31 H       -2.4450    -4.9400     1.9150 H     1 <1>   0.0800 
 32 H       -1.9820    -5.4810     0.3470 H     1 <1>   0.0800 
 33 H       -3.6210    -6.2390    -1.2340 H     1 <1>   0.0800 
 34 H       -4.8390    -5.0120    -1.0670 H     1 <1>   0.0800 
 35 H       -4.6750    -5.1650     2.6790 H     1 <1>   0.0800 
 36 H       -5.8370    -6.0400     1.7210 H     1 <1>   0.0800 
 37 H       -5.5360    -4.3590     1.3850 H     1 <1>   0.0800 
 38 H       -8.3820    -8.0440    -1.4140 H     1 <1>   0.1500 
 39 H       -6.7370    -9.9070    -0.3700 H     1 <1>   0.1500 
 40 H       -4.4950    -9.7280     0.8860 H     1 <1>   0.0800 
 41 H       -3.6420    -8.2120     0.8650 H     1 <1>   0.0800 
 42 H       -3.7810   -10.1750    -1.4550 H     1 <1>   0.0800 
 43 H       -2.4010    -9.9410    -0.4110 H     1 <1>   0.0800 
 44 H       -2.9080    -8.6520    -1.4730 H     1 <1>   0.0800 
@<TRIPOS>BOND
  1   1   2  1   
  2   1   3  1   
  3   2   4  2   
  4   2   5  1   
  5   3   6  2   
  6   3   7  1   
  7   4   8  1   
  8   5   6  1   
  9   5   9  am  
 10   7  10  1   
 11   7  11  1   
 12   7  25  1   
 13   8  12  2   
 14   8  13  1   
 15   9  12  1   
 16   9  14  2   
 17  10  11  1   
 18  10  26  1   
 19  10  27  1   
 20  11  28  1   
 21  11  29  1   
 22  12  30  1   
 23  13  15  1   
 24  13  31  1   
 25  13  32  1   
 26  15  16  1   
 27  15  17  1   
 28  16  18  1   
 29  16  33  1   
 30  16  34  1   
 31  17  35  1   
 32  17  36  1   
 33  17  37  1   
 34  18  19  2   
 35  18  20  1   
 36  19  21  1   
 37  20  22  1   
 38  20  23  1   
 39  21  22  2   
 40  21  38  1   
 41  22  39  1   
 42  23  24  1   
 43  23  40  1   
 44  23  41  1   
 45  24  42  1   
 46  24  43  1   
 47  24  44  1   
@<TRIPOS>SUBSTRUCTURE
  1 ****   8 GROUP 4 **** **** 0

# MOE 2024.06 (io_trps.svl 2023.06)
