@<TRIPOS>MOLECULE
NONAME
39 40 1 0 0 
SMALL
USER_CHARGES


@<TRIPOS>ATOM
  1 CL       0.6470     4.1840    -1.8060 Cl    1 <1>  -0.1770 
  2 C       -0.8140     3.4370    -1.2050 C.ar  1 <1>   0.1770 
  3 C       -1.6270     4.0910    -0.2890 C.ar  1 <1>  -0.1440 
  4 C       -1.1260     2.1720    -1.6710 C.ar  1 <1>  -0.1500 
  5 C       -2.7690     3.4440     0.1600 C.ar  1 <1>  -0.1500 
  6 C       -1.3040     5.4840     0.2320 C.3   1 <1>   0.2140 
  7 C       -2.2700     1.5390    -1.2170 C.ar  1 <1>  -0.1500 
  8 C       -3.0900     2.1770    -0.3010 C.ar  1 <1>  -0.1500 
  9 S       -0.7110     5.3150     1.9490 S.3   1 <1>  -0.4600 
 10 C        1.0280     4.7500     1.7750 C.3   1 <1>   0.1310 
 11 C        1.9680     5.8130     1.2120 C.2   1 <1>   0.5690 
 12 O        3.1380     5.5310     1.1100 O.2   1 <1>  -0.5700 
 13 N        1.4560     7.0140     0.8450 N.am  1 <1>  -0.7300 
 14 C        1.9360     8.1140    -0.0530 C.3   1 <1>   0.1940 
 15 C        0.6910     8.9900    -0.4330 C.2   1 <1>   0.9060 
 16 C        2.5580     7.5090    -1.3280 C.3   1 <1>  -0.1600 
 17 C        3.0150     8.9090     0.7050 C.3   1 <1>  -0.1600 
 18 O       -0.4390     8.5170    -0.2030 O.co2 1 <1>  -0.9000 
 19 O        0.8110    10.1130    -0.9440 O.co2 1 <1>  -0.9000 
 20 C        3.3190     8.5750    -2.1230 C.3   1 <1>   0.1200 
 21 C        3.7860     9.8570    -0.2250 C.3   1 <1>   0.1200 
 22 O        4.3010     9.1410    -1.3080 O.3   1 <1>  -0.5600 
 23 H       -0.4770     1.6930    -2.3810 H     1 <1>   0.1500 
 24 H       -3.4110     3.9290     0.8760 H     1 <1>   0.1500 
 25 H       -2.1810     6.1060     0.2630 H     1 <1>   0.0800 
 26 H       -0.5520     5.9820    -0.3500 H     1 <1>   0.0800 
 27 H       -2.5210     0.5550    -1.5740 H     1 <1>   0.1500 
 28 H       -3.9790     1.6860     0.0570 H     1 <1>   0.1500 
 29 H        1.0210     3.8900     1.1340 H     1 <1>   0.0800 
 30 H        1.3590     4.4640     2.7550 H     1 <1>   0.0800 
 31 H        0.4420     7.1660     0.9880 H     1 <1>   0.3700 
 32 H        1.7820     7.0910    -1.9430 H     1 <1>   0.0800 
 33 H        3.2570     6.7310    -1.0840 H     1 <1>   0.0800 
 34 H        3.7220     8.2310     1.1470 H     1 <1>   0.0800 
 35 H        2.5520     9.4810     1.4880 H     1 <1>   0.0800 
 36 H        2.6630     9.3550    -2.4720 H     1 <1>   0.0800 
 37 H        3.8120     8.1300    -2.9690 H     1 <1>   0.0800 
 38 H        4.6140    10.2990     0.2980 H     1 <1>   0.0800 
 39 H        3.1560    10.6450    -0.6010 H     1 <1>   0.0800 
@<TRIPOS>BOND
  1   1   2  1   
  2   2   3  ar  
  3   2   4  ar  
  4   3   5  ar  
  5   3   6  1   
  6   4   7  ar  
  7   4  23  1   
  8   5   8  ar  
  9   5  24  1   
 10   6   9  1   
 11   6  25  1   
 12   6  26  1   
 13   7   8  ar  
 14   7  27  1   
 15   8  28  1   
 16   9  10  1   
 17  10  11  1   
 18  10  29  1   
 19  10  30  1   
 20  11  12  2   
 21  11  13  am  
 22  13  14  1   
 23  13  31  1   
 24  14  15  1   
 25  14  16  1   
 26  14  17  1   
 27  15  18  ar  
 28  15  19  ar  
 29  16  20  1   
 30  16  32  1   
 31  16  33  1   
 32  17  21  1   
 33  17  34  1   
 34  17  35  1   
 35  20  22  1   
 36  20  36  1   
 37  20  37  1   
 38  21  22  1   
 39  21  38  1   
 40  21  39  1   
@<TRIPOS>SUBSTRUCTURE
  1 ****  13 GROUP 4 **** **** 0

# MOE 2024.06 (io_trps.svl 2023.06)
