@<TRIPOS>MOLECULE
NONAME
50 53 1 0 0 
SMALL
USER_CHARGES


@<TRIPOS>ATOM
  1 O       -0.2500    -0.4810    -0.1170 O.2   1 <1>  -0.5700 
  2 C        0.7470     0.1920    -0.3280 C.2   1 <1>   0.5440 
  3 N        0.7070     1.5330    -0.0150 N.am  1 <1>  -0.6600 
  4 C        1.9310    -0.4180    -0.8840 C.ar  1 <1>   0.0860 
  5 C        1.9020     2.3830     0.1940 C.3   1 <1>   0.1400 
  6 C       -0.5030     2.1800     0.5390 C.3   1 <1>   0.1400 
  7 C        2.4800    -1.5800    -0.3100 C.ar  1 <1>   0.4100 
  8 C        2.5580     0.1100    -2.0050 C.ar  1 <1>  -0.1500 
  9 C        1.4420     3.4640     1.1650 C.3   1 <1>  -0.1600 
 10 C       -0.0590     3.5870     0.9190 C.3   1 <1>  -0.1600 
 11 N        3.5680    -2.1920    -0.7730 N.ar  1 <1>  -0.6200 
 12 N        1.8960    -2.1510     0.7950 N.pl3 1 <1>  -0.8690 
 13 C        3.6830    -0.5240    -2.4800 C.ar  1 <1>  -0.1500 
 14 C        4.1400    -1.6570    -1.8320 C.ar  1 <1>   0.1600 
 15 C        1.8010    -3.6180     0.9680 C.3   1 <1>   0.2890 
 16 C        0.3690    -4.0630     0.7670 C.3   1 <1>  -0.0800 
 17 C        2.0930    -4.0720     2.3940 C.3   1 <1>   0.1200 
 18 C        0.2950    -5.3110     1.6370 C.3   1 <1>   0.1200 
 19 C        0.0070    -4.2860    -0.7080 C.3   1 <1>  -0.0170 
 20 O        1.1980    -5.1130     2.6830 O.3   1 <1>  -0.5600 
 21 C       -1.4550    -4.6720    -0.8510 C.ar  1 <1>  -0.1430 
 22 C       -1.8650    -5.9760    -1.0400 C.ar  1 <1>  -0.1500 
 23 C       -2.4520    -3.7200    -0.7920 C.ar  1 <1>  -0.1500 
 24 C       -3.2170    -6.2570    -1.1550 C.ar  1 <1>   0.1600 
 25 C       -3.7760    -4.1070    -0.9190 C.ar  1 <1>   0.1600 
 26 N       -4.1830    -5.3550    -1.0980 N.ar  1 <1>  -0.6200 
 27 H        2.7230     1.8140     0.6000 H     1 <1>   0.0800 
 28 H        2.1900     2.8250    -0.7440 H     1 <1>   0.0800 
 29 H       -1.2950     2.1920    -0.1910 H     1 <1>   0.0800 
 30 H       -0.8260     1.6360     1.4110 H     1 <1>   0.0800 
 31 H        2.1660     0.9890    -2.4860 H     1 <1>   0.1500 
 32 H        1.6200     3.1280     2.1720 H     1 <1>   0.0800 
 33 H        1.9630     4.3920     1.0080 H     1 <1>   0.0800 
 34 H       -0.2410     4.2470     0.0880 H     1 <1>   0.0800 
 35 H       -0.5880     3.9540     1.7800 H     1 <1>   0.0800 
 36 H        1.0160    -1.6910     1.0660 H     1 <1>   0.4000 
 37 H        4.2030    -0.1500    -3.3440 H     1 <1>   0.1500 
 38 H        5.0230    -2.1470    -2.2090 H     1 <1>   0.1500 
 39 H        2.4610    -4.1410     0.2970 H     1 <1>   0.0800 
 40 H       -0.2970    -3.3330     1.1930 H     1 <1>   0.0800 
 41 H        1.9100    -3.2790     3.0970 H     1 <1>   0.0800 
 42 H        3.0990    -4.4380     2.4940 H     1 <1>   0.0800 
 43 H        0.6120    -6.1860     1.0950 H     1 <1>   0.0800 
 44 H       -0.6900    -5.4680     2.0430 H     1 <1>   0.0800 
 45 H        0.6360    -5.0480    -1.1350 H     1 <1>   0.0800 
 46 H        0.1820    -3.3760    -1.2570 H     1 <1>   0.0800 
 47 H       -1.1490    -6.7750    -1.0990 H     1 <1>   0.1500 
 48 H       -2.2080    -2.6810    -0.6490 H     1 <1>   0.1500 
 49 H       -3.5190    -7.2790    -1.3030 H     1 <1>   0.1500 
 50 H       -4.5380    -3.3490    -0.8710 H     1 <1>   0.1500 
@<TRIPOS>BOND
  1   1   2  2   
  2   2   3  am  
  3   2   4  1   
  4   3   5  1   
  5   3   6  1   
  6   4   7  ar  
  7   4   8  ar  
  8   5   9  1   
  9   5  27  1   
 10   5  28  1   
 11   6  10  1   
 12   6  29  1   
 13   6  30  1   
 14   7  11  ar  
 15   7  12  1   
 16   8  13  ar  
 17   8  31  1   
 18   9  10  1   
 19   9  32  1   
 20   9  33  1   
 21  10  34  1   
 22  10  35  1   
 23  11  14  ar  
 24  12  15  1   
 25  12  36  1   
 26  13  14  ar  
 27  13  37  1   
 28  14  38  1   
 29  15  16  1   
 30  15  17  1   
 31  15  39  1   
 32  16  18  1   
 33  16  19  1   
 34  16  40  1   
 35  17  20  1   
 36  17  41  1   
 37  17  42  1   
 38  18  20  1   
 39  18  43  1   
 40  18  44  1   
 41  19  21  1   
 42  19  45  1   
 43  19  46  1   
 44  21  22  ar  
 45  21  23  ar  
 46  22  24  ar  
 47  22  47  1   
 48  23  25  ar  
 49  23  48  1   
 50  24  26  ar  
 51  24  49  1   
 52  25  26  ar  
 53  25  50  1   
@<TRIPOS>SUBSTRUCTURE
  1 ****  12 GROUP 4 **** **** 0

# MOE 2024.06 (io_trps.svl 2023.06)
