@<TRIPOS>MOLECULE
NONAME
48 50 1 0 0 
SMALL
USER_CHARGES


@<TRIPOS>ATOM
  1 O       -2.6750     2.0630    -1.8560 O.2   1 <1>  -0.5700 
  2 C       -2.4370     1.2240    -1.0150 C.2   1 <1>   0.5690 
  3 N       -3.0750     0.0060    -1.0540 N.am  1 <1>  -0.6600 
  4 C       -1.4120     1.6000     0.0690 C.3   1 <1>  -0.0190 
  5 C       -2.8240    -1.1100    -0.0690 C.3   1 <1>   0.3640 
  6 C       -4.1320    -0.1980    -2.0940 C.3   1 <1>   0.1400 
  7 C       -1.7570     2.9460     0.7390 C.3   1 <1>  -0.1600 
  8 C        0.0160     1.6440    -0.5130 C.3   1 <1>  -0.1600 
  9 C       -1.3880    -1.6180    -0.2320 C.ar  1 <1>  -0.1440 
 10 C       -3.7990    -2.3290    -0.1310 C.3   1 <1>   0.2000 
 11 C       -4.5920    -1.6500    -2.2220 C.3   1 <1>   0.1200 
 12 C       -0.7280     3.3170     1.8200 C.3   1 <1>  -0.1600 
 13 C        1.0510     2.0090     0.5610 C.3   1 <1>  -0.1600 
 14 C       -0.8540    -1.8800    -1.4880 C.ar  1 <1>  -0.1500 
 15 C       -0.5950    -1.8270     0.8890 C.ar  1 <1>  -0.1500 
 16 O       -4.9110    -2.1340    -0.9600 O.3   1 <1>  -0.5600 
 17 C       -4.3520    -2.7010     1.2530 C.3   1 <1>   0.1200 
 18 C        0.6890     3.3330     1.2400 C.3   1 <1>   0.2000 
 19 C        0.4440    -2.3380    -1.6210 C.ar  1 <1>  -0.1500 
 20 C        0.7040    -2.2840     0.7580 C.ar  1 <1>  -0.1500 
 21 O       -3.3210    -2.9780     2.1460 O.3   1 <1>  -0.6800 
 22 O        1.5750     3.5450     2.2720 O.3   1 <1>  -0.6800 
 23 C        1.2250    -2.5400    -0.4970 C.ar  1 <1>  -0.1500 
 24 H       -1.4200     0.8670     0.8480 H     1 <1>   0.0800 
 25 H       -2.9200    -0.6870     0.9150 H     1 <1>   0.0800 
 26 H       -4.9820     0.4140    -1.8430 H     1 <1>   0.0800 
 27 H       -3.7630     0.1370    -3.0480 H     1 <1>   0.0800 
 28 H       -1.7800     3.7220    -0.0080 H     1 <1>   0.0800 
 29 H       -2.7370     2.8880     1.1790 H     1 <1>   0.0800 
 30 H        0.2650     0.6870    -0.9360 H     1 <1>   0.0800 
 31 H        0.0520     2.3700    -1.3080 H     1 <1>   0.0800 
 32 H       -3.2740    -3.1830    -0.5230 H     1 <1>   0.0800 
 33 H       -3.8290    -2.2680    -2.6620 H     1 <1>   0.0800 
 34 H       -5.4770    -1.7040    -2.8310 H     1 <1>   0.0800 
 35 H       -0.7870     2.5990     2.6190 H     1 <1>   0.0800 
 36 H       -0.9610     4.2910     2.2140 H     1 <1>   0.0800 
 37 H        2.0210     2.0970     0.1030 H     1 <1>   0.0800 
 38 H        1.0860     1.2200     1.2910 H     1 <1>   0.0800 
 39 H       -1.4460    -1.7190    -2.3720 H     1 <1>   0.1500 
 40 H       -0.9860    -1.6350     1.8740 H     1 <1>   0.1500 
 41 H       -4.9810    -3.5720     1.1850 H     1 <1>   0.0800 
 42 H       -4.9200    -1.8800     1.6540 H     1 <1>   0.0800 
 43 H        0.7940     4.1480     0.5420 H     1 <1>   0.0800 
 44 H        0.8490    -2.5350    -2.5980 H     1 <1>   0.1500 
 45 H        1.3100    -2.4420     1.6340 H     1 <1>   0.1500 
 46 H       -2.8720    -3.8160     1.9120 H     1 <1>   0.4000 
 47 H        1.5170     2.8130     2.9120 H     1 <1>   0.4000 
 48 H        2.2360    -2.8960    -0.6000 H     1 <1>   0.1500 
@<TRIPOS>BOND
  1   1   2  2   
  2   2   3  am  
  3   2   4  1   
  4   3   5  1   
  5   3   6  1   
  6   4   7  1   
  7   4   8  1   
  8   4  24  1   
  9   5   9  1   
 10   5  10  1   
 11   5  25  1   
 12   6  11  1   
 13   6  26  1   
 14   6  27  1   
 15   7  12  1   
 16   7  28  1   
 17   7  29  1   
 18   8  13  1   
 19   8  30  1   
 20   8  31  1   
 21   9  14  ar  
 22   9  15  ar  
 23  10  16  1   
 24  10  17  1   
 25  10  32  1   
 26  11  16  1   
 27  11  33  1   
 28  11  34  1   
 29  12  18  1   
 30  12  35  1   
 31  12  36  1   
 32  13  18  1   
 33  13  37  1   
 34  13  38  1   
 35  14  19  ar  
 36  14  39  1   
 37  15  20  ar  
 38  15  40  1   
 39  17  21  1   
 40  17  41  1   
 41  17  42  1   
 42  18  22  1   
 43  18  43  1   
 44  19  23  ar  
 45  19  44  1   
 46  20  23  ar  
 47  20  45  1   
 48  21  46  1   
 49  22  47  1   
 50  23  48  1   
@<TRIPOS>SUBSTRUCTURE
  1 ****   9 GROUP 4 **** **** 0

# MOE 2024.06 (io_trps.svl 2023.06)
