@<TRIPOS>MOLECULE
NONAME
61 64 1 0 0 
SMALL
USER_CHARGES


@<TRIPOS>ATOM
  1 O       -0.5840    -0.3310    -0.1120 O.3   1 <1>  -0.2800 
  2 C        0.2390    -1.1040    -0.7980 C.2   1 <1>  -0.0400 
  3 C       -0.6600     0.8270    -0.7370 C.2   1 <1>  -0.0100 
  4 C        0.7010    -0.4490    -1.8860 C.2   1 <1>  -0.1500 
  5 C        0.5170    -2.5120    -0.3060 C.3   1 <1>   0.5230 
  6 C        0.1100     0.8200    -1.8440 C.2   1 <1>  -0.1500 
  7 N       -0.7890    -3.2310    -0.1620 N.4   1 <1>  -0.9590 
  8 C       -1.4010    -2.9410     1.1630 C.3   1 <1>   0.3430 
  9 C       -0.6520    -4.6830    -0.4340 C.3   1 <1>   0.3430 
 10 C       -2.7850    -3.5840     1.2460 C.3   1 <1>  -0.1600 
 11 C       -2.0280    -5.3530    -0.3740 C.3   1 <1>  -0.1600 
 12 C       -2.7450    -5.0950     0.9620 C.3   1 <1>   0.4230 
 13 N       -4.1410    -5.6520     0.9120 N.4   1 <1>  -0.9590 
 14 C       -4.2580    -7.1300     0.5400 C.3   1 <1>   0.3430 
 15 C       -4.9850    -5.3650     2.1310 C.3   1 <1>   0.3430 
 16 C       -5.7180    -7.6190     0.7980 C.3   1 <1>   0.4230 
 17 C       -6.4500    -5.8240     1.8850 C.3   1 <1>  -0.1600 
 18 N       -6.1280    -9.0580     0.4760 N.4   1 <1>  -0.9590 
 19 C       -6.6530    -6.3760     0.3790 C.3   1 <1>   0.0000 
 20 C       -6.5550    -9.3470    -0.9110 C.3   1 <1>   0.3430 
 21 C       -5.1560   -10.1030     0.9400 C.3   1 <1>   0.2630 
 22 C       -6.7740    -6.9110    -1.1340 C.3   1 <1>  -0.1600 
 23 C       -7.4780    -5.0680     0.0060 C.3   1 <1>   0.1200 
 24 C       -7.5040    -8.2420    -1.3090 C.3   1 <1>  -0.1600 
 25 O       -6.5280    -4.1010    -0.3360 O.3   1 <1>  -0.6800 
 26 H       -1.2830     1.6060    -0.3290 H     1 <1>   0.1500 
 27 H        1.3810    -0.7780    -2.6540 H     1 <1>   0.1500 
 28 H        1.0400    -2.4750     0.6360 H     1 <1>   0.0800 
 29 H        1.1440    -3.0090    -1.0280 H     1 <1>   0.0800 
 30 H        0.2630     1.6080    -2.5620 H     1 <1>   0.1500 
 31 H       -1.3780    -2.7860    -0.8840 H     1 <1>   0.4500 
 32 H       -0.7690    -3.3230     1.9500 H     1 <1>   0.0800 
 33 H       -1.4950    -1.8750     1.3040 H     1 <1>   0.0800 
 34 H       -0.2200    -4.8350    -1.4120 H     1 <1>   0.0800 
 35 H        0.0070    -5.1300     0.2950 H     1 <1>   0.0800 
 36 H       -3.4380    -3.0850     0.5510 H     1 <1>   0.0800 
 37 H       -3.1500    -3.4000     2.2400 H     1 <1>   0.0800 
 38 H       -1.8730    -6.4070    -0.5140 H     1 <1>   0.0800 
 39 H       -2.6210    -4.9860    -1.1930 H     1 <1>   0.0800 
 40 H       -2.1950    -5.5810     1.7530 H     1 <1>   0.0800 
 41 H       -4.6480    -5.1150     0.1730 H     1 <1>   0.4500 
 42 H       -4.0080    -7.2610    -0.4990 H     1 <1>   0.0800 
 43 H       -3.5790    -7.7110     1.1420 H     1 <1>   0.0800 
 44 H       -4.5790    -5.8590     3.0000 H     1 <1>   0.0800 
 45 H       -4.9960    -4.3040     2.3260 H     1 <1>   0.0800 
 46 H       -5.6880    -7.7080     1.8670 H     1 <1>   0.0800 
 47 H       -6.7650    -6.5330     2.6370 H     1 <1>   0.0800 
 48 H       -7.0070    -4.9710     2.2340 H     1 <1>   0.0800 
 49 H       -6.9920    -9.2140     1.0220 H     1 <1>   0.4500 
 50 H       -5.7050    -9.3570    -1.5750 H     1 <1>   0.0800 
 51 H       -7.0500   -10.3040    -0.9700 H     1 <1>   0.0800 
 52 H       -4.2400   -10.0510     0.3750 H     1 <1>   0.0800 
 53 H       -5.5770   -11.0880     0.8060 H     1 <1>   0.0800 
 54 H       -4.9300    -9.9760     1.9870 H     1 <1>   0.0800 
 55 H       -7.1970    -6.2750    -1.8970 H     1 <1>   0.0800 
 56 H       -5.7880    -7.0220    -1.5520 H     1 <1>   0.0800 
 57 H       -8.1250    -4.6590     0.7650 H     1 <1>   0.0800 
 58 H       -8.1940    -5.1370    -0.7960 H     1 <1>   0.0800 
 59 H       -7.7670    -8.3820    -2.3450 H     1 <1>   0.0800 
 60 H       -8.4130    -8.2750    -0.7330 H     1 <1>   0.0800 
 61 H       -6.9820    -3.2960    -0.6790 H     1 <1>   0.4000 
@<TRIPOS>BOND
  1   1   2  1   
  2   1   3  1   
  3   2   4  2   
  4   2   5  1   
  5   3   6  2   
  6   3  26  1   
  7   4   6  1   
  8   4  27  1   
  9   5   7  1   
 10   5  28  1   
 11   5  29  1   
 12   6  30  1   
 13   7   8  1   
 14   7   9  1   
 15   7  31  1   
 16   8  10  1   
 17   8  32  1   
 18   8  33  1   
 19   9  11  1   
 20   9  34  1   
 21   9  35  1   
 22  10  12  1   
 23  10  36  1   
 24  10  37  1   
 25  11  12  1   
 26  11  38  1   
 27  11  39  1   
 28  12  13  1   
 29  12  40  1   
 30  13  14  1   
 31  13  15  1   
 32  13  41  1   
 33  14  16  1   
 34  14  42  1   
 35  14  43  1   
 36  15  17  1   
 37  15  44  1   
 38  15  45  1   
 39  16  18  1   
 40  16  19  1   
 41  16  46  1   
 42  17  19  1   
 43  17  47  1   
 44  17  48  1   
 45  18  20  1   
 46  18  21  1   
 47  18  49  1   
 48  19  22  1   
 49  19  23  1   
 50  20  24  1   
 51  20  50  1   
 52  20  51  1   
 53  21  52  1   
 54  21  53  1   
 55  21  54  1   
 56  22  24  1   
 57  22  55  1   
 58  22  56  1   
 59  23  25  1   
 60  23  57  1   
 61  23  58  1   
 62  24  59  1   
 63  24  60  1   
 64  25  61  1   
@<TRIPOS>SUBSTRUCTURE
  1 ****  12 GROUP 4 **** **** 0

# MOE 2024.06 (io_trps.svl 2023.06)
