@<TRIPOS>MOLECULE
NONAME
47 49 1 0 0 
SMALL
USER_CHARGES


@<TRIPOS>ATOM
  1 O       -0.0090     3.9550     2.3200 O.2   1 <1>  -0.5700 
  2 C        0.2050     3.7860     1.1400 C.2   1 <1>   0.5690 
  3 N       -0.8180     3.6360     0.2340 N.am  1 <1>  -0.6600 
  4 C        1.6660     3.7340     0.7090 C.3   1 <1>   0.0440 
  5 C       -2.2480     3.5990     0.6750 C.3   1 <1>   0.1400 
  6 C       -0.6530     3.3340    -1.2140 C.3   1 <1>   0.1400 
  7 C        2.1100     2.3340     0.2910 C.ar  1 <1>  -0.1440 
  8 C       -2.8650     2.1990     0.4210 C.3   1 <1>   0.0000 
  9 C       -1.2120     1.9380    -1.5090 C.3   1 <1>  -0.1600 
 10 C        1.8190     1.2450     1.0970 C.ar  1 <1>  -0.1500 
 11 C        2.8050     2.1360    -0.8950 C.ar  1 <1>  -0.1500 
 12 C       -4.3470     2.1600     0.8350 C.3   1 <1>   0.2000 
 13 C       -2.6790     1.8110    -1.0630 C.3   1 <1>  -0.1600 
 14 C       -2.2520     1.1580     1.3740 C.3   1 <1>  -0.1600 
 15 C        2.2070    -0.0270     0.7100 C.ar  1 <1>   0.0820 
 16 C        3.1950     0.8620    -1.2770 C.ar  1 <1>  -0.1500 
 17 O       -5.0130     3.3350     0.4730 O.3   1 <1>  -0.5600 
 18 C       -4.3490     1.9610     2.3540 C.3   1 <1>  -0.1600 
 19 C       -2.9930     1.3320     2.7030 C.3   1 <1>  -0.1600 
 20 O        1.9180    -1.0820     1.4860 O.3   1 <1>  -0.5330 
 21 C        2.8940    -0.2230    -0.4740 C.ar  1 <1>  -0.1500 
 22 C       -6.4020     3.2650     0.5320 C.3   1 <1>   0.0400 
 23 H        1.8150     4.4380    -0.0870 H     1 <1>   0.0800 
 24 H        2.2770     4.0530     1.5340 H     1 <1>   0.0800 
 25 H       -2.3310     3.8590     1.7150 H     1 <1>   0.0800 
 26 H       -2.7910     4.3410     0.1160 H     1 <1>   0.0800 
 27 H       -1.1950     4.0680    -1.7840 H     1 <1>   0.0800 
 28 H        0.3770     3.3800    -1.5130 H     1 <1>   0.0800 
 29 H       -1.1400     1.7460    -2.5650 H     1 <1>   0.0800 
 30 H       -0.6050     1.2060    -1.0050 H     1 <1>   0.0800 
 31 H        1.2890     1.3870     2.0220 H     1 <1>   0.1500 
 32 H        3.0480     2.9700    -1.5290 H     1 <1>   0.1500 
 33 H       -4.8250     1.3230     0.3540 H     1 <1>   0.0800 
 34 H       -3.0220     0.8060    -1.2320 H     1 <1>   0.0800 
 35 H       -3.2830     2.4680    -1.6660 H     1 <1>   0.0800 
 36 H       -2.4410     0.1670     0.9980 H     1 <1>   0.0800 
 37 H       -1.1900     1.2770     1.4940 H     1 <1>   0.0800 
 38 H        3.7330     0.7150    -2.1970 H     1 <1>   0.1500 
 39 H       -4.4420     2.9100     2.8550 H     1 <1>   0.0800 
 40 H       -5.1570     1.3160     2.6480 H     1 <1>   0.0800 
 41 H       -2.4380     2.0020     3.3390 H     1 <1>   0.0800 
 42 H       -3.1090     0.3890     3.2090 H     1 <1>   0.0800 
 43 H        1.4430    -0.8310     2.2980 H     1 <1>   0.4500 
 44 H        3.1880    -1.2180    -0.7570 H     1 <1>   0.1500 
 45 H       -6.7970     4.2140     0.2140 H     1 <1>   0.0800 
 46 H       -6.7090     3.0690     1.5440 H     1 <1>   0.0800 
 47 H       -6.7480     2.4890    -0.1280 H     1 <1>   0.0800 
@<TRIPOS>BOND
  1   1   2  2   
  2   2   3  am  
  3   2   4  1   
  4   3   5  1   
  5   3   6  1   
  6   4   7  1   
  7   4  23  1   
  8   4  24  1   
  9   5   8  1   
 10   5  25  1   
 11   5  26  1   
 12   6   9  1   
 13   6  27  1   
 14   6  28  1   
 15   7  10  ar  
 16   7  11  ar  
 17   8  12  1   
 18   8  13  1   
 19   8  14  1   
 20   9  13  1   
 21   9  29  1   
 22   9  30  1   
 23  10  15  ar  
 24  10  31  1   
 25  11  16  ar  
 26  11  32  1   
 27  12  17  1   
 28  12  18  1   
 29  12  33  1   
 30  13  34  1   
 31  13  35  1   
 32  14  19  1   
 33  14  36  1   
 34  14  37  1   
 35  15  20  1   
 36  15  21  ar  
 37  16  21  ar  
 38  16  38  1   
 39  17  22  1   
 40  18  19  1   
 41  18  39  1   
 42  18  40  1   
 43  19  41  1   
 44  19  42  1   
 45  20  43  1   
 46  21  44  1   
 47  22  45  1   
 48  22  46  1   
 49  22  47  1   
@<TRIPOS>SUBSTRUCTURE
  1 ****   3 GROUP 4 **** **** 0

# MOE 2024.06 (io_trps.svl 2023.06)
