@<TRIPOS>MOLECULE
NONAME
48 51 1 0 0 
SMALL
USER_CHARGES


@<TRIPOS>ATOM
  1 O       -2.1500    -0.6690     1.0640 O.2   1 <1>  -0.5700 
  2 C       -2.1830     0.5300     0.9580 C.2   1 <1>   0.5950 
  3 C       -3.0250     1.2630     0.0500 C.2   1 <1>  -0.0860 
  4 C       -1.2590     1.3510     1.8540 C.3   1 <1>  -0.0990 
  5 C       -3.8860     0.8980    -1.0330 C.2   1 <1>  -0.0860 
  6 C       -3.1020     2.6140     0.1130 C.2   1 <1>  -0.0400 
  7 C       -1.8830     2.6960     2.2880 C.3   1 <1>  -0.1600 
  8 C       -4.3740     2.0930    -1.4860 C.2   1 <1>  -0.0400 
  9 C       -4.1750    -0.4240    -1.5560 C.2   1 <1>   0.7160 
 10 O       -3.8940     3.0970    -0.7980 O.3   1 <1>  -0.2800 
 11 C       -2.3850     3.5220     1.0900 C.3   1 <1>   0.0200 
 12 C       -5.3420     2.4520    -2.5990 C.3   1 <1>  -0.0600 
 13 O       -4.6900    -0.5720    -2.6470 O.2   1 <1>  -0.5700 
 14 N       -3.8950    -1.5480    -0.8450 N.am  1 <1>  -0.7300 
 15 C       -4.0910    -2.9400    -1.3110 C.3   1 <1>   0.2200 
 16 C       -5.4200    -3.5550    -0.8660 C.3   1 <1>  -0.0800 
 17 C       -3.0320    -3.8860    -0.7350 C.3   1 <1>   0.1200 
 18 C       -5.0090    -5.0100    -0.6590 C.3   1 <1>   0.1200 
 19 C       -6.0120    -2.9510     0.4270 C.3   1 <1>  -0.0170 
 20 O       -3.7190    -4.9510    -0.1480 O.3   1 <1>  -0.5600 
 21 C       -7.2990    -3.6500     0.8410 C.ar  1 <1>  -0.1430 
 22 C       -8.4890    -3.4320     0.1780 C.ar  1 <1>  -0.1500 
 23 C       -7.3440    -4.5340     1.9000 C.ar  1 <1>  -0.1500 
 24 C       -9.6330    -4.0950     0.5890 C.ar  1 <1>   0.1600 
 25 C       -8.5420    -5.1460     2.2300 C.ar  1 <1>   0.1600 
 26 N       -9.6890    -4.9490     1.5990 N.ar  1 <1>  -0.6200 
 27 H       -1.0160     0.7730     2.7270 H     1 <1>   0.0800 
 28 H       -0.3480     1.5330     1.3150 H     1 <1>   0.0800 
 29 H       -2.7210     2.4900     2.9330 H     1 <1>   0.0800 
 30 H       -1.1700     3.2710     2.8520 H     1 <1>   0.0800 
 31 H       -1.5600     3.9930     0.5840 H     1 <1>   0.0800 
 32 H       -3.0560     4.2920     1.4310 H     1 <1>   0.0800 
 33 H       -5.7840     1.5810    -3.0440 H     1 <1>   0.0800 
 34 H       -4.8230     3.0030    -3.3620 H     1 <1>   0.0800 
 35 H       -6.1290     3.0670    -2.2050 H     1 <1>   0.0800 
 36 H       -3.3720    -1.4450     0.0350 H     1 <1>   0.3700 
 37 H       -4.0220    -2.9700    -2.3860 H     1 <1>   0.0800 
 38 H       -6.1440    -3.4870    -1.6570 H     1 <1>   0.0800 
 39 H       -2.4320    -3.4160     0.0250 H     1 <1>   0.0800 
 40 H       -2.4040    -4.2800    -1.5140 H     1 <1>   0.0800 
 41 H       -4.9690    -5.5360    -1.5980 H     1 <1>   0.0800 
 42 H       -5.6380    -5.5490     0.0260 H     1 <1>   0.0800 
 43 H       -6.2340    -1.9090     0.2730 H     1 <1>   0.0800 
 44 H       -5.2890    -3.0150     1.2230 H     1 <1>   0.0800 
 45 H       -8.5350    -2.7540    -0.6540 H     1 <1>   0.1500 
 46 H       -6.4580    -4.7550     2.4680 H     1 <1>   0.1500 
 47 H      -10.5520    -3.9130     0.0580 H     1 <1>   0.1500 
 48 H       -8.5570    -5.8340     3.0580 H     1 <1>   0.1500 
@<TRIPOS>BOND
  1   1   2  2   
  2   2   3  1   
  3   2   4  1   
  4   3   5  1   
  5   3   6  2   
  6   4   7  1   
  7   4  27  1   
  8   4  28  1   
  9   5   8  2   
 10   5   9  1   
 11   6  10  1   
 12   6  11  1   
 13   7  11  1   
 14   7  29  1   
 15   7  30  1   
 16   8  10  1   
 17   8  12  1   
 18   9  13  2   
 19   9  14  am  
 20  11  31  1   
 21  11  32  1   
 22  12  33  1   
 23  12  34  1   
 24  12  35  1   
 25  14  15  1   
 26  14  36  1   
 27  15  16  1   
 28  15  17  1   
 29  15  37  1   
 30  16  18  1   
 31  16  19  1   
 32  16  38  1   
 33  17  20  1   
 34  17  39  1   
 35  17  40  1   
 36  18  20  1   
 37  18  41  1   
 38  18  42  1   
 39  19  21  1   
 40  19  43  1   
 41  19  44  1   
 42  21  22  ar  
 43  21  23  ar  
 44  22  24  ar  
 45  22  45  1   
 46  23  25  ar  
 47  23  46  1   
 48  24  26  ar  
 49  24  47  1   
 50  25  26  ar  
 51  25  48  1   
@<TRIPOS>SUBSTRUCTURE
  1 ****  14 GROUP 4 **** **** 0

# MOE 2024.06 (io_trps.svl 2023.06)
