@<TRIPOS>MOLECULE
NONAME
53 56 1 0 0 
SMALL
USER_CHARGES


@<TRIPOS>ATOM
  1 O       -0.7120    -4.4130     2.1220 O.2   1 <1>  -0.5700 
  2 C       -0.4210    -3.8240     1.0880 C.2   1 <1>   0.7670 
  3 N       -1.2790    -2.8550     0.6540 N.2   1 <1>  -0.6610 
  4 C        0.7490    -4.1710     0.3390 C.2   1 <1>  -0.1240 
  5 C       -1.0190    -2.2900    -0.4630 C.2   1 <1>   0.4390 
  6 C        0.9680    -3.5520    -0.8490 C.2   1 <1>  -0.0380 
  7 C        1.6640    -5.2490     0.9260 C.3   1 <1>   0.0390 
  8 N        0.0620    -2.6010    -1.2290 N.pl3 1 <1>  -0.5500 
  9 C       -1.9410    -1.2230    -0.9960 C.3   1 <1>  -0.1790 
 10 C        2.1050    -3.8060    -1.8270 C.3   1 <1>  -0.1020 
 11 C        1.1180    -6.6270     0.6120 C.2   1 <1>   0.5690 
 12 O        1.6630    -7.2940    -0.2330 O.2   1 <1>  -0.5700 
 13 N        0.0080    -7.0500     1.2640 N.am  1 <1>  -0.7300 
 14 C       -0.7620    -8.2630     0.9170 C.3   1 <1>   0.2200 
 15 C       -2.1360    -7.8920     0.4040 C.3   1 <1>  -0.0800 
 16 C       -1.0860    -9.1450     2.1150 C.3   1 <1>   0.1200 
 17 C       -2.9420    -9.1430     0.7350 C.3   1 <1>   0.1200 
 18 C       -2.1380    -7.5000    -1.0830 C.3   1 <1>  -0.0170 
 19 O       -2.3420    -9.7100     1.8630 O.3   1 <1>  -0.5600 
 20 C       -3.5500    -7.2400    -1.6010 C.ar  1 <1>  -0.1440 
 21 C       -4.2730    -6.0660    -1.2810 C.ar  1 <1>   0.0000 
 22 C       -4.1630    -8.1570    -2.4030 C.ar  1 <1>  -0.1500 
 23 C       -5.5830    -5.9350    -1.8050 C.ar  1 <1>   0.3100 
 24 C       -3.7770    -5.0160    -0.4750 C.ar  1 <1>  -0.1500 
 25 C       -5.4610    -7.9270    -2.8740 C.ar  1 <1>   0.1600 
 26 N       -6.1600    -6.8710    -2.5990 N.ar  1 <1>  -0.6200 
 27 C       -6.3280    -4.7860    -1.4930 C.ar  1 <1>  -0.1500 
 28 C       -4.5290    -3.9110    -0.1870 C.ar  1 <1>  -0.1500 
 29 C       -5.8220    -3.7910    -0.7010 C.ar  1 <1>  -0.1500 
 30 H        1.7390    -5.1370     1.9920 H     1 <1>   0.0800 
 31 H        2.6610    -5.1690     0.5390 H     1 <1>   0.0800 
 32 H        0.1810    -2.1040    -2.1150 H     1 <1>   0.4000 
 33 H       -1.3910    -0.3210    -1.1880 H     1 <1>   0.0800 
 34 H       -2.7120    -1.0070    -0.2780 H     1 <1>   0.0800 
 35 H       -2.4050    -1.5620    -1.9040 H     1 <1>   0.0800 
 36 H        1.7130    -3.9100    -2.8230 H     1 <1>   0.0800 
 37 H        2.6400    -4.7090    -1.6000 H     1 <1>   0.0800 
 38 H        2.7950    -2.9820    -1.8100 H     1 <1>   0.0800 
 39 H       -0.4620    -6.3900     1.9040 H     1 <1>   0.3700 
 40 H       -0.2290    -8.8520     0.1880 H     1 <1>   0.0800 
 41 H       -2.5380    -7.0920     1.0000 H     1 <1>   0.0800 
 42 H       -1.1660    -8.5640     3.0170 H     1 <1>   0.0800 
 43 H       -0.3670    -9.9350     2.2380 H     1 <1>   0.0800 
 44 H       -2.8880    -9.8660    -0.0600 H     1 <1>   0.0800 
 45 H       -3.9710    -8.9170     0.9560 H     1 <1>   0.0800 
 46 H       -1.6850    -8.2890    -1.6570 H     1 <1>   0.0800 
 47 H       -1.5320    -6.6230    -1.2310 H     1 <1>   0.0800 
 48 H       -3.6760    -9.0700    -2.6920 H     1 <1>   0.1500 
 49 H       -2.7850    -5.0810    -0.0720 H     1 <1>   0.1500 
 50 H       -5.9070    -8.6770    -3.5060 H     1 <1>   0.1500 
 51 H       -7.3190    -4.7160    -1.9000 H     1 <1>   0.1500 
 52 H       -4.1330    -3.1290     0.4390 H     1 <1>   0.1500 
 53 H       -6.4050    -2.9170    -0.4660 H     1 <1>   0.1500 
@<TRIPOS>BOND
  1   1   2  2   
  2   2   3  1   
  3   2   4  1   
  4   3   5  2   
  5   4   6  2   
  6   4   7  1   
  7   5   8  1   
  8   5   9  1   
  9   6   8  1   
 10   6  10  1   
 11   7  11  1   
 12   7  30  1   
 13   7  31  1   
 14   8  32  1   
 15   9  33  1   
 16   9  34  1   
 17   9  35  1   
 18  10  36  1   
 19  10  37  1   
 20  10  38  1   
 21  11  12  2   
 22  11  13  am  
 23  13  14  1   
 24  13  39  1   
 25  14  15  1   
 26  14  16  1   
 27  14  40  1   
 28  15  17  1   
 29  15  18  1   
 30  15  41  1   
 31  16  19  1   
 32  16  42  1   
 33  16  43  1   
 34  17  19  1   
 35  17  44  1   
 36  17  45  1   
 37  18  20  1   
 38  18  46  1   
 39  18  47  1   
 40  20  21  ar  
 41  20  22  ar  
 42  21  23  ar  
 43  21  24  ar  
 44  22  25  ar  
 45  22  48  1   
 46  23  26  ar  
 47  23  27  ar  
 48  24  28  ar  
 49  24  49  1   
 50  25  26  ar  
 51  25  50  1   
 52  27  29  ar  
 53  27  51  1   
 54  28  29  ar  
 55  28  52  1   
 56  29  53  1   
@<TRIPOS>SUBSTRUCTURE
  1 ****  24 GROUP 4 **** **** 0

# MOE 2024.06 (io_trps.svl 2023.06)
