@<TRIPOS>MOLECULE
NONAME
55 57 1 0 0 
SMALL
USER_CHARGES


@<TRIPOS>ATOM
  1 O        0.5180    -0.8700     1.4310 O.2   1 <1>  -0.5700 
  2 C        1.6750    -1.2130     1.2870 C.2   1 <1>   0.5440 
  3 N        2.6500    -0.3030     1.5660 N.am  1 <1>  -0.7300 
  4 C        2.0060    -2.5460     0.8090 C.ar  1 <1>   0.0860 
  5 C        2.4290     1.0510     2.0950 C.3   1 <1>   0.4000 
  6 C        1.0770    -3.3000     0.0930 C.ar  1 <1>  -0.1500 
  7 C        3.2530    -3.1300     1.0450 C.ar  1 <1>  -0.1500 
  8 C        2.8770     2.0700     1.0490 C.2   1 <1>   0.0060 
  9 C        3.2070     1.1650     3.4050 C.3   1 <1>  -0.2400 
 10 C        1.3670    -4.5700    -0.3750 C.ar  1 <1>   0.0830 
 11 C        3.5590    -4.3960     0.5780 C.ar  1 <1>  -0.1500 
 12 N        3.9930     2.7170     1.0570 N.2   1 <1>  -0.5650 
 13 N        2.1350     2.4010    -0.0200 N.pl3 1 <1>   0.3140 
 14 O        0.3820    -5.2110    -1.0510 O.3   1 <1>  -0.3630 
 15 C        2.6210    -5.1210    -0.1330 C.ar  1 <1>  -0.1500 
 16 C        3.8830     3.4610    -0.0490 C.2   1 <1>   0.3660 
 17 N        2.7940     3.3130    -0.7250 N.2   1 <1>  -0.7070 
 18 C        0.8060     1.9060    -0.4530 C.3   1 <1>   0.0960 
 19 C        0.5140    -6.5750    -1.4290 C.3   1 <1>   0.1810 
 20 C        0.9360     0.8990    -1.6040 C.3   1 <1>  -0.2400 
 21 C       -0.7620    -7.1090    -2.0780 C.2   1 <1>   0.5690 
 22 O       -0.6690    -7.4880    -3.2230 O.2   1 <1>  -0.5700 
 23 N       -1.9490    -7.1930    -1.3850 N.am  1 <1>  -0.6600 
 24 C       -3.1840    -7.7240    -2.0290 C.3   1 <1>   0.1400 
 25 C       -2.1550    -6.7190     0.0140 C.3   1 <1>   0.1400 
 26 C       -3.7530    -8.8730    -1.1910 C.3   1 <1>  -0.1600 
 27 C       -2.7140    -7.8600     0.8710 C.3   1 <1>  -0.1600 
 28 C       -3.9950    -8.4480     0.2640 C.3   1 <1>  -0.1600 
 29 H        3.6160    -0.4720     1.2860 H     1 <1>   0.3700 
 30 H        1.3860     1.2020     2.3130 H     1 <1>   0.0800 
 31 H        0.1030    -2.8880    -0.1040 H     1 <1>   0.1500 
 32 H        3.9960    -2.5930     1.6070 H     1 <1>   0.1500 
 33 H        4.2570     1.0050     3.2370 H     1 <1>   0.0800 
 34 H        2.8410     0.4470     4.1170 H     1 <1>   0.0800 
 35 H        3.0770     2.1500     3.8140 H     1 <1>   0.0800 
 36 H        4.5300    -4.8200     0.7710 H     1 <1>   0.1500 
 37 H        2.8860    -6.0990    -0.4880 H     1 <1>   0.1500 
 38 H        4.6700     4.1390    -0.3380 H     1 <1>   0.1500 
 39 H        0.2280     2.7510    -0.7780 H     1 <1>   0.0800 
 40 H        0.3020     1.4530     0.3790 H     1 <1>   0.0800 
 41 H        0.7360    -7.1550    -0.5530 H     1 <1>   0.0800 
 42 H        1.3230    -6.6490    -2.1310 H     1 <1>   0.0800 
 43 H        1.3970     1.3690    -2.4560 H     1 <1>   0.0800 
 44 H       -0.0380     0.5470    -1.8910 H     1 <1>   0.0800 
 45 H        1.5280     0.0540    -1.3010 H     1 <1>   0.0800 
 46 H       -2.9750    -8.0750    -3.0250 H     1 <1>   0.0800 
 47 H       -3.9070    -6.9300    -2.1030 H     1 <1>   0.0800 
 48 H       -2.8510    -5.8970     0.0020 H     1 <1>   0.0800 
 49 H       -1.2380    -6.3670     0.4510 H     1 <1>   0.0800 
 50 H       -3.0600    -9.6960    -1.2200 H     1 <1>   0.0800 
 51 H       -4.6760    -9.2070    -1.6290 H     1 <1>   0.0800 
 52 H       -2.9200    -7.4910     1.8600 H     1 <1>   0.0800 
 53 H       -1.9670    -8.6290     0.9560 H     1 <1>   0.0800 
 54 H       -4.3170    -9.2970     0.8430 H     1 <1>   0.0800 
 55 H       -4.7770    -7.7080     0.2930 H     1 <1>   0.0800 
@<TRIPOS>BOND
  1   1   2  2   
  2   2   3  am  
  3   2   4  1   
  4   3   5  1   
  5   3  29  1   
  6   4   6  ar  
  7   4   7  ar  
  8   5   8  1   
  9   5   9  1   
 10   5  30  1   
 11   6  10  ar  
 12   6  31  1   
 13   7  11  ar  
 14   7  32  1   
 15   8  12  2   
 16   8  13  1   
 17   9  33  1   
 18   9  34  1   
 19   9  35  1   
 20  10  14  1   
 21  10  15  ar  
 22  11  15  ar  
 23  11  36  1   
 24  12  16  1   
 25  13  17  1   
 26  13  18  1   
 27  14  19  1   
 28  15  37  1   
 29  16  17  2   
 30  16  38  1   
 31  18  20  1   
 32  18  39  1   
 33  18  40  1   
 34  19  21  1   
 35  19  41  1   
 36  19  42  1   
 37  20  43  1   
 38  20  44  1   
 39  20  45  1   
 40  21  22  2   
 41  21  23  am  
 42  23  24  1   
 43  23  25  1   
 44  24  26  1   
 45  24  46  1   
 46  24  47  1   
 47  25  27  1   
 48  25  48  1   
 49  25  49  1   
 50  26  28  1   
 51  26  50  1   
 52  26  51  1   
 53  27  28  1   
 54  27  52  1   
 55  27  53  1   
 56  28  54  1   
 57  28  55  1   
@<TRIPOS>SUBSTRUCTURE
  1 ****   6 GROUP 4 **** **** 0

# MOE 2024.06 (io_trps.svl 2023.06)
