@<TRIPOS>MOLECULE
NONAME
61 64 1 0 0 
SMALL
USER_CHARGES


@<TRIPOS>ATOM
  1 O        0.2730     2.7780    -2.4820 O.2   1 <1>  -0.5700 
  2 C       -0.0780     3.0560    -1.3460 C.2   1 <1>   0.5440 
  3 N       -1.1930     3.8700    -1.2020 N.am  1 <1>  -0.6600 
  4 C        0.7070     2.5370    -0.2200 C.ar  1 <1>   0.3960 
  5 C       -1.6080     4.5210     0.0670 C.3   1 <1>   0.1400 
  6 C       -2.1470     4.1180    -2.3110 C.3   1 <1>   0.1400 
  7 N        0.0980     2.0410     0.8740 N.ar  1 <1>  -0.6200 
  8 C        2.1000     2.5550    -0.3200 C.ar  1 <1>  -0.1500 
  9 C       -2.9630     3.9520     0.4910 C.3   1 <1>  -0.1600 
 10 C       -3.5090     3.5360    -1.9230 C.3   1 <1>  -0.1600 
 11 C        0.8720     1.5820     1.8390 C.ar  1 <1>   0.1600 
 12 C        2.8980     2.0760     0.6950 C.ar  1 <1>  -0.1500 
 13 C       -4.0460     4.1250    -0.5940 C.3   1 <1>   0.2800 
 14 C        2.2540     1.5770     1.8040 C.ar  1 <1>  -0.1500 
 15 O       -4.2060     5.5150    -0.7370 O.3   1 <1>  -0.5600 
 16 C       -5.3810     3.5050    -0.0700 C.3   1 <1>   0.2000 
 17 C       -5.2860     5.9940    -1.4830 C.3   1 <1>   0.1200 
 18 O       -5.3400     2.1020    -0.0270 O.3   1 <1>  -0.6800 
 19 C       -6.6850     4.0070    -0.7540 C.3   1 <1>   0.3000 
 20 C       -6.6060     5.5370    -0.8580 C.3   1 <1>  -0.1600 
 21 N       -7.8000     3.5980     0.1270 N.am  1 <1>  -0.7300 
 22 C       -6.9880     3.3730    -2.1250 C.3   1 <1>  -0.2400 
 23 C       -9.0940     4.0160     0.1580 C.2   1 <1>   0.5690 
 24 O       -9.5260     4.8690    -0.5770 O.2   1 <1>  -0.5700 
 25 C      -10.0440     3.3660     1.1590 C.3   1 <1>  -0.0190 
 26 C       -9.5900     3.5710     2.6150 C.3   1 <1>  -0.1600 
 27 C      -10.2380     1.8640     0.8830 C.3   1 <1>  -0.1600 
 28 C      -10.5120     2.8200     3.5810 C.3   1 <1>   0.1200 
 29 C      -11.1180     1.2250     1.9620 C.3   1 <1>   0.1200 
 30 O      -10.5600     1.4750     3.2160 O.3   1 <1>  -0.5600 
 31 H       -0.8800     4.3690     0.8420 H     1 <1>   0.0800 
 32 H       -1.6940     5.5820    -0.0960 H     1 <1>   0.0800 
 33 H       -2.2270     5.1780    -2.4790 H     1 <1>   0.0800 
 34 H       -1.8030     3.6590    -3.2220 H     1 <1>   0.0800 
 35 H        2.5480     2.9510    -1.2140 H     1 <1>   0.1500 
 36 H       -3.2770     4.4360     1.3980 H     1 <1>   0.0800 
 37 H       -2.8330     2.9070     0.7140 H     1 <1>   0.0800 
 38 H       -3.3880     2.4730    -1.8210 H     1 <1>   0.0800 
 39 H       -4.1820     3.7020    -2.7340 H     1 <1>   0.0800 
 40 H        0.3790     1.1840     2.7110 H     1 <1>   0.1500 
 41 H        3.9720     2.0890     0.6230 H     1 <1>   0.1500 
 42 H        2.8150     1.1840     2.6340 H     1 <1>   0.1500 
 43 H       -5.4540     3.8170     0.9570 H     1 <1>   0.0800 
 44 H       -5.2300     7.0690    -1.4720 H     1 <1>   0.0800 
 45 H       -5.1890     5.6650    -2.5020 H     1 <1>   0.0800 
 46 H       -5.1770     1.7420    -0.9190 H     1 <1>   0.4000 
 47 H       -6.6880     5.9750     0.1210 H     1 <1>   0.0800 
 48 H       -7.4130     5.9130    -1.4580 H     1 <1>   0.0800 
 49 H       -7.5400     2.8000     0.7130 H     1 <1>   0.3700 
 50 H       -6.2830     3.6660    -2.8730 H     1 <1>   0.0800 
 51 H       -7.9550     3.6970    -2.4680 H     1 <1>   0.0800 
 52 H       -6.9980     2.3010    -2.0590 H     1 <1>   0.0800 
 53 H      -11.0010     3.8450     1.0450 H     1 <1>   0.0800 
 54 H       -9.5970     4.6200     2.8540 H     1 <1>   0.0800 
 55 H       -8.5860     3.2080     2.7530 H     1 <1>   0.0800 
 56 H       -9.2900     1.3560     0.8730 H     1 <1>   0.0800 
 57 H      -10.6960     1.7280    -0.0810 H     1 <1>   0.0800 
 58 H      -11.5120     3.2190     3.5610 H     1 <1>   0.0800 
 59 H      -10.1320     2.8740     4.5860 H     1 <1>   0.0800 
 60 H      -11.1650     0.1580     1.8300 H     1 <1>   0.0800 
 61 H      -12.1180     1.6250     1.9430 H     1 <1>   0.0800 
@<TRIPOS>BOND
  1   1   2  2   
  2   2   3  am  
  3   2   4  1   
  4   3   5  1   
  5   3   6  1   
  6   4   7  ar  
  7   4   8  ar  
  8   5   9  1   
  9   5  31  1   
 10   5  32  1   
 11   6  10  1   
 12   6  33  1   
 13   6  34  1   
 14   7  11  ar  
 15   8  12  ar  
 16   8  35  1   
 17   9  13  1   
 18   9  36  1   
 19   9  37  1   
 20  10  13  1   
 21  10  38  1   
 22  10  39  1   
 23  11  14  ar  
 24  11  40  1   
 25  12  14  ar  
 26  12  41  1   
 27  13  15  1   
 28  13  16  1   
 29  14  42  1   
 30  15  17  1   
 31  16  18  1   
 32  16  19  1   
 33  16  43  1   
 34  17  20  1   
 35  17  44  1   
 36  17  45  1   
 37  18  46  1   
 38  19  20  1   
 39  19  21  1   
 40  19  22  1   
 41  20  47  1   
 42  20  48  1   
 43  21  23  am  
 44  21  49  1   
 45  22  50  1   
 46  22  51  1   
 47  22  52  1   
 48  23  24  2   
 49  23  25  1   
 50  25  26  1   
 51  25  27  1   
 52  25  53  1   
 53  26  28  1   
 54  26  54  1   
 55  26  55  1   
 56  27  29  1   
 57  27  56  1   
 58  27  57  1   
 59  28  30  1   
 60  28  58  1   
 61  28  59  1   
 62  29  30  1   
 63  29  60  1   
 64  29  61  1   
@<TRIPOS>SUBSTRUCTURE
  1 ****  16 GROUP 4 **** **** 0

# MOE 2024.06 (io_trps.svl 2023.06)
