@<TRIPOS>MOLECULE
NONAME
54 57 1 0 0 
SMALL
USER_CHARGES


@<TRIPOS>ATOM
  1 O       -0.5550    -0.3980     0.3400 O.3   1 <1>  -0.3630 
  2 C       -0.4640    -1.7640     0.3040 C.ar  1 <1>   0.0830 
  3 C        0.5610     0.4330     0.5630 C.3   1 <1>   0.0400 
  4 C       -1.6480    -2.5040     0.0350 C.ar  1 <1>   0.3100 
  5 C        0.7310    -2.4060     0.5230 C.ar  1 <1>  -0.1500 
  6 N       -2.8010    -1.8050    -0.1480 N.ar  1 <1>  -0.6200 
  7 C       -1.5870    -3.9260    -0.0260 C.ar  1 <1>   0.0000 
  8 C        0.7960    -3.7930     0.4830 C.ar  1 <1>  -0.1500 
  9 C       -3.8910    -2.4590    -0.4020 C.ar  1 <1>   0.4100 
 10 C       -0.3260    -4.5470     0.2190 C.ar  1 <1>   0.0830 
 11 C       -2.8030    -4.6050    -0.3320 C.ar  1 <1>  -0.1440 
 12 N       -5.0650    -1.7530    -0.5530 N.pl3 1 <1>  -0.8380 
 13 C       -3.9220    -3.8540    -0.5120 C.ar  1 <1>  -0.1500 
 14 O       -0.2490    -5.9060     0.1940 O.3   1 <1>  -0.3630 
 15 C       -2.9390    -6.1170    -0.4820 C.3   1 <1>  -0.0970 
 16 C       -6.0940    -1.9190     0.5090 C.3   1 <1>   0.2090 
 17 C       -4.9950    -0.3650    -1.0790 C.3   1 <1>   0.2090 
 18 C        0.9450    -6.6210     0.4280 C.3   1 <1>   0.0400 
 19 C       -7.5060    -1.5740    -0.0250 C.3   1 <1>   0.0000 
 20 C       -6.3640     0.0430    -1.6380 C.3   1 <1>  -0.1600 
 21 C       -8.5910    -1.7380     1.0560 C.3   1 <1>   0.2000 
 22 C       -7.4900    -0.1410    -0.6040 C.3   1 <1>  -0.1600 
 23 C       -7.9510    -2.6170    -1.0660 C.3   1 <1>  -0.1600 
 24 O       -8.1780    -1.3330     2.3150 O.3   1 <1>  -0.6800 
 25 C       -8.9730    -3.2190     1.0780 C.3   1 <1>  -0.1600 
 26 C       -8.4930    -3.8000    -0.2590 C.3   1 <1>  -0.1600 
 27 H        0.2260     1.4540     0.5270 H     1 <1>   0.0800 
 28 H        1.2860     0.2600    -0.2120 H     1 <1>   0.0800 
 29 H        0.9690     0.2170     1.5340 H     1 <1>   0.0800 
 30 H        1.6380    -1.8720     0.7290 H     1 <1>   0.1500 
 31 H        1.7540    -4.2390     0.6660 H     1 <1>   0.1500 
 32 H       -4.8700    -4.2950    -0.7520 H     1 <1>   0.1500 
 33 H       -3.9430    -6.3950    -0.7470 H     1 <1>   0.0800 
 34 H       -2.6920    -6.6030     0.4450 H     1 <1>   0.0800 
 35 H       -2.2820    -6.4700    -1.2560 H     1 <1>   0.0800 
 36 H       -6.0720    -2.9270     0.8830 H     1 <1>   0.0800 
 37 H       -5.8390    -1.2590     1.3200 H     1 <1>   0.0800 
 38 H       -4.7010     0.2990    -0.2840 H     1 <1>   0.0800 
 39 H       -4.2500    -0.3120    -1.8560 H     1 <1>   0.0800 
 40 H        0.7240    -7.6700     0.3500 H     1 <1>   0.0800 
 41 H        1.2990    -6.3960     1.4180 H     1 <1>   0.0800 
 42 H        1.6700    -6.3450    -0.3170 H     1 <1>   0.0800 
 43 H       -6.3220     1.0720    -1.9460 H     1 <1>   0.0800 
 44 H       -6.5650    -0.5510    -2.5110 H     1 <1>   0.0800 
 45 H       -9.4550    -1.1510     0.7910 H     1 <1>   0.0800 
 46 H       -8.4380     0.0910    -1.0570 H     1 <1>   0.0800 
 47 H       -7.3350     0.5550     0.2030 H     1 <1>   0.0800 
 48 H       -8.7490    -2.2120    -1.6640 H     1 <1>   0.0800 
 49 H       -7.1520    -2.9150    -1.7250 H     1 <1>   0.0800 
 50 H       -7.4810    -1.9270     2.6490 H     1 <1>   0.4000 
 51 H       -8.4970    -3.7390     1.8910 H     1 <1>   0.0800 
 52 H      -10.0400    -3.3170     1.1690 H     1 <1>   0.0800 
 53 H       -7.7000    -4.5080    -0.0810 H     1 <1>   0.0800 
 54 H       -9.2890    -4.2980    -0.7860 H     1 <1>   0.0800 
@<TRIPOS>BOND
  1   1   2  1   
  2   1   3  1   
  3   2   4  ar  
  4   2   5  ar  
  5   3  27  1   
  6   3  28  1   
  7   3  29  1   
  8   4   6  ar  
  9   4   7  ar  
 10   5   8  ar  
 11   5  30  1   
 12   6   9  ar  
 13   7  10  ar  
 14   7  11  ar  
 15   8  10  ar  
 16   8  31  1   
 17   9  12  1   
 18   9  13  ar  
 19  10  14  1   
 20  11  13  ar  
 21  11  15  1   
 22  12  16  1   
 23  12  17  1   
 24  13  32  1   
 25  14  18  1   
 26  15  33  1   
 27  15  34  1   
 28  15  35  1   
 29  16  19  1   
 30  16  36  1   
 31  16  37  1   
 32  17  20  1   
 33  17  38  1   
 34  17  39  1   
 35  18  40  1   
 36  18  41  1   
 37  18  42  1   
 38  19  21  1   
 39  19  22  1   
 40  19  23  1   
 41  20  22  1   
 42  20  43  1   
 43  20  44  1   
 44  21  24  1   
 45  21  25  1   
 46  21  45  1   
 47  22  46  1   
 48  22  47  1   
 49  23  26  1   
 50  23  48  1   
 51  23  49  1   
 52  24  50  1   
 53  25  26  1   
 54  25  51  1   
 55  25  52  1   
 56  26  53  1   
 57  26  54  1   
@<TRIPOS>SUBSTRUCTURE
  1 ****   9 GROUP 4 **** **** 0

# MOE 2024.06 (io_trps.svl 2023.06)
