@<TRIPOS>MOLECULE
NONAME
48 50 1 0 0 
SMALL
USER_CHARGES


@<TRIPOS>ATOM
  1 CL       0.2590    -2.1980    -0.3100 Cl    1 <1>  -0.1770 
  2 C       -1.4420    -2.4270     0.0050 C.ar  1 <1>   0.1770 
  3 C       -2.3720    -1.8340    -0.8280 C.ar  1 <1>  -0.1500 
  4 C       -1.8340    -3.1980     1.0830 C.ar  1 <1>  -0.1500 
  5 C       -3.7210    -2.0190    -0.5750 C.ar  1 <1>  -0.1500 
  6 C       -3.1840    -3.3790     1.3300 C.ar  1 <1>  -0.1500 
  7 C       -4.1320    -2.7900     0.5030 C.ar  1 <1>  -0.1430 
  8 C       -5.6140    -2.9940     0.7710 C.3   1 <1>  -0.0160 
  9 C       -6.1410    -4.1800    -0.0440 C.3   1 <1>  -0.1600 
 10 C       -7.6370    -4.4280     0.2090 C.3   1 <1>  -0.0990 
 11 C       -8.1690    -5.5690    -0.6330 C.2   1 <1>   0.5690 
 12 O       -8.8450    -5.3240    -1.6010 O.2   1 <1>  -0.5700 
 13 N       -7.8650    -6.8380    -0.2720 N.am  1 <1>  -0.7300 
 14 C       -8.2710    -8.0480    -1.0190 C.3   1 <1>   0.2200 
 15 C       -9.3470    -8.7810    -0.2380 C.3   1 <1>  -0.0800 
 16 C       -7.1320    -9.0610    -1.0030 C.3   1 <1>   0.1200 
 17 C       -8.5230    -9.6200     0.7470 C.3   1 <1>   0.1200 
 18 C      -10.2190    -9.6530    -1.1620 C.3   1 <1>  -0.0170 
 19 O       -7.2320    -9.7290     0.2190 O.3   1 <1>  -0.5600 
 20 C      -11.3130   -10.3680    -0.3840 C.ar  1 <1>  -0.1430 
 21 C      -11.2510   -11.7170    -0.0990 C.ar  1 <1>  -0.1500 
 22 C      -12.4300    -9.7000     0.0760 C.ar  1 <1>  -0.1500 
 23 C      -12.2750   -12.3140     0.6170 C.ar  1 <1>   0.1600 
 24 C      -13.3990   -10.3920     0.7840 C.ar  1 <1>   0.1600 
 25 N      -13.3480   -11.6830     1.0670 N.ar  1 <1>  -0.6200 
 26 H       -2.0420    -1.2390    -1.6600 H     1 <1>   0.1500 
 27 H       -1.0910    -3.6490     1.7150 H     1 <1>   0.1500 
 28 H       -4.4490    -1.5610    -1.2220 H     1 <1>   0.1500 
 29 H       -3.4930    -3.9810     2.1670 H     1 <1>   0.1500 
 30 H       -5.7700    -3.1710     1.8210 H     1 <1>   0.0800 
 31 H       -6.1520    -2.1000     0.5060 H     1 <1>   0.0800 
 32 H       -5.5790    -5.0620     0.2090 H     1 <1>   0.0800 
 33 H       -5.9900    -3.9840    -1.0930 H     1 <1>   0.0800 
 34 H       -8.1960    -3.5410    -0.0330 H     1 <1>   0.0800 
 35 H       -7.8060    -4.6530     1.2460 H     1 <1>   0.0800 
 36 H       -7.2880    -7.0250     0.5510 H     1 <1>   0.3700 
 37 H       -8.5720    -7.7870    -2.0210 H     1 <1>   0.0800 
 38 H       -9.9850    -8.0900     0.2850 H     1 <1>   0.0800 
 39 H       -6.1640    -8.6000    -1.0880 H     1 <1>   0.0800 
 40 H       -7.2580    -9.7890    -1.7850 H     1 <1>   0.0800 
 41 H       -8.9210   -10.6070     0.8980 H     1 <1>   0.0800 
 42 H       -8.4420    -9.1200     1.6970 H     1 <1>   0.0800 
 43 H       -9.6120   -10.3760    -1.6770 H     1 <1>   0.0800 
 44 H      -10.6820    -9.0290    -1.9070 H     1 <1>   0.0800 
 45 H      -10.4160   -12.3110    -0.4240 H     1 <1>   0.1500 
 46 H      -12.5560    -8.6490    -0.1080 H     1 <1>   0.1500 
 47 H      -12.2090   -13.3680     0.8310 H     1 <1>   0.1500 
 48 H      -14.2630    -9.8540     1.1350 H     1 <1>   0.1500 
@<TRIPOS>BOND
  1   1   2  1   
  2   2   3  ar  
  3   2   4  ar  
  4   3   5  ar  
  5   3  26  1   
  6   4   6  ar  
  7   4  27  1   
  8   5   7  ar  
  9   5  28  1   
 10   6   7  ar  
 11   6  29  1   
 12   7   8  1   
 13   8   9  1   
 14   8  30  1   
 15   8  31  1   
 16   9  10  1   
 17   9  32  1   
 18   9  33  1   
 19  10  11  1   
 20  10  34  1   
 21  10  35  1   
 22  11  12  2   
 23  11  13  am  
 24  13  14  1   
 25  13  36  1   
 26  14  15  1   
 27  14  16  1   
 28  14  37  1   
 29  15  17  1   
 30  15  18  1   
 31  15  38  1   
 32  16  19  1   
 33  16  39  1   
 34  16  40  1   
 35  17  19  1   
 36  17  41  1   
 37  17  42  1   
 38  18  20  1   
 39  18  43  1   
 40  18  44  1   
 41  20  21  ar  
 42  20  22  ar  
 43  21  23  ar  
 44  21  45  1   
 45  22  24  ar  
 46  22  46  1   
 47  23  25  ar  
 48  23  47  1   
 49  24  25  ar  
 50  24  48  1   
@<TRIPOS>SUBSTRUCTURE
  1 ****  13 GROUP 4 **** **** 0

# MOE 2024.06 (io_trps.svl 2023.06)
