@<TRIPOS>MOLECULE
NONAME
46 48 1 0 0 
SMALL
USER_CHARGES


@<TRIPOS>ATOM
  1 S        0.2870     0.1480    -0.5070 S.o2  1 <1>   1.3330 
  2 O        0.1860    -1.2820    -0.3300 O.2   1 <1>  -0.6500 
  3 O        0.1040     0.7230    -1.8210 O.2   1 <1>  -0.6500 
  4 N       -0.8210     0.8840     0.5470 N.am  1 <1>  -0.8490 
  5 C        1.8610     0.7500     0.1000 C.3   1 <1>  -0.0550 
  6 C       -2.1410     1.0480    -0.0720 C.3   1 <1>   0.1160 
  7 C       -0.9610     0.1740     1.8240 C.3   1 <1>   0.1160 
  8 C        3.0740     0.2210    -0.7050 C.3   1 <1>  -0.0800 
  9 C        4.3870     0.9400    -0.4090 C.3   1 <1>   0.2200 
 10 C        3.4310    -1.1850    -0.2290 C.3   1 <1>   0.1200 
 11 N        4.2290     2.4050    -0.2130 N.am  1 <1>  -0.7300 
 12 C        4.9110     0.2010     0.8290 C.3   1 <1>   0.1200 
 13 O        4.1690    -0.9820     0.9310 O.3   1 <1>  -0.5600 
 14 C        5.2370     3.2510     0.1600 C.2   1 <1>   0.5440 
 15 O        6.3340     2.7790     0.3820 O.2   1 <1>  -0.5700 
 16 C        5.0080     4.6820     0.2640 C.ar  1 <1>   0.0860 
 17 C        6.0630     5.5840     0.1190 C.ar  1 <1>  -0.1500 
 18 C        3.7290     5.2120     0.5150 C.ar  1 <1>  -0.1500 
 19 C        5.8080     6.9370     0.2130 C.ar  1 <1>   0.0400 
 20 C        3.4980     6.5750     0.6040 C.ar  1 <1>  -0.1500 
 21 S        6.9300     8.2720     0.0670 S.3   1 <1>  -0.0800 
 22 C        4.5520     7.4620     0.4490 C.ar  1 <1>   0.2270 
 23 C        5.6010     9.3940     0.3360 C.2   1 <1>   0.1980 
 24 N        4.4680     8.8480     0.5110 N.2   1 <1>  -0.5650 
 25 C        5.9380    10.8670     0.3300 C.3   1 <1>  -0.0600 
 26 H        1.8250     1.8190     0.0440 H     1 <1>   0.0800 
 27 H        1.9790     0.4890     1.1340 H     1 <1>   0.0800 
 28 H       -2.8180     1.5290     0.6130 H     1 <1>   0.0800 
 29 H       -2.5440     0.0900    -0.3550 H     1 <1>   0.0800 
 30 H       -2.0620     1.6630    -0.9530 H     1 <1>   0.0800 
 31 H       -1.6090     0.7240     2.4840 H     1 <1>   0.0800 
 32 H       -0.0010     0.0700     2.3010 H     1 <1>   0.0800 
 33 H       -1.3750    -0.8090     1.6660 H     1 <1>   0.0800 
 34 H        2.8630     0.2280    -1.7600 H     1 <1>   0.0800 
 35 H        5.0820     0.7740    -1.2160 H     1 <1>   0.0800 
 36 H        4.0640    -1.6880    -0.9410 H     1 <1>   0.0800 
 37 H        2.5820    -1.8050    -0.0030 H     1 <1>   0.0800 
 38 H        3.4130     2.8140    -0.6680 H     1 <1>   0.3700 
 39 H        4.7550     0.7700     1.7290 H     1 <1>   0.0800 
 40 H        5.9520    -0.0480     0.7230 H     1 <1>   0.0800 
 41 H        7.0640     5.2310    -0.0630 H     1 <1>   0.1500 
 42 H        2.8990     4.5420     0.6530 H     1 <1>   0.1500 
 43 H        2.5170     6.9690     0.7950 H     1 <1>   0.1500 
 44 H        5.0470    11.4430     0.5040 H     1 <1>   0.0800 
 45 H        6.3530    11.1420    -0.6210 H     1 <1>   0.0800 
 46 H        6.6500    11.0810     1.1050 H     1 <1>   0.0800 
@<TRIPOS>BOND
  1   1   2  2   
  2   1   3  2   
  3   1   4  am  
  4   1   5  1   
  5   4   6  1   
  6   4   7  1   
  7   5   8  1   
  8   5  26  1   
  9   5  27  1   
 10   6  28  1   
 11   6  29  1   
 12   6  30  1   
 13   7  31  1   
 14   7  32  1   
 15   7  33  1   
 16   8   9  1   
 17   8  10  1   
 18   8  34  1   
 19   9  11  1   
 20   9  12  1   
 21   9  35  1   
 22  10  13  1   
 23  10  36  1   
 24  10  37  1   
 25  11  14  am  
 26  11  38  1   
 27  12  13  1   
 28  12  39  1   
 29  12  40  1   
 30  14  15  2   
 31  14  16  1   
 32  16  17  ar  
 33  16  18  ar  
 34  17  19  ar  
 35  17  41  1   
 36  18  20  ar  
 37  18  42  1   
 38  19  21  1   
 39  19  22  ar  
 40  20  22  ar  
 41  20  43  1   
 42  21  23  1   
 43  22  24  1   
 44  23  24  2   
 45  23  25  1   
 46  25  44  1   
 47  25  45  1   
 48  25  46  1   
@<TRIPOS>SUBSTRUCTURE
  1 ****  11 GROUP 4 **** **** 0

# MOE 2024.06 (io_trps.svl 2023.06)
