@<TRIPOS>MOLECULE
NONAME
39 40 1 0 0 
SMALL
USER_CHARGES


@<TRIPOS>ATOM
  1 CL      -0.0870     3.3110    -0.9080 Cl    1 <1>  -0.1770 
  2 C        1.6420     3.1500    -0.7160 C.ar  1 <1>   0.1770 
  3 C        2.3860     4.2140    -0.2300 C.ar  1 <1>   0.1600 
  4 C        2.2540     1.9640    -1.0570 C.ar  1 <1>  -0.1500 
  5 N        3.7070     4.2010    -0.0500 N.ar  1 <1>  -0.6200 
  6 C        3.6130     1.9420    -0.8630 C.ar  1 <1>   0.1900 
  7 C        4.3130     3.0520    -0.3480 C.ar  1 <1>   0.4100 
  8 F        4.2590     0.8470    -1.1870 F     1 <1>  -0.1900 
  9 N        5.6810     3.0640    -0.1010 N.pl3 1 <1>  -0.8380 
 10 C        6.5700     3.5870    -1.1920 C.3   1 <1>   0.2090 
 11 C        6.2410     1.9470     0.7120 C.3   1 <1>   0.2090 
 12 C        7.2210     4.9160    -0.7580 C.3   1 <1>   0.3430 
 13 C        7.1500     2.5180     1.7940 C.3   1 <1>  -0.2400 
 14 N        6.2200     5.7390    -0.0220 N.4   1 <1>  -0.9590 
 15 C        5.5300     6.7600    -0.8730 C.3   1 <1>   0.3430 
 16 C        6.7420     6.3240     1.2520 C.3   1 <1>   0.3430 
 17 C        4.5240     7.5890    -0.0500 C.3   1 <1>   0.1200 
 18 C        5.6600     7.1600     1.9610 C.3   1 <1>   0.1200 
 19 O        5.1400     8.1220     1.0870 O.3   1 <1>  -0.5600 
 20 H        1.8560     5.1170     0.0220 H     1 <1>   0.1500 
 21 H        1.7080     1.1240    -1.4450 H     1 <1>   0.1500 
 22 H        5.9870     3.7570    -2.0810 H     1 <1>   0.0800 
 23 H        7.3340     2.8690    -1.4380 H     1 <1>   0.0800 
 24 H        6.7840     1.2600     0.0850 H     1 <1>   0.0800 
 25 H        5.4400     1.4020     1.1860 H     1 <1>   0.0800 
 26 H        7.6060     5.4470    -1.6120 H     1 <1>   0.0800 
 27 H        8.0460     4.6860    -0.1060 H     1 <1>   0.0800 
 28 H        8.0080     2.9970     1.3620 H     1 <1>   0.0800 
 29 H        7.4960     1.7170     2.4230 H     1 <1>   0.0800 
 30 H        6.6050     3.2140     2.4050 H     1 <1>   0.0800 
 31 H        5.4890     5.0300     0.2410 H     1 <1>   0.4500 
 32 H        5.0080     6.2710    -1.6780 H     1 <1>   0.0800 
 33 H        6.2560     7.4320    -1.2990 H     1 <1>   0.0800 
 34 H        7.5840     6.9620     1.0440 H     1 <1>   0.0800 
 35 H        7.0690     5.5360     1.9090 H     1 <1>   0.0800 
 36 H        3.6900     6.9840     0.2600 H     1 <1>   0.0800 
 37 H        4.1520     8.4100    -0.6370 H     1 <1>   0.0800 
 38 H        6.0830     7.6780     2.8040 H     1 <1>   0.0800 
 39 H        4.8560     6.5340     2.3090 H     1 <1>   0.0800 
@<TRIPOS>BOND
  1   1   2  1   
  2   2   3  ar  
  3   2   4  ar  
  4   3   5  ar  
  5   3  20  1   
  6   4   6  ar  
  7   4  21  1   
  8   5   7  ar  
  9   6   7  ar  
 10   6   8  1   
 11   7   9  1   
 12   9  10  1   
 13   9  11  1   
 14  10  12  1   
 15  10  22  1   
 16  10  23  1   
 17  11  13  1   
 18  11  24  1   
 19  11  25  1   
 20  12  14  1   
 21  12  26  1   
 22  12  27  1   
 23  13  28  1   
 24  13  29  1   
 25  13  30  1   
 26  14  15  1   
 27  14  16  1   
 28  14  31  1   
 29  15  17  1   
 30  15  32  1   
 31  15  33  1   
 32  16  18  1   
 33  16  34  1   
 34  16  35  1   
 35  17  19  1   
 36  17  36  1   
 37  17  37  1   
 38  18  19  1   
 39  18  38  1   
 40  18  39  1   
@<TRIPOS>SUBSTRUCTURE
  1 ****   5 GROUP 4 **** **** 0

# MOE 2024.06 (io_trps.svl 2023.06)
