@<TRIPOS>MOLECULE
NONAME
52 55 1 0 0 
SMALL
USER_CHARGES


@<TRIPOS>ATOM
  1 O        1.6260     0.3580     3.8630 O.3   1 <1>  -0.6800 
  2 C        1.2340    -0.2700     2.6880 C.3   1 <1>   0.2000 
  3 C        1.8860    -1.6490     2.6530 C.3   1 <1>  -0.0800 
  4 C        1.8930     0.4690     1.5140 C.3   1 <1>   0.3430 
  5 C        3.3310    -1.2950     2.2790 C.3   1 <1>   0.3430 
  6 C        1.1800    -2.5990     1.6520 C.3   1 <1>  -0.0170 
  7 N        3.2390    -0.1610     1.3210 N.4   1 <1>  -0.9590 
  8 C        2.1750    -3.4820     0.9070 C.ar  1 <1>  -0.1440 
  9 C        4.3350     0.8130     1.4960 C.3   1 <1>   0.5240 
 10 C        2.6890    -3.1600    -0.3750 C.ar  1 <1>   0.0000 
 11 C        2.6350    -4.6190     1.5060 C.ar  1 <1>  -0.1500 
 12 C        4.3690     1.6490     0.2350 C.2   1 <1>  -0.1810 
 13 C        3.6920    -4.0080    -0.9060 C.ar  1 <1>   0.3100 
 14 C        2.2770    -2.0580    -1.1630 C.ar  1 <1>  -0.1500 
 15 C        3.6120    -5.4010     0.8800 C.ar  1 <1>   0.1600 
 16 C        4.9750     1.3590    -0.9500 C.2   1 <1>  -0.3320 
 17 C        3.7600     2.8970     0.0840 C.2   1 <1>  -0.1500 
 18 N        4.1440    -5.1120    -0.2640 N.ar  1 <1>  -0.6200 
 19 C        4.2560    -3.7000    -2.1540 C.ar  1 <1>  -0.1500 
 20 C        2.8460    -1.7860    -2.3770 C.ar  1 <1>  -0.1500 
 21 N        4.7630     2.3850    -1.8250 N.pl3 1 <1>   0.0480 
 22 C        5.7880     0.1220    -1.3120 C.3   1 <1>  -0.0600 
 23 C        4.0070     3.3290    -1.1850 C.2   1 <1>  -0.1320 
 24 C        3.8510    -2.6150    -2.8800 C.ar  1 <1>  -0.1500 
 25 C        5.2630     2.4820    -3.2170 C.3   1 <1>   0.0160 
 26 C        3.5810     4.5490    -1.8020 C.1   1 <1>   0.5370 
 27 N        3.2430     5.5070    -2.3190 N.1   1 <1>  -0.5570 
 28 H        1.0910     0.0540     4.6280 H     1 <1>   0.4000 
 29 H        0.1570    -0.2740     2.6350 H     1 <1>   0.0800 
 30 H        1.8740    -2.1160     3.6230 H     1 <1>   0.0800 
 31 H        1.9660     1.5230     1.7270 H     1 <1>   0.0800 
 32 H        1.3040     0.3320     0.6230 H     1 <1>   0.0800 
 33 H        3.8720    -2.1300     1.8620 H     1 <1>   0.0800 
 34 H        3.8380    -0.9660     3.1720 H     1 <1>   0.0800 
 35 H        0.5630    -2.0600     0.9590 H     1 <1>   0.0800 
 36 H        0.5030    -3.2300     2.2030 H     1 <1>   0.0800 
 37 H        3.3220    -0.5080     0.3540 H     1 <1>   0.4500 
 38 H        4.1690     1.4290     2.3650 H     1 <1>   0.0800 
 39 H        5.2770     0.3000     1.6040 H     1 <1>   0.0800 
 40 H        2.2760    -4.9410     2.4680 H     1 <1>   0.1500 
 41 H        1.4870    -1.4180    -0.8260 H     1 <1>   0.1500 
 42 H        3.9480    -6.2920     1.3840 H     1 <1>   0.1500 
 43 H        3.2010     3.4260     0.8390 H     1 <1>   0.1500 
 44 H        5.0210    -4.3590    -2.5260 H     1 <1>   0.1500 
 45 H        2.5220    -0.9460    -2.9700 H     1 <1>   0.1500 
 46 H        5.7420    -0.6200    -0.5370 H     1 <1>   0.0800 
 47 H        6.8190     0.3910    -1.4610 H     1 <1>   0.0800 
 48 H        5.4160    -0.3170    -2.2200 H     1 <1>   0.0800 
 49 H        4.2880    -2.3980    -3.8400 H     1 <1>   0.1500 
 50 H        6.1220     1.8490    -3.3460 H     1 <1>   0.0800 
 51 H        5.5480     3.4960    -3.4330 H     1 <1>   0.0800 
 52 H        4.4880     2.1770    -3.8950 H     1 <1>   0.0800 
@<TRIPOS>BOND
  1   1   2  1   
  2   1  28  1   
  3   2   3  1   
  4   2   4  1   
  5   2  29  1   
  6   3   5  1   
  7   3   6  1   
  8   3  30  1   
  9   4   7  1   
 10   4  31  1   
 11   4  32  1   
 12   5   7  1   
 13   5  33  1   
 14   5  34  1   
 15   6   8  1   
 16   6  35  1   
 17   6  36  1   
 18   7   9  1   
 19   7  37  1   
 20   8  10  ar  
 21   8  11  ar  
 22   9  12  1   
 23   9  38  1   
 24   9  39  1   
 25  10  13  ar  
 26  10  14  ar  
 27  11  15  ar  
 28  11  40  1   
 29  12  16  2   
 30  12  17  1   
 31  13  18  ar  
 32  13  19  ar  
 33  14  20  ar  
 34  14  41  1   
 35  15  18  ar  
 36  15  42  1   
 37  16  21  1   
 38  16  22  1   
 39  17  23  2   
 40  17  43  1   
 41  19  24  ar  
 42  19  44  1   
 43  20  24  ar  
 44  20  45  1   
 45  21  23  1   
 46  21  25  1   
 47  22  46  1   
 48  22  47  1   
 49  22  48  1   
 50  23  26  1   
 51  24  49  1   
 52  25  50  1   
 53  25  51  1   
 54  25  52  1   
 55  26  27  3   
@<TRIPOS>SUBSTRUCTURE
  1 ****   7 GROUP 4 **** **** 0

# MOE 2024.06 (io_trps.svl 2023.06)
