@<TRIPOS>MOLECULE
NONAME
54 57 1 0 0 
SMALL
USER_CHARGES


@<TRIPOS>ATOM
  1 O       -0.2980     0.2270     0.1600 O.2   1 <1>  -0.5700 
  2 C       -1.3670     0.8190     0.1350 C.2   1 <1>   0.7160 
  3 N       -2.4670     0.1520     0.6480 N.am  1 <1>  -0.6600 
  4 C       -1.4270     2.1670    -0.4300 C.2   1 <1>   0.2030 
  5 C       -2.5580    -1.3390     0.6450 C.3   1 <1>   0.1400 
  6 C       -3.7890     0.7880     0.9180 C.3   1 <1>   0.1400 
  7 N       -2.4510     2.7330    -1.0610 N.2   1 <1>  -0.7070 
  8 C       -0.3520     3.0660    -0.3980 C.2   1 <1>  -0.1810 
  9 C       -3.6850    -1.8070    -0.2970 C.3   1 <1>   0.3440 
 10 C       -4.8340     0.2590    -0.0890 C.3   1 <1>   0.2000 
 11 N       -2.0320     3.9600    -1.4140 N.pl3 1 <1>   0.3000 
 12 C       -0.7640     4.1740    -1.0270 C.2   1 <1>  -0.3320 
 13 C        1.0430     2.9260     0.1930 C.3   1 <1>   0.3010 
 14 O       -4.8880    -1.1450     0.0070 O.3   1 <1>  -0.5600 
 15 C       -3.8910    -3.3150    -0.1800 C.ar  1 <1>  -0.1430 
 16 C       -6.2670     0.8450     0.0890 C.3   1 <1>   0.0000 
 17 C        0.1270     5.3870    -1.1990 C.3   1 <1>   0.0200 
 18 O        1.6440     4.1980     0.2810 O.3   1 <1>  -0.5600 
 19 C       -3.2080    -4.1700    -1.0350 C.ar  1 <1>  -0.1500 
 20 C       -4.7390    -3.8570     0.7770 C.ar  1 <1>  -0.1500 
 21 C       -6.2530     2.3760    -0.0700 C.3   1 <1>  -0.2400 
 22 C       -6.8680     0.5020     1.4650 C.3   1 <1>  -0.2400 
 23 C       -7.1940     0.2730    -0.9990 C.3   1 <1>  -0.2400 
 24 C        1.5820     4.9770    -0.8870 C.3   1 <1>   0.1200 
 25 C       -3.3700    -5.5410    -0.9340 C.ar  1 <1>  -0.1500 
 26 C       -4.9020    -5.2280     0.8790 C.ar  1 <1>  -0.1500 
 27 C       -4.2160    -6.0710     0.0230 C.ar  1 <1>  -0.1500 
 28 H       -1.6300    -1.7790     0.3270 H     1 <1>   0.0800 
 29 H       -2.7620    -1.6860     1.6430 H     1 <1>   0.0800 
 30 H       -4.0960     0.5360     1.9160 H     1 <1>   0.0800 
 31 H       -3.7140     1.8560     0.8660 H     1 <1>   0.0800 
 32 H       -3.4270    -1.5630    -1.3130 H     1 <1>   0.0800 
 33 H       -4.4980     0.5070    -1.0820 H     1 <1>   0.0800 
 34 H       -2.6270     4.6270    -1.9210 H     1 <1>   0.2700 
 35 H        1.6570     2.2960    -0.4260 H     1 <1>   0.0800 
 36 H        0.9980     2.5130     1.1850 H     1 <1>   0.0800 
 37 H       -0.1790     6.1650    -0.5220 H     1 <1>   0.0800 
 38 H        0.0690     5.7640    -2.2040 H     1 <1>   0.0800 
 39 H       -2.5460    -3.7730    -1.7840 H     1 <1>   0.1500 
 40 H       -5.2800    -3.2070     1.4440 H     1 <1>   0.1500 
 41 H       -7.2560     2.7660    -0.0600 H     1 <1>   0.0800 
 42 H       -5.7930     2.6520    -1.0030 H     1 <1>   0.0800 
 43 H       -5.7100     2.8480     0.7280 H     1 <1>   0.0800 
 44 H       -7.8780     0.8650     1.5360 H     1 <1>   0.0800 
 45 H       -6.2990     0.9450     2.2610 H     1 <1>   0.0800 
 46 H       -6.8850    -0.5640     1.6110 H     1 <1>   0.0800 
 47 H       -8.1830     0.6890    -0.9190 H     1 <1>   0.0800 
 48 H       -7.2730    -0.7960    -0.9050 H     1 <1>   0.0800 
 49 H       -6.8090     0.4960    -1.9780 H     1 <1>   0.0800 
 50 H        2.1930     5.8490    -0.7360 H     1 <1>   0.0800 
 51 H        1.9930     4.3990    -1.6960 H     1 <1>   0.0800 
 52 H       -2.8370    -6.1960    -1.6020 H     1 <1>   0.1500 
 53 H       -5.5630    -5.6360     1.6230 H     1 <1>   0.1500 
 54 H       -4.3420    -7.1370     0.1010 H     1 <1>   0.1500 
@<TRIPOS>BOND
  1   1   2  2   
  2   2   3  am  
  3   2   4  1   
  4   3   5  1   
  5   3   6  1   
  6   4   7  2   
  7   4   8  1   
  8   5   9  1   
  9   5  28  1   
 10   5  29  1   
 11   6  10  1   
 12   6  30  1   
 13   6  31  1   
 14   7  11  1   
 15   8  12  2   
 16   8  13  1   
 17   9  14  1   
 18   9  15  1   
 19   9  32  1   
 20  10  14  1   
 21  10  16  1   
 22  10  33  1   
 23  11  12  1   
 24  11  34  1   
 25  12  17  1   
 26  13  18  1   
 27  13  35  1   
 28  13  36  1   
 29  15  19  ar  
 30  15  20  ar  
 31  16  21  1   
 32  16  22  1   
 33  16  23  1   
 34  17  24  1   
 35  17  37  1   
 36  17  38  1   
 37  18  24  1   
 38  19  25  ar  
 39  19  39  1   
 40  20  26  ar  
 41  20  40  1   
 42  21  41  1   
 43  21  42  1   
 44  21  43  1   
 45  22  44  1   
 46  22  45  1   
 47  22  46  1   
 48  23  47  1   
 49  23  48  1   
 50  23  49  1   
 51  24  50  1   
 52  24  51  1   
 53  25  27  ar  
 54  25  52  1   
 55  26  27  ar  
 56  26  53  1   
 57  27  54  1   
@<TRIPOS>SUBSTRUCTURE
  1 ****   3 GROUP 4 **** **** 0

# MOE 2024.06 (io_trps.svl 2023.06)
