@<TRIPOS>MOLECULE
NONAME
51 55 1 0 0 
SMALL
USER_CHARGES


@<TRIPOS>ATOM
  1 O       -1.6230     0.2870    -1.6090 O.2   1 <1>  -0.5700 
  2 C       -1.7170     0.7280    -0.4800 C.2   1 <1>   0.5440 
  3 N       -2.0190    -0.1390     0.5290 N.am  1 <1>  -0.7300 
  4 C       -1.5550     2.1370    -0.1990 C.ar  1 <1>   0.0860 
  5 C       -2.2750    -1.5870     0.3570 C.3   1 <1>   0.2200 
  6 C       -0.4300     2.8870    -0.6260 C.ar  1 <1>   0.0000 
  7 C       -2.5090     2.8150     0.5160 C.ar  1 <1>  -0.1500 
  8 C       -3.7750    -1.8200     0.3020 C.3   1 <1>  -0.0800 
  9 C       -1.8940    -2.3290     1.6330 C.3   1 <1>   0.1200 
 10 C       -0.3800     4.2570    -0.2830 C.ar  1 <1>   0.3100 
 11 C        0.6510     2.3490    -1.3610 C.ar  1 <1>  -0.1500 
 12 C       -2.3700     4.1730     0.8000 C.ar  1 <1>   0.2780 
 13 C       -4.1510    -1.8950     1.7870 C.3   1 <1>   0.1200 
 14 C       -4.1180    -3.1150    -0.4570 C.3   1 <1>  -0.0160 
 15 O       -2.9800    -2.1860     2.4970 O.3   1 <1>  -0.5600 
 16 N       -1.3490     4.8790     0.4280 N.ar  1 <1>  -0.6200 
 17 C        0.7260     5.0210    -0.6890 C.ar  1 <1>  -0.1500 
 18 C        1.7170     3.1190    -1.7410 C.ar  1 <1>  -0.1500 
 19 C       -3.4620     4.8730     1.5950 C.3   1 <1>  -0.0680 
 20 C       -5.6230    -3.3160    -0.5540 C.ar  1 <1>  -0.1430 
 21 C        1.7570     4.4730    -1.4030 C.ar  1 <1>  -0.1500 
 22 C       -4.9150     4.6950     1.2610 C.3   1 <1>  -0.2000 
 23 C       -4.2350     5.9960     0.9700 C.3   1 <1>  -0.2000 
 24 C       -6.3950    -2.5770    -1.4270 C.ar  1 <1>  -0.1500 
 25 C       -6.2940    -4.2420     0.2190 C.ar  1 <1>  -0.1500 
 26 C       -7.7630    -2.7890    -1.4790 C.ar  1 <1>   0.1600 
 27 C       -7.6660    -4.3760     0.0900 C.ar  1 <1>   0.1600 
 28 N       -8.4180    -3.6700    -0.7390 N.ar  1 <1>  -0.6200 
 29 H       -2.1070     0.1920     1.4920 H     1 <1>   0.3700 
 30 H       -1.7510    -1.9610    -0.5070 H     1 <1>   0.0800 
 31 H       -3.3890     2.3080     0.8660 H     1 <1>   0.1500 
 32 H       -4.2750    -0.9990    -0.1810 H     1 <1>   0.0800 
 33 H       -1.0060    -1.9350     2.0950 H     1 <1>   0.0800 
 34 H       -1.7670    -3.3800     1.4380 H     1 <1>   0.0800 
 35 H        0.6380     1.3080    -1.6340 H     1 <1>   0.1500 
 36 H       -4.8830    -2.6540     1.9980 H     1 <1>   0.0800 
 37 H       -4.5130    -0.9440     2.1350 H     1 <1>   0.0800 
 38 H       -3.6700    -3.9650     0.0290 H     1 <1>   0.0800 
 39 H       -3.7150    -3.0610    -1.4540 H     1 <1>   0.0800 
 40 H        0.7360     6.0610    -0.4180 H     1 <1>   0.1500 
 41 H        2.5310     2.6940    -2.3030 H     1 <1>   0.1500 
 42 H       -3.1890     4.9940     2.6280 H     1 <1>   0.1000 
 43 H        2.5990     5.0700    -1.7080 H     1 <1>   0.1500 
 44 H       -5.2020     4.0840     0.4230 H     1 <1>   0.1000 
 45 H       -5.6290     4.6560     2.0650 H     1 <1>   0.1000 
 46 H       -4.4620     6.8560     1.5750 H     1 <1>   0.1000 
 47 H       -4.0090     6.2570    -0.0500 H     1 <1>   0.1000 
 48 H       -5.9470    -1.8390    -2.0670 H     1 <1>   0.1500 
 49 H       -5.7650    -4.8610     0.9210 H     1 <1>   0.1500 
 50 H       -8.3500    -2.2040    -2.1660 H     1 <1>   0.1500 
 51 H       -8.1730    -5.1030     0.7020 H     1 <1>   0.1500 
@<TRIPOS>BOND
  1   1   2  2   
  2   2   3  am  
  3   2   4  1   
  4   3   5  1   
  5   3  29  1   
  6   4   6  ar  
  7   4   7  ar  
  8   5   8  1   
  9   5   9  1   
 10   5  30  1   
 11   6  10  ar  
 12   6  11  ar  
 13   7  12  ar  
 14   7  31  1   
 15   8  13  1   
 16   8  14  1   
 17   8  32  1   
 18   9  15  1   
 19   9  33  1   
 20   9  34  1   
 21  10  16  ar  
 22  10  17  ar  
 23  11  18  ar  
 24  11  35  1   
 25  12  16  ar  
 26  12  19  1   
 27  13  15  1   
 28  13  36  1   
 29  13  37  1   
 30  14  20  1   
 31  14  38  1   
 32  14  39  1   
 33  17  21  ar  
 34  17  40  1   
 35  18  21  ar  
 36  18  41  1   
 37  19  22  1   
 38  19  23  1   
 39  19  42  1   
 40  20  24  ar  
 41  20  25  ar  
 42  21  43  1   
 43  22  23  1   
 44  22  44  1   
 45  22  45  1   
 46  23  46  1   
 47  23  47  1   
 48  24  26  ar  
 49  24  48  1   
 50  25  27  ar  
 51  25  49  1   
 52  26  28  ar  
 53  26  50  1   
 54  27  28  ar  
 55  27  51  1   
@<TRIPOS>SUBSTRUCTURE
  1 ****   2 GROUP 4 **** **** 0

# MOE 2024.06 (io_trps.svl 2023.06)
