@<TRIPOS>MOLECULE
NONAME
46 48 1 0 0 
SMALL
USER_CHARGES


@<TRIPOS>ATOM
  1 O       -2.9350     0.9790    -2.4220 O.2   1 <1>  -0.5700 
  2 C       -2.3610     0.9930    -1.3510 C.2   1 <1>   0.5440 
  3 N       -2.0460    -0.1990    -0.7680 N.am  1 <1>  -0.7300 
  4 C       -2.0690     2.2420    -0.6710 C.ar  1 <1>   0.0860 
  5 C       -2.2910    -1.5380    -1.3500 C.3   1 <1>   0.2200 
  6 C       -0.7990     2.5870    -0.1820 C.ar  1 <1>  -0.1440 
  7 C       -3.1160     3.1420    -0.4770 C.ar  1 <1>  -0.1500 
  8 C       -3.4550    -2.2330    -0.6580 C.3   1 <1>  -0.0800 
  9 C       -1.1440    -2.4590    -0.9580 C.3   1 <1>   0.1200 
 10 C       -0.6220     3.7750     0.5260 C.ar  1 <1>   0.0820 
 11 C        0.4070     1.6760    -0.4290 C.3   1 <1>  -0.0960 
 12 C       -2.9370     4.3270     0.2060 C.ar  1 <1>  -0.1500 
 13 C       -2.7990    -2.8560     0.5790 C.3   1 <1>   0.1200 
 14 C       -4.6790    -1.3490    -0.3510 C.3   1 <1>  -0.0160 
 15 O       -1.4170    -2.8420     0.3560 O.3   1 <1>  -0.5600 
 16 O        0.6180     4.0450     1.0180 O.3   1 <1>  -0.3630 
 17 C       -1.6940     4.6430     0.7150 C.ar  1 <1>  -0.1500 
 18 C       -5.8020    -2.1700     0.2630 C.ar  1 <1>  -0.1440 
 19 C        0.9060     5.2330     1.7220 C.3   1 <1>   0.0400 
 20 C       -6.0290    -2.2000     1.6240 C.ar  1 <1>  -0.1500 
 21 C       -6.6520    -2.9300    -0.5140 C.ar  1 <1>  -0.1500 
 22 C       -7.0620    -2.9710     2.1290 C.ar  1 <1>   0.1600 
 23 C       -7.6570    -3.6670     0.0910 C.ar  1 <1>   0.1600 
 24 N       -7.8810    -3.7080     1.3950 N.ar  1 <1>  -0.6200 
 25 H       -1.6160    -0.2140     0.1590 H     1 <1>   0.3700 
 26 H       -2.4180    -1.4740    -2.4180 H     1 <1>   0.0800 
 27 H       -4.0870     2.8980    -0.8720 H     1 <1>   0.1500 
 28 H       -3.7770    -3.0410    -1.2910 H     1 <1>   0.0800 
 29 H       -0.1850    -1.9750    -1.0050 H     1 <1>   0.0800 
 30 H       -1.1410    -3.3460    -1.5670 H     1 <1>   0.0800 
 31 H        0.2980     1.1180    -1.3410 H     1 <1>   0.0800 
 32 H        0.5250     0.9920     0.3920 H     1 <1>   0.0800 
 33 H        1.3110     2.2510    -0.5240 H     1 <1>   0.0800 
 34 H       -3.7650     5.0020     0.3430 H     1 <1>   0.1500 
 35 H       -3.1200    -3.8720     0.7330 H     1 <1>   0.0800 
 36 H       -2.9890    -2.2760     1.4650 H     1 <1>   0.0800 
 37 H       -5.0250    -0.8920    -1.2630 H     1 <1>   0.0800 
 38 H       -4.4110    -0.5550     0.3230 H     1 <1>   0.0800 
 39 H       -1.5820     5.5660     1.2510 H     1 <1>   0.1500 
 40 H        1.9460     5.2160     1.9930 H     1 <1>   0.0800 
 41 H        0.2990     5.2690     2.6090 H     1 <1>   0.0800 
 42 H        0.7090     6.0750     1.0830 H     1 <1>   0.0800 
 43 H       -5.4140    -1.6310     2.2970 H     1 <1>   0.1500 
 44 H       -6.5440    -2.9550    -1.5830 H     1 <1>   0.1500 
 45 H       -7.2240    -2.9830     3.1930 H     1 <1>   0.1500 
 46 H       -8.3110    -4.2550    -0.5300 H     1 <1>   0.1500 
@<TRIPOS>BOND
  1   1   2  2   
  2   2   3  am  
  3   2   4  1   
  4   3   5  1   
  5   3  25  1   
  6   4   6  ar  
  7   4   7  ar  
  8   5   8  1   
  9   5   9  1   
 10   5  26  1   
 11   6  10  ar  
 12   6  11  1   
 13   7  12  ar  
 14   7  27  1   
 15   8  13  1   
 16   8  14  1   
 17   8  28  1   
 18   9  15  1   
 19   9  29  1   
 20   9  30  1   
 21  10  16  1   
 22  10  17  ar  
 23  11  31  1   
 24  11  32  1   
 25  11  33  1   
 26  12  17  ar  
 27  12  34  1   
 28  13  15  1   
 29  13  35  1   
 30  13  36  1   
 31  14  18  1   
 32  14  37  1   
 33  14  38  1   
 34  16  19  1   
 35  17  39  1   
 36  18  20  ar  
 37  18  21  ar  
 38  19  40  1   
 39  19  41  1   
 40  19  42  1   
 41  20  22  ar  
 42  20  43  1   
 43  21  23  ar  
 44  21  44  1   
 45  22  24  ar  
 46  22  45  1   
 47  23  24  ar  
 48  23  46  1   
@<TRIPOS>SUBSTRUCTURE
  1 ****   3 GROUP 4 **** **** 0

# MOE 2024.06 (io_trps.svl 2023.06)
