@<TRIPOS>MOLECULE
NONAME
53 55 1 0 0 
SMALL
USER_CHARGES


@<TRIPOS>ATOM
  1 F        0.6950     1.8270     1.6020 F     1 <1>  -0.1900 
  2 C        1.9660     2.0780     1.7640 C.ar  1 <1>   0.1900 
  3 C        2.5900     1.7120     2.9430 C.ar  1 <1>   0.1600 
  4 C        2.6550     2.7050     0.7530 C.ar  1 <1>  -0.1500 
  5 N        3.8770     1.9320     3.1790 N.ar  1 <1>  -0.6200 
  6 C        4.0050     2.9560     0.9760 C.ar  1 <1>   0.0860 
  7 C        4.5400     2.5330     2.1980 C.ar  1 <1>   0.1600 
  8 C        4.8440     3.6220     0.0000 C.2   1 <1>   0.5440 
  9 O        6.0540     3.5050     0.0280 O.2   1 <1>  -0.5700 
 10 N        4.3310     4.4680    -0.9560 N.am  1 <1>  -0.6600 
 11 C        4.8950     4.4850    -2.3470 C.3   1 <1>   0.1400 
 12 C        3.5840     5.6880    -0.5580 C.3   1 <1>   0.1400 
 13 C        6.2440     5.2320    -2.4680 C.3   1 <1>   0.3430 
 14 C        4.5530     6.7530    -0.0230 C.3   1 <1>  -0.1600 
 15 N        6.5900     5.9940    -1.2300 N.4   1 <1>  -0.9590 
 16 C        5.6800     7.1480    -0.9840 C.3   1 <1>   0.3430 
 17 C        8.0320     6.3410    -1.1790 C.3   1 <1>   0.3430 
 18 C        8.4550     6.5830     0.2700 C.3   1 <1>  -0.1600 
 19 C        9.9680     6.8350     0.3950 C.3   1 <1>  -0.0800 
 20 C       10.3580     6.9230     1.8810 C.3   1 <1>  -0.1600 
 21 C       10.4020     8.1150    -0.3480 C.3   1 <1>  -0.1600 
 22 C       11.8580     7.1920     2.0570 C.3   1 <1>  -0.1600 
 23 C       11.9020     8.3850    -0.1700 C.3   1 <1>  -0.1600 
 24 C       12.2820     8.4630     1.3130 C.3   1 <1>  -0.1600 
 25 H        2.0130     1.2240     3.7100 H     1 <1>   0.1500 
 26 H        2.1630     2.9780    -0.1620 H     1 <1>   0.1500 
 27 H        5.5890     2.7060     2.3740 H     1 <1>   0.1500 
 28 H        4.1810     4.9290    -3.0180 H     1 <1>   0.0800 
 29 H        5.0390     3.4690    -2.6760 H     1 <1>   0.0800 
 30 H        2.8680     5.4430     0.2090 H     1 <1>   0.0800 
 31 H        3.0360     6.0710    -1.4030 H     1 <1>   0.0800 
 32 H        6.2240     5.8870    -3.3230 H     1 <1>   0.0800 
 33 H        7.0080     4.4920    -2.6450 H     1 <1>   0.0800 
 34 H        4.9740     6.4250     0.9100 H     1 <1>   0.0800 
 35 H        3.9790     7.6360     0.1930 H     1 <1>   0.0800 
 36 H        6.4190     5.2900    -0.4800 H     1 <1>   0.4500 
 37 H        6.2360     7.9580    -0.5400 H     1 <1>   0.0800 
 38 H        5.2680     7.5020    -1.9150 H     1 <1>   0.0800 
 39 H        8.2260     7.2150    -1.7790 H     1 <1>   0.0800 
 40 H        8.6140     5.5230    -1.5720 H     1 <1>   0.0800 
 41 H        8.2070     5.7110     0.8500 H     1 <1>   0.0800 
 42 H        7.9290     7.4260     0.6800 H     1 <1>   0.0800 
 43 H       10.4940     5.9970    -0.0330 H     1 <1>   0.0800 
 44 H       10.1090     6.0020     2.3810 H     1 <1>   0.0800 
 45 H        9.8050     7.7150     2.3570 H     1 <1>   0.0800 
 46 H        9.8520     8.9590     0.0330 H     1 <1>   0.0800 
 47 H       10.1990     8.0320    -1.4000 H     1 <1>   0.0800 
 48 H       12.4190     6.3540     1.6800 H     1 <1>   0.0800 
 49 H       12.0860     7.2960     3.1040 H     1 <1>   0.0800 
 50 H       12.1620     9.3110    -0.6540 H     1 <1>   0.0800 
 51 H       12.4670     7.5980    -0.6400 H     1 <1>   0.0800 
 52 H       13.3460     8.5960     1.4060 H     1 <1>   0.0800 
 53 H       11.8030     9.3160     1.7620 H     1 <1>   0.0800 
@<TRIPOS>BOND
  1   1   2  1   
  2   2   3  ar  
  3   2   4  ar  
  4   3   5  ar  
  5   3  25  1   
  6   4   6  ar  
  7   4  26  1   
  8   5   7  ar  
  9   6   7  ar  
 10   6   8  1   
 11   7  27  1   
 12   8   9  2   
 13   8  10  am  
 14  10  11  1   
 15  10  12  1   
 16  11  13  1   
 17  11  28  1   
 18  11  29  1   
 19  12  14  1   
 20  12  30  1   
 21  12  31  1   
 22  13  15  1   
 23  13  32  1   
 24  13  33  1   
 25  14  16  1   
 26  14  34  1   
 27  14  35  1   
 28  15  16  1   
 29  15  17  1   
 30  15  36  1   
 31  16  37  1   
 32  16  38  1   
 33  17  18  1   
 34  17  39  1   
 35  17  40  1   
 36  18  19  1   
 37  18  41  1   
 38  18  42  1   
 39  19  20  1   
 40  19  21  1   
 41  19  43  1   
 42  20  22  1   
 43  20  44  1   
 44  20  45  1   
 45  21  23  1   
 46  21  46  1   
 47  21  47  1   
 48  22  24  1   
 49  22  48  1   
 50  22  49  1   
 51  23  24  1   
 52  23  50  1   
 53  23  51  1   
 54  24  52  1   
 55  24  53  1   
@<TRIPOS>SUBSTRUCTURE
  1 ****   9 GROUP 4 **** **** 0

# MOE 2024.06 (io_trps.svl 2023.06)
