@<TRIPOS>MOLECULE
NONAME
53 57 1 0 0 
SMALL
USER_CHARGES


@<TRIPOS>ATOM
  1 F       -4.3620     1.8660     1.1690 F     1 <1>  -0.1900 
  2 C       -4.4570     0.6140     0.8010 C.ar  1 <1>   0.1900 
  3 C       -5.6960     0.0230     0.7700 C.ar  1 <1>  -0.1500 
  4 C       -3.2800    -0.0570     0.4570 C.ar  1 <1>  -0.1500 
  5 C       -5.7600    -1.3110     0.3730 C.ar  1 <1>   0.2270 
  6 C       -3.3470    -1.3760     0.0650 C.ar  1 <1>  -0.1500 
  7 N       -6.8440    -2.1250     0.2540 N.2   1 <1>  -0.5650 
  8 C       -4.6040    -1.9910     0.0290 C.ar  1 <1>  -0.1520 
  9 C       -6.3610    -3.2530    -0.1430 C.2   1 <1>   0.0060 
 10 N       -5.0120    -3.2420    -0.3010 N.pl3 1 <1>   0.0330 
 11 C       -7.1780    -4.5040    -0.4280 C.3   1 <1>   0.0200 
 12 C       -8.6380    -4.3620     0.0320 C.3   1 <1>  -0.0990 
 13 C       -9.5050    -5.5690    -0.2890 C.2   1 <1>   0.5690 
 14 O       -8.9750    -6.5420    -0.7720 O.2   1 <1>  -0.5700 
 15 N      -10.8540    -5.5290    -0.0420 N.am  1 <1>  -0.6600 
 16 C      -11.5840    -4.3780     0.5850 C.3   1 <1>   0.1400 
 17 C      -11.7490    -6.6580    -0.4200 C.3   1 <1>   0.1400 
 18 C      -12.6580    -3.8240    -0.3710 C.3   1 <1>   0.1440 
 19 C      -12.8400    -6.1590    -1.3780 C.3   1 <1>  -0.1600 
 20 C      -13.3750    -2.6850     0.3310 C.ar  1 <1>   0.1670 
 21 C      -13.6120    -4.9610    -0.7950 C.3   1 <1>  -0.1600 
 22 C      -12.0260    -3.1070    -1.5950 C.3   1 <1>  -0.1600 
 23 N      -14.2550    -2.8160     1.2990 N.ar  1 <1>  -0.6200 
 24 C      -12.9820    -1.4730    -0.1530 C.ar  1 <1>  -0.1430 
 25 C      -11.9510    -1.6100    -1.2450 C.3   1 <1>  -0.0170 
 26 C      -14.7390    -1.6700     1.7580 C.ar  1 <1>   0.4770 
 27 C      -13.5470    -0.3490     0.3980 C.ar  1 <1>   0.1600 
 28 N      -14.4380    -0.4390     1.3640 N.ar  1 <1>  -0.6200 
 29 C      -15.7630    -1.7750     2.8620 C.3   1 <1>  -0.0970 
 30 H       -6.5920     0.5480     1.0370 H     1 <1>   0.1500 
 31 H       -2.3430     0.4690     0.5040 H     1 <1>   0.1500 
 32 H       -2.4620    -1.9250    -0.2070 H     1 <1>   0.1500 
 33 H       -4.4190    -4.0170    -0.6070 H     1 <1>   0.2700 
 34 H       -6.7310    -5.3430     0.0770 H     1 <1>   0.0800 
 35 H       -7.1570    -4.6990    -1.4860 H     1 <1>   0.0800 
 36 H       -9.0610    -3.5020    -0.4500 H     1 <1>   0.0800 
 37 H       -8.6530    -4.2000     1.0940 H     1 <1>   0.0800 
 38 H      -10.9140    -3.5880     0.8680 H     1 <1>   0.0800 
 39 H      -12.0650    -4.7260     1.4830 H     1 <1>   0.0800 
 40 H      -12.2000    -7.0600     0.4710 H     1 <1>   0.0800 
 41 H      -11.1900    -7.4480    -0.8920 H     1 <1>   0.0800 
 42 H      -13.5250    -6.9640    -1.5790 H     1 <1>   0.0800 
 43 H      -12.3810    -5.8860    -2.3120 H     1 <1>   0.0800 
 44 H      -14.3300    -4.5980    -1.5090 H     1 <1>   0.0800 
 45 H      -14.1600    -5.2930     0.0700 H     1 <1>   0.0800 
 46 H      -12.6780    -3.2140    -2.4440 H     1 <1>   0.0800 
 47 H      -11.0640    -3.5050    -1.8630 H     1 <1>   0.0800 
 48 H      -12.1820    -0.9920    -2.0950 H     1 <1>   0.0800 
 49 H      -10.9780    -1.3570    -0.8600 H     1 <1>   0.0800 
 50 H      -13.2690     0.6300     0.0490 H     1 <1>   0.1500 
 51 H      -15.6680    -2.7160     3.3710 H     1 <1>   0.0800 
 52 H      -16.7470    -1.6990     2.4400 H     1 <1>   0.0800 
 53 H      -15.6200    -0.9800     3.5700 H     1 <1>   0.0800 
@<TRIPOS>BOND
  1   1   2  1   
  2   2   3  ar  
  3   2   4  ar  
  4   3   5  ar  
  5   3  30  1   
  6   4   6  ar  
  7   4  31  1   
  8   5   7  1   
  9   5   8  ar  
 10   6   8  ar  
 11   6  32  1   
 12   7   9  2   
 13   8  10  1   
 14   9  10  1   
 15   9  11  1   
 16  10  33  1   
 17  11  12  1   
 18  11  34  1   
 19  11  35  1   
 20  12  13  1   
 21  12  36  1   
 22  12  37  1   
 23  13  14  2   
 24  13  15  am  
 25  15  16  1   
 26  15  17  1   
 27  16  18  1   
 28  16  38  1   
 29  16  39  1   
 30  17  19  1   
 31  17  40  1   
 32  17  41  1   
 33  18  20  1   
 34  18  21  1   
 35  18  22  1   
 36  19  21  1   
 37  19  42  1   
 38  19  43  1   
 39  20  23  ar  
 40  20  24  ar  
 41  21  44  1   
 42  21  45  1   
 43  22  25  1   
 44  22  46  1   
 45  22  47  1   
 46  23  26  ar  
 47  24  25  1   
 48  24  27  ar  
 49  25  48  1   
 50  25  49  1   
 51  26  28  ar  
 52  26  29  1   
 53  27  28  ar  
 54  27  50  1   
 55  29  51  1   
 56  29  52  1   
 57  29  53  1   
@<TRIPOS>SUBSTRUCTURE
  1 ****  12 GROUP 4 **** **** 0

# MOE 2024.06 (io_trps.svl 2023.06)
