@<TRIPOS>MOLECULE
NONAME
46 48 1 0 0 
SMALL
USER_CHARGES


@<TRIPOS>ATOM
  1 O        0.8700     0.2510     1.4350 O.3   1 <1>  -0.6800 
  2 C        1.3060    -0.2770     0.2240 C.3   1 <1>   0.2000 
  3 C        2.0570    -1.5730     0.5160 C.3   1 <1>  -0.0800 
  4 C        2.3990     0.6370    -0.3350 C.3   1 <1>   0.3430 
  5 C        3.4470    -1.0980     0.9640 C.3   1 <1>   0.3430 
  6 C        2.1360    -2.4840    -0.7260 C.3   1 <1>  -0.0170 
  7 N        3.6420     0.2800     0.4170 N.4   1 <1>  -0.9590 
  8 C        3.0690    -3.6590    -0.4800 C.ar  1 <1>  -0.1440 
  9 C        3.8770     1.2570     1.5080 C.3   1 <1>   0.5240 
 10 C        4.2620    -3.8010    -1.1610 C.ar  1 <1>  -0.1500 
 11 C        2.7720    -4.6440     0.4410 C.ar  1 <1>  -0.1500 
 12 C        4.3410     2.5420     0.8550 C.2   1 <1>  -0.1810 
 13 C        5.0860    -4.8780    -0.8820 C.ar  1 <1>   0.1600 
 14 C        3.6670    -5.6820     0.6460 C.ar  1 <1>   0.1600 
 15 C        5.5610     2.8410     0.3270 C.2   1 <1>  -0.3320 
 16 C        3.5390     3.6730     0.6890 C.2   1 <1>  -0.1500 
 17 N        4.8200    -5.8130     0.0140 N.ar  1 <1>  -0.6200 
 18 N        5.5350     4.1140    -0.1660 N.pl3 1 <1>   0.0480 
 19 C        6.8080     1.9660     0.2770 C.3   1 <1>  -0.0600 
 20 C        4.2870     4.6250     0.0620 C.2   1 <1>  -0.1320 
 21 C        6.6610     4.8480    -0.7940 C.3   1 <1>   0.0160 
 22 C        3.8940     5.9500    -0.3130 C.1   1 <1>   0.5370 
 23 N        3.6010     7.0040    -0.6310 N.1   1 <1>  -0.5570 
 24 H        0.0370    -0.1760     1.7320 H     1 <1>   0.4000 
 25 H        0.4620    -0.3820    -0.4390 H     1 <1>   0.0800 
 26 H        1.5830    -2.1250     1.3090 H     1 <1>   0.0800 
 27 H        2.1340     1.6760    -0.2250 H     1 <1>   0.0800 
 28 H        2.5390     0.4210    -1.3810 H     1 <1>   0.0800 
 29 H        4.2180    -1.7680     0.6190 H     1 <1>   0.0800 
 30 H        3.4750    -1.0710     2.0420 H     1 <1>   0.0800 
 31 H        2.4800    -1.9320    -1.5840 H     1 <1>   0.0800 
 32 H        1.1550    -2.8630    -0.9610 H     1 <1>   0.0800 
 33 H        4.4580     0.3530    -0.2020 H     1 <1>   0.4500 
 34 H        2.9740     1.4220     2.0750 H     1 <1>   0.0800 
 35 H        4.6470     0.8990     2.1720 H     1 <1>   0.0800 
 36 H        4.5660    -3.0940    -1.9120 H     1 <1>   0.1500 
 37 H        1.8560    -4.6260     1.0020 H     1 <1>   0.1500 
 38 H        6.0130    -4.9790    -1.4230 H     1 <1>   0.1500 
 39 H        3.4220    -6.4440     1.3680 H     1 <1>   0.1500 
 40 H        2.5140     3.7740     1.0080 H     1 <1>   0.1500 
 41 H        6.6460     1.0260     0.7710 H     1 <1>   0.0800 
 42 H        7.6250     2.4630     0.7710 H     1 <1>   0.0800 
 43 H        7.0890     1.7740    -0.7440 H     1 <1>   0.0800 
 44 H        7.3850     4.1570    -1.1830 H     1 <1>   0.0800 
 45 H        7.1270     5.4770    -0.0570 H     1 <1>   0.0800 
 46 H        6.2950     5.4560    -1.6010 H     1 <1>   0.0800 
@<TRIPOS>BOND
  1   1   2  1   
  2   1  24  1   
  3   2   3  1   
  4   2   4  1   
  5   2  25  1   
  6   3   5  1   
  7   3   6  1   
  8   3  26  1   
  9   4   7  1   
 10   4  27  1   
 11   4  28  1   
 12   5   7  1   
 13   5  29  1   
 14   5  30  1   
 15   6   8  1   
 16   6  31  1   
 17   6  32  1   
 18   7   9  1   
 19   7  33  1   
 20   8  10  ar  
 21   8  11  ar  
 22   9  12  1   
 23   9  34  1   
 24   9  35  1   
 25  10  13  ar  
 26  10  36  1   
 27  11  14  ar  
 28  11  37  1   
 29  12  15  2   
 30  12  16  1   
 31  13  17  ar  
 32  13  38  1   
 33  14  17  ar  
 34  14  39  1   
 35  15  18  1   
 36  15  19  1   
 37  16  20  2   
 38  16  40  1   
 39  18  20  1   
 40  18  21  1   
 41  19  41  1   
 42  19  42  1   
 43  19  43  1   
 44  20  22  1   
 45  21  44  1   
 46  21  45  1   
 47  21  46  1   
 48  22  23  3   
@<TRIPOS>SUBSTRUCTURE
  1 ****   7 GROUP 4 **** **** 0

# MOE 2024.06 (io_trps.svl 2023.06)
