@<TRIPOS>MOLECULE
NONAME
44 46 1 0 0 
SMALL
USER_CHARGES


@<TRIPOS>ATOM
  1 CL      -1.2010    -1.1370    -1.4480 Cl    1 <1>  -0.1230 
  2 C       -2.0670    -0.0470    -0.3750 C.2   1 <1>   0.1230 
  3 C       -3.0470    -0.4050     0.5570 C.2   1 <1>   0.2030 
  4 C       -1.9170     1.2890    -0.3230 C.2   1 <1>  -0.3320 
  5 N       -3.4920     0.6940     1.1530 N.2   1 <1>  -0.7070 
  6 C       -3.4810    -1.7730     0.8050 C.2   1 <1>   0.7160 
  7 N       -2.7920     1.7080     0.6150 N.pl3 1 <1>   0.3000 
  8 C       -0.9970     2.2100    -1.1070 C.3   1 <1>  -0.0600 
  9 O       -2.6800    -2.6950     0.7480 O.2   1 <1>  -0.5700 
 10 N       -4.7960    -2.1100     1.0760 N.am  1 <1>  -0.6600 
 11 C       -5.1680    -3.4960     1.4780 C.3   1 <1>   0.1400 
 12 C       -5.9530    -1.3360     0.5440 C.3   1 <1>   0.1400 
 13 C       -5.6230    -4.2430     0.2060 C.3   1 <1>   0.4230 
 14 C       -6.5120    -2.0720    -0.6870 C.3   1 <1>  -0.1600 
 15 N       -5.8760    -5.7120     0.3830 N.4   1 <1>  -0.9590 
 16 C       -6.8770    -3.5590    -0.3920 C.3   1 <1>  -0.1060 
 17 C       -6.2440    -6.4230    -0.8770 C.3   1 <1>   0.3430 
 18 C       -4.8590    -6.4460     1.1830 C.3   1 <1>   0.2630 
 19 C       -8.0080    -3.6560     0.6500 C.2   1 <1>   0.9060 
 20 C       -7.3230    -4.2620    -1.7080 C.3   1 <1>  -0.1600 
 21 C       -6.4410    -5.4700    -2.0660 C.3   1 <1>  -0.1600 
 22 O       -8.1280    -4.7120     1.2930 O.co2 1 <1>  -0.9000 
 23 O       -8.7600    -2.7010     0.8340 O.co2 1 <1>  -0.9000 
 24 H       -2.9330     2.6840     0.9080 H     1 <1>   0.2700 
 25 H       -0.3960     1.6410    -1.7940 H     1 <1>   0.0800 
 26 H       -0.3400     2.7380    -0.4390 H     1 <1>   0.0800 
 27 H       -1.5730     2.9240    -1.6700 H     1 <1>   0.0800 
 28 H       -4.3170    -3.9780     1.9230 H     1 <1>   0.0800 
 29 H       -5.9550    -3.4570     2.2110 H     1 <1>   0.0800 
 30 H       -6.7100    -1.2530     1.3070 H     1 <1>   0.0800 
 31 H       -5.6610    -0.3380     0.2660 H     1 <1>   0.0800 
 32 H       -4.8190    -4.1380    -0.5020 H     1 <1>   0.0800 
 33 H       -7.3910    -1.5480    -1.0240 H     1 <1>   0.0800 
 34 H       -5.7840    -2.0180    -1.4770 H     1 <1>   0.0800 
 35 H       -6.7760    -5.6720     0.9340 H     1 <1>   0.4500 
 36 H       -5.4820    -7.1400    -1.1300 H     1 <1>   0.0800 
 37 H       -7.1640    -6.9600    -0.7080 H     1 <1>   0.0800 
 38 H       -3.8990    -6.3990     0.6970 H     1 <1>   0.0800 
 39 H       -5.1490    -7.4780     1.2930 H     1 <1>   0.0800 
 40 H       -4.7750    -6.0130     2.1660 H     1 <1>   0.0800 
 41 H       -8.3410    -4.6020    -1.5960 H     1 <1>   0.0800 
 42 H       -7.3240    -3.5690    -2.5310 H     1 <1>   0.0800 
 43 H       -5.4800    -5.1300    -2.4090 H     1 <1>   0.0800 
 44 H       -6.8920    -6.0120    -2.8780 H     1 <1>   0.0800 
@<TRIPOS>BOND
  1   1   2  1   
  2   2   3  1   
  3   2   4  2   
  4   3   5  2   
  5   3   6  1   
  6   4   7  1   
  7   4   8  1   
  8   5   7  1   
  9   6   9  2   
 10   6  10  am  
 11   7  24  1   
 12   8  25  1   
 13   8  26  1   
 14   8  27  1   
 15  10  11  1   
 16  10  12  1   
 17  11  13  1   
 18  11  28  1   
 19  11  29  1   
 20  12  14  1   
 21  12  30  1   
 22  12  31  1   
 23  13  15  1   
 24  13  16  1   
 25  13  32  1   
 26  14  16  1   
 27  14  33  1   
 28  14  34  1   
 29  15  17  1   
 30  15  18  1   
 31  15  35  1   
 32  16  19  1   
 33  16  20  1   
 34  17  21  1   
 35  17  36  1   
 36  17  37  1   
 37  18  38  1   
 38  18  39  1   
 39  18  40  1   
 40  19  22  ar  
 41  19  23  ar  
 42  20  21  1   
 43  20  41  1   
 44  20  42  1   
 45  21  43  1   
 46  21  44  1   
@<TRIPOS>SUBSTRUCTURE
  1 ****  10 GROUP 4 **** **** 0

# MOE 2024.06 (io_trps.svl 2023.06)
