@<TRIPOS>MOLECULE
NONAME
42 45 1 0 0 
SMALL
USER_CHARGES


@<TRIPOS>ATOM
  1 CL      -0.5670    -0.1840     0.7650 Cl    1 <1>  -0.1770 
  2 C        0.9200    -1.0830     0.9400 C.ar  1 <1>   0.1770 
  3 C        1.2270    -2.1750     0.1340 C.ar  1 <1>  -0.0090 
  4 C        1.7740    -0.6480     1.9400 C.ar  1 <1>  -0.1500 
  5 S        0.1420    -2.7930    -1.1810 S.o2  1 <1>   1.4470 
  6 C        2.4310    -2.8270     0.3900 C.ar  1 <1>  -0.1500 
  7 C        2.9660    -1.3090     2.1660 C.ar  1 <1>  -0.1500 
  8 O        0.9780    -3.4890    -2.1370 O.2   1 <1>  -0.6500 
  9 O       -0.7710    -1.7930    -1.6860 O.2   1 <1>  -0.6500 
 10 N       -0.7960    -3.9830    -0.4110 N.am  1 <1>  -0.8490 
 11 C        3.2930    -2.4040     1.3890 C.ar  1 <1>  -0.1500 
 12 C       -1.8250    -3.4020     0.4580 C.3   1 <1>   0.1960 
 13 C       -1.4140    -4.8780    -1.3980 C.3   1 <1>   0.1960 
 14 C       -2.5360    -4.5070     1.2380 C.3   1 <1>  -0.1600 
 15 C       -2.1170    -6.0360    -0.6910 C.3   1 <1>  -0.1600 
 16 C       -3.1730    -5.5260     0.2900 C.3   1 <1>   0.4610 
 17 O       -4.1530    -4.8760    -0.4990 O.3   1 <1>  -0.5600 
 18 C       -3.8080    -6.6870     1.0590 C.2   1 <1>  -0.1810 
 19 C       -5.4260    -4.6490     0.0580 C.3   1 <1>   0.1200 
 20 C       -5.1350    -6.8610     1.0680 C.2   1 <1>  -0.1400 
 21 C       -3.1090    -7.6810     1.8240 C.2   1 <1>  -0.1500 
 22 C       -6.1370    -5.9740     0.3790 C.3   1 <1>   0.0200 
 23 S       -5.6050    -8.2670     2.0000 S.3   1 <1>  -0.0800 
 24 C       -3.9230    -8.5950     2.3880 C.2   1 <1>  -0.1100 
 25 H        1.5020     0.2040     2.5380 H     1 <1>   0.1500 
 26 H        2.7010    -3.6840    -0.2060 H     1 <1>   0.1500 
 27 H        3.6350    -0.9750     2.9420 H     1 <1>   0.1500 
 28 H        4.2180    -2.9280     1.5580 H     1 <1>   0.1500 
 29 H       -2.5380    -2.8430    -0.1290 H     1 <1>   0.0800 
 30 H       -1.3700    -2.7310     1.1650 H     1 <1>   0.0800 
 31 H       -0.6600    -5.2870    -2.0490 H     1 <1>   0.0800 
 32 H       -2.1160    -4.3280    -2.0060 H     1 <1>   0.0800 
 33 H       -3.2800    -4.0860     1.8860 H     1 <1>   0.0800 
 34 H       -1.8150    -5.0040     1.8610 H     1 <1>   0.0800 
 35 H       -1.3780    -6.6140    -0.1690 H     1 <1>   0.0800 
 36 H       -2.5860    -6.6790    -1.4130 H     1 <1>   0.0800 
 37 H       -6.0000    -4.0830    -0.6540 H     1 <1>   0.0800 
 38 H       -5.3090    -4.0610     0.9500 H     1 <1>   0.0800 
 39 H       -2.0370    -7.6660     1.9160 H     1 <1>   0.1500 
 40 H       -6.4800    -6.4420    -0.5260 H     1 <1>   0.0800 
 41 H       -6.9810    -5.7900     1.0170 H     1 <1>   0.0800 
 42 H       -3.7190    -9.4510     3.0080 H     1 <1>   0.1500 
@<TRIPOS>BOND
  1   1   2  1   
  2   2   3  ar  
  3   2   4  ar  
  4   3   5  1   
  5   3   6  ar  
  6   4   7  ar  
  7   4  25  1   
  8   5   8  2   
  9   5   9  2   
 10   5  10  am  
 11   6  11  ar  
 12   6  26  1   
 13   7  11  ar  
 14   7  27  1   
 15  10  12  1   
 16  10  13  1   
 17  11  28  1   
 18  12  14  1   
 19  12  29  1   
 20  12  30  1   
 21  13  15  1   
 22  13  31  1   
 23  13  32  1   
 24  14  16  1   
 25  14  33  1   
 26  14  34  1   
 27  15  16  1   
 28  15  35  1   
 29  15  36  1   
 30  16  17  1   
 31  16  18  1   
 32  17  19  1   
 33  18  20  2   
 34  18  21  1   
 35  19  22  1   
 36  19  37  1   
 37  19  38  1   
 38  20  22  1   
 39  20  23  1   
 40  21  24  2   
 41  21  39  1   
 42  22  40  1   
 43  22  41  1   
 44  23  24  1   
 45  24  42  1   
@<TRIPOS>SUBSTRUCTURE
  1 ****  12 GROUP 4 **** **** 0

# MOE 2024.06 (io_trps.svl 2023.06)
