@<TRIPOS>MOLECULE
NONAME
35 36 1 0 0 
SMALL
USER_CHARGES


@<TRIPOS>ATOM
  1 S       -2.0130     0.0120     1.2750 S.3   1 <1>  -0.0800 
  2 C       -1.1790     1.2870     0.4690 C.2   1 <1>   0.4340 
  3 C       -1.5450    -0.9960    -0.0600 C.2   1 <1>   0.4420 
  4 S       -1.1750     2.8810     1.2740 S.3   1 <1>  -0.2860 
  5 N       -0.6430     0.9580    -0.6330 N.2   1 <1>  -0.3380 
  6 N       -0.8530    -0.3600    -0.9400 N.2   1 <1>  -0.3380 
  7 N       -1.9590    -2.3110     0.0000 N.am  1 <1>  -0.4940 
  8 C       -0.2050     3.9360     0.1070 C.3   1 <1>   0.0700 
  9 C       -1.8230    -3.3310    -0.9110 C.2   1 <1>   0.5440 
 10 C       -0.1320     5.3440     0.6890 C.3   1 <1>   0.1200 
 11 O       -1.3390    -3.0880    -1.9960 O.2   1 <1>  -0.5700 
 12 C       -2.2370    -4.6900    -0.5950 C.ar  1 <1>   0.0860 
 13 O        0.5970     6.1420    -0.1860 O.3   1 <1>  -0.5600 
 14 C       -3.1040    -5.0360     0.4490 C.ar  1 <1>   0.1900 
 15 C       -1.7600    -5.7590    -1.3610 C.ar  1 <1>  -0.1500 
 16 C        0.7370     7.4600     0.2340 C.3   1 <1>   0.0400 
 17 F       -3.6030    -4.0950     1.2070 F     1 <1>  -0.1900 
 18 C       -3.4810    -6.3420     0.7380 C.ar  1 <1>  -0.1430 
 19 C       -2.1190    -7.0680    -1.0960 C.ar  1 <1>  -0.1500 
 20 C       -2.9760    -7.3620    -0.0500 C.ar  1 <1>  -0.1500 
 21 C       -4.4270    -6.6630     1.8870 C.3   1 <1>  -0.0970 
 22 H       -2.4710    -2.5620     0.8440 H     1 <1>   0.3700 
 23 H       -0.7180     3.9270    -0.8380 H     1 <1>   0.0800 
 24 H        0.7730     3.4980     0.0130 H     1 <1>   0.0800 
 25 H        0.3680     5.3300     1.6430 H     1 <1>   0.0800 
 26 H       -1.1200     5.7580     0.7930 H     1 <1>   0.0800 
 27 H       -1.0920    -5.5570    -2.1820 H     1 <1>   0.1500 
 28 H        1.3120     7.9880    -0.5070 H     1 <1>   0.0800 
 29 H        1.2550     7.4800     1.1770 H     1 <1>   0.0800 
 30 H       -0.2370     7.9100     0.3250 H     1 <1>   0.0800 
 31 H       -1.7290    -7.8640    -1.7080 H     1 <1>   0.1500 
 32 H       -3.2440    -8.3870     0.1420 H     1 <1>   0.1500 
 33 H       -5.3720    -6.1710     1.7350 H     1 <1>   0.0800 
 34 H       -4.0060    -6.3250     2.8170 H     1 <1>   0.0800 
 35 H       -4.6040    -7.7210     1.9590 H     1 <1>   0.0800 
@<TRIPOS>BOND
  1   1   2  1   
  2   1   3  1   
  3   2   4  1   
  4   2   5  2   
  5   3   6  2   
  6   3   7  1   
  7   4   8  1   
  8   5   6  1   
  9   7   9  am  
 10   7  22  1   
 11   8  10  1   
 12   8  23  1   
 13   8  24  1   
 14   9  11  2   
 15   9  12  1   
 16  10  13  1   
 17  10  25  1   
 18  10  26  1   
 19  12  14  ar  
 20  12  15  ar  
 21  13  16  1   
 22  14  17  1   
 23  14  18  ar  
 24  15  19  ar  
 25  15  27  1   
 26  16  28  1   
 27  16  29  1   
 28  16  30  1   
 29  18  20  ar  
 30  18  21  1   
 31  19  20  ar  
 32  19  31  1   
 33  20  32  1   
 34  21  33  1   
 35  21  34  1   
 36  21  35  1   
@<TRIPOS>SUBSTRUCTURE
  1 ****   3 GROUP 4 **** **** 0

# MOE 2024.06 (io_trps.svl 2023.06)
