@<TRIPOS>MOLECULE
NONAME
48 49 1 0 0 
SMALL
USER_CHARGES


@<TRIPOS>ATOM
  1 S        1.1680    -0.1790    -0.7930 S.3   1 <1>  -0.0800 
  2 C        2.6330     0.5030    -1.4550 C.2   1 <1>   0.1980 
  3 C        1.4530     0.6950     0.6840 C.2   1 <1>  -0.1400 
  4 N        3.2490     1.2840    -0.6660 N.2   1 <1>  -0.5650 
  5 C        3.0130     0.1070    -2.8610 C.3   1 <1>  -0.0600 
  6 C        2.5910     1.4060     0.5590 C.2   1 <1>   0.0460 
  7 C        0.4210     0.5090     1.7810 C.3   1 <1>  -0.0600 
  8 C        3.1980     2.3140     1.6460 C.3   1 <1>   0.3710 
  9 N        3.1700     3.7630     1.3060 N.3   1 <1>  -0.8100 
 10 C        4.6480     1.8930     1.9080 C.3   1 <1>  -0.2400 
 11 C        3.3440     4.6450     2.5040 C.3   1 <1>   0.1710 
 12 C        1.9570     4.1590     0.5620 C.3   1 <1>   0.0300 
 13 C        3.9560     6.0070     2.1700 C.2   1 <1>   0.5690 
 14 O        3.8580     6.9050     2.9720 O.2   1 <1>  -0.5700 
 15 N        4.5850     6.1010     0.9620 N.am  1 <1>  -0.5470 
 16 C        5.2610     7.1330     0.2960 C.ar  1 <1>   0.1170 
 17 C        5.7100     6.9010    -0.9980 C.ar  1 <1>  -0.1500 
 18 C        5.5090     8.3770     0.8620 C.ar  1 <1>  -0.1500 
 19 C        6.3870     7.8710    -1.7190 C.ar  1 <1>  -0.1440 
 20 C        6.1820     9.3540     0.1520 C.ar  1 <1>  -0.1500 
 21 C        6.6260     9.1130    -1.1390 C.ar  1 <1>  -0.1440 
 22 C        6.8520     7.5530    -3.1330 C.3   1 <1>  -0.0970 
 23 C        7.3630    10.2140    -1.8860 C.3   1 <1>  -0.0970 
 24 H        2.2350     0.3960    -3.5430 H     1 <1>   0.0800 
 25 H        3.1560    -0.9560    -2.9130 H     1 <1>   0.0800 
 26 H        3.9260     0.5990    -3.1410 H     1 <1>   0.0800 
 27 H       -0.5480     0.8030     1.4210 H     1 <1>   0.0800 
 28 H        0.6620     1.1020     2.6440 H     1 <1>   0.0800 
 29 H        0.3830    -0.5250     2.0720 H     1 <1>   0.0800 
 30 H        2.6330     2.1670     2.5490 H     1 <1>   0.0800 
 31 H        5.2540     2.1260     1.0510 H     1 <1>   0.0800 
 32 H        4.6870     0.8310     2.0660 H     1 <1>   0.0800 
 33 H        5.0550     2.3740     2.7750 H     1 <1>   0.0800 
 34 H        3.9980     4.1860     3.2200 H     1 <1>   0.0800 
 35 H        2.3960     4.8010     2.9890 H     1 <1>   0.0800 
 36 H        1.9430     3.6840    -0.4050 H     1 <1>   0.0800 
 37 H        1.9430     5.2230     0.4010 H     1 <1>   0.0800 
 38 H        1.0710     3.8760     1.1040 H     1 <1>   0.0800 
 39 H        4.4850     5.2220     0.4410 H     1 <1>   0.3700 
 40 H        5.5240     5.9400    -1.4420 H     1 <1>   0.1500 
 41 H        5.1780     8.5910     1.8600 H     1 <1>   0.1500 
 42 H        6.3580    10.3070     0.6180 H     1 <1>   0.1500 
 43 H        6.5790     6.5520    -3.4140 H     1 <1>   0.0800 
 44 H        7.9210     7.6410    -3.1970 H     1 <1>   0.0800 
 45 H        6.4010     8.2340    -3.8310 H     1 <1>   0.0800 
 46 H        8.3510     9.8830    -2.1490 H     1 <1>   0.0800 
 47 H        7.4540    11.0970    -1.2800 H     1 <1>   0.0800 
 48 H        6.8280    10.4740    -2.7810 H     1 <1>   0.0800 
@<TRIPOS>BOND
  1   1   2  1   
  2   1   3  1   
  3   2   4  2   
  4   2   5  1   
  5   3   6  2   
  6   3   7  1   
  7   4   6  1   
  8   5  24  1   
  9   5  25  1   
 10   5  26  1   
 11   6   8  1   
 12   7  27  1   
 13   7  28  1   
 14   7  29  1   
 15   8   9  1   
 16   8  10  1   
 17   8  30  1   
 18   9  11  1   
 19   9  12  1   
 20  10  31  1   
 21  10  32  1   
 22  10  33  1   
 23  11  13  1   
 24  11  34  1   
 25  11  35  1   
 26  12  36  1   
 27  12  37  1   
 28  12  38  1   
 29  13  14  2   
 30  13  15  am  
 31  15  16  1   
 32  15  39  1   
 33  16  17  ar  
 34  16  18  ar  
 35  17  19  ar  
 36  17  40  1   
 37  18  20  ar  
 38  18  41  1   
 39  19  21  ar  
 40  19  22  1   
 41  20  21  ar  
 42  20  42  1   
 43  21  23  1   
 44  22  43  1   
 45  22  44  1   
 46  22  45  1   
 47  23  46  1   
 48  23  47  1   
 49  23  48  1   
@<TRIPOS>SUBSTRUCTURE
  1 ****   9 GROUP 4 **** **** 0

# MOE 2024.06 (io_trps.svl 2023.06)
