@<TRIPOS>MOLECULE
NONAME
42 43 1 0 0 
SMALL
USER_CHARGES


@<TRIPOS>ATOM
  1 O       -1.7570    -1.9970    -1.9720 O.2   1 <1>  -0.5700 
  2 C       -1.7950    -2.3890    -0.8220 C.2   1 <1>   0.7800 
  3 O       -1.6820    -3.6870    -0.5240 O.3   1 <1>  -0.4300 
  4 N       -1.9560    -1.5280     0.2370 N.am  1 <1>  -0.6600 
  5 C       -1.4530    -4.7500    -1.4200 C.3   1 <1>   0.2800 
  6 C       -2.1630    -1.8190     1.6160 C.3   1 <1>   0.2200 
  7 C       -2.2150    -0.1280     0.2020 C.3   1 <1>   0.2200 
  8 C       -0.1100    -4.5570    -2.1340 C.3   1 <1>  -0.2400 
  9 C       -2.6260    -4.8840    -2.3980 C.3   1 <1>  -0.2400 
 10 C       -1.3820    -6.0000    -0.5430 C.3   1 <1>  -0.2400 
 11 C       -0.6330    -1.8320     1.8940 C.3   1 <1>  -0.1600 
 12 C       -3.6720    -1.7130     1.3030 C.3   1 <1>  -0.1600 
 13 C       -0.6960     0.2020     0.1900 C.3   1 <1>  -0.1600 
 14 C       -3.7090    -0.5080     0.2980 C.3   1 <1>  -0.1600 
 15 C       -0.0110    -0.4340     1.4720 C.3   1 <1>  -0.0190 
 16 C        1.5040    -0.5040     1.3320 C.2   1 <1>   0.6590 
 17 O        2.2290     0.1470     2.0400 O.2   1 <1>  -0.5700 
 18 O        1.9780    -1.3170     0.3950 O.3   1 <1>  -0.4300 
 19 C        3.3630    -1.4590     0.1640 C.3   1 <1>   0.0400 
 20 H       -2.3930    -2.0730     2.6370 H     1 <1>   0.0800 
 21 H       -2.4840     0.9130     0.1410 H     1 <1>   0.0800 
 22 H        0.1330    -5.4350    -2.7040 H     1 <1>   0.0800 
 23 H        0.6730    -4.3860    -1.4170 H     1 <1>   0.0800 
 24 H       -0.1490    -3.7280    -2.8170 H     1 <1>   0.0800 
 25 H       -2.5150    -5.7770    -2.9840 H     1 <1>   0.0800 
 26 H       -2.6610    -4.0530    -3.0780 H     1 <1>   0.0800 
 27 H       -3.5550    -4.9390    -1.8610 H     1 <1>   0.0800 
 28 H       -1.2050    -6.8710    -1.1460 H     1 <1>   0.0800 
 29 H       -2.3070    -6.1350    -0.0130 H     1 <1>   0.0800 
 30 H       -0.5800    -5.9100     0.1680 H     1 <1>   0.0800 
 31 H       -0.4360    -1.9910     2.9400 H     1 <1>   0.0800 
 32 H       -0.1540    -2.6440     1.3710 H     1 <1>   0.0800 
 33 H       -4.0600    -2.6230     0.8730 H     1 <1>   0.0800 
 34 H       -4.2430    -1.4770     2.1840 H     1 <1>   0.0800 
 35 H       -0.2330    -0.1550    -0.7160 H     1 <1>   0.0800 
 36 H       -0.5340     1.2660     0.2100 H     1 <1>   0.0800 
 37 H       -4.2960     0.2960     0.7070 H     1 <1>   0.0800 
 38 H       -4.1170    -0.7810    -0.6620 H     1 <1>   0.0800 
 39 H       -0.2170     0.2400     2.2840 H     1 <1>   0.0800 
 40 H        3.5030    -2.1620    -0.6380 H     1 <1>   0.0800 
 41 H        3.8300    -1.8210     1.0640 H     1 <1>   0.0800 
 42 H        3.7700    -0.5000    -0.1060 H     1 <1>   0.0800 
@<TRIPOS>BOND
  1   1   2  2   
  2   2   3  1   
  3   2   4  am  
  4   3   5  1   
  5   4   6  1   
  6   4   7  1   
  7   5   8  1   
  8   5   9  1   
  9   5  10  1   
 10   6  11  1   
 11   6  12  1   
 12   6  20  1   
 13   7  13  1   
 14   7  14  1   
 15   7  21  1   
 16   8  22  1   
 17   8  23  1   
 18   8  24  1   
 19   9  25  1   
 20   9  26  1   
 21   9  27  1   
 22  10  28  1   
 23  10  29  1   
 24  10  30  1   
 25  11  15  1   
 26  11  31  1   
 27  11  32  1   
 28  12  14  1   
 29  12  33  1   
 30  12  34  1   
 31  13  15  1   
 32  13  35  1   
 33  13  36  1   
 34  14  37  1   
 35  14  38  1   
 36  15  16  1   
 37  15  39  1   
 38  16  17  2   
 39  16  18  1   
 40  18  19  1   
 41  19  40  1   
 42  19  41  1   
 43  19  42  1   
@<TRIPOS>SUBSTRUCTURE
  1 ****   4 GROUP 4 **** **** 0

# MOE 2024.06 (io_trps.svl 2023.06)
