@<TRIPOS>MOLECULE
NONAME
54 56 1 0 0 
SMALL
USER_CHARGES


@<TRIPOS>ATOM
  1 O        1.5600     0.3650     2.0140 O.co2 1 <1>  -0.9000 
  2 C        1.8810    -0.0910     0.9110 C.2   1 <1>   0.9060 
  3 O        1.8550    -1.3140     0.6990 O.co2 1 <1>  -0.9000 
  4 C        2.3320     0.8440    -0.2300 C.3   1 <1>  -0.1060 
  5 C        3.6380     0.2910    -0.8550 C.3   1 <1>   0.2000 
  6 C        2.6510     2.2760     0.2880 C.3   1 <1>  -0.1600 
  7 C        1.2290     0.8930    -1.3230 C.3   1 <1>  -0.0160 
  8 O        3.4400    -1.0020    -1.3120 O.3   1 <1>  -0.6800 
  9 C        4.8110     0.3060     0.1360 C.3   1 <1>   0.1400 
 10 C        3.8360     2.3060     1.2650 C.3   1 <1>   0.1400 
 11 C        0.0520     1.8190    -1.0240 C.ar  1 <1>  -0.1440 
 12 N        5.0420     1.7000     0.6310 N.am  1 <1>  -0.6600 
 13 C       -0.8390     1.5220    -0.0040 C.ar  1 <1>  -0.1500 
 14 C       -0.1410     2.9710    -1.7730 C.ar  1 <1>  -0.1500 
 15 C        6.2810     2.2890     0.5790 C.2   1 <1>   0.6300 
 16 C       -1.9040     2.3630     0.2660 C.ar  1 <1>  -0.1500 
 17 C       -1.2080     3.8130    -1.5070 C.ar  1 <1>  -0.1500 
 18 O        7.2400     1.7070     0.1230 O.2   1 <1>  -0.5700 
 19 C        6.4900     3.6950     1.1540 C.3   1 <1>  -0.1000 
 20 C       -2.0900     3.5100    -0.4850 C.ar  1 <1>  -0.1500 
 21 C        5.9780     4.9530     0.4790 C.3   1 <1>  -0.1900 
 22 C        7.4540     4.7280     0.6060 C.3   1 <1>  -0.1900 
 23 C        5.2680     6.0030     1.3470 C.3   1 <1>  -0.1450 
 24 C        5.2980     4.8630    -0.8980 C.3   1 <1>  -0.1450 
 25 C        8.2900     5.5220     1.6220 C.3   1 <1>  -0.1450 
 26 C        8.3070     4.4380    -0.6420 C.3   1 <1>  -0.1450 
 27 H        3.9210     0.8810    -1.7090 H     1 <1>   0.0800 
 28 H        1.7930     2.6730     0.8010 H     1 <1>   0.0800 
 29 H        2.8620     2.9240    -0.5410 H     1 <1>   0.0800 
 30 H        1.6740     1.2020    -2.2520 H     1 <1>   0.0800 
 31 H        0.8490    -0.1020    -1.4850 H     1 <1>   0.0800 
 32 H        2.8530    -1.4410    -0.6210 H     1 <1>   0.4000 
 33 H        5.6900    -0.0700    -0.3560 H     1 <1>   0.0800 
 34 H        4.5880    -0.3310     0.9760 H     1 <1>   0.0800 
 35 H        3.5930     1.7470     2.1530 H     1 <1>   0.0800 
 36 H        4.0190     3.3200     1.5630 H     1 <1>   0.0800 
 37 H       -0.6990     0.6350     0.5930 H     1 <1>   0.1500 
 38 H        0.5400     3.2160    -2.5680 H     1 <1>   0.1500 
 39 H       -2.5800     2.1200     1.0660 H     1 <1>   0.1500 
 40 H       -1.3500     4.7030    -2.0930 H     1 <1>   0.1500 
 41 H        6.4160     3.6470     2.2240 H     1 <1>   0.1000 
 42 H       -2.9180     4.1620    -0.2740 H     1 <1>   0.1500 
 43 H        4.2090     5.8160     1.3670 H     1 <1>   0.0800 
 44 H        5.4350     6.9850     0.9420 H     1 <1>   0.0800 
 45 H        5.6160     5.9870     2.3620 H     1 <1>   0.0800 
 46 H        4.2320     4.7940    -0.7850 H     1 <1>   0.0800 
 47 H        5.6190     4.0010    -1.4530 H     1 <1>   0.0800 
 48 H        5.5220     5.7440    -1.4730 H     1 <1>   0.0800 
 49 H        9.2190     5.0140     1.8100 H     1 <1>   0.0800 
 50 H        7.7860     5.6290     2.5640 H     1 <1>   0.0800 
 51 H        8.5060     6.5010     1.2340 H     1 <1>   0.0800 
 52 H        9.2100     3.9280    -0.3570 H     1 <1>   0.0800 
 53 H        8.5700     5.3570    -1.1320 H     1 <1>   0.0800 
 54 H        7.8000     3.8100    -1.3490 H     1 <1>   0.0800 
@<TRIPOS>BOND
  1   1   2  ar  
  2   2   3  ar  
  3   2   4  1   
  4   4   5  1   
  5   4   6  1   
  6   4   7  1   
  7   5   8  1   
  8   5   9  1   
  9   5  27  1   
 10   6  10  1   
 11   6  28  1   
 12   6  29  1   
 13   7  11  1   
 14   7  30  1   
 15   7  31  1   
 16   8  32  1   
 17   9  12  1   
 18   9  33  1   
 19   9  34  1   
 20  10  12  1   
 21  10  35  1   
 22  10  36  1   
 23  11  13  ar  
 24  11  14  ar  
 25  12  15  am  
 26  13  16  ar  
 27  13  37  1   
 28  14  17  ar  
 29  14  38  1   
 30  15  18  2   
 31  15  19  1   
 32  16  20  ar  
 33  16  39  1   
 34  17  20  ar  
 35  17  40  1   
 36  19  21  1   
 37  19  22  1   
 38  19  41  1   
 39  20  42  1   
 40  21  22  1   
 41  21  23  1   
 42  21  24  1   
 43  22  25  1   
 44  22  26  1   
 45  23  43  1   
 46  23  44  1   
 47  23  45  1   
 48  24  46  1   
 49  24  47  1   
 50  24  48  1   
 51  25  49  1   
 52  25  50  1   
 53  25  51  1   
 54  26  52  1   
 55  26  53  1   
 56  26  54  1   
@<TRIPOS>SUBSTRUCTURE
  1 ****   6 GROUP 4 **** **** 0

# MOE 2024.06 (io_trps.svl 2023.06)
