@<TRIPOS>MOLECULE
NONAME
52 55 1 0 0 
SMALL
USER_CHARGES


@<TRIPOS>ATOM
  1 O       -0.3620    -1.7770    -1.0130 O.2   1 <1>  -0.5700 
  2 C        0.7190    -2.3010    -0.9590 C.2   1 <1>   0.5690 
  3 N        1.3490    -2.7380    -2.0690 N.am  1 <1>  -0.7300 
  4 C        1.4180    -2.5010     0.3670 C.3   1 <1>  -0.0990 
  5 C        2.6710    -3.3970    -2.0430 C.3   1 <1>   0.1400 
  6 C        2.9110    -2.1400     0.2470 C.3   1 <1>  -0.0800 
  7 C        3.5960    -2.6880    -1.0310 C.3   1 <1>  -0.0800 
  8 C        3.7450    -2.6300     1.4400 C.3   1 <1>  -0.1600 
  9 C        4.7400    -3.5840    -0.5420 C.3   1 <1>  -0.1600 
 10 C        5.0870    -3.0230     0.8340 C.3   1 <1>   0.2200 
 11 N        5.8710    -3.9650     1.6960 N.am  1 <1>  -0.6600 
 12 C        7.0750    -3.6360     2.2830 C.2   1 <1>   0.5690 
 13 C        5.3490    -5.3590     1.8570 C.3   1 <1>   0.0600 
 14 O        7.6990    -4.4450     2.9310 O.2   1 <1>  -0.5700 
 15 C        7.6840    -2.2430     2.1560 C.3   1 <1>   0.0820 
 16 C        8.1680    -1.9230     0.7460 C.2   1 <1>  -0.1810 
 17 C        8.4610    -0.6350     0.2320 C.ar  1 <1>   0.0000 
 18 C        8.3830    -2.7920    -0.2610 C.2   1 <1>  -0.0100 
 19 C        8.4700     0.6850     0.7050 C.ar  1 <1>  -0.1430 
 20 C        8.8190    -0.8710    -1.0870 C.ar  1 <1>   0.1400 
 21 O        8.7680    -2.1720    -1.3670 O.3   1 <1>  -0.2800 
 22 C        8.8230     1.7010    -0.1640 C.ar  1 <1>  -0.1500 
 23 C        8.1090     1.0160     2.1440 C.3   1 <1>  -0.0970 
 24 C        9.1740     0.1470    -1.9590 C.ar  1 <1>  -0.1500 
 25 C        9.1740     1.4450    -1.4930 C.ar  1 <1>  -0.1430 
 26 C        9.5530     2.6010    -2.4010 C.3   1 <1>  -0.0970 
 27 H        0.8630    -2.6310    -2.9620 H     1 <1>   0.3700 
 28 H        0.9470    -1.8930     1.1170 H     1 <1>   0.0800 
 29 H        1.3000    -3.5320     0.6430 H     1 <1>   0.0800 
 30 H        2.5270    -4.4260    -1.7620 H     1 <1>   0.0800 
 31 H        3.1130    -3.3710    -3.0250 H     1 <1>   0.0800 
 32 H        2.9790    -1.0650     0.2040 H     1 <1>   0.0800 
 33 H        4.0380    -1.8470    -1.5390 H     1 <1>   0.0800 
 34 H        3.2730    -3.4800     1.8960 H     1 <1>   0.0800 
 35 H        3.8640    -1.8560     2.1780 H     1 <1>   0.0800 
 36 H        5.5860    -3.5420    -1.2060 H     1 <1>   0.0800 
 37 H        4.3930    -4.5970    -0.4620 H     1 <1>   0.0800 
 38 H        5.6340    -2.1130     0.6680 H     1 <1>   0.0800 
 39 H        4.2770    -5.3870     1.7900 H     1 <1>   0.0800 
 40 H        5.6350    -5.7560     2.8160 H     1 <1>   0.0800 
 41 H        5.7660    -5.9880     1.0890 H     1 <1>   0.0800 
 42 H        6.9420    -1.5330     2.4620 H     1 <1>   0.0800 
 43 H        8.5140    -2.1630     2.8340 H     1 <1>   0.0800 
 44 H        8.2850    -3.8640    -0.2900 H     1 <1>   0.1500 
 45 H        8.8340     2.7210     0.1790 H     1 <1>   0.1500 
 46 H        8.3080     2.0510     2.3600 H     1 <1>   0.0800 
 47 H        8.6930     0.4170     2.8180 H     1 <1>   0.0800 
 48 H        7.0640     0.8310     2.3120 H     1 <1>   0.0800 
 49 H        9.4390    -0.0990    -2.9710 H     1 <1>   0.1500 
 50 H       10.4080     3.1160    -2.0000 H     1 <1>   0.0800 
 51 H        8.7330     3.2920    -2.4760 H     1 <1>   0.0800 
 52 H        9.7970     2.2500    -3.3870 H     1 <1>   0.0800 
@<TRIPOS>BOND
  1   1   2  2   
  2   2   3  am  
  3   2   4  1   
  4   3   5  1   
  5   3  27  1   
  6   4   6  1   
  7   4  28  1   
  8   4  29  1   
  9   5   7  1   
 10   5  30  1   
 11   5  31  1   
 12   6   7  1   
 13   6   8  1   
 14   6  32  1   
 15   7   9  1   
 16   7  33  1   
 17   8  10  1   
 18   8  34  1   
 19   8  35  1   
 20   9  10  1   
 21   9  36  1   
 22   9  37  1   
 23  10  11  1   
 24  10  38  1   
 25  11  12  am  
 26  11  13  1   
 27  12  14  2   
 28  12  15  1   
 29  13  39  1   
 30  13  40  1   
 31  13  41  1   
 32  15  16  1   
 33  15  42  1   
 34  15  43  1   
 35  16  17  1   
 36  16  18  2   
 37  17  19  ar  
 38  17  20  ar  
 39  18  21  1   
 40  18  44  1   
 41  19  22  ar  
 42  19  23  1   
 43  20  21  1   
 44  20  24  ar  
 45  22  25  ar  
 46  22  45  1   
 47  23  46  1   
 48  23  47  1   
 49  23  48  1   
 50  24  25  ar  
 51  24  49  1   
 52  25  26  1   
 53  26  50  1   
 54  26  51  1   
 55  26  52  1   
@<TRIPOS>SUBSTRUCTURE
  1 ****  10 GROUP 4 **** **** 0

# MOE 2024.06 (io_trps.svl 2023.06)
