@<TRIPOS>MOLECULE
NONAME
11 10 1 0 0 
SMALL
USER_CHARGES


@<TRIPOS>ATOM
  1 S        0.2470     0.0280     0.0400 S.3   1 <1>  -0.4100 
  2 C       -0.8340    -1.4290     0.0520 C.3   1 <1>   0.0700 
  3 C        0.0260    -2.6790    -0.0920 C.3   1 <1>  -0.2660 
  4 C       -0.8590    -3.8940    -0.0730 C.2   1 <1>   0.9060 
  5 O       -0.7640    -4.6810     0.8710 O.co2 1 <1>  -0.9000 
  6 O       -1.6700    -4.0400    -0.9910 O.co2 1 <1>  -0.9000 
  7 H       -0.6530     1.0480     0.1380 H     1 <1>   0.1800 
  8 H       -1.5220    -1.3380    -0.7710 H     1 <1>   0.0800 
  9 H       -1.3720    -1.4330     0.9840 H     1 <1>   0.0800 
 10 H        0.7260    -2.7490     0.7180 H     1 <1>   0.0800 
 11 H        0.5550    -2.6650    -1.0240 H     1 <1>   0.0800 
@<TRIPOS>BOND
  1   1   2  1   
  2   1   7  1   
  3   2   3  1   
  4   2   8  1   
  5   2   9  1   
  6   3   4  1   
  7   3  10  1   
  8   3  11  1   
  9   4   5  ar  
 10   4   6  ar  
@<TRIPOS>SUBSTRUCTURE
  1 ****   3 GROUP 4 **** **** 0

# MOE 2024.06 (io_trps.svl 2023.06)
