@<TRIPOS>MOLECULE
NONAME
45 48 1 0 0 
SMALL
USER_CHARGES


@<TRIPOS>ATOM
  1 S       -1.4590     1.0260     2.3150 S.3   1 <1>  -0.0800 
  2 C       -2.5670     1.5030     1.0560 C.2   1 <1>   0.2280 
  3 C       -2.0700    -0.5910     2.1920 C.2   1 <1>  -0.1100 
  4 N       -3.3000     0.5630     0.6130 N.2   1 <1>  -0.5650 
  5 C       -3.0410    -0.6670     1.2540 C.2   1 <1>   0.1410 
  6 C       -3.7310    -1.9140     0.9130 C.2   1 <1>   0.7160 
  7 O       -3.1040    -2.9550     1.0180 O.2   1 <1>  -0.5700 
  8 N       -5.0530    -2.0060     0.5070 N.am  1 <1>  -0.6600 
  9 C       -6.0600    -0.9050     0.6090 C.3   1 <1>   0.1400 
 10 C       -5.6090    -3.3250     0.0690 C.3   1 <1>   0.1400 
 11 C       -6.7580    -0.6560    -0.7470 C.3   1 <1>   0.1440 
 12 C       -7.0140    -3.1990    -0.5450 C.3   1 <1>  -0.1600 
 13 C       -7.9810     0.1990    -0.4590 C.ar  1 <1>   0.1670 
 14 C       -7.1020    -1.9820    -1.4790 C.3   1 <1>  -0.1600 
 15 C       -5.9270     0.2810    -1.6610 C.3   1 <1>  -0.1600 
 16 N       -9.1010    -0.2290     0.0670 N.ar  1 <1>  -0.6200 
 17 C       -7.7680     1.5020    -0.7940 C.ar  1 <1>  -0.1430 
 18 C       -6.3860     1.7170    -1.3590 C.3   1 <1>  -0.0170 
 19 C      -10.0400     0.7040     0.2450 C.ar  1 <1>   0.7200 
 20 C       -8.7900     2.3910    -0.5760 C.ar  1 <1>   0.1600 
 21 N       -9.9310     2.0030    -0.0560 N.ar  1 <1>  -0.6200 
 22 N      -11.2360     0.2870     0.7980 N.pl3 1 <1>  -0.8380 
 23 C      -12.2450     1.2510     1.3170 C.3   1 <1>   0.1290 
 24 C      -11.6030    -1.1520     0.8910 C.3   1 <1>   0.1290 
 25 H       -2.5460     2.5360     0.7540 H     1 <1>   0.1500 
 26 H       -1.6450    -1.3470     2.8270 H     1 <1>   0.1500 
 27 H       -5.6310     0.0060     0.9800 H     1 <1>   0.0800 
 28 H       -6.8030    -1.2040     1.3290 H     1 <1>   0.0800 
 29 H       -5.6370    -3.9960     0.9110 H     1 <1>   0.0800 
 30 H       -4.9410    -3.7450    -0.6650 H     1 <1>   0.0800 
 31 H       -7.7450    -3.1070     0.2400 H     1 <1>   0.0800 
 32 H       -7.2430    -4.0970    -1.0910 H     1 <1>   0.0800 
 33 H       -6.4050    -2.1440    -2.2820 H     1 <1>   0.0800 
 34 H       -8.0860    -1.9210    -1.9110 H     1 <1>   0.0800 
 35 H       -6.1620     0.0780    -2.6910 H     1 <1>   0.0800 
 36 H       -4.8680     0.1520    -1.5260 H     1 <1>   0.0800 
 37 H       -6.4030     2.3240    -2.2470 H     1 <1>   0.0800 
 38 H       -5.7540     2.1670    -0.6140 H     1 <1>   0.0800 
 39 H       -8.6700     3.4300    -0.8270 H     1 <1>   0.1500 
 40 H      -11.7650     2.1470     1.6700 H     1 <1>   0.0800 
 41 H      -12.7870     0.8140     2.1370 H     1 <1>   0.0800 
 42 H      -12.9320     1.5090     0.5310 H     1 <1>   0.0800 
 43 H      -11.1430    -1.7110     0.0950 H     1 <1>   0.0800 
 44 H      -12.6700    -1.2690     0.8130 H     1 <1>   0.0800 
 45 H      -11.2690    -1.5470     1.8340 H     1 <1>   0.0800 
@<TRIPOS>BOND
  1   1   2  1   
  2   1   3  1   
  3   2   4  2   
  4   2  25  1   
  5   3   5  2   
  6   3  26  1   
  7   4   5  1   
  8   5   6  1   
  9   6   7  2   
 10   6   8  am  
 11   8   9  1   
 12   8  10  1   
 13   9  11  1   
 14   9  27  1   
 15   9  28  1   
 16  10  12  1   
 17  10  29  1   
 18  10  30  1   
 19  11  13  1   
 20  11  14  1   
 21  11  15  1   
 22  12  14  1   
 23  12  31  1   
 24  12  32  1   
 25  13  16  ar  
 26  13  17  ar  
 27  14  33  1   
 28  14  34  1   
 29  15  18  1   
 30  15  35  1   
 31  15  36  1   
 32  16  19  ar  
 33  17  18  1   
 34  17  20  ar  
 35  18  37  1   
 36  18  38  1   
 37  19  21  ar  
 38  19  22  1   
 39  20  21  ar  
 40  20  39  1   
 41  22  23  1   
 42  22  24  1   
 43  23  40  1   
 44  23  41  1   
 45  23  42  1   
 46  24  43  1   
 47  24  44  1   
 48  24  45  1   
@<TRIPOS>SUBSTRUCTURE
  1 ****   9 GROUP 4 **** **** 0

# MOE 2024.06 (io_trps.svl 2023.06)
