@<TRIPOS>MOLECULE
NONAME
39 40 1 0 0 
SMALL
USER_CHARGES


@<TRIPOS>ATOM
  1 S       -0.4530    -0.1690     0.9230 S.3   1 <1>  -0.2860 
  2 C        1.0420     0.2680     0.0350 C.2   1 <1>   0.2420 
  3 C       -1.1030    -1.6010    -0.0490 C.3   1 <1>   0.0700 
  4 N        1.8100     1.2770     0.4170 N.pl3 1 <1>   0.0330 
  5 N        1.4790    -0.3390    -1.0100 N.2   1 <1>  -0.3380 
  6 C       -2.3630    -2.1160     0.6410 C.3   1 <1>   0.2090 
  7 C        2.7860     1.2500    -0.4960 C.2   1 <1>   0.0060 
  8 N        2.6080     0.2980    -1.3510 N.2   1 <1>  -0.3380 
  9 N       -2.9280    -3.2590    -0.1150 N.pl3 1 <1>  -0.8690 
 10 C        3.9490     2.2200    -0.5140 C.3   1 <1>  -0.0600 
 11 C       -3.8650    -4.0560     0.4700 C.ar  1 <1>   0.4100 
 12 N       -3.5830    -5.3380     0.3940 N.ar  1 <1>  -0.6200 
 13 C       -5.0010    -3.5360     1.0810 C.ar  1 <1>  -0.1500 
 14 C       -4.4570    -6.1910     0.9590 C.ar  1 <1>   0.3960 
 15 C       -5.9020    -4.3880     1.6690 C.ar  1 <1>  -0.1500 
 16 C       -4.2130    -7.6390     0.9230 C.2   1 <1>   0.5440 
 17 C       -5.6090    -5.7330     1.6010 C.ar  1 <1>  -0.1500 
 18 O       -4.4980    -8.3070     1.9050 O.2   1 <1>  -0.5700 
 19 N       -3.7010    -8.3100    -0.1830 N.am  1 <1>  -0.6600 
 20 C       -3.2760    -9.7360    -0.1150 C.3   1 <1>   0.0600 
 21 C       -3.5510    -7.6830    -1.5250 C.3   1 <1>   0.0600 
 22 H       -0.3280    -2.3470    -0.0690 H     1 <1>   0.0800 
 23 H       -1.3120    -1.2440    -1.0410 H     1 <1>   0.0800 
 24 H        1.6680     1.9000     1.2110 H     1 <1>   0.2700 
 25 H       -3.0920    -1.3250     0.6870 H     1 <1>   0.0800 
 26 H       -2.1240    -2.4320     1.6430 H     1 <1>   0.0800 
 27 H       -2.2010    -3.8540    -0.5220 H     1 <1>   0.4000 
 28 H        3.5910     3.2270    -0.6240 H     1 <1>   0.0800 
 29 H        4.5980     1.9940    -1.3420 H     1 <1>   0.0800 
 30 H        4.5150     2.1380     0.3960 H     1 <1>   0.0800 
 31 H       -5.1630    -2.4760     1.0830 H     1 <1>   0.1500 
 32 H       -6.7920    -4.0270     2.1570 H     1 <1>   0.1500 
 33 H       -6.2760    -6.4490     2.0480 H     1 <1>   0.1500 
 34 H       -3.2070   -10.0680     0.9060 H     1 <1>   0.0800 
 35 H       -2.3110    -9.8520    -0.5750 H     1 <1>   0.0800 
 36 H       -3.9930   -10.3510    -0.6300 H     1 <1>   0.0800 
 37 H       -4.2610    -6.8850    -1.6520 H     1 <1>   0.0800 
 38 H       -3.7210    -8.4140    -2.2960 H     1 <1>   0.0800 
 39 H       -2.5560    -7.2850    -1.6260 H     1 <1>   0.0800 
@<TRIPOS>BOND
  1   1   2  1   
  2   1   3  1   
  3   2   4  1   
  4   2   5  2   
  5   3   6  1   
  6   3  22  1   
  7   3  23  1   
  8   4   7  1   
  9   4  24  1   
 10   5   8  1   
 11   6   9  1   
 12   6  25  1   
 13   6  26  1   
 14   7   8  2   
 15   7  10  1   
 16   9  11  1   
 17   9  27  1   
 18  10  28  1   
 19  10  29  1   
 20  10  30  1   
 21  11  12  ar  
 22  11  13  ar  
 23  12  14  ar  
 24  13  15  ar  
 25  13  31  1   
 26  14  16  1   
 27  14  17  ar  
 28  15  17  ar  
 29  15  32  1   
 30  16  18  2   
 31  16  19  am  
 32  17  33  1   
 33  19  20  1   
 34  19  21  1   
 35  20  34  1   
 36  20  35  1   
 37  20  36  1   
 38  21  37  1   
 39  21  38  1   
 40  21  39  1   
@<TRIPOS>SUBSTRUCTURE
  1 ****   9 GROUP 4 **** **** 0

# MOE 2024.06 (io_trps.svl 2023.06)
