@<TRIPOS>MOLECULE
NONAME
53 56 1 0 0 
SMALL
USER_CHARGES


@<TRIPOS>ATOM
  1 O        0.1750    -0.6640    -0.6800 O.2   1 <1>  -0.5700 
  2 C        1.2640    -1.0480    -0.2880 C.2   1 <1>   0.7150 
  3 N        2.2190    -0.0890     0.0160 N.am  1 <1>  -0.6600 
  4 C        1.4700    -2.4730    -0.1620 C.2   1 <1>   0.0550 
  5 C        3.3870    -0.3580     0.9140 C.3   1 <1>   0.1400 
  6 C        1.9770     1.3360    -0.3590 C.3   1 <1>   0.1400 
  7 O        2.6590    -3.0270    -0.0950 O.3   1 <1>  -0.0190 
  8 C        0.5860    -3.4950    -0.1140 C.2   1 <1>  -0.1500 
  9 C        4.6780    -0.5980     0.1160 C.3   1 <1>   0.1400 
 10 C        3.2540     2.1380    -0.6440 C.3   1 <1>  -0.1600 
 11 N        2.6200    -4.3190     0.0070 N.2   1 <1>  -0.4100 
 12 C        1.3710    -4.6340    -0.0050 C.2   1 <1>   0.1080 
 13 N        5.2360     0.6620    -0.4750 N.am  1 <1>  -0.6600 
 14 C        4.3220     1.3630    -1.4220 C.3   1 <1>   0.1400 
 15 C        0.8560    -6.0650     0.0880 C.3   1 <1>   0.1010 
 16 C        6.5440     1.0240    -0.2240 C.2   1 <1>   0.5690 
 17 C        0.0610    -6.4420    -1.1680 C.3   1 <1>  -0.2400 
 18 C       -0.0010    -6.2570     1.3450 C.3   1 <1>  -0.2400 
 19 O        7.2640     0.3030     0.4290 O.2   1 <1>  -0.5700 
 20 C        7.1480     2.3080    -0.8130 C.3   1 <1>  -0.0190 
 21 C        8.6120     2.6020    -0.4060 C.3   1 <1>   0.0580 
 22 C        6.4330     3.6470    -0.4410 C.3   1 <1>  -0.1600 
 23 C        8.6520     2.8480     1.0930 C.2   1 <1>  -0.2880 
 24 C        8.7260     4.0530    -0.8690 C.3   1 <1>  -0.1600 
 25 C        7.5860     4.5660     0.0070 C.3   1 <1>   0.0580 
 26 C        8.0510     4.0080     1.3340 C.2   1 <1>  -0.2880 
 27 H        3.5330     0.4640     1.5930 H     1 <1>   0.0800 
 28 H        3.1850    -1.2250     1.5170 H     1 <1>   0.0800 
 29 H        1.3670     1.3610    -1.2470 H     1 <1>   0.0800 
 30 H        1.4180     1.8150     0.4280 H     1 <1>   0.0800 
 31 H       -0.4860    -3.4480    -0.1540 H     1 <1>   0.1500 
 32 H        4.4980    -1.3090    -0.6700 H     1 <1>   0.0800 
 33 H        5.3940    -1.0410     0.7850 H     1 <1>   0.0800 
 34 H        2.9670     2.9980    -1.2220 H     1 <1>   0.0800 
 35 H        3.6610     2.5070     0.2800 H     1 <1>   0.0800 
 36 H        4.8780     2.0420    -2.0410 H     1 <1>   0.0800 
 37 H        3.8600     0.6440    -2.0790 H     1 <1>   0.0800 
 38 H        1.7090    -6.7200     0.1570 H     1 <1>   0.0800 
 39 H       -0.8130    -5.8240    -1.2650 H     1 <1>   0.0800 
 40 H       -0.2460    -7.4720    -1.1210 H     1 <1>   0.0800 
 41 H        0.6750    -6.3080    -2.0410 H     1 <1>   0.0800 
 42 H       -0.8760    -5.6340     1.3070 H     1 <1>   0.0800 
 43 H        0.5700    -5.9940     2.2180 H     1 <1>   0.0800 
 44 H       -0.3090    -7.2830     1.4340 H     1 <1>   0.0800 
 45 H        7.1370     2.1930    -1.8810 H     1 <1>   0.0800 
 46 H        9.3650     1.9350    -0.7910 H     1 <1>   0.0800 
 47 H        5.9280     4.0620    -1.2950 H     1 <1>   0.0800 
 48 H        5.7370     3.5150     0.3670 H     1 <1>   0.0800 
 49 H        9.0950     2.1200     1.7520 H     1 <1>   0.1500 
 50 H        9.6720     4.4910    -0.5980 H     1 <1>   0.0800 
 51 H        8.5440     4.1840    -1.9220 H     1 <1>   0.0800 
 52 H        7.4140     5.6280    -0.0200 H     1 <1>   0.0800 
 53 H        7.8540     4.5260     2.2570 H     1 <1>   0.1500 
@<TRIPOS>BOND
  1   1   2  2   
  2   2   3  am  
  3   2   4  1   
  4   3   5  1   
  5   3   6  1   
  6   4   7  1   
  7   4   8  2   
  8   5   9  1   
  9   5  27  1   
 10   5  28  1   
 11   6  10  1   
 12   6  29  1   
 13   6  30  1   
 14   7  11  1   
 15   8  12  1   
 16   8  31  1   
 17   9  13  1   
 18   9  32  1   
 19   9  33  1   
 20  10  14  1   
 21  10  34  1   
 22  10  35  1   
 23  11  12  2   
 24  12  15  1   
 25  13  14  1   
 26  13  16  am  
 27  14  36  1   
 28  14  37  1   
 29  15  17  1   
 30  15  18  1   
 31  15  38  1   
 32  16  19  2   
 33  16  20  1   
 34  17  39  1   
 35  17  40  1   
 36  17  41  1   
 37  18  42  1   
 38  18  43  1   
 39  18  44  1   
 40  20  21  1   
 41  20  22  1   
 42  20  45  1   
 43  21  23  1   
 44  21  24  1   
 45  21  46  1   
 46  22  25  1   
 47  22  47  1   
 48  22  48  1   
 49  23  26  2   
 50  23  49  1   
 51  24  25  1   
 52  24  50  1   
 53  24  51  1   
 54  25  26  1   
 55  25  52  1   
 56  26  53  1   
@<TRIPOS>SUBSTRUCTURE
  1 ****   9 GROUP 4 **** **** 0

# MOE 2024.06 (io_trps.svl 2023.06)
