@<TRIPOS>MOLECULE
NONAME
52 55 1 0 0 
SMALL
USER_CHARGES


@<TRIPOS>ATOM
  1 O        0.5900    -0.5020    -0.8530 O.2   1 <1>  -0.5700 
  2 C        1.6980    -0.8520    -0.4850 C.2   1 <1>   0.7150 
  3 N        2.6610     0.1220    -0.3040 N.am  1 <1>  -0.6600 
  4 C        1.9900    -2.2520    -0.2550 C.2   1 <1>   0.0550 
  5 C        3.8830    -0.1000     0.5340 C.3   1 <1>   0.1400 
  6 C        2.3910     1.5390    -0.7080 C.3   1 <1>   0.1400 
  7 O        1.1190    -3.0400     0.3700 O.3   1 <1>  -0.2800 
  8 C        3.0830    -3.0020    -0.5780 C.2   1 <1>  -0.1500 
  9 C        4.3680     1.1920     1.2120 C.3   1 <1>   0.2090 
 10 C        3.6830     2.3470    -0.9380 C.3   1 <1>   0.2090 
 11 C        1.6200    -4.2510     0.4540 C.2   1 <1>  -0.0100 
 12 C        2.8420    -4.2960    -0.1160 C.2   1 <1>  -0.1500 
 13 N        4.6580     2.2640     0.2040 N.pl3 1 <1>  -0.8380 
 14 C        5.9280     2.7000     0.0300 C.ar  1 <1>   0.4100 
 15 N        6.8440     1.7700    -0.1510 N.ar  1 <1>  -0.6200 
 16 C        6.2450     4.0800     0.0420 C.ar  1 <1>  -0.1430 
 17 C        8.0950     2.1540    -0.3520 C.ar  1 <1>   0.7710 
 18 C        7.5360     4.4410    -0.1790 C.ar  1 <1>   0.2180 
 19 C        5.1630     5.1270     0.3160 C.3   1 <1>  -0.0160 
 20 N        8.4380     3.4520    -0.3770 N.ar  1 <1>  -0.1790 
 21 N        9.0630     1.2140    -0.5430 N.pl3 1 <1>  -0.8380 
 22 C        8.0290     5.8850    -0.1980 C.3   1 <1>  -0.0170 
 23 C        5.7520     6.4870     0.7120 C.3   1 <1>  -0.1600 
 24 C       10.5440     1.4370    -0.5600 C.3   1 <1>   0.1290 
 25 C        8.7140    -0.2380    -0.7010 C.3   1 <1>   0.1290 
 26 C        6.8740     6.8950    -0.2490 C.3   1 <1>  -0.1600 
 27 H        4.6750    -0.4760    -0.0900 H     1 <1>   0.0800 
 28 H        3.6740    -0.8330     1.2940 H     1 <1>   0.0800 
 29 H        1.8080     2.0150     0.0610 H     1 <1>   0.0800 
 30 H        1.8070     1.5500    -1.6120 H     1 <1>   0.0800 
 31 H        3.9680    -2.6830    -1.0980 H     1 <1>   0.1500 
 32 H        5.2520     0.9790     1.7880 H     1 <1>   0.0800 
 33 H        3.6110     1.5400     1.8950 H     1 <1>   0.0800 
 34 H        3.4160     3.3730    -1.1110 H     1 <1>   0.0800 
 35 H        4.1600     1.9770    -1.8290 H     1 <1>   0.0800 
 36 H        1.0420    -5.0220     0.9330 H     1 <1>   0.1500 
 37 H        3.5070    -5.1360    -0.2110 H     1 <1>   0.1500 
 38 H        4.5130     4.7880     1.1050 H     1 <1>   0.0800 
 39 H        4.5670     5.2500    -0.5710 H     1 <1>   0.0800 
 40 H        9.4130     3.6370    -0.5670 H     1 <1>   0.4570 
 41 H        8.6690     6.0520    -1.0470 H     1 <1>   0.0800 
 42 H        8.6040     6.0630     0.6950 H     1 <1>   0.0800 
 43 H        6.1360     6.4350     1.7170 H     1 <1>   0.0800 
 44 H        4.9720     7.2300     0.6990 H     1 <1>   0.0800 
 45 H       10.8160     2.3710    -0.1010 H     1 <1>   0.0800 
 46 H       10.9060     1.4170    -1.5750 H     1 <1>   0.0800 
 47 H       11.0360     0.6500    -0.0100 H     1 <1>   0.0800 
 48 H        7.7040    -0.3640    -1.0530 H     1 <1>   0.0800 
 49 H        8.8140    -0.7420     0.2460 H     1 <1>   0.0800 
 50 H        9.3710    -0.7040    -1.4160 H     1 <1>   0.0800 
 51 H        6.4800     6.9440    -1.2500 H     1 <1>   0.0800 
 52 H        7.2370     7.8760     0.0080 H     1 <1>   0.0800 
@<TRIPOS>BOND
  1   1   2  2   
  2   2   3  am  
  3   2   4  1   
  4   3   5  1   
  5   3   6  1   
  6   4   7  1   
  7   4   8  2   
  8   5   9  1   
  9   5  27  1   
 10   5  28  1   
 11   6  10  1   
 12   6  29  1   
 13   6  30  1   
 14   7  11  1   
 15   8  12  1   
 16   8  31  1   
 17   9  13  1   
 18   9  32  1   
 19   9  33  1   
 20  10  13  1   
 21  10  34  1   
 22  10  35  1   
 23  11  12  2   
 24  11  36  1   
 25  12  37  1   
 26  13  14  1   
 27  14  15  ar  
 28  14  16  ar  
 29  15  17  ar  
 30  16  18  ar  
 31  16  19  1   
 32  17  20  ar  
 33  17  21  1   
 34  18  20  ar  
 35  18  22  1   
 36  19  23  1   
 37  19  38  1   
 38  19  39  1   
 39  20  40  1   
 40  21  24  1   
 41  21  25  1   
 42  22  26  1   
 43  22  41  1   
 44  22  42  1   
 45  23  26  1   
 46  23  43  1   
 47  23  44  1   
 48  24  45  1   
 49  24  46  1   
 50  24  47  1   
 51  25  48  1   
 52  25  49  1   
 53  25  50  1   
 54  26  51  1   
 55  26  52  1   
@<TRIPOS>SUBSTRUCTURE
  1 ****  13 GROUP 4 **** **** 0

# MOE 2024.06 (io_trps.svl 2023.06)
