@<TRIPOS>MOLECULE
NONAME
48 51 1 0 0 
SMALL
USER_CHARGES


@<TRIPOS>ATOM
  1 O       -0.6940     0.0250     0.4330 O.2   1 <1>  -0.5700 
  2 C       -1.7020     0.5500     0.0200 C.2   1 <1>   0.5690 
  3 N       -2.7230    -0.2070    -0.4920 N.am  1 <1>  -0.6600 
  4 C       -1.8330     2.0780     0.0820 C.3   1 <1>  -0.0190 
  5 C       -4.0150     0.2820    -1.0330 C.3   1 <1>   0.1400 
  6 C       -2.6640    -1.6860    -0.5260 C.3   1 <1>   0.1400 
  7 C       -0.5130     2.8540     0.1440 C.3   1 <1>  -0.1600 
  8 C       -2.5810     2.5740     1.3220 C.3   1 <1>  -0.1600 
  9 C       -4.7460    -0.9730    -1.5120 C.3   1 <1>   0.2000 
 10 C       -4.1040    -2.1400    -0.7650 C.3   1 <1>  -0.0800 
 11 C       -0.9050     4.2410     0.6530 C.3   1 <1>  -0.1600 
 12 C       -2.1750     4.0420     1.4890 C.3   1 <1>  -0.1600 
 13 O       -6.1000    -0.9140    -1.2220 O.3   1 <1>  -0.6800 
 14 C       -4.2080    -3.4700    -1.5300 C.3   1 <1>  -0.0170 
 15 C       -3.5900    -4.6130    -0.7320 C.ar  1 <1>  -0.1440 
 16 C       -4.2620    -5.2320     0.3490 C.ar  1 <1>   0.0000 
 17 C       -2.3420    -5.0690    -1.0430 C.ar  1 <1>  -0.1500 
 18 C       -3.5850    -6.2680     1.0370 C.ar  1 <1>   0.3100 
 19 C       -5.5630    -4.8860     0.7850 C.ar  1 <1>  -0.1500 
 20 C       -1.7660    -6.1070    -0.3000 C.ar  1 <1>   0.1600 
 21 N       -2.3420    -6.6940     0.7000 N.ar  1 <1>  -0.6200 
 22 C       -4.2220    -6.8920     2.1220 C.ar  1 <1>  -0.1500 
 23 C       -6.1560    -5.5160     1.8450 C.ar  1 <1>  -0.1500 
 24 C       -5.4790    -6.5310     2.5250 C.ar  1 <1>  -0.1500 
 25 H       -2.3560     2.4180    -0.7920 H     1 <1>   0.0800 
 26 H       -4.5660     0.7740    -0.2510 H     1 <1>   0.0800 
 27 H       -3.8470     0.9560    -1.8550 H     1 <1>   0.0800 
 28 H       -2.0210    -1.9870    -1.3350 H     1 <1>   0.0800 
 29 H       -2.2750    -2.0780     0.4000 H     1 <1>   0.0800 
 30 H        0.1490     2.3930     0.8590 H     1 <1>   0.0800 
 31 H       -0.0220     2.8920    -0.8130 H     1 <1>   0.0800 
 32 H       -3.6460     2.4620     1.2250 H     1 <1>   0.0800 
 33 H       -2.2470     2.0150     2.1800 H     1 <1>   0.0800 
 34 H       -4.6310    -1.0760    -2.5780 H     1 <1>   0.0800 
 35 H       -4.5630    -2.2390     0.2020 H     1 <1>   0.0800 
 36 H       -0.1110     4.6810     1.2320 H     1 <1>   0.0800 
 37 H       -1.1220     4.8840    -0.1840 H     1 <1>   0.0800 
 38 H       -2.9540     4.6910     1.1270 H     1 <1>   0.0800 
 39 H       -1.9920     4.2640     2.5260 H     1 <1>   0.0800 
 40 H       -6.2380    -0.8490    -0.2570 H     1 <1>   0.4000 
 41 H       -3.7040    -3.3760    -2.4760 H     1 <1>   0.0800 
 42 H       -5.2380    -3.6910    -1.7490 H     1 <1>   0.0800 
 43 H       -1.7720    -4.6510    -1.8510 H     1 <1>   0.1500 
 44 H       -6.1040    -4.1120     0.2750 H     1 <1>   0.1500 
 45 H       -0.7790    -6.4360    -0.5790 H     1 <1>   0.1500 
 46 H       -3.6830    -7.6710     2.6280 H     1 <1>   0.1500 
 47 H       -7.1460    -5.2430     2.1680 H     1 <1>   0.1500 
 48 H       -5.9540    -7.0190     3.3590 H     1 <1>   0.1500 
@<TRIPOS>BOND
  1   1   2  2   
  2   2   3  am  
  3   2   4  1   
  4   3   5  1   
  5   3   6  1   
  6   4   7  1   
  7   4   8  1   
  8   4  25  1   
  9   5   9  1   
 10   5  26  1   
 11   5  27  1   
 12   6  10  1   
 13   6  28  1   
 14   6  29  1   
 15   7  11  1   
 16   7  30  1   
 17   7  31  1   
 18   8  12  1   
 19   8  32  1   
 20   8  33  1   
 21   9  10  1   
 22   9  13  1   
 23   9  34  1   
 24  10  14  1   
 25  10  35  1   
 26  11  12  1   
 27  11  36  1   
 28  11  37  1   
 29  12  38  1   
 30  12  39  1   
 31  13  40  1   
 32  14  15  1   
 33  14  41  1   
 34  14  42  1   
 35  15  16  ar  
 36  15  17  ar  
 37  16  18  ar  
 38  16  19  ar  
 39  17  20  ar  
 40  17  43  1   
 41  18  21  ar  
 42  18  22  ar  
 43  19  23  ar  
 44  19  44  1   
 45  20  21  ar  
 46  20  45  1   
 47  22  24  ar  
 48  22  46  1   
 49  23  24  ar  
 50  23  47  1   
 51  24  48  1   
@<TRIPOS>SUBSTRUCTURE
  1 ****   6 GROUP 4 **** **** 0

# MOE 2024.06 (io_trps.svl 2023.06)
