@<TRIPOS>MOLECULE
NONAME
47 49 1 0 0 
SMALL
USER_CHARGES


@<TRIPOS>ATOM
  1 S       -0.0410    -0.7210     0.9760 S.3   1 <1>  -0.0800 
  2 C        0.5100    -1.3540    -0.5630 C.2   1 <1>  -0.0450 
  3 C        0.0290     0.9030     0.3450 C.2   1 <1>   0.1980 
  4 C        0.6860    -0.2870    -1.3810 C.2   1 <1>   0.0460 
  5 C        0.6690    -2.7800    -0.7040 C.2   1 <1>   0.7150 
  6 N        0.4150     0.9630    -0.8670 N.2   1 <1>  -0.5650 
  7 C       -0.3700     2.0330     1.2910 C.3   1 <1>   0.1000 
  8 C        1.1560    -0.2960    -2.8240 C.3   1 <1>  -0.0590 
  9 O        0.9790    -3.2900    -1.7630 O.2   1 <1>  -0.5700 
 10 N        0.4530    -3.6030     0.3590 N.am  1 <1>  -0.7300 
 11 C       -0.7720     3.3020     0.5240 C.3   1 <1>  -0.2400 
 12 C        0.7750     2.3500     2.2620 C.3   1 <1>  -0.2400 
 13 C        0.5800    -5.0780     0.3640 C.3   1 <1>   0.2200 
 14 C       -0.7880    -5.7480     0.3770 C.3   1 <1>  -0.0800 
 15 C        1.1160    -5.5170     1.7200 C.3   1 <1>   0.1200 
 16 C       -1.1590    -5.7510     1.8650 C.3   1 <1>   0.1200 
 17 C       -1.8560    -5.1220    -0.5400 C.3   1 <1>  -0.0170 
 18 O        0.0140    -5.4730     2.5740 O.3   1 <1>  -0.5600 
 19 C       -3.1450    -5.9270    -0.4990 C.ar  1 <1>  -0.1430 
 20 C       -3.3010    -7.0850    -1.2330 C.ar  1 <1>  -0.1500 
 21 C       -4.2240    -5.5460     0.2730 C.ar  1 <1>  -0.1500 
 22 C       -4.4910    -7.7890    -1.1580 C.ar  1 <1>   0.1600 
 23 C       -5.3710    -6.3230     0.2780 C.ar  1 <1>   0.1600 
 24 N       -5.5290    -7.4370    -0.4170 N.ar  1 <1>  -0.6200 
 25 H       -1.2230     1.7040     1.8590 H     1 <1>   0.0800 
 26 H        1.3730    -1.2880    -3.1690 H     1 <1>   0.0800 
 27 H        2.0450     0.3000    -2.9140 H     1 <1>   0.0800 
 28 H        0.3930     0.1280    -3.4510 H     1 <1>   0.0800 
 29 H        0.1770    -3.1990     1.2570 H     1 <1>   0.3700 
 30 H        0.0600     3.6700    -0.0490 H     1 <1>   0.0800 
 31 H       -1.0940     4.0690     1.2040 H     1 <1>   0.0800 
 32 H       -1.5780     3.0800    -0.1530 H     1 <1>   0.0800 
 33 H        1.6460     2.6640     1.7150 H     1 <1>   0.0800 
 34 H        1.0280     1.4790     2.8380 H     1 <1>   0.0800 
 35 H        0.4870     3.1350     2.9380 H     1 <1>   0.0800 
 36 H        1.2020    -5.4140    -0.4490 H     1 <1>   0.0800 
 37 H       -0.6530    -6.7730     0.0800 H     1 <1>   0.0800 
 38 H        1.8930    -4.8730     2.0920 H     1 <1>   0.0800 
 39 H        1.4660    -6.5340     1.6830 H     1 <1>   0.0800 
 40 H       -1.5410    -6.7070     2.1790 H     1 <1>   0.0800 
 41 H       -1.8710    -4.9790     2.1010 H     1 <1>   0.0800 
 42 H       -1.4860    -5.0920    -1.5510 H     1 <1>   0.0800 
 43 H       -2.0620    -4.1090    -0.2430 H     1 <1>   0.0800 
 44 H       -2.5090    -7.4460    -1.8640 H     1 <1>   0.1500 
 45 H       -4.1860    -4.6530     0.8700 H     1 <1>   0.1500 
 46 H       -4.5940    -8.6910    -1.7380 H     1 <1>   0.1500 
 47 H       -6.2020    -6.0100     0.8860 H     1 <1>   0.1500 
@<TRIPOS>BOND
  1   1   2  1   
  2   1   3  1   
  3   2   4  2   
  4   2   5  1   
  5   3   6  2   
  6   3   7  1   
  7   4   6  1   
  8   4   8  1   
  9   5   9  2   
 10   5  10  am  
 11   7  11  1   
 12   7  12  1   
 13   7  25  1   
 14   8  26  1   
 15   8  27  1   
 16   8  28  1   
 17  10  13  1   
 18  10  29  1   
 19  11  30  1   
 20  11  31  1   
 21  11  32  1   
 22  12  33  1   
 23  12  34  1   
 24  12  35  1   
 25  13  14  1   
 26  13  15  1   
 27  13  36  1   
 28  14  16  1   
 29  14  17  1   
 30  14  37  1   
 31  15  18  1   
 32  15  38  1   
 33  15  39  1   
 34  16  18  1   
 35  16  40  1   
 36  16  41  1   
 37  17  19  1   
 38  17  42  1   
 39  17  43  1   
 40  19  20  ar  
 41  19  21  ar  
 42  20  22  ar  
 43  20  44  1   
 44  21  23  ar  
 45  21  45  1   
 46  22  24  ar  
 47  22  46  1   
 48  23  24  ar  
 49  23  47  1   
@<TRIPOS>SUBSTRUCTURE
  1 ****  10 GROUP 4 **** **** 0

# MOE 2024.06 (io_trps.svl 2023.06)
