@<TRIPOS>MOLECULE
NONAME
61 63 1 0 0 
SMALL
USER_CHARGES


@<TRIPOS>ATOM
  1 O       -0.0160    -0.8620     0.1320 O.2   1 <1>  -0.5700 
  2 C        0.8100    -1.7180     0.3340 C.2   1 <1>   0.5690 
  3 N        0.5880    -2.8170     1.1170 N.am  1 <1>  -0.6600 
  4 C        2.1780    -1.5790    -0.3020 C.3   1 <1>  -0.0990 
  5 C        1.6570    -3.8200     1.3380 C.3   1 <1>   0.1400 
  6 C       -0.7030    -3.0430     1.8240 C.3   1 <1>   0.0600 
  7 C        2.6300    -2.9210    -0.9080 C.3   1 <1>  -0.0800 
  8 C        2.3660    -4.1400     0.0060 C.3   1 <1>  -0.0800 
  9 C        4.1230    -2.9510    -1.2560 C.3   1 <1>  -0.1600 
 10 C        3.7240    -4.8330     0.1920 C.3   1 <1>  -0.1600 
 11 C        4.5360    -4.4010    -1.0280 C.3   1 <1>   0.4230 
 12 N        6.0090    -4.5910    -0.8830 N.4   1 <1>  -0.9590 
 13 C        6.7000    -3.7860     0.2020 C.3   1 <1>   0.4040 
 14 C        6.3890    -6.0350    -0.8420 C.3   1 <1>   0.2630 
 15 C        7.3240    -2.5000    -0.3600 C.2   1 <1>   0.5690 
 16 O        7.4170    -2.4330    -1.5640 O.2   1 <1>  -0.5700 
 17 N        7.7280    -1.5040     0.4860 N.am  1 <1>  -0.5470 
 18 C        8.3010    -0.2750     0.1300 C.ar  1 <1>   0.1170 
 19 C        9.6380     0.0020     0.4510 C.ar  1 <1>  -0.1440 
 20 C        7.5280     0.6940    -0.5220 C.ar  1 <1>  -0.1440 
 21 C       10.1710     1.2330     0.0920 C.ar  1 <1>  -0.1500 
 22 C       10.5890    -0.9690     1.1720 C.3   1 <1>   0.0630 
 23 C        8.0910     1.9090    -0.8670 C.ar  1 <1>  -0.1500 
 24 C        6.0600     0.4720    -0.8690 C.3   1 <1>  -0.0970 
 25 C        9.4090     2.1790    -0.5630 C.ar  1 <1>  -0.1500 
 26 C       10.9070    -2.2070     0.3260 C.3   1 <1>  -0.2400 
 27 C       10.1130    -1.3500     2.5800 C.3   1 <1>  -0.2400 
 28 H        2.1410    -0.8210    -1.0640 H     1 <1>   0.0800 
 29 H        2.8550    -1.2520     0.4640 H     1 <1>   0.0800 
 30 H        2.3530    -3.4130     2.0510 H     1 <1>   0.0800 
 31 H        1.2370    -4.7210     1.7530 H     1 <1>   0.0800 
 32 H       -1.1420    -3.9690     1.4950 H     1 <1>   0.0800 
 33 H       -1.3940    -2.2440     1.6150 H     1 <1>   0.0800 
 34 H       -0.5360    -3.0830     2.8860 H     1 <1>   0.0800 
 35 H        2.0620    -3.0710    -1.8140 H     1 <1>   0.0800 
 36 H        1.7210    -4.8130    -0.5370 H     1 <1>   0.0800 
 37 H        4.6440    -2.2890    -0.5930 H     1 <1>   0.0800 
 38 H        4.2930    -2.6450    -2.2740 H     1 <1>   0.0800 
 39 H        3.6050    -5.9010     0.2340 H     1 <1>   0.0800 
 40 H        4.1820    -4.4830     1.0990 H     1 <1>   0.0800 
 41 H        4.1890    -4.9730    -1.8750 H     1 <1>   0.0800 
 42 H        6.4200    -4.1800    -1.7480 H     1 <1>   0.4500 
 43 H        6.0030    -3.5280     0.9800 H     1 <1>   0.0800 
 44 H        7.4930    -4.3690     0.6360 H     1 <1>   0.0800 
 45 H        6.0170    -6.4970     0.0580 H     1 <1>   0.0800 
 46 H        7.4620    -6.1410    -0.8690 H     1 <1>   0.0800 
 47 H        5.9750    -6.5540    -1.6920 H     1 <1>   0.0800 
 48 H        7.7710    -1.6810     1.4890 H     1 <1>   0.3700 
 49 H       11.1950     1.4750     0.3170 H     1 <1>   0.1500 
 50 H       11.5280    -0.4590     1.3110 H     1 <1>   0.0800 
 51 H        7.5100     2.6570    -1.3770 H     1 <1>   0.1500 
 52 H        5.5820     1.4020    -1.1220 H     1 <1>   0.0800 
 53 H        5.5350     0.0510    -0.0320 H     1 <1>   0.0800 
 54 H        5.9800    -0.1860    -1.7140 H     1 <1>   0.0800 
 55 H        9.8420     3.1260    -0.8360 H     1 <1>   0.1500 
 56 H       10.0510    -2.8410     0.2110 H     1 <1>   0.0800 
 57 H       11.6950    -2.7760     0.7870 H     1 <1>   0.0800 
 58 H       11.2380    -1.9010    -0.6510 H     1 <1>   0.0800 
 59 H        9.2840    -2.0280     2.5560 H     1 <1>   0.0800 
 60 H        9.8280    -0.4630     3.1200 H     1 <1>   0.0800 
 61 H       10.9150    -1.8250     3.1160 H     1 <1>   0.0800 
@<TRIPOS>BOND
  1   1   2  2   
  2   2   3  am  
  3   2   4  1   
  4   3   5  1   
  5   3   6  1   
  6   4   7  1   
  7   4  28  1   
  8   4  29  1   
  9   5   8  1   
 10   5  30  1   
 11   5  31  1   
 12   6  32  1   
 13   6  33  1   
 14   6  34  1   
 15   7   8  1   
 16   7   9  1   
 17   7  35  1   
 18   8  10  1   
 19   8  36  1   
 20   9  11  1   
 21   9  37  1   
 22   9  38  1   
 23  10  11  1   
 24  10  39  1   
 25  10  40  1   
 26  11  12  1   
 27  11  41  1   
 28  12  13  1   
 29  12  14  1   
 30  12  42  1   
 31  13  15  1   
 32  13  43  1   
 33  13  44  1   
 34  14  45  1   
 35  14  46  1   
 36  14  47  1   
 37  15  16  2   
 38  15  17  am  
 39  17  18  1   
 40  17  48  1   
 41  18  19  ar  
 42  18  20  ar  
 43  19  21  ar  
 44  19  22  1   
 45  20  23  ar  
 46  20  24  1   
 47  21  25  ar  
 48  21  49  1   
 49  22  26  1   
 50  22  27  1   
 51  22  50  1   
 52  23  25  ar  
 53  23  51  1   
 54  24  52  1   
 55  24  53  1   
 56  24  54  1   
 57  25  55  1   
 58  26  56  1   
 59  26  57  1   
 60  26  58  1   
 61  27  59  1   
 62  27  60  1   
 63  27  61  1   
@<TRIPOS>SUBSTRUCTURE
  1 ****  15 GROUP 4 **** **** 0

# MOE 2024.06 (io_trps.svl 2023.06)
