@<TRIPOS>MOLECULE
NONAME
46 48 1 0 0 
SMALL
USER_CHARGES


@<TRIPOS>ATOM
  1 O       -1.2170    -0.8850    -1.7730 O.co2 1 <1>  -0.9000 
  2 C       -1.4520    -2.0900    -1.5940 C.2   1 <1>   0.9790 
  3 O       -0.9840    -2.9330    -2.3840 O.co2 1 <1>  -0.9000 
  4 C       -2.2960    -2.5400    -0.4960 C.ar  1 <1>  -0.1790 
  5 C       -2.3720    -3.8940    -0.1900 C.ar  1 <1>  -0.1500 
  6 C       -3.0750    -1.6700     0.2650 C.ar  1 <1>  -0.1500 
  7 C       -3.2360    -4.3840     0.7730 C.ar  1 <1>  -0.1440 
  8 C       -3.9150    -2.1390     1.2580 C.ar  1 <1>  -0.1500 
  9 C       -4.0060    -3.4970     1.5090 C.ar  1 <1>  -0.1500 
 10 C       -3.3610    -5.8810     0.9720 C.3   1 <1>   0.4870 
 11 N       -3.4910    -6.5400    -0.3630 N.4   1 <1>  -0.9590 
 12 C       -4.6470    -5.9740    -1.1350 C.3   1 <1>   0.3430 
 13 C       -3.7410    -8.0050    -0.2230 C.3   1 <1>   0.3430 
 14 C       -5.8020    -6.9490    -0.9000 C.3   1 <1>   0.2000 
 15 C       -5.0760    -8.2910    -0.9170 C.3   1 <1>  -0.0800 
 16 O       -6.3250    -6.7450     0.3840 O.3   1 <1>  -0.5600 
 17 C       -5.8440    -9.4750    -0.2990 C.3   1 <1>   0.0200 
 18 C       -7.2900    -5.7400     0.4740 C.3   1 <1>   0.0400 
 19 C       -4.9340   -10.6810    -0.1670 C.2   1 <1>  -0.0400 
 20 O       -4.1850   -11.0440    -1.1740 O.3   1 <1>  -0.0190 
 21 C       -4.6920   -11.5200     0.8510 C.2   1 <1>  -0.1500 
 22 N       -3.4420   -12.0680    -0.8790 N.2   1 <1>  -0.4100 
 23 C       -3.7330   -12.3850     0.3320 C.2   1 <1>   0.1080 
 24 C       -3.1110   -13.5440     1.0800 C.3   1 <1>  -0.0590 
 25 H       -1.7350    -4.5540    -0.7540 H     1 <1>   0.1500 
 26 H       -3.0110    -0.6130     0.0560 H     1 <1>   0.1500 
 27 H       -4.5000    -1.4400     1.8290 H     1 <1>   0.1500 
 28 H       -4.6780    -3.8460     2.2740 H     1 <1>   0.1500 
 29 H       -4.2340    -6.0930     1.5690 H     1 <1>   0.0800 
 30 H       -2.4900    -6.2500     1.4870 H     1 <1>   0.0800 
 31 H       -2.6260    -6.3420    -0.8850 H     1 <1>   0.4500 
 32 H       -4.9020    -4.9720    -0.8320 H     1 <1>   0.0800 
 33 H       -4.4010    -5.9630    -2.1840 H     1 <1>   0.0800 
 34 H       -2.9490    -8.5860    -0.6690 H     1 <1>   0.0800 
 35 H       -3.8200    -8.2670     0.8200 H     1 <1>   0.0800 
 36 H       -6.5850    -6.8820    -1.6370 H     1 <1>   0.0800 
 37 H       -4.8540    -8.5380    -1.9410 H     1 <1>   0.0800 
 38 H       -6.6810    -9.7290    -0.9260 H     1 <1>   0.0800 
 39 H       -6.2240    -9.2250     0.6770 H     1 <1>   0.0800 
 40 H       -7.6220    -5.6840     1.4970 H     1 <1>   0.0800 
 41 H       -8.1260    -5.9880    -0.1580 H     1 <1>   0.0800 
 42 H       -6.8620    -4.7950     0.1840 H     1 <1>   0.0800 
 43 H       -5.1120   -11.5530     1.8400 H     1 <1>   0.1500 
 44 H       -2.6520   -13.1940     1.9860 H     1 <1>   0.0800 
 45 H       -2.3630   -14.0160     0.4700 H     1 <1>   0.0800 
 46 H       -3.8670   -14.2680     1.3230 H     1 <1>   0.0800 
@<TRIPOS>BOND
  1   1   2  ar  
  2   2   3  ar  
  3   2   4  1   
  4   4   5  ar  
  5   4   6  ar  
  6   5   7  ar  
  7   5  25  1   
  8   6   8  ar  
  9   6  26  1   
 10   7   9  ar  
 11   7  10  1   
 12   8   9  ar  
 13   8  27  1   
 14   9  28  1   
 15  10  11  1   
 16  10  29  1   
 17  10  30  1   
 18  11  12  1   
 19  11  13  1   
 20  11  31  1   
 21  12  14  1   
 22  12  32  1   
 23  12  33  1   
 24  13  15  1   
 25  13  34  1   
 26  13  35  1   
 27  14  15  1   
 28  14  16  1   
 29  14  36  1   
 30  15  17  1   
 31  15  37  1   
 32  16  18  1   
 33  17  19  1   
 34  17  38  1   
 35  17  39  1   
 36  18  40  1   
 37  18  41  1   
 38  18  42  1   
 39  19  20  1   
 40  19  21  2   
 41  20  22  1   
 42  21  23  1   
 43  21  43  1   
 44  22  23  2   
 45  23  24  1   
 46  24  44  1   
 47  24  45  1   
 48  24  46  1   
@<TRIPOS>SUBSTRUCTURE
  1 ****  11 GROUP 4 **** **** 0

# MOE 2024.06 (io_trps.svl 2023.06)
