@<TRIPOS>MOLECULE
NONAME
39 41 1 0 0 
SMALL
USER_CHARGES


@<TRIPOS>ATOM
  1 O        0.4010     0.5950     0.9380 O.3   1 <1>  -0.0190 
  2 N        1.3520    -0.2870     1.0490 N.2   1 <1>  -0.4100 
  3 C        0.8040     1.6750     0.3230 C.2   1 <1>  -0.0400 
  4 C        2.3870     0.2340     0.4940 C.2   1 <1>   0.1080 
  5 C        2.0970     1.5030     0.0020 C.2   1 <1>  -0.1500 
  6 C       -0.1840     2.8100     0.1080 C.3   1 <1>   0.0200 
  7 C        3.7330    -0.4480     0.3930 C.3   1 <1>  -0.0590 
  8 C        0.4830     4.0870    -0.4330 C.3   1 <1>  -0.0800 
  9 C       -0.4770     5.2170    -0.7970 C.3   1 <1>   0.2000 
 10 C        1.4540     4.7460     0.5510 C.3   1 <1>   0.2090 
 11 O       -1.3900     5.3980     0.2330 O.3   1 <1>  -0.6800 
 12 C        0.4380     6.4390    -0.8450 C.3   1 <1>   0.2090 
 13 N        1.4800     6.1930     0.1940 N.pl3 1 <1>  -0.8380 
 14 C        2.7270     6.7220    -0.0880 C.ar  1 <1>   0.4100 
 15 N        3.3870     6.1530    -1.0930 N.ar  1 <1>  -0.6200 
 16 C        3.2250     7.7950     0.6600 C.ar  1 <1>  -0.1440 
 17 C        4.5740     6.6650    -1.3650 C.ar  1 <1>   0.1600 
 18 C        4.4660     8.3080     0.3550 C.ar  1 <1>  -0.1500 
 19 C        2.4150     8.3970     1.8010 C.3   1 <1>  -0.0970 
 20 C        5.1520     7.7210    -0.6880 C.ar  1 <1>  -0.1500 
 21 H        2.7810     2.1540    -0.5100 H     1 <1>   0.1500 
 22 H       -0.9370     2.4780    -0.5850 H     1 <1>   0.0800 
 23 H       -0.6730     3.0180     1.0440 H     1 <1>   0.0800 
 24 H        4.0320    -0.5140    -0.6360 H     1 <1>   0.0800 
 25 H        3.6730    -1.4410     0.8030 H     1 <1>   0.0800 
 26 H        4.4660     0.1120     0.9420 H     1 <1>   0.0800 
 27 H        1.0390     3.8380    -1.3190 H     1 <1>   0.0800 
 28 H       -1.0150     5.0500    -1.7150 H     1 <1>   0.0800 
 29 H        2.4350     4.3060     0.4910 H     1 <1>   0.0800 
 30 H        1.0940     4.6480     1.5610 H     1 <1>   0.0800 
 31 H       -0.9060     5.7810     0.9940 H     1 <1>   0.4000 
 32 H       -0.1030     7.3480    -0.6490 H     1 <1>   0.0800 
 33 H        0.8990     6.5060    -1.8160 H     1 <1>   0.0800 
 34 H        5.1190     6.2160    -2.1770 H     1 <1>   0.1500 
 35 H        4.8910     9.1320     0.9010 H     1 <1>   0.1500 
 36 H        2.9490     9.1990     2.2780 H     1 <1>   0.0800 
 37 H        2.2030     7.6390     2.5330 H     1 <1>   0.0800 
 38 H        1.4840     8.7790     1.4220 H     1 <1>   0.0800 
 39 H        6.1250     8.0810    -0.9710 H     1 <1>   0.1500 
@<TRIPOS>BOND
  1   1   2  1   
  2   1   3  1   
  3   2   4  2   
  4   3   5  2   
  5   3   6  1   
  6   4   5  1   
  7   4   7  1   
  8   5  21  1   
  9   6   8  1   
 10   6  22  1   
 11   6  23  1   
 12   7  24  1   
 13   7  25  1   
 14   7  26  1   
 15   8   9  1   
 16   8  10  1   
 17   8  27  1   
 18   9  11  1   
 19   9  12  1   
 20   9  28  1   
 21  10  13  1   
 22  10  29  1   
 23  10  30  1   
 24  11  31  1   
 25  12  13  1   
 26  12  32  1   
 27  12  33  1   
 28  13  14  1   
 29  14  15  ar  
 30  14  16  ar  
 31  15  17  ar  
 32  16  18  ar  
 33  16  19  1   
 34  17  20  ar  
 35  17  34  1   
 36  18  20  ar  
 37  18  35  1   
 38  19  36  1   
 39  19  37  1   
 40  19  38  1   
 41  20  39  1   
@<TRIPOS>SUBSTRUCTURE
  1 ****  10 GROUP 4 **** **** 0

# MOE 2024.06 (io_trps.svl 2023.06)
