@<TRIPOS>MOLECULE
NONAME
40 41 1 0 0 
SMALL
USER_CHARGES


@<TRIPOS>ATOM
  1 S       -0.0310    -0.1340     0.5200 S.o2  1 <1>   1.2040 
  2 O       -1.1720     0.6390     0.9540 O.2   1 <1>  -0.6500 
  3 O        0.1890    -1.4620     1.0460 O.2   1 <1>  -0.6500 
  4 C        1.4780     0.8500     0.7060 C.ar  1 <1>  -0.0090 
  5 C       -0.1530    -0.2890    -1.2510 C.3   1 <1>  -0.1350 
  6 C        1.4500     2.2350     0.6070 C.ar  1 <1>  -0.1500 
  7 C        2.7070     0.2410     0.9270 C.ar  1 <1>  -0.1500 
  8 C        2.5980     3.0200     0.7110 C.ar  1 <1>   0.0860 
  9 C        3.8630     0.9900     1.0500 C.ar  1 <1>  -0.1500 
 10 C        2.5210     4.4650     0.5930 C.2   1 <1>   0.5440 
 11 C        3.8050     2.3660     0.9460 C.ar  1 <1>  -0.1500 
 12 O        1.7230     5.0670     1.2850 O.2   1 <1>  -0.5700 
 13 N        3.3180     5.1830    -0.2800 N.am  1 <1>  -0.6600 
 14 C        3.3200     6.6760    -0.2570 C.3   1 <1>   0.1400 
 15 C        4.1420     4.5690    -1.3610 C.3   1 <1>   0.0600 
 16 C        4.3420     7.1900     0.7570 C.3   1 <1>   0.0200 
 17 C        4.6200     8.6890     0.6850 C.2   1 <1>  -0.1400 
 18 S        6.0650     9.1690     1.5380 S.3   1 <1>  -0.0800 
 19 C        4.0680     9.7940     0.1410 C.2   1 <1>   0.0460 
 20 C        5.7830    10.8210     1.0570 C.2   1 <1>   0.2280 
 21 N        4.7390    10.9880     0.3530 N.2   1 <1>  -0.5650 
 22 C        2.8010     9.9490    -0.6770 C.3   1 <1>  -0.0590 
 23 H       -1.0200    -0.8660    -1.5070 H     1 <1>   0.0800 
 24 H        0.7140    -0.7840    -1.6440 H     1 <1>   0.0800 
 25 H       -0.2400     0.6770    -1.7070 H     1 <1>   0.0800 
 26 H        0.5070     2.7340     0.4540 H     1 <1>   0.1500 
 27 H        2.7590    -0.8330     1.0140 H     1 <1>   0.1500 
 28 H        4.8050     0.4990     1.2320 H     1 <1>   0.1500 
 29 H        4.7040     2.9480     1.0540 H     1 <1>   0.1500 
 30 H        2.3410     7.0300     0.0130 H     1 <1>   0.0800 
 31 H        3.5580     7.0540    -1.2360 H     1 <1>   0.0800 
 32 H        3.8920     3.5330    -1.4980 H     1 <1>   0.0800 
 33 H        5.1860     4.6500    -1.1110 H     1 <1>   0.0800 
 34 H        3.9640     5.0800    -2.2910 H     1 <1>   0.0800 
 35 H        5.2700     6.6760     0.5870 H     1 <1>   0.0800 
 36 H        4.0030     6.9480     1.7490 H     1 <1>   0.0800 
 37 H        6.4950    11.5570     1.3830 H     1 <1>   0.1500 
 38 H        2.2320     9.0460    -0.7300 H     1 <1>   0.0800 
 39 H        3.0550    10.2620    -1.6740 H     1 <1>   0.0800 
 40 H        2.1830    10.7070    -0.2310 H     1 <1>   0.0800 
@<TRIPOS>BOND
  1   1   2  2   
  2   1   3  2   
  3   1   4  1   
  4   1   5  1   
  5   4   6  ar  
  6   4   7  ar  
  7   5  23  1   
  8   5  24  1   
  9   5  25  1   
 10   6   8  ar  
 11   6  26  1   
 12   7   9  ar  
 13   7  27  1   
 14   8  10  1   
 15   8  11  ar  
 16   9  11  ar  
 17   9  28  1   
 18  10  12  2   
 19  10  13  am  
 20  11  29  1   
 21  13  14  1   
 22  13  15  1   
 23  14  16  1   
 24  14  30  1   
 25  14  31  1   
 26  15  32  1   
 27  15  33  1   
 28  15  34  1   
 29  16  17  1   
 30  16  35  1   
 31  16  36  1   
 32  17  18  1   
 33  17  19  2   
 34  18  20  1   
 35  19  21  1   
 36  19  22  1   
 37  20  21  2   
 38  20  37  1   
 39  22  38  1   
 40  22  39  1   
 41  22  40  1   
@<TRIPOS>SUBSTRUCTURE
  1 ****  10 GROUP 4 **** **** 0

# MOE 2024.06 (io_trps.svl 2023.06)
