@<TRIPOS>MOLECULE
NONAME
45 47 1 0 0 
SMALL
USER_CHARGES


@<TRIPOS>ATOM
  1 F       -0.0470     1.4500     0.9150 F     1 <1>  -0.1900 
  2 C       -1.2620     1.8540     0.6560 C.ar  1 <1>   0.1900 
  3 C       -2.1010     1.0240    -0.0610 C.ar  1 <1>  -0.1500 
  4 C       -1.6640     3.0940     1.1090 C.ar  1 <1>  -0.1500 
  5 C       -3.3880     1.4570    -0.3340 C.ar  1 <1>  -0.1500 
  6 C       -2.9540     3.5140     0.8310 C.ar  1 <1>  -0.1500 
  7 C       -3.8240     2.7050     0.1030 C.ar  1 <1>  -0.1430 
  8 C       -5.2550     3.1570    -0.2270 C.3   1 <1>   0.3950 
  9 N       -5.2940     4.6490    -0.3900 N.3   1 <1>  -0.8100 
 10 C       -6.2720     2.5910     0.8020 C.2   1 <1>   0.5690 
 11 C       -6.6520     5.2060    -0.2460 C.3   1 <1>   0.1100 
 12 C       -4.6100     5.0930    -1.6200 C.3   1 <1>   0.2900 
 13 O       -6.3200     1.4050     1.0310 O.2   1 <1>  -0.5700 
 14 N       -7.1640     3.4180     1.4090 N.am  1 <1>  -0.7300 
 15 C       -7.2450     4.8730     1.1360 C.3   1 <1>   0.1400 
 16 C       -4.3240     6.5860    -1.5760 C.2   1 <1>  -0.0400 
 17 O       -3.4890     7.0500    -0.6740 O.3   1 <1>  -0.2800 
 18 C       -4.7880     7.5970    -2.3420 C.2   1 <1>  -0.1500 
 19 C       -3.3790     8.3680    -0.8110 C.2   1 <1>   0.0550 
 20 C       -4.1770     8.7510    -1.8490 C.2   1 <1>  -0.1500 
 21 C       -2.5180     9.1370     0.0650 C.2   1 <1>   0.7150 
 22 O       -1.4440     8.6840     0.4240 O.2   1 <1>  -0.5700 
 23 N       -2.8760    10.4020     0.5060 N.am  1 <1>  -0.6600 
 24 C       -1.8920    11.3010     1.1710 C.3   1 <1>   0.0600 
 25 C       -4.2820    10.8890     0.5430 C.3   1 <1>   0.0600 
 26 H       -1.7540     0.0620    -0.3910 H     1 <1>   0.1500 
 27 H       -0.9870     3.7170     1.6640 H     1 <1>   0.1500 
 28 H       -4.0540     0.8130    -0.8820 H     1 <1>   0.1500 
 29 H       -3.2760     4.4820     1.1800 H     1 <1>   0.1500 
 30 H       -5.5310     2.7180    -1.1690 H     1 <1>   0.0800 
 31 H       -7.2940     4.8160    -1.0180 H     1 <1>   0.0800 
 32 H       -6.6180     6.2770    -0.3480 H     1 <1>   0.0800 
 33 H       -5.2130     4.8600    -2.4790 H     1 <1>   0.0800 
 34 H       -3.6670     4.5840    -1.7200 H     1 <1>   0.0800 
 35 H       -7.7710     3.0130     2.1240 H     1 <1>   0.3700 
 36 H       -8.2730     5.1890     1.1700 H     1 <1>   0.0800 
 37 H       -6.6990     5.4070     1.8950 H     1 <1>   0.0800 
 38 H       -5.4780     7.5560    -3.1670 H     1 <1>   0.1500 
 39 H       -4.3150     9.7440    -2.2370 H     1 <1>   0.1500 
 40 H       -0.8850    11.0030     0.9320 H     1 <1>   0.0800 
 41 H       -2.0210    11.2530     2.2380 H     1 <1>   0.0800 
 42 H       -2.0350    12.3140     0.8390 H     1 <1>   0.0800 
 43 H       -4.9730    10.0710     0.4280 H     1 <1>   0.0800 
 44 H       -4.4410    11.6010    -0.2480 H     1 <1>   0.0800 
 45 H       -4.4800    11.3640     1.4880 H     1 <1>   0.0800 
@<TRIPOS>BOND
  1   1   2  1   
  2   2   3  ar  
  3   2   4  ar  
  4   3   5  ar  
  5   3  26  1   
  6   4   6  ar  
  7   4  27  1   
  8   5   7  ar  
  9   5  28  1   
 10   6   7  ar  
 11   6  29  1   
 12   7   8  1   
 13   8   9  1   
 14   8  10  1   
 15   8  30  1   
 16   9  11  1   
 17   9  12  1   
 18  10  13  2   
 19  10  14  am  
 20  11  15  1   
 21  11  31  1   
 22  11  32  1   
 23  12  16  1   
 24  12  33  1   
 25  12  34  1   
 26  14  15  1   
 27  14  35  1   
 28  15  36  1   
 29  15  37  1   
 30  16  17  1   
 31  16  18  2   
 32  17  19  1   
 33  18  20  1   
 34  18  38  1   
 35  19  20  2   
 36  19  21  1   
 37  20  39  1   
 38  21  22  2   
 39  21  23  am  
 40  23  24  1   
 41  23  25  1   
 42  24  40  1   
 43  24  41  1   
 44  24  42  1   
 45  25  43  1   
 46  25  44  1   
 47  25  45  1   
@<TRIPOS>SUBSTRUCTURE
  1 ****   9 GROUP 4 **** **** 0

# MOE 2024.06 (io_trps.svl 2023.06)
