@<TRIPOS>MOLECULE
NONAME
32 33 1 0 0 
SMALL
USER_CHARGES


@<TRIPOS>ATOM
  1 S        0.7720    -0.5310     1.1330 S.3   1 <1>  -0.0800 
  2 C       -0.2150    -1.6480     0.2020 C.2   1 <1>  -0.1400 
  3 C        1.9600    -0.4400    -0.1550 C.2   1 <1>  -0.1100 
  4 C        0.3600    -1.9060    -0.9880 C.2   1 <1>  -0.1500 
  5 C       -1.5010    -2.1450     0.8330 C.3   1 <1>   0.2900 
  6 C        1.5980    -1.2170    -1.1920 C.2   1 <1>  -0.1500 
  7 N       -2.7000    -1.5760     0.1740 N.3   1 <1>  -0.8100 
  8 C       -3.9540    -2.1900     0.6830 C.3   1 <1>   0.2900 
  9 C       -2.7610    -0.0980     0.2700 C.3   1 <1>   0.1100 
 10 C       -4.0800    -3.6880     0.4100 C.2   1 <1>   0.2980 
 11 C       -2.1450     0.5660    -0.9690 C.3   1 <1>   0.1200 
 12 O       -3.5680    -4.5260     1.2750 O.3   1 <1>  -0.0190 
 13 N       -4.6630    -4.2270    -0.5880 N.2   1 <1>  -0.5650 
 14 O       -2.5860     1.8810    -1.0500 O.3   1 <1>  -0.6800 
 15 N       -3.8290    -5.6960     0.7800 N.2   1 <1>  -0.4100 
 16 C       -4.4700    -5.5270    -0.3180 C.2   1 <1>   0.3350 
 17 C       -4.9790    -6.6690    -1.2510 C.3   1 <1>   1.2010 
 18 F       -4.4330    -6.6250    -2.4650 F     1 <1>  -0.3400 
 19 F       -6.2960    -6.6290    -1.4400 F     1 <1>  -0.3400 
 20 F       -4.7200    -7.8890    -0.7840 F     1 <1>  -0.3400 
 21 H        2.8130     0.1950     0.0040 H     1 <1>   0.1500 
 22 H       -0.0440    -2.5580    -1.7430 H     1 <1>   0.1500 
 23 H       -1.5070    -1.9140     1.8850 H     1 <1>   0.0800 
 24 H       -1.5040    -3.2150     0.7260 H     1 <1>   0.0800 
 25 H        2.1520    -1.3380    -2.1060 H     1 <1>   0.1500 
 26 H       -4.7890    -1.7160     0.1980 H     1 <1>   0.0800 
 27 H       -4.0450    -2.0140     1.7410 H     1 <1>   0.0800 
 28 H       -2.2550     0.2470     1.1560 H     1 <1>   0.0800 
 29 H       -3.7880     0.2170     0.3270 H     1 <1>   0.0800 
 30 H       -2.4440     0.0540    -1.8680 H     1 <1>   0.0800 
 31 H       -1.0720     0.5850    -0.9040 H     1 <1>   0.0800 
 32 H       -3.5160     1.9140    -1.3460 H     1 <1>   0.4000 
@<TRIPOS>BOND
  1   1   2  1   
  2   1   3  1   
  3   2   4  2   
  4   2   5  1   
  5   3   6  2   
  6   3  21  1   
  7   4   6  1   
  8   4  22  1   
  9   5   7  1   
 10   5  23  1   
 11   5  24  1   
 12   6  25  1   
 13   7   8  1   
 14   7   9  1   
 15   8  10  1   
 16   8  26  1   
 17   8  27  1   
 18   9  11  1   
 19   9  28  1   
 20   9  29  1   
 21  10  12  1   
 22  10  13  2   
 23  11  14  1   
 24  11  30  1   
 25  11  31  1   
 26  12  15  1   
 27  13  16  1   
 28  14  32  1   
 29  15  16  2   
 30  16  17  1   
 31  17  18  1   
 32  17  19  1   
 33  17  20  1   
@<TRIPOS>SUBSTRUCTURE
  1 ****   7 GROUP 4 **** **** 0

# MOE 2024.06 (io_trps.svl 2023.06)
