@<TRIPOS>MOLECULE
NONAME
59 62 1 0 0 
SMALL
USER_CHARGES


@<TRIPOS>ATOM
  1 O       -0.8630     0.3570    -0.1490 O.2   1 <1>  -0.5700 
  2 C       -1.8260     1.0500    -0.3810 C.2   1 <1>   0.5690 
  3 N       -3.0000     0.4800    -0.8030 N.am  1 <1>  -0.6600 
  4 C       -1.7300     2.5570    -0.1650 C.3   1 <1>  -0.0990 
  5 C       -3.0460    -0.9690    -1.1380 C.3   1 <1>   0.1400 
  6 C       -4.3450     1.1000    -0.6490 C.3   1 <1>   0.1400 
  7 C       -0.2870     3.0880    -0.0870 C.3   1 <1>  -0.1600 
  8 C       -3.7550    -1.7250     0.0050 C.3   1 <1>   0.4230 
  9 C       -5.0720     0.3740     0.4900 C.3   1 <1>  -0.1600 
 10 C       -0.2500     4.6120     0.0930 C.3   1 <1>   0.0210 
 11 N       -3.6940    -3.2410    -0.1250 N.4   1 <1>  -0.9590 
 12 C       -5.1860    -1.1660     0.2770 C.3   1 <1>   0.0000 
 13 C        1.1670     5.1550     0.1690 C.2   1 <1>  -0.1810 
 14 C       -4.7020    -3.9680     0.7150 C.3   1 <1>   0.3430 
 15 C       -3.7180    -3.7720    -1.5280 C.3   1 <1>   0.2630 
 16 C       -5.7480    -1.8100     1.5780 C.3   1 <1>  -0.1600 
 17 C       -6.1200    -1.4750    -0.9280 C.3   1 <1>   0.1200 
 18 C        1.4620     6.5290     0.3210 C.ar  1 <1>   0.0000 
 19 C        2.3480     4.4910     0.1120 C.2   1 <1>  -0.3020 
 20 C       -5.0810    -3.1500     1.9480 C.3   1 <1>  -0.1600 
 21 O       -7.3310    -0.8120    -0.8210 O.3   1 <1>  -0.6800 
 22 C        2.8490     6.6360     0.3490 C.ar  1 <1>  -0.1520 
 23 C        0.6820     7.6850     0.4360 C.ar  1 <1>  -0.1500 
 24 N        3.3790     5.3790     0.2200 N.pl3 1 <1>   0.0330 
 25 C        3.4730     7.8780     0.4910 C.ar  1 <1>  -0.1500 
 26 C        1.2960     8.9090     0.5760 C.ar  1 <1>  -0.1500 
 27 C        2.6930     9.0050     0.6030 C.ar  1 <1>  -0.1500 
 28 H       -2.2290     3.0470    -0.9790 H     1 <1>   0.0800 
 29 H       -2.2430     2.7980     0.7480 H     1 <1>   0.0800 
 30 H       -3.5630    -1.0860    -2.0730 H     1 <1>   0.0800 
 31 H       -2.0470    -1.3510    -1.2600 H     1 <1>   0.0800 
 32 H       -4.2690     2.1480    -0.4150 H     1 <1>   0.0800 
 33 H       -4.8950     1.0110    -1.5710 H     1 <1>   0.0800 
 34 H        0.2220     2.6240     0.7410 H     1 <1>   0.0800 
 35 H        0.2380     2.8250    -0.9890 H     1 <1>   0.0800 
 36 H       -3.1860    -1.4790     0.8870 H     1 <1>   0.0800 
 37 H       -4.5280     0.5780     1.3970 H     1 <1>   0.0800 
 38 H       -6.0460     0.8140     0.6150 H     1 <1>   0.0800 
 39 H       -0.7660     4.8800     0.9980 H     1 <1>   0.0800 
 40 H       -0.7510     5.0840    -0.7330 H     1 <1>   0.0800 
 41 H       -2.7720    -3.4890     0.2660 H     1 <1>   0.4500 
 42 H       -5.5950    -4.1480     0.1390 H     1 <1>   0.0800 
 43 H       -4.3050    -4.9240     1.0180 H     1 <1>   0.0800 
 44 H       -4.6410    -3.5080    -2.0170 H     1 <1>   0.0800 
 45 H       -3.6280    -4.8470    -1.5210 H     1 <1>   0.0800 
 46 H       -2.8970    -3.3700    -2.0990 H     1 <1>   0.0800 
 47 H       -5.6180    -1.1470     2.4170 H     1 <1>   0.0800 
 48 H       -6.8090    -1.9630     1.4860 H     1 <1>   0.0800 
 49 H       -6.3360    -2.5250    -1.0040 H     1 <1>   0.0800 
 50 H       -5.6850    -1.1520    -1.8570 H     1 <1>   0.0800 
 51 H        2.5230     3.4350     0.0010 H     1 <1>   0.1500 
 52 H       -5.7580    -3.7230     2.5590 H     1 <1>   0.0800 
 53 H       -4.1980    -2.9740     2.5390 H     1 <1>   0.0800 
 54 H       -7.8480    -1.1040    -0.0440 H     1 <1>   0.4000 
 55 H       -0.3880     7.5990     0.4140 H     1 <1>   0.1500 
 56 H        4.3780     5.1550     0.2090 H     1 <1>   0.2700 
 57 H        4.5460     7.9430     0.5110 H     1 <1>   0.1500 
 58 H        0.7080     9.8050     0.6650 H     1 <1>   0.1500 
 59 H        3.1480     9.9740     0.7130 H     1 <1>   0.1500 
@<TRIPOS>BOND
  1   1   2  2   
  2   2   3  am  
  3   2   4  1   
  4   3   5  1   
  5   3   6  1   
  6   4   7  1   
  7   4  28  1   
  8   4  29  1   
  9   5   8  1   
 10   5  30  1   
 11   5  31  1   
 12   6   9  1   
 13   6  32  1   
 14   6  33  1   
 15   7  10  1   
 16   7  34  1   
 17   7  35  1   
 18   8  11  1   
 19   8  12  1   
 20   8  36  1   
 21   9  12  1   
 22   9  37  1   
 23   9  38  1   
 24  10  13  1   
 25  10  39  1   
 26  10  40  1   
 27  11  14  1   
 28  11  15  1   
 29  11  41  1   
 30  12  16  1   
 31  12  17  1   
 32  13  18  1   
 33  13  19  2   
 34  14  20  1   
 35  14  42  1   
 36  14  43  1   
 37  15  44  1   
 38  15  45  1   
 39  15  46  1   
 40  16  20  1   
 41  16  47  1   
 42  16  48  1   
 43  17  21  1   
 44  17  49  1   
 45  17  50  1   
 46  18  22  ar  
 47  18  23  ar  
 48  19  24  1   
 49  19  51  1   
 50  20  52  1   
 51  20  53  1   
 52  21  54  1   
 53  22  24  1   
 54  22  25  ar  
 55  23  26  ar  
 56  23  55  1   
 57  24  56  1   
 58  25  27  ar  
 59  25  57  1   
 60  26  27  ar  
 61  26  58  1   
 62  27  59  1   
@<TRIPOS>SUBSTRUCTURE
  1 ****   4 GROUP 4 **** **** 0

# MOE 2024.06 (io_trps.svl 2023.06)
