@<TRIPOS>MOLECULE
NONAME
34 36 1 0 0 
SMALL
USER_CHARGES


@<TRIPOS>ATOM
  1 S        0.1500     0.3570    -0.0270 S.3   1 <1>  -0.0920 
  2 C       -1.4430     1.1320    -0.0090 C.2   1 <1>  -0.0570 
  3 C       -0.5460    -1.2420    -0.0580 C.2   1 <1>  -0.1210 
  4 C       -2.4000     0.1630    -0.0230 C.2   1 <1>  -0.1920 
  5 C       -1.4840     2.5710     0.0330 C.2   1 <1>   0.9950 
  6 C       -1.8880    -1.1730    -0.0610 C.2   1 <1>  -0.1920 
  7 C       -3.9040     0.4220     0.0370 C.3   1 <1>   0.0090 
  8 O       -2.5160     3.2050     0.0890 O.2   1 <1>  -0.5770 
  9 N       -0.3140     3.2640     0.0100 N.pl3 1 <1>  -0.7350 
 10 C       -2.8000    -2.3890    -0.1250 C.3   1 <1>   0.0090 
 11 C       -4.7350    -0.8010    -0.3680 C.3   1 <1>  -0.1710 
 12 C       -0.1270     4.5780     0.0400 C.cat 1 <1>   1.0680 
 13 C       -4.2250    -2.0640     0.3350 C.3   1 <1>  -0.1710 
 14 N       -1.0680     5.5020     0.0990 N.pl3 1 <1>  -0.7050 
 15 N        1.0710     5.1640     0.0140 N.pl3 1 <1>  -0.7690 
 16 C       -0.4730     6.7400     0.1120 C.2   1 <1>   0.1900 
 17 C        0.8550     6.5330     0.0600 C.2   1 <1>   0.1900 
 18 C        2.4340     4.5680    -0.0500 C.3   1 <1>   0.2640 
 19 H        0.1250    -2.0830    -0.0810 H     1 <1>   0.1390 
 20 H       -4.1670     1.2490    -0.5970 H     1 <1>   0.0680 
 21 H       -4.1580     0.6880     1.0480 H     1 <1>   0.0680 
 22 H        0.5060     2.6780    -0.0340 H     1 <1>   0.4420 
 23 H       -2.3950    -3.1840     0.4750 H     1 <1>   0.0680 
 24 H       -2.8350    -2.7290    -1.1450 H     1 <1>   0.0680 
 25 H       -4.6760    -0.9360    -1.4340 H     1 <1>   0.0680 
 26 H       -5.7670    -0.6320    -0.1110 H     1 <1>   0.0680 
 27 H       -4.2330    -1.9130     1.4000 H     1 <1>   0.0680 
 28 H       -4.8710    -2.8950     0.1100 H     1 <1>   0.0680 
 29 H       -2.0660     5.2570     0.1270 H     1 <1>   0.4420 
 30 H       -1.0280     7.6650     0.1570 H     1 <1>   0.1390 
 31 H        1.6540     7.2590     0.0510 H     1 <1>   0.1390 
 32 H        2.3880     3.4930    -0.0710 H     1 <1>   0.0680 
 33 H        3.0050     4.8720     0.8120 H     1 <1>   0.0680 
 34 H        2.9400     4.9100    -0.9380 H     1 <1>   0.0680 
@<TRIPOS>BOND
  1   1   2  1   
  2   1   3  1   
  3   2   4  2   
  4   2   5  1   
  5   3   6  2   
  6   3  19  1   
  7   4   6  1   
  8   4   7  1   
  9   5   8  2   
 10   5   9  1   
 11   6  10  1   
 12   7  11  1   
 13   7  20  1   
 14   7  21  1   
 15   9  12  ar  
 16   9  22  1   
 17  10  13  1   
 18  10  23  1   
 19  10  24  1   
 20  11  13  1   
 21  11  25  1   
 22  11  26  1   
 23  12  14  ar  
 24  12  15  ar  
 25  13  27  1   
 26  13  28  1   
 27  14  16  1   
 28  14  29  1   
 29  15  17  1   
 30  15  18  1   
 31  16  17  2   
 32  16  30  1   
 33  17  31  1   
 34  18  32  1   
 35  18  33  1   
 36  18  34  1   
@<TRIPOS>SUBSTRUCTURE
  1 ****   5 GROUP 4 **** **** 0

# MOE 2024.06 (io_trps.svl 2023.06)
