@<TRIPOS>MOLECULE
NONAME
56 58 1 0 0 
SMALL
USER_CHARGES


@<TRIPOS>ATOM
  1 O       -0.6970     0.4930     2.3190 O.2   1 <1>  -0.5700 
  2 C       -1.7570     0.4990     1.7290 C.2   1 <1>   0.7150 
  3 N       -2.4990    -0.6280     1.7870 N.am  1 <1>  -0.8000 
  4 C       -2.2060     1.6650     1.0050 C.2   1 <1>   0.0550 
  5 O       -3.3950     1.7060     0.4170 O.3   1 <1>  -0.2800 
  6 C       -1.5870     2.8530     0.7840 C.2   1 <1>  -0.1500 
  7 C       -3.5670     2.8710    -0.1740 C.2   1 <1>  -0.0400 
  8 C       -2.4660     3.6400     0.0340 C.2   1 <1>  -0.1810 
  9 C       -4.9010     3.0710    -0.9160 C.3   1 <1>   0.1800 
 10 C       -2.1370     5.0530    -0.3910 C.3   1 <1>   0.5240 
 11 C       -6.0510     3.0040     0.0980 C.3   1 <1>  -0.2400 
 12 C       -5.0750     1.9480    -1.9490 C.3   1 <1>  -0.2400 
 13 C       -4.9850     4.4130    -1.6570 C.3   1 <1>  -0.2400 
 14 N       -2.6920     5.9800     0.6300 N.4   1 <1>  -0.9590 
 15 C       -2.8310     7.3490     0.0610 C.3   1 <1>   0.5660 
 16 C       -1.8900     5.9040     1.8960 C.3   1 <1>   0.2630 
 17 C       -1.4710     7.9050    -0.3600 C.ar  1 <1>  -0.1430 
 18 C       -3.5880     8.2570     1.0280 C.3   1 <1>  -0.2400 
 19 C       -0.5670     8.4420     0.5530 C.ar  1 <1>  -0.1500 
 20 C       -1.1240     7.8720    -1.7070 C.ar  1 <1>  -0.1500 
 21 C        0.6630     8.9100     0.1310 C.ar  1 <1>   0.0820 
 22 C        0.1090     8.3390    -2.1330 C.ar  1 <1>  -0.1500 
 23 O        1.5120     9.4270     1.0530 O.3   1 <1>  -0.3620 
 24 C        1.0100     8.8490    -1.2170 C.ar  1 <1>   0.0820 
 25 C        2.5940    10.1990     0.5600 C.3   1 <1>   0.1200 
 26 O        2.2190     9.2800    -1.6540 O.3   1 <1>  -0.3630 
 27 C        3.2120     9.5250    -0.6740 C.3   1 <1>   0.1200 
 28 H       -2.1500    -1.4390     2.2960 H     1 <1>   0.3700 
 29 H       -3.3940    -0.7110     1.3060 H     1 <1>   0.3700 
 30 H       -0.6010     3.1210     1.1260 H     1 <1>   0.1500 
 31 H       -2.5770     5.2490    -1.3530 H     1 <1>   0.0800 
 32 H       -1.0690     5.1810    -0.4770 H     1 <1>   0.0800 
 33 H       -6.0540     2.0500     0.5970 H     1 <1>   0.0800 
 34 H       -7.0000     3.1270    -0.3920 H     1 <1>   0.0800 
 35 H       -5.9460     3.7710     0.8430 H     1 <1>   0.0800 
 36 H       -5.0870     0.9870    -1.4650 H     1 <1>   0.0800 
 37 H       -4.2630     1.9580    -2.6530 H     1 <1>   0.0800 
 38 H       -5.9990     2.0620    -2.4880 H     1 <1>   0.0800 
 39 H       -4.9260     5.2360    -0.9730 H     1 <1>   0.0800 
 40 H       -5.9270     4.4870    -2.1740 H     1 <1>   0.0800 
 41 H       -4.2050     4.4860    -2.3930 H     1 <1>   0.0800 
 42 H       -3.6330     5.6290     0.8390 H     1 <1>   0.4500 
 43 H       -3.4320     7.2800    -0.8310 H     1 <1>   0.0800 
 44 H       -0.8650     6.1820     1.7100 H     1 <1>   0.0800 
 45 H       -1.9060     4.9010     2.2900 H     1 <1>   0.0800 
 46 H       -2.2970     6.5640     2.6440 H     1 <1>   0.0800 
 47 H       -3.0590     8.4080     1.9500 H     1 <1>   0.0800 
 48 H       -4.5620     7.8530     1.2380 H     1 <1>   0.0800 
 49 H       -3.7230     9.2200     0.5690 H     1 <1>   0.0800 
 50 H       -0.7890     8.5180     1.6020 H     1 <1>   0.1500 
 51 H       -1.8040     7.4880    -2.4490 H     1 <1>   0.1500 
 52 H        0.3820     8.3120    -3.1740 H     1 <1>   0.1500 
 53 H        3.3200    10.2940     1.3470 H     1 <1>   0.0800 
 54 H        2.2210    11.1750     0.3050 H     1 <1>   0.0800 
 55 H        3.6550     8.5830    -0.4040 H     1 <1>   0.0800 
 56 H        3.9640    10.1540    -1.1150 H     1 <1>   0.0800 
@<TRIPOS>BOND
  1   1   2  2   
  2   2   3  am  
  3   2   4  1   
  4   3  28  1   
  5   3  29  1   
  6   4   5  1   
  7   4   6  2   
  8   5   7  1   
  9   6   8  1   
 10   6  30  1   
 11   7   8  2   
 12   7   9  1   
 13   8  10  1   
 14   9  11  1   
 15   9  12  1   
 16   9  13  1   
 17  10  14  1   
 18  10  31  1   
 19  10  32  1   
 20  11  33  1   
 21  11  34  1   
 22  11  35  1   
 23  12  36  1   
 24  12  37  1   
 25  12  38  1   
 26  13  39  1   
 27  13  40  1   
 28  13  41  1   
 29  14  15  1   
 30  14  16  1   
 31  14  42  1   
 32  15  17  1   
 33  15  18  1   
 34  15  43  1   
 35  16  44  1   
 36  16  45  1   
 37  16  46  1   
 38  17  19  ar  
 39  17  20  ar  
 40  18  47  1   
 41  18  48  1   
 42  18  49  1   
 43  19  21  ar  
 44  19  50  1   
 45  20  22  ar  
 46  20  51  1   
 47  21  23  1   
 48  21  24  ar  
 49  22  24  ar  
 50  22  52  1   
 51  23  25  1   
 52  24  26  1   
 53  25  27  1   
 54  25  53  1   
 55  25  54  1   
 56  26  27  1   
 57  27  55  1   
 58  27  56  1   
@<TRIPOS>SUBSTRUCTURE
  1 ****  10 GROUP 4 **** **** 0

# MOE 2024.06 (io_trps.svl 2023.06)
