@<TRIPOS>MOLECULE
NONAME
47 49 1 0 0 
SMALL
USER_CHARGES


@<TRIPOS>ATOM
  1 CL      -2.8030     5.6350     1.8350 Cl    1 <1>  -0.1770 
  2 C       -1.6460     4.7760     0.8410 C.ar  1 <1>   0.1770 
  3 C       -1.9050     3.4690     0.4350 C.ar  1 <1>   0.0830 
  4 C       -0.4890     5.4330     0.4700 C.ar  1 <1>  -0.1500 
  5 O       -3.0640     2.8870     0.8400 O.3   1 <1>  -0.3630 
  6 C       -0.9700     2.8120    -0.3650 C.ar  1 <1>  -0.1500 
  7 C        0.4210     4.7630    -0.3250 C.ar  1 <1>   0.1770 
  8 C       -3.6120     1.7780     0.1410 C.3   1 <1>   0.1810 
  9 C        0.1940     3.4640    -0.7450 C.ar  1 <1>  -0.1500 
 10 CL       1.8900     5.5710    -0.8100 Cl    1 <1>  -0.1770 
 11 C       -5.0100     1.4120     0.6390 C.2   1 <1>   0.5690 
 12 O       -5.1990     0.2480     0.9110 O.2   1 <1>  -0.5700 
 13 N       -6.0140     2.3470     0.7340 N.am  1 <1>  -0.6600 
 14 C       -7.3820     1.9720     1.1940 C.3   1 <1>   0.1400 
 15 C       -5.8490     3.7910     0.3820 C.3   1 <1>   0.1400 
 16 C       -8.4150     2.2090     0.0700 C.3   1 <1>   0.0000 
 17 C       -7.1960     4.4700     0.0810 C.3   1 <1>  -0.1600 
 18 C       -9.8370     2.1530     0.6570 C.3   1 <1>   0.2000 
 19 C       -8.1300     3.5360    -0.7030 C.3   1 <1>  -0.1600 
 20 C       -8.4600     1.0350    -0.9220 C.3   1 <1>  -0.1600 
 21 O      -10.2030     3.3700     1.2400 O.3   1 <1>  -0.5600 
 22 C      -10.7550     1.7850    -0.5140 C.3   1 <1>  -0.1600 
 23 C       -9.8580     1.0910    -1.5480 C.3   1 <1>  -0.1600 
 24 C      -11.3320     3.3180     2.0520 C.3   1 <1>   0.0400 
 25 H       -0.3010     6.4410     0.7900 H     1 <1>   0.1500 
 26 H       -1.1240     1.8000    -0.6920 H     1 <1>   0.1500 
 27 H       -3.6620     2.0220    -0.9040 H     1 <1>   0.0800 
 28 H       -2.9610     0.9360     0.2880 H     1 <1>   0.0800 
 29 H        0.9250     2.9700    -1.3610 H     1 <1>   0.1500 
 30 H       -7.4120     0.9470     1.5220 H     1 <1>   0.0800 
 31 H       -7.6320     2.5850     2.0430 H     1 <1>   0.0800 
 32 H       -5.3600     4.3020     1.1940 H     1 <1>   0.0800 
 33 H       -5.2230     3.8700    -0.4900 H     1 <1>   0.0800 
 34 H       -7.6680     4.7550     1.0050 H     1 <1>   0.0800 
 35 H       -7.0210     5.3720    -0.4780 H     1 <1>   0.0800 
 36 H       -9.8790     1.3810     1.4070 H     1 <1>   0.0800 
 37 H       -7.6530     3.3200    -1.6430 H     1 <1>   0.0800 
 38 H       -9.0460     4.0520    -0.9310 H     1 <1>   0.0800 
 39 H       -7.6770     1.0770    -1.6580 H     1 <1>   0.0800 
 40 H       -8.3600     0.1060    -0.3860 H     1 <1>   0.0800 
 41 H      -11.5390     1.1270    -0.1840 H     1 <1>   0.0800 
 42 H      -11.1840     2.6730    -0.9460 H     1 <1>   0.0800 
 43 H      -10.2140     0.1040    -1.7880 H     1 <1>   0.0800 
 44 H       -9.8280     1.6790    -2.4500 H     1 <1>   0.0800 
 45 H      -11.4980     4.3010     2.4530 H     1 <1>   0.0800 
 46 H      -11.1600     2.6230     2.8560 H     1 <1>   0.0800 
 47 H      -12.1830     3.0180     1.4660 H     1 <1>   0.0800 
@<TRIPOS>BOND
  1   1   2  1   
  2   2   3  ar  
  3   2   4  ar  
  4   3   5  1   
  5   3   6  ar  
  6   4   7  ar  
  7   4  25  1   
  8   5   8  1   
  9   6   9  ar  
 10   6  26  1   
 11   7   9  ar  
 12   7  10  1   
 13   8  11  1   
 14   8  27  1   
 15   8  28  1   
 16   9  29  1   
 17  11  12  2   
 18  11  13  am  
 19  13  14  1   
 20  13  15  1   
 21  14  16  1   
 22  14  30  1   
 23  14  31  1   
 24  15  17  1   
 25  15  32  1   
 26  15  33  1   
 27  16  18  1   
 28  16  19  1   
 29  16  20  1   
 30  17  19  1   
 31  17  34  1   
 32  17  35  1   
 33  18  21  1   
 34  18  22  1   
 35  18  36  1   
 36  19  37  1   
 37  19  38  1   
 38  20  23  1   
 39  20  39  1   
 40  20  40  1   
 41  21  24  1   
 42  22  23  1   
 43  22  41  1   
 44  22  42  1   
 45  23  43  1   
 46  23  44  1   
 47  24  45  1   
 48  24  46  1   
 49  24  47  1   
@<TRIPOS>SUBSTRUCTURE
  1 ****  15 GROUP 4 **** **** 0

# MOE 2024.06 (io_trps.svl 2023.06)
