@<TRIPOS>MOLECULE
NONAME
39 42 1 0 0 
SMALL
USER_CHARGES


@<TRIPOS>ATOM
  1 O        3.0680    -0.4110     1.2930 O.2   1 <1>  -0.5700 
  2 C        2.3670    -0.8490     0.4050 C.2   1 <1>   0.5440 
  3 N        2.0310    -0.0360    -0.6460 N.am  1 <1>  -0.4940 
  4 C        1.8910    -2.2150     0.4500 C.ar  1 <1>   0.0860 
  5 C        2.2350     1.3330    -0.8450 C.2   1 <1>   0.2500 
  6 C        2.6090    -3.1830     1.1490 C.ar  1 <1>   0.1600 
  7 C        0.7260    -2.6380    -0.1800 C.ar  1 <1>  -0.1500 
  8 N        1.3580     2.0280    -1.4990 N.2   1 <1>  -0.3380 
  9 N        3.2850     2.0910    -0.4520 N.pl3 1 <1>   0.3340 
 10 N        2.2930    -4.4620     1.2450 N.ar  1 <1>  -0.6200 
 11 C        0.3700    -3.9680    -0.0920 C.ar  1 <1>  -0.1440 
 12 N        1.7900     3.2860    -1.5400 N.2   1 <1>  -0.3380 
 13 C        2.9330     3.3240    -0.9190 C.2   1 <1>   0.3120 
 14 C        4.5350     1.9240     0.1350 C.2   1 <1>  -0.1810 
 15 C        1.1850    -4.8380     0.6260 C.ar  1 <1>   0.1670 
 16 C       -0.9010    -4.4390    -0.7920 C.3   1 <1>  -0.0170 
 17 N        3.7200     4.4430    -0.7550 N.2   1 <1>  -0.5760 
 18 C        5.3210     3.0180     0.2830 C.2   1 <1>  -0.1360 
 19 C        0.8380    -6.3140     0.7710 C.3   1 <1>  -0.0170 
 20 C       -1.3960    -5.7900    -0.2660 C.3   1 <1>  -0.1600 
 21 C        4.8580     4.2840    -0.1740 C.2   1 <1>   0.3750 
 22 C       -0.2410    -6.7920    -0.2100 C.3   1 <1>  -0.1600 
 23 C        5.7510     5.4880     0.0280 C.3   1 <1>  -0.1790 
 24 H        1.3610    -0.4220    -1.3090 H     1 <1>   0.3700 
 25 H        3.5060    -2.8730     1.6580 H     1 <1>   0.1500 
 26 H        0.1040    -1.9480    -0.7220 H     1 <1>   0.1500 
 27 H        4.8190     0.9350     0.4420 H     1 <1>   0.1500 
 28 H       -0.6960    -4.5260    -1.8450 H     1 <1>   0.0800 
 29 H       -1.6810    -3.7080    -0.6680 H     1 <1>   0.0800 
 30 H        6.2940     2.9640     0.7370 H     1 <1>   0.1500 
 31 H        0.4980    -6.4720     1.7780 H     1 <1>   0.0800 
 32 H        1.7280    -6.9020     0.6320 H     1 <1>   0.0800 
 33 H       -2.1760    -6.1630    -0.9070 H     1 <1>   0.0800 
 34 H       -1.8090    -5.6620     0.7210 H     1 <1>   0.0800 
 35 H       -0.6030    -7.7580     0.0980 H     1 <1>   0.0800 
 36 H        0.1910    -6.8970    -1.1910 H     1 <1>   0.0800 
 37 H        5.9420     5.6310     1.0760 H     1 <1>   0.0800 
 38 H        5.2750     6.3720    -0.3580 H     1 <1>   0.0800 
 39 H        6.6810     5.3450    -0.4890 H     1 <1>   0.0800 
@<TRIPOS>BOND
  1   1   2  2   
  2   2   3  am  
  3   2   4  1   
  4   3   5  1   
  5   3  24  1   
  6   4   6  ar  
  7   4   7  ar  
  8   5   8  2   
  9   5   9  1   
 10   6  10  ar  
 11   6  25  1   
 12   7  11  ar  
 13   7  26  1   
 14   8  12  1   
 15   9  13  1   
 16   9  14  1   
 17  10  15  ar  
 18  11  15  ar  
 19  11  16  1   
 20  12  13  2   
 21  13  17  1   
 22  14  18  2   
 23  14  27  1   
 24  15  19  1   
 25  16  20  1   
 26  16  28  1   
 27  16  29  1   
 28  17  21  2   
 29  18  21  1   
 30  18  30  1   
 31  19  22  1   
 32  19  31  1   
 33  19  32  1   
 34  20  22  1   
 35  20  33  1   
 36  20  34  1   
 37  21  23  1   
 38  22  35  1   
 39  22  36  1   
 40  23  37  1   
 41  23  38  1   
 42  23  39  1   
@<TRIPOS>SUBSTRUCTURE
  1 ****   2 GROUP 4 **** **** 0

# MOE 2024.06 (io_trps.svl 2023.06)
