@<TRIPOS>MOLECULE
NONAME
48 51 1 0 0 
SMALL
USER_CHARGES


@<TRIPOS>ATOM
  1 F       -0.6460    -0.2000     1.3410 F     1 <1>  -0.1900 
  2 C       -1.7170    -0.8360     0.9120 C.ar  1 <1>   0.1900 
  3 C       -2.7920    -0.1580     0.3450 C.ar  1 <1>   0.4100 
  4 C       -1.7770    -2.1940     1.0400 C.ar  1 <1>   0.1600 
  5 N       -3.8510    -0.8370    -0.0520 N.ar  1 <1>  -0.6200 
  6 N       -2.8260     1.2210     0.1670 N.pl3 1 <1>  -0.8380 
  7 N       -2.8300    -2.8780     0.6380 N.ar  1 <1>  -0.6200 
  8 C       -3.8160    -2.1560     0.1050 C.ar  1 <1>   0.7200 
  9 C       -1.7840     1.8760    -0.6770 C.3   1 <1>   0.2090 
 10 C       -4.1400     1.9280     0.0800 C.3   1 <1>   0.2090 
 11 N       -4.9170    -2.8570    -0.3310 N.pl3 1 <1>  -0.8380 
 12 C       -1.7300     3.3890    -0.3990 C.3   1 <1>   0.1200 
 13 C       -3.9640     3.4400     0.3110 C.3   1 <1>   0.1200 
 14 C       -6.2170    -2.2220    -0.6760 C.3   1 <1>   0.2090 
 15 C       -5.1060    -4.3110    -0.0890 C.3   1 <1>   0.2090 
 16 O       -2.9940     3.9750    -0.5490 O.3   1 <1>  -0.5600 
 17 C       -7.2630    -3.2150    -0.1710 C.3   1 <1>   0.2000 
 18 C       -6.5890    -4.5770    -0.3720 C.3   1 <1>  -0.0800 
 19 O       -7.4510    -2.9900     1.1860 O.3   1 <1>  -0.6800 
 20 C       -7.1830    -5.7330     0.4530 C.3   1 <1>  -0.0170 
 21 C       -6.4860    -7.0470     0.1330 C.ar  1 <1>  -0.1440 
 22 C       -6.8220    -7.7960    -0.9760 C.ar  1 <1>  -0.1500 
 23 C       -5.4830    -7.5580     0.9320 C.ar  1 <1>  -0.1500 
 24 C       -6.1560    -8.9840    -1.2270 C.ar  1 <1>   0.1600 
 25 C       -4.8800    -8.7570     0.5910 C.ar  1 <1>   0.1600 
 26 N       -5.1920    -9.4830    -0.4710 N.ar  1 <1>  -0.6200 
 27 H       -0.9540    -2.7300     1.4780 H     1 <1>   0.1500 
 28 H       -0.8180     1.4460    -0.4840 H     1 <1>   0.0800 
 29 H       -2.0170     1.7170    -1.7160 H     1 <1>   0.0800 
 30 H       -4.5710     1.7620    -0.8920 H     1 <1>   0.0800 
 31 H       -4.8130     1.5290     0.8180 H     1 <1>   0.0800 
 32 H       -1.0610     3.8690    -1.0910 H     1 <1>   0.0800 
 33 H       -1.3820     3.5720     0.6030 H     1 <1>   0.0800 
 34 H       -3.6650     3.6290     1.3260 H     1 <1>   0.0800 
 35 H       -4.8900     3.9520     0.1210 H     1 <1>   0.0800 
 36 H       -6.3420    -1.2540    -0.2200 H     1 <1>   0.0800 
 37 H       -6.2820    -2.1240    -1.7450 H     1 <1>   0.0800 
 38 H       -4.4710    -4.8910    -0.7370 H     1 <1>   0.0800 
 39 H       -4.8690    -4.5360     0.9370 H     1 <1>   0.0800 
 40 H       -8.2120    -3.1260    -0.6710 H     1 <1>   0.0800 
 41 H       -6.6710    -4.8290    -1.4140 H     1 <1>   0.0800 
 42 H       -6.5700    -2.8400     1.5890 H     1 <1>   0.4000 
 43 H       -8.2330    -5.8250     0.2360 H     1 <1>   0.0800 
 44 H       -7.0920    -5.5280     1.5060 H     1 <1>   0.0800 
 45 H       -7.5950    -7.4680    -1.6470 H     1 <1>   0.1500 
 46 H       -5.1640    -7.0360     1.8160 H     1 <1>   0.1500 
 47 H       -6.4320    -9.5560    -2.0970 H     1 <1>   0.1500 
 48 H       -4.0990    -9.1400     1.2260 H     1 <1>   0.1500 
@<TRIPOS>BOND
  1   1   2  1   
  2   2   3  ar  
  3   2   4  ar  
  4   3   5  ar  
  5   3   6  1   
  6   4   7  ar  
  7   4  27  1   
  8   5   8  ar  
  9   6   9  1   
 10   6  10  1   
 11   7   8  ar  
 12   8  11  1   
 13   9  12  1   
 14   9  28  1   
 15   9  29  1   
 16  10  13  1   
 17  10  30  1   
 18  10  31  1   
 19  11  14  1   
 20  11  15  1   
 21  12  16  1   
 22  12  32  1   
 23  12  33  1   
 24  13  16  1   
 25  13  34  1   
 26  13  35  1   
 27  14  17  1   
 28  14  36  1   
 29  14  37  1   
 30  15  18  1   
 31  15  38  1   
 32  15  39  1   
 33  17  18  1   
 34  17  19  1   
 35  17  40  1   
 36  18  20  1   
 37  18  41  1   
 38  19  42  1   
 39  20  21  1   
 40  20  43  1   
 41  20  44  1   
 42  21  22  ar  
 43  21  23  ar  
 44  22  24  ar  
 45  22  45  1   
 46  23  25  ar  
 47  23  46  1   
 48  24  26  ar  
 49  24  47  1   
 50  25  26  ar  
 51  25  48  1   
@<TRIPOS>SUBSTRUCTURE
  1 ****  11 GROUP 4 **** **** 0

# MOE 2024.06 (io_trps.svl 2023.06)
