@<TRIPOS>MOLECULE
NONAME
51 53 1 0 0 
SMALL
USER_CHARGES


@<TRIPOS>ATOM
  1 S        3.4000     2.3680     2.4900 S.3   1 <1>  -0.0800 
  2 C        3.5440     3.9460     1.7530 C.2   1 <1>  -0.1100 
  3 C        1.7020     2.6380     2.8260 C.2   1 <1>  -0.1100 
  4 C        2.3640     4.6110     1.7480 C.2   1 <1>  -0.0860 
  5 C        1.3190     3.8480     2.3820 C.2   1 <1>  -0.1500 
  6 C        2.1390     5.9220     1.1830 C.2   1 <1>   0.7160 
  7 O        2.7070     6.8890     1.6470 O.2   1 <1>  -0.5700 
  8 N        1.3360     6.0850     0.0700 N.am  1 <1>  -0.6600 
  9 C        0.8100     4.9390    -0.7390 C.3   1 <1>   0.1400 
 10 C        1.1220     7.4300    -0.5310 C.3   1 <1>   0.1400 
 11 C        1.8730     4.3850    -1.7110 C.3   1 <1>   0.3430 
 12 C        2.1960     7.7340    -1.5860 C.3   1 <1>  -0.1600 
 13 N        2.8740     5.4230    -2.1010 N.4   1 <1>  -0.9590 
 14 C        2.3440     6.6790    -2.6870 C.3   1 <1>   0.3430 
 15 C        4.0850     4.8970    -2.7800 C.3   1 <1>   0.5240 
 16 C        5.2520     5.5770    -2.0830 C.2   1 <1>   0.0460 
 17 N        5.2180     5.6970    -0.7390 N.2   1 <1>  -0.5650 
 18 C        6.3640     6.1560    -2.5870 C.2   1 <1>  -0.3020 
 19 C        6.2950     6.3500    -0.4520 C.2   1 <1>   0.0060 
 20 N        7.0430     6.6540    -1.5350 N.pl3 1 <1>   0.0330 
 21 C        6.6790     6.7550     0.9600 C.3   1 <1>   0.0200 
 22 C        6.1860     8.1740     1.2670 C.3   1 <1>  -0.1600 
 23 C        6.5240     8.5910     2.7030 C.3   1 <1>  -0.1600 
 24 C        6.0100    10.0020     2.9980 C.3   1 <1>  -0.2400 
 25 H        4.5140     4.2350     1.3860 H     1 <1>   0.1500 
 26 H        1.1690     1.8530     3.3350 H     1 <1>   0.1500 
 27 H        0.3280     4.2580     2.4820 H     1 <1>   0.1500 
 28 H       -0.0460     5.2660    -1.3040 H     1 <1>   0.0800 
 29 H        0.4680     4.1470    -0.0970 H     1 <1>   0.0800 
 30 H        1.1590     8.1820     0.2410 H     1 <1>   0.0800 
 31 H        0.1410     7.4770    -0.9720 H     1 <1>   0.0800 
 32 H        1.3890     3.9790    -2.5840 H     1 <1>   0.0800 
 33 H        2.3850     3.5780    -1.2140 H     1 <1>   0.0800 
 34 H        3.1430     7.8830    -1.0950 H     1 <1>   0.0800 
 35 H        1.9410     8.6700    -2.0500 H     1 <1>   0.0800 
 36 H        3.2970     5.7330    -1.1980 H     1 <1>   0.4500 
 37 H        3.0350     7.0540    -3.4250 H     1 <1>   0.0800 
 38 H        1.3960     6.5010    -3.1680 H     1 <1>   0.0800 
 39 H        4.0770     5.1170    -3.8340 H     1 <1>   0.0800 
 40 H        4.1670     3.8340    -2.6310 H     1 <1>   0.0800 
 41 H        6.7080     6.2530    -3.6020 H     1 <1>   0.1500 
 42 H        7.9320     7.1650    -1.5400 H     1 <1>   0.2700 
 43 H        7.7460     6.6960     1.0810 H     1 <1>   0.0800 
 44 H        6.2280     6.0670     1.6540 H     1 <1>   0.0800 
 45 H        5.1170     8.2050     1.1330 H     1 <1>   0.0800 
 46 H        6.6300     8.8680     0.5750 H     1 <1>   0.0800 
 47 H        7.5900     8.5630     2.8520 H     1 <1>   0.0800 
 48 H        6.0700     7.9010     3.3950 H     1 <1>   0.0800 
 49 H        6.4610    10.7170     2.3340 H     1 <1>   0.0800 
 50 H        6.2490    10.2760     4.0110 H     1 <1>   0.0800 
 51 H        4.9410    10.0420     2.8790 H     1 <1>   0.0800 
@<TRIPOS>BOND
  1   1   2  1   
  2   1   3  1   
  3   2   4  2   
  4   2  25  1   
  5   3   5  2   
  6   3  26  1   
  7   4   5  1   
  8   4   6  1   
  9   5  27  1   
 10   6   7  2   
 11   6   8  am  
 12   8   9  1   
 13   8  10  1   
 14   9  11  1   
 15   9  28  1   
 16   9  29  1   
 17  10  12  1   
 18  10  30  1   
 19  10  31  1   
 20  11  13  1   
 21  11  32  1   
 22  11  33  1   
 23  12  14  1   
 24  12  34  1   
 25  12  35  1   
 26  13  14  1   
 27  13  15  1   
 28  13  36  1   
 29  14  37  1   
 30  14  38  1   
 31  15  16  1   
 32  15  39  1   
 33  15  40  1   
 34  16  17  1   
 35  16  18  2   
 36  17  19  2   
 37  18  20  1   
 38  18  41  1   
 39  19  20  1   
 40  19  21  1   
 41  20  42  1   
 42  21  22  1   
 43  21  43  1   
 44  21  44  1   
 45  22  23  1   
 46  22  45  1   
 47  22  46  1   
 48  23  24  1   
 49  23  47  1   
 50  23  48  1   
 51  24  49  1   
 52  24  50  1   
 53  24  51  1   
@<TRIPOS>SUBSTRUCTURE
  1 ****  17 GROUP 4 **** **** 0

# MOE 2024.06 (io_trps.svl 2023.06)
