@<TRIPOS>MOLECULE
NONAME
33 34 1 0 0 
SMALL
USER_CHARGES


@<TRIPOS>ATOM
  1 N       -0.0460    -1.0020     0.6980 N.ar  1 <1>  -0.6200 
  2 C        0.3630    -2.1630     0.2150 C.ar  1 <1>   0.7200 
  3 C        0.8020    -0.0100     0.5880 C.ar  1 <1>   0.1670 
  4 N        1.5230    -2.4330    -0.3710 N.ar  1 <1>  -0.6200 
  5 N       -0.5440    -3.1510     0.3480 N.pl3 1 <1>  -0.8690 
  6 C        2.0360    -0.1750     0.0020 C.ar  1 <1>  -0.1500 
  7 C        0.3650     1.3320     1.1340 C.3   1 <1>  -0.0970 
  8 C        2.3550    -1.4270    -0.4710 C.ar  1 <1>   0.1670 
  9 C       -0.6590    -4.2360    -0.6380 C.3   1 <1>   0.4690 
 10 C        3.6890    -1.7040    -1.1310 C.3   1 <1>  -0.0960 
 11 C       -2.1170    -4.6720    -0.7480 C.2   1 <1>   0.0060 
 12 C        0.2450    -5.4010    -0.2310 C.3   1 <1>  -0.2400 
 13 N       -2.7920    -4.6500    -1.8450 N.2   1 <1>  -0.5650 
 14 N       -2.8690    -5.1280     0.2690 N.pl3 1 <1>   0.3140 
 15 C       -3.9810    -5.1130    -1.4440 C.2   1 <1>   0.3660 
 16 N       -4.0780    -5.4140    -0.1930 N.2   1 <1>  -0.7070 
 17 C       -2.5500    -5.3360     1.6930 C.3   1 <1>   0.0160 
 18 H       -1.4460    -2.7270     0.5500 H     1 <1>   0.4000 
 19 H        2.7250     0.6430    -0.0840 H     1 <1>   0.1500 
 20 H       -0.5280     1.6520     0.6280 H     1 <1>   0.0800 
 21 H        1.1290     2.0740     0.9970 H     1 <1>   0.0800 
 22 H        0.1530     1.2400     2.1840 H     1 <1>   0.0800 
 23 H       -0.3460    -3.8720    -1.6040 H     1 <1>   0.0800 
 24 H        4.2110    -2.4650    -0.5800 H     1 <1>   0.0800 
 25 H        4.2960    -0.8180    -1.1630 H     1 <1>   0.0800 
 26 H        3.5270    -2.0530    -2.1340 H     1 <1>   0.0800 
 27 H        0.0420    -5.7200     0.7720 H     1 <1>   0.0800 
 28 H        1.2760    -5.1050    -0.2990 H     1 <1>   0.0800 
 29 H        0.0880    -6.2260    -0.9010 H     1 <1>   0.0800 
 30 H       -4.7950    -5.2200    -2.1430 H     1 <1>   0.1500 
 31 H       -1.8620    -4.5860     2.0340 H     1 <1>   0.0800 
 32 H       -2.1180    -6.3110     1.8160 H     1 <1>   0.0800 
 33 H       -3.4560    -5.2730     2.2660 H     1 <1>   0.0800 
@<TRIPOS>BOND
  1   1   2  ar  
  2   1   3  ar  
  3   2   4  ar  
  4   2   5  1   
  5   3   6  ar  
  6   3   7  1   
  7   4   8  ar  
  8   5   9  1   
  9   5  18  1   
 10   6   8  ar  
 11   6  19  1   
 12   7  20  1   
 13   7  21  1   
 14   7  22  1   
 15   8  10  1   
 16   9  11  1   
 17   9  12  1   
 18   9  23  1   
 19  10  24  1   
 20  10  25  1   
 21  10  26  1   
 22  11  13  2   
 23  11  14  1   
 24  12  27  1   
 25  12  28  1   
 26  12  29  1   
 27  13  15  1   
 28  14  16  1   
 29  14  17  1   
 30  15  16  2   
 31  15  30  1   
 32  17  31  1   
 33  17  32  1   
 34  17  33  1   
@<TRIPOS>SUBSTRUCTURE
  1 ****   5 GROUP 4 **** **** 0

# MOE 2024.06 (io_trps.svl 2023.06)
