@<TRIPOS>MOLECULE
NONAME
41 44 1 0 0 
SMALL
USER_CHARGES


@<TRIPOS>ATOM
  1 CL      -1.0010     0.1810    -2.0770 Cl    1 <1>  -0.1230 
  2 C       -1.9100     0.6770    -0.6590 C.2   1 <1>   0.1230 
  3 C       -2.6630    -0.1430     0.1900 C.2   1 <1>   0.2030 
  4 C       -2.0150     1.9380    -0.2090 C.2   1 <1>  -0.3020 
  5 N       -3.2240     0.6160     1.1260 N.2   1 <1>  -0.7070 
  6 C       -2.7770    -1.5890     0.0420 C.2   1 <1>   0.7160 
  7 N       -2.8110     1.8730     0.8740 N.pl3 1 <1>   0.3000 
  8 O       -1.8300    -2.2320    -0.3800 O.2   1 <1>  -0.5700 
  9 N       -3.9280    -2.2930     0.3590 N.am  1 <1>  -0.6600 
 10 C       -3.9620    -3.7900     0.4440 C.3   1 <1>   0.1400 
 11 C       -5.2650    -1.6630     0.5950 C.3   1 <1>   0.1400 
 12 C       -5.1330    -4.3720    -0.3690 C.3   1 <1>   0.3440 
 13 C       -6.3710    -2.3770    -0.2100 C.3   1 <1>   0.2950 
 14 O       -6.3350    -3.7560     0.0120 O.3   1 <1>  -0.5600 
 15 C       -5.2370    -5.8800    -0.1580 C.ar  1 <1>  -0.1440 
 16 C       -7.7640    -1.8840     0.1900 C.3   1 <1>  -0.1950 
 17 C       -4.5500    -6.7380    -1.0060 C.ar  1 <1>  -0.1500 
 18 C       -5.9950    -6.4180     0.8730 C.ar  1 <1>  -0.1500 
 19 C       -8.9330    -2.0320    -0.7310 C.3   1 <1>  -0.2000 
 20 C       -8.3670    -0.6690    -0.4450 C.3   1 <1>  -0.2000 
 21 C       -4.6190    -8.1090    -0.8260 C.ar  1 <1>  -0.1500 
 22 C       -6.0660    -7.7880     1.0550 C.ar  1 <1>  -0.1500 
 23 C       -5.3770    -8.6350     0.2050 C.ar  1 <1>  -0.1500 
 24 H       -1.5840     2.8460    -0.5880 H     1 <1>   0.1500 
 25 H       -3.0890     2.6710     1.4610 H     1 <1>   0.2700 
 26 H       -3.0430    -4.2180     0.0840 H     1 <1>   0.0800 
 27 H       -4.0740    -4.0820     1.4730 H     1 <1>   0.0800 
 28 H       -5.4960    -1.7120     1.6450 H     1 <1>   0.0800 
 29 H       -5.2580    -0.6290     0.3060 H     1 <1>   0.0800 
 30 H       -4.9770    -4.1730    -1.4150 H     1 <1>   0.0800 
 31 H       -6.2200    -2.2050    -1.2620 H     1 <1>   0.0800 
 32 H       -7.9530    -2.0280     1.2410 H     1 <1>   0.1000 
 33 H       -3.9560    -6.3440    -1.8120 H     1 <1>   0.1500 
 34 H       -6.5380    -5.7670     1.5380 H     1 <1>   0.1500 
 35 H       -8.7720    -2.4770    -1.6990 H     1 <1>   0.1000 
 36 H       -9.8840    -2.3050    -0.3080 H     1 <1>   0.1000 
 37 H       -8.9390     0.0070     0.1670 H     1 <1>   0.1000 
 38 H       -7.8400    -0.1620    -1.2360 H     1 <1>   0.1000 
 39 H       -4.0840    -8.7660    -1.4880 H     1 <1>   0.1500 
 40 H       -6.6580    -8.1940     1.8560 H     1 <1>   0.1500 
 41 H       -5.4310    -9.7000     0.3450 H     1 <1>   0.1500 
@<TRIPOS>BOND
  1   1   2  1   
  2   2   3  1   
  3   2   4  2   
  4   3   5  2   
  5   3   6  1   
  6   4   7  1   
  7   4  24  1   
  8   5   7  1   
  9   6   8  2   
 10   6   9  am  
 11   7  25  1   
 12   9  10  1   
 13   9  11  1   
 14  10  12  1   
 15  10  26  1   
 16  10  27  1   
 17  11  13  1   
 18  11  28  1   
 19  11  29  1   
 20  12  14  1   
 21  12  15  1   
 22  12  30  1   
 23  13  14  1   
 24  13  16  1   
 25  13  31  1   
 26  15  17  ar  
 27  15  18  ar  
 28  16  19  1   
 29  16  20  1   
 30  16  32  1   
 31  17  21  ar  
 32  17  33  1   
 33  18  22  ar  
 34  18  34  1   
 35  19  20  1   
 36  19  35  1   
 37  19  36  1   
 38  20  37  1   
 39  20  38  1   
 40  21  23  ar  
 41  21  39  1   
 42  22  23  ar  
 43  22  40  1   
 44  23  41  1   
@<TRIPOS>SUBSTRUCTURE
  1 ****   9 GROUP 4 **** **** 0

# MOE 2024.06 (io_trps.svl 2023.06)
