@<TRIPOS>MOLECULE
NONAME
46 49 1 0 0 
SMALL
USER_CHARGES


@<TRIPOS>ATOM
  1 O       -1.9420     0.2810    -1.0440 O.2   1 <1>  -0.5700 
  2 C       -2.0920     0.7830     0.0630 C.2   1 <1>   0.5650 
  3 N       -1.9880     2.1890     0.2540 N.pl3 1 <1>   0.5610 
  4 C       -2.3830    -0.0080     1.2220 C.2   1 <1>   0.0290 
  5 N       -1.7640     3.1900    -0.6630 N.2   1 <1>  -0.7070 
  6 C       -2.1420     2.7460     1.4990 C.2   1 <1>  -0.0680 
  7 C       -2.5110    -1.4250     1.0850 C.2   1 <1>   0.6160 
  8 C       -2.5070     0.5880     2.4520 C.2   1 <1>  -0.0500 
  9 C       -1.7760     4.2910     0.0160 C.2   1 <1>   0.1080 
 10 N       -2.3970     1.9370     2.6140 N.pl3 1 <1>  -0.5840 
 11 C       -2.0070     4.0840     1.3700 C.2   1 <1>  -0.1500 
 12 O       -1.7330    -2.1440     1.6880 O.2   1 <1>  -0.5700 
 13 N       -3.5260    -2.0200     0.3670 N.am  1 <1>  -0.6600 
 14 C       -1.5590     5.6380    -0.6360 C.3   1 <1>  -0.0590 
 15 C       -4.6350    -1.3280    -0.3410 C.3   1 <1>   0.1400 
 16 C       -3.6580    -3.4920     0.2350 C.3   1 <1>   0.1400 
 17 C       -5.4250    -2.4430    -1.0270 C.3   1 <1>   0.2000 
 18 C       -5.0850    -3.7190    -0.2620 C.3   1 <1>  -0.0800 
 19 O       -6.7900    -2.2050    -0.9750 O.3   1 <1>  -0.6800 
 20 C       -5.2470    -4.9920    -1.1050 C.3   1 <1>   0.0210 
 21 C       -4.8110    -6.2180    -0.3270 C.2   1 <1>   0.1080 
 22 N       -5.3790    -6.5880     0.7780 N.2   1 <1>  -0.7070 
 23 C       -3.7680    -7.0640    -0.6910 C.2   1 <1>  -0.1500 
 24 N       -4.7060    -7.6920     1.1530 N.pl3 1 <1>   0.3000 
 25 C       -3.7250    -8.0000     0.2800 C.2   1 <1>  -0.3320 
 26 C       -2.7910    -9.1870     0.4300 C.3   1 <1>  -0.0600 
 27 H       -2.6940    -0.0110     3.3310 H     1 <1>   0.1500 
 28 H       -2.4780     2.3810     3.5410 H     1 <1>   0.4000 
 29 H       -2.0630     4.8420     2.1300 H     1 <1>   0.1500 
 30 H       -1.5970     6.4230     0.0960 H     1 <1>   0.0800 
 31 H       -2.3210     5.8050    -1.3750 H     1 <1>   0.0800 
 32 H       -0.5990     5.6510    -1.1190 H     1 <1>   0.0800 
 33 H       -5.2460    -0.8060     0.3740 H     1 <1>   0.0800 
 34 H       -4.2530    -0.6450    -1.0790 H     1 <1>   0.0800 
 35 H       -2.9370    -3.8430    -0.4830 H     1 <1>   0.0800 
 36 H       -3.4900    -3.9850     1.1780 H     1 <1>   0.0800 
 37 H       -5.1300    -2.5090    -2.0610 H     1 <1>   0.0800 
 38 H       -5.7110    -3.7950     0.6110 H     1 <1>   0.0800 
 39 H       -7.1190    -2.3270    -0.0640 H     1 <1>   0.4000 
 40 H       -4.6670    -4.9160    -2.0060 H     1 <1>   0.0800 
 41 H       -6.2800    -5.1110    -1.3810 H     1 <1>   0.0800 
 42 H       -3.1450    -6.9680    -1.5630 H     1 <1>   0.1500 
 43 H       -4.9410    -8.2110     2.0080 H     1 <1>   0.2700 
 44 H       -2.0980    -9.2180    -0.3920 H     1 <1>   0.0800 
 45 H       -3.3530   -10.1040     0.4380 H     1 <1>   0.0800 
 46 H       -2.2330    -9.1080     1.3460 H     1 <1>   0.0800 
@<TRIPOS>BOND
  1   1   2  2   
  2   2   3  1   
  3   2   4  1   
  4   3   5  1   
  5   3   6  1   
  6   4   7  1   
  7   4   8  2   
  8   5   9  2   
  9   6  10  1   
 10   6  11  2   
 11   7  12  2   
 12   7  13  am  
 13   8  10  1   
 14   8  27  1   
 15   9  11  1   
 16   9  14  1   
 17  10  28  1   
 18  11  29  1   
 19  13  15  1   
 20  13  16  1   
 21  14  30  1   
 22  14  31  1   
 23  14  32  1   
 24  15  17  1   
 25  15  33  1   
 26  15  34  1   
 27  16  18  1   
 28  16  35  1   
 29  16  36  1   
 30  17  18  1   
 31  17  19  1   
 32  17  37  1   
 33  18  20  1   
 34  18  38  1   
 35  19  39  1   
 36  20  21  1   
 37  20  40  1   
 38  20  41  1   
 39  21  22  2   
 40  21  23  1   
 41  22  24  1   
 42  23  25  2   
 43  23  42  1   
 44  24  25  1   
 45  24  43  1   
 46  25  26  1   
 47  26  44  1   
 48  26  45  1   
 49  26  46  1   
@<TRIPOS>SUBSTRUCTURE
  1 ****  13 GROUP 4 **** **** 0

# MOE 2024.06 (io_trps.svl 2023.06)
