@<TRIPOS>MOLECULE
NONAME
43 45 1 0 0 
SMALL
USER_CHARGES


@<TRIPOS>ATOM
  1 O        0.0870     1.5320    -0.6820 O.2   1 <1>  -0.5700 
  2 C        1.2070     1.1840    -0.3570 C.2   1 <1>   0.5440 
  3 N        2.0650     2.1040     0.1820 N.am  1 <1>  -0.7300 
  4 C        1.6340    -0.1730    -0.5700 C.ar  1 <1>   0.0860 
  5 C        1.7510     3.5340     0.4320 C.3   1 <1>   0.0600 
  6 C        1.0290    -1.2480     0.1070 C.ar  1 <1>   0.4100 
  7 C        2.6470    -0.4580    -1.4740 C.ar  1 <1>  -0.1500 
  8 N        1.3290    -2.5320    -0.1270 N.ar  1 <1>  -0.6200 
  9 N        0.0620    -1.0220     1.0720 N.3   1 <1>  -0.5900 
 10 C        2.9860    -1.7750    -1.6780 C.ar  1 <1>  -0.1500 
 11 C        2.3020    -2.7610    -0.9910 C.ar  1 <1>   0.1600 
 12 C       -1.3710    -0.7820     0.6690 C.3   1 <1>   0.2450 
 13 C       -0.4520    -2.0340     2.0710 C.3   1 <1>   0.2450 
 14 C       -1.6820    -2.2350     1.1390 C.3   1 <1>   0.4720 
 15 N       -1.4610    -3.2980     0.0970 N.4   1 <1>  -0.9280 
 16 C       -2.3380    -3.1440    -1.0960 C.3   1 <1>   0.3430 
 17 C       -1.5110    -4.6670     0.6760 C.3   1 <1>   0.3430 
 18 C       -1.9020    -4.1330    -2.1780 C.3   1 <1>  -0.1600 
 19 C       -1.0620    -5.6830    -0.3770 C.3   1 <1>  -0.1600 
 20 C       -1.8940    -5.5780    -1.6620 C.3   1 <1>  -0.1600 
 21 H        2.9850     1.7930     0.5020 H     1 <1>   0.3700 
 22 H        0.7670     3.7760     0.0650 H     1 <1>   0.0800 
 23 H        2.4690     4.1580    -0.0700 H     1 <1>   0.0800 
 24 H        1.7830     3.7340     1.4890 H     1 <1>   0.0800 
 25 H        3.1460     0.3360    -2.0050 H     1 <1>   0.1500 
 26 H        3.7700    -2.0400    -2.3660 H     1 <1>   0.1500 
 27 H        2.5780    -3.7880    -1.1670 H     1 <1>   0.1500 
 28 H       -1.4860    -0.6180    -0.3870 H     1 <1>   0.0000 
 29 H       -1.8220    -0.0210     1.2810 H     1 <1>   0.0000 
 30 H       -0.6930    -1.5620     3.0070 H     1 <1>   0.0000 
 31 H        0.1810    -2.8970     2.1750 H     1 <1>   0.0000 
 32 H       -2.6220    -2.3470     1.6500 H     1 <1>   0.0000 
 33 H       -0.4780    -3.1410    -0.2090 H     1 <1>   0.4500 
 34 H       -2.2680    -2.1410    -1.4850 H     1 <1>   0.0800 
 35 H       -3.3630    -3.3350    -0.8220 H     1 <1>   0.0800 
 36 H       -2.5170    -4.8930     0.9910 H     1 <1>   0.0800 
 37 H       -0.8600    -4.7320     1.5330 H     1 <1>   0.0800 
 38 H       -0.9200    -3.8630    -2.5280 H     1 <1>   0.0800 
 39 H       -2.5730    -4.0560    -3.0160 H     1 <1>   0.0800 
 40 H       -1.1550    -6.6750     0.0290 H     1 <1>   0.0800 
 41 H       -0.0210    -5.5220    -0.5990 H     1 <1>   0.0800 
 42 H       -1.4880    -6.2330    -2.4150 H     1 <1>   0.0800 
 43 H       -2.9050    -5.8950    -1.4630 H     1 <1>   0.0800 
@<TRIPOS>BOND
  1   1   2  2   
  2   2   3  am  
  3   2   4  1   
  4   3   5  1   
  5   3  21  1   
  6   4   6  ar  
  7   4   7  ar  
  8   5  22  1   
  9   5  23  1   
 10   5  24  1   
 11   6   8  ar  
 12   6   9  1   
 13   7  10  ar  
 14   7  25  1   
 15   8  11  ar  
 16   9  12  1   
 17   9  13  1   
 18  10  11  ar  
 19  10  26  1   
 20  11  27  1   
 21  12  14  1   
 22  12  28  1   
 23  12  29  1   
 24  13  14  1   
 25  13  30  1   
 26  13  31  1   
 27  14  15  1   
 28  14  32  1   
 29  15  16  1   
 30  15  17  1   
 31  15  33  1   
 32  16  18  1   
 33  16  34  1   
 34  16  35  1   
 35  17  19  1   
 36  17  36  1   
 37  17  37  1   
 38  18  20  1   
 39  18  38  1   
 40  18  39  1   
 41  19  20  1   
 42  19  40  1   
 43  19  41  1   
 44  20  42  1   
 45  20  43  1   
@<TRIPOS>SUBSTRUCTURE
  1 ****   6 GROUP 4 **** **** 0

# MOE 2024.06 (io_trps.svl 2023.06)
