@<TRIPOS>MOLECULE
NONAME
46 49 1 0 0 
SMALL
USER_CHARGES


@<TRIPOS>ATOM
  1 F       -2.0840    -2.4070    -2.8220 F     1 <1>  -0.1900 
  2 C       -1.0460    -2.5450    -2.0290 C.ar  1 <1>   0.1900 
  3 C       -1.2230    -2.6910    -0.6530 C.ar  1 <1>   0.1000 
  4 C        0.2110    -2.5540    -2.6000 C.ar  1 <1>   0.1600 
  5 N       -2.4390    -2.6950     0.0370 N.pl3 1 <1>  -0.8380 
  6 C       -0.0400    -2.8430     0.0510 C.ar  1 <1>  -0.1500 
  7 N        1.3420    -2.7000    -1.9150 N.ar  1 <1>  -0.6200 
  8 C       -3.5540    -1.7810    -0.3710 C.3   1 <1>   0.2090 
  9 C       -2.9060    -3.9600     0.6610 C.3   1 <1>   0.2090 
 10 C        1.1800    -2.8400    -0.6060 C.ar  1 <1>   0.1600 
 11 C       -4.4170    -1.4020     0.8490 C.3   1 <1>   0.1440 
 12 C       -3.7570    -3.6350     1.8950 C.3   1 <1>  -0.1600 
 13 C       -5.5550    -0.5150     0.3810 C.ar  1 <1>   0.1670 
 14 C       -4.9190    -2.6830     1.5520 C.3   1 <1>  -0.1600 
 15 C       -3.6430    -0.4690     1.8200 C.3   1 <1>  -0.1600 
 16 N       -6.6030    -0.9160    -0.2940 N.ar  1 <1>  -0.6200 
 17 C       -5.3560     0.7850     0.7370 C.ar  1 <1>  -0.1430 
 18 C       -4.0640     0.9730     1.4910 C.3   1 <1>  -0.0170 
 19 C       -7.4820     0.0400    -0.6070 C.ar  1 <1>   0.7200 
 20 C       -6.3120     1.6990     0.3720 C.ar  1 <1>   0.1600 
 21 N       -7.3790     1.3370    -0.3000 N.ar  1 <1>  -0.6200 
 22 N       -8.6010    -0.3490    -1.3180 N.pl3 1 <1>  -0.8380 
 23 C       -9.4920     0.6360    -1.9900 C.3   1 <1>   0.1290 
 24 C       -8.9910    -1.7790    -1.4590 C.3   1 <1>   0.1290 
 25 H        0.2920    -2.4400    -3.6660 H     1 <1>   0.1500 
 26 H       -0.0780    -2.9570     1.1170 H     1 <1>   0.1500 
 27 H       -4.1710    -2.2770    -1.1020 H     1 <1>   0.0800 
 28 H       -3.1510    -0.8910    -0.8220 H     1 <1>   0.0800 
 29 H       -2.0620    -4.5660     0.9440 H     1 <1>   0.0800 
 30 H       -3.4930    -4.5100    -0.0550 H     1 <1>   0.0800 
 31 H        2.0760    -2.9590    -0.0210 H     1 <1>   0.1500 
 32 H       -3.1240    -3.1900     2.6420 H     1 <1>   0.0800 
 33 H       -4.1500    -4.5490     2.3020 H     1 <1>   0.0800 
 34 H       -5.5990    -3.1940     0.8930 H     1 <1>   0.0800 
 35 H       -5.4670    -2.4270     2.4420 H     1 <1>   0.0800 
 36 H       -2.5770    -0.5980     1.7470 H     1 <1>   0.0800 
 37 H       -3.9380    -0.6810     2.8330 H     1 <1>   0.0800 
 38 H       -3.3370     1.4440     0.8510 H     1 <1>   0.0800 
 39 H       -4.2030     1.5580     2.3830 H     1 <1>   0.0800 
 40 H       -6.2000     2.7370     0.6320 H     1 <1>   0.1500 
 41 H       -8.9380     1.5140    -2.2750 H     1 <1>   0.0800 
 42 H      -10.2810     0.9230    -1.3180 H     1 <1>   0.0800 
 43 H       -9.9190     0.2040    -2.8780 H     1 <1>   0.0800 
 44 H       -8.6550    -2.3480    -0.6090 H     1 <1>   0.0800 
 45 H       -8.5470    -2.1860    -2.3500 H     1 <1>   0.0800 
 46 H      -10.0620    -1.8660    -1.5220 H     1 <1>   0.0800 
@<TRIPOS>BOND
  1   1   2  1   
  2   2   3  ar  
  3   2   4  ar  
  4   3   5  1   
  5   3   6  ar  
  6   4   7  ar  
  7   4  25  1   
  8   5   8  1   
  9   5   9  1   
 10   6  10  ar  
 11   6  26  1   
 12   7  10  ar  
 13   8  11  1   
 14   8  27  1   
 15   8  28  1   
 16   9  12  1   
 17   9  29  1   
 18   9  30  1   
 19  10  31  1   
 20  11  13  1   
 21  11  14  1   
 22  11  15  1   
 23  12  14  1   
 24  12  32  1   
 25  12  33  1   
 26  13  16  ar  
 27  13  17  ar  
 28  14  34  1   
 29  14  35  1   
 30  15  18  1   
 31  15  36  1   
 32  15  37  1   
 33  16  19  ar  
 34  17  18  1   
 35  17  20  ar  
 36  18  38  1   
 37  18  39  1   
 38  19  21  ar  
 39  19  22  1   
 40  20  21  ar  
 41  20  40  1   
 42  22  23  1   
 43  22  24  1   
 44  23  41  1   
 45  23  42  1   
 46  23  43  1   
 47  24  44  1   
 48  24  45  1   
 49  24  46  1   
@<TRIPOS>SUBSTRUCTURE
  1 ****   8 GROUP 4 **** **** 0

# MOE 2024.06 (io_trps.svl 2023.06)
