@<TRIPOS>MOLECULE
NONAME
58 62 1 0 0 
SMALL
USER_CHARGES


@<TRIPOS>ATOM
  1 O        0.2570    -0.0800    -1.0920 O.2   1 <1>  -0.5700 
  2 C       -0.7130     0.6320    -0.9900 C.2   1 <1>   0.5690 
  3 N       -1.9770     0.1240    -0.8630 N.am  1 <1>  -0.6600 
  4 C       -0.4920     2.1280    -0.9750 C.3   1 <1>  -0.0990 
  5 C       -3.2260     0.9070    -0.6690 C.3   1 <1>   0.1400 
  6 C       -2.2510    -1.3270    -0.7510 C.3   1 <1>   0.1400 
  7 C       -0.3010     2.6230     0.4610 C.3   1 <1>   0.0210 
  8 C       -4.3080    -0.1330    -0.3660 C.3   1 <1>   0.2000 
  9 C       -3.5650    -1.4100     0.0260 C.3   1 <1>  -0.0800 
 10 C       -0.4950     4.1210     0.5270 C.2   1 <1>   0.1080 
 11 O       -5.1280     0.2720     0.6760 O.3   1 <1>  -0.6800 
 12 C       -4.3800    -2.6810    -0.2610 C.3   1 <1>  -0.0160 
 13 N       -1.6750     4.6580     0.6050 N.2   1 <1>  -0.7070 
 14 C        0.5150     5.0780     0.5020 C.2   1 <1>  -0.1810 
 15 C       -3.6040    -3.9300     0.1190 C.ar  1 <1>   0.1670 
 16 N       -1.4440     5.9860     0.6350 N.pl3 1 <1>   0.3000 
 17 C       -0.1260     6.2590     0.5670 C.2   1 <1>  -0.3320 
 18 C        2.0230     4.9390     0.4110 C.3   1 <1>   0.0210 
 19 N       -2.8480    -4.4640    -0.7890 N.ar  1 <1>  -0.6200 
 20 C       -3.7320    -4.4380     1.4220 C.ar  1 <1>  -0.1500 
 21 C        0.5390     7.6220     0.5720 C.3   1 <1>   0.0200 
 22 C        2.7010     6.2700     0.7910 C.3   1 <1>  -0.1600 
 23 C       -2.1400    -5.5730    -0.4520 C.ar  1 <1>   0.3100 
 24 C       -3.0360    -5.5500     1.7870 C.ar  1 <1>  -0.1500 
 25 C        2.0080     7.4820     0.1330 C.3   1 <1>  -0.1600 
 26 C       -2.2020    -6.1550     0.8330 C.ar  1 <1>   0.0000 
 27 C       -1.3080    -6.1670    -1.4150 C.ar  1 <1>  -0.1500 
 28 C       -1.4340    -7.3050     1.1020 C.ar  1 <1>  -0.1500 
 29 C       -0.5690    -7.2850    -1.1330 C.ar  1 <1>  -0.1500 
 30 C       -0.6330    -7.8600     0.1400 C.ar  1 <1>  -0.1500 
 31 H        0.3800     2.3650    -1.5550 H     1 <1>   0.0800 
 32 H       -1.3280     2.6260    -1.4300 H     1 <1>   0.0800 
 33 H       -3.1070     1.5940     0.1500 H     1 <1>   0.0800 
 34 H       -3.4670     1.4460    -1.5690 H     1 <1>   0.0800 
 35 H       -2.3580    -1.7420    -1.7390 H     1 <1>   0.0800 
 36 H       -1.4530    -1.8390    -0.2380 H     1 <1>   0.0800 
 37 H        0.6770     2.3520     0.8160 H     1 <1>   0.0800 
 38 H       -1.0240     2.1650     1.1110 H     1 <1>   0.0800 
 39 H       -4.9200    -0.2870    -1.2390 H     1 <1>   0.0800 
 40 H       -3.3150    -1.3740     1.0720 H     1 <1>   0.0800 
 41 H       -4.5920     0.4880     1.4640 H     1 <1>   0.4000 
 42 H       -4.6280    -2.7290    -1.3070 H     1 <1>   0.0800 
 43 H       -5.3030    -2.6480     0.2890 H     1 <1>   0.0800 
 44 H       -2.2030     6.6740     0.7000 H     1 <1>   0.2700 
 45 H        2.3640     4.1590     1.0670 H     1 <1>   0.0800 
 46 H        2.2820     4.6740    -0.5990 H     1 <1>   0.0800 
 47 H       -4.3810    -3.9390     2.1190 H     1 <1>   0.1500 
 48 H        0.0250     8.2920    -0.0940 H     1 <1>   0.0800 
 49 H        0.4950     8.0270     1.5680 H     1 <1>   0.0800 
 50 H        2.6590     6.3860     1.8600 H     1 <1>   0.0800 
 51 H        3.7370     6.2380     0.5020 H     1 <1>   0.0800 
 52 H       -3.1080    -5.9680     2.7750 H     1 <1>   0.1500 
 53 H        2.0390     7.3580    -0.9360 H     1 <1>   0.0800 
 54 H        2.5410     8.3850     0.3750 H     1 <1>   0.0800 
 55 H       -1.2720    -5.7090    -2.3860 H     1 <1>   0.1500 
 56 H       -1.4870    -7.7420     2.0830 H     1 <1>   0.1500 
 57 H        0.0650    -7.7290    -1.8810 H     1 <1>   0.1500 
 58 H       -0.0460    -8.7380     0.3480 H     1 <1>   0.1500 
@<TRIPOS>BOND
  1   1   2  2   
  2   2   3  am  
  3   2   4  1   
  4   3   5  1   
  5   3   6  1   
  6   4   7  1   
  7   4  31  1   
  8   4  32  1   
  9   5   8  1   
 10   5  33  1   
 11   5  34  1   
 12   6   9  1   
 13   6  35  1   
 14   6  36  1   
 15   7  10  1   
 16   7  37  1   
 17   7  38  1   
 18   8   9  1   
 19   8  11  1   
 20   8  39  1   
 21   9  12  1   
 22   9  40  1   
 23  10  13  2   
 24  10  14  1   
 25  11  41  1   
 26  12  15  1   
 27  12  42  1   
 28  12  43  1   
 29  13  16  1   
 30  14  17  2   
 31  14  18  1   
 32  15  19  ar  
 33  15  20  ar  
 34  16  17  1   
 35  16  44  1   
 36  17  21  1   
 37  18  22  1   
 38  18  45  1   
 39  18  46  1   
 40  19  23  ar  
 41  20  24  ar  
 42  20  47  1   
 43  21  25  1   
 44  21  48  1   
 45  21  49  1   
 46  22  25  1   
 47  22  50  1   
 48  22  51  1   
 49  23  26  ar  
 50  23  27  ar  
 51  24  26  ar  
 52  24  52  1   
 53  25  53  1   
 54  25  54  1   
 55  26  28  ar  
 56  27  29  ar  
 57  27  55  1   
 58  28  30  ar  
 59  28  56  1   
 60  29  30  ar  
 61  29  57  1   
 62  30  58  1   
@<TRIPOS>SUBSTRUCTURE
  1 ****   3 GROUP 4 **** **** 0

# MOE 2024.06 (io_trps.svl 2023.06)
