@<TRIPOS>MOLECULE
NONAME
53 56 1 0 0 
SMALL
USER_CHARGES


@<TRIPOS>ATOM
  1 O       -1.1910     0.1460     0.7640 O.2   1 <1>  -0.5700 
  2 C       -1.9790     1.0630     0.9190 C.2   1 <1>   0.7160 
  3 N       -3.2930     0.7440     1.1750 N.am  1 <1>  -0.6600 
  4 C       -1.5460     2.4370     0.8140 C.2   1 <1>  -0.0860 
  5 C       -3.6610    -0.6370     1.6010 C.3   1 <1>   0.1400 
  6 C       -4.4170     1.4780     0.5250 C.3   1 <1>   0.1400 
  7 C       -0.6240     3.0570     0.0230 C.2   1 <1>  -0.3320 
  8 C       -2.0470     3.4780     1.5960 C.2   1 <1>   0.1390 
  9 C       -4.0500    -1.4410     0.3410 C.3   1 <1>   0.4230 
 10 C       -4.9070     0.6730    -0.6930 C.3   1 <1>  -0.1600 
 11 N       -0.5970     4.3860     0.3390 N.pl3 1 <1>   0.5930 
 12 C        0.2450     2.4110    -1.0520 C.3   1 <1>  -0.0600 
 13 N       -1.5140     4.6210     1.3240 N.2   1 <1>  -0.7070 
 14 N       -4.3020    -2.9040     0.5650 N.4   1 <1>  -0.9590 
 15 C       -5.2810    -0.7980    -0.3400 C.3   1 <1>  -0.1060 
 16 C        0.1830     5.4510    -0.2430 C.ar  1 <1>   0.2870 
 17 C       -4.5760    -3.6700    -0.6880 C.3   1 <1>   0.3430 
 18 C       -3.3420    -3.5980     1.4630 C.3   1 <1>   0.2630 
 19 C       -6.4490    -0.8510     0.6630 C.2   1 <1>   0.9060 
 20 C       -5.6730    -1.5680    -1.6350 C.3   1 <1>  -0.1600 
 21 N        1.4170     5.1930    -0.7000 N.ar  1 <1>  -0.6200 
 22 C       -0.3720     6.7300    -0.3120 C.ar  1 <1>  -0.1500 
 23 C       -4.7500    -2.7650    -1.9160 C.3   1 <1>  -0.1600 
 24 O       -6.6150    -1.8960     1.3120 O.co2 1 <1>  -0.9000 
 25 O       -7.1670     0.1320     0.8280 O.co2 1 <1>  -0.9000 
 26 C        2.0850     6.2090    -1.2190 C.ar  1 <1>   0.1600 
 27 C        0.3340     7.7790    -0.8580 C.ar  1 <1>  -0.1500 
 28 C        1.6000     7.4990    -1.3220 C.ar  1 <1>  -0.1500 
 29 H       -2.8190    -1.0880     2.0940 H     1 <1>   0.0800 
 30 H       -4.4780    -0.5900     2.3010 H     1 <1>   0.0800 
 31 H       -5.2170     1.6080     1.2360 H     1 <1>   0.0800 
 32 H       -4.1060     2.4550     0.2000 H     1 <1>   0.0800 
 33 H       -2.8040     3.3420     2.3520 H     1 <1>   0.1500 
 34 H       -3.2140    -1.3570    -0.3330 H     1 <1>   0.0800 
 35 H       -5.7700     1.1720    -1.1020 H     1 <1>   0.0800 
 36 H       -4.1390     0.6900    -1.4460 H     1 <1>   0.0800 
 37 H       -0.0370     1.3870    -1.2150 H     1 <1>   0.0800 
 38 H        1.2780     2.4320    -0.7510 H     1 <1>   0.0800 
 39 H        0.1460     2.9420    -1.9820 H     1 <1>   0.0800 
 40 H       -5.2390    -2.8530     1.0510 H     1 <1>   0.4500 
 41 H       -3.7720    -4.3620    -0.8780 H     1 <1>   0.0800 
 42 H       -5.4800    -4.2420    -0.5470 H     1 <1>   0.0800 
 43 H       -2.3500    -3.5640     1.0440 H     1 <1>   0.0800 
 44 H       -3.6350    -4.6260     1.5940 H     1 <1>   0.0800 
 45 H       -3.3300    -3.1240     2.4310 H     1 <1>   0.0800 
 46 H       -6.6830    -1.9320    -1.5350 H     1 <1>   0.0800 
 47 H       -5.6710    -0.9110    -2.4880 H     1 <1>   0.0800 
 48 H       -1.3640     6.8990     0.0690 H     1 <1>   0.1500 
 49 H       -3.7850    -2.4140    -2.2360 H     1 <1>   0.0800 
 50 H       -5.1570    -3.3480    -2.7240 H     1 <1>   0.0800 
 51 H        3.0770     6.0020    -1.5830 H     1 <1>   0.1500 
 52 H       -0.0820     8.7700    -0.9160 H     1 <1>   0.1500 
 53 H        2.2060     8.2730    -1.7580 H     1 <1>   0.1500 
@<TRIPOS>BOND
  1   1   2  2   
  2   2   3  am  
  3   2   4  1   
  4   3   5  1   
  5   3   6  1   
  6   4   7  2   
  7   4   8  1   
  8   5   9  1   
  9   5  29  1   
 10   5  30  1   
 11   6  10  1   
 12   6  31  1   
 13   6  32  1   
 14   7  11  1   
 15   7  12  1   
 16   8  13  2   
 17   8  33  1   
 18   9  14  1   
 19   9  15  1   
 20   9  34  1   
 21  10  15  1   
 22  10  35  1   
 23  10  36  1   
 24  11  13  1   
 25  11  16  1   
 26  12  37  1   
 27  12  38  1   
 28  12  39  1   
 29  14  17  1   
 30  14  18  1   
 31  14  40  1   
 32  15  19  1   
 33  15  20  1   
 34  16  21  ar  
 35  16  22  ar  
 36  17  23  1   
 37  17  41  1   
 38  17  42  1   
 39  18  43  1   
 40  18  44  1   
 41  18  45  1   
 42  19  24  ar  
 43  19  25  ar  
 44  20  23  1   
 45  20  46  1   
 46  20  47  1   
 47  21  26  ar  
 48  22  27  ar  
 49  22  48  1   
 50  23  49  1   
 51  23  50  1   
 52  26  28  ar  
 53  26  51  1   
 54  27  28  ar  
 55  27  52  1   
 56  28  53  1   
@<TRIPOS>SUBSTRUCTURE
  1 ****   2 GROUP 4 **** **** 0

# MOE 2024.06 (io_trps.svl 2023.06)
