@<TRIPOS>MOLECULE
NONAME
51 53 1 0 0 
SMALL
USER_CHARGES


@<TRIPOS>ATOM
  1 F       -2.0370    -2.0120    -3.1600 F     1 <1>  -0.1900 
  2 C       -2.2960    -2.8990    -2.2330 C.ar  1 <1>   0.1900 
  3 C       -1.2890    -3.6650    -1.6360 C.ar  1 <1>   0.0830 
  4 C       -3.6220    -3.0420    -1.8720 C.ar  1 <1>  -0.1500 
  5 O        0.0480    -3.6160    -1.9040 O.3   1 <1>  -0.3630 
  6 C       -1.6670    -4.5790    -0.6660 C.ar  1 <1>  -0.1500 
  7 C       -3.9620    -3.9620    -0.8990 C.ar  1 <1>  -0.1500 
  8 C        0.6120    -2.7370    -2.8530 C.3   1 <1>   0.0400 
  9 C       -2.9970    -4.7550    -0.2730 C.ar  1 <1>   0.0530 
 10 C       -3.3470    -5.7180     0.7460 C.2   1 <1>   0.0870 
 11 O       -2.4220    -6.1760     1.5620 O.3   1 <1>  -0.0190 
 12 C       -4.5040    -6.3420     1.0900 C.2   1 <1>  -0.2330 
 13 N       -2.8820    -7.0490     2.4210 N.2   1 <1>  -0.4100 
 14 C       -4.1360    -7.1380     2.1700 C.2   1 <1>   0.3720 
 15 C       -5.8020    -6.3990     0.4990 C.2   1 <1>   1.0330 
 16 N       -5.0240    -7.9510     2.8590 N.pl3 1 <1>  -0.8520 
 17 O       -5.9270    -6.4030    -0.7360 O.co2 1 <1>  -0.9000 
 18 O       -6.8050    -6.7000     1.1710 O.co2 1 <1>  -0.9000 
 19 C       -4.8390    -9.4110     2.7650 C.3   1 <1>   0.2090 
 20 C       -5.7060    -9.9830     1.6340 C.3   1 <1>  -0.1600 
 21 C       -5.2180    -9.5670     0.2320 C.3   1 <1>   0.4230 
 22 N       -6.2480    -9.8070    -0.8190 N.4   1 <1>  -0.9590 
 23 C       -3.9460   -10.3320    -0.1470 C.3   1 <1>  -0.2400 
 24 C       -5.8570    -9.2030    -2.1210 C.3   1 <1>   0.3430 
 25 C       -7.5600    -9.1520    -0.5540 C.3   1 <1>   0.3430 
 26 C       -7.1460    -9.1310    -2.9290 C.3   1 <1>  -0.1600 
 27 C       -8.2710    -9.1800    -1.8960 C.3   1 <1>  -0.1600 
 28 H       -4.3770    -2.4430    -2.3470 H     1 <1>   0.1500 
 29 H       -0.8990    -5.1710    -0.2030 H     1 <1>   0.1500 
 30 H       -4.9970    -4.0660    -0.6240 H     1 <1>   0.1500 
 31 H        1.6750    -2.8960    -2.8640 H     1 <1>   0.0800 
 32 H        0.3980    -1.7240    -2.5620 H     1 <1>   0.0800 
 33 H        0.2010    -2.9560    -3.8220 H     1 <1>   0.0800 
 34 H       -5.9840    -7.6600     2.5750 H     1 <1>   0.4000 
 35 H       -5.1450    -9.8440     3.7020 H     1 <1>   0.0800 
 36 H       -3.7960    -9.6410     2.6290 H     1 <1>   0.0800 
 37 H       -6.7070    -9.6420     1.8180 H     1 <1>   0.0800 
 38 H       -5.7030   -11.0550     1.7080 H     1 <1>   0.0800 
 39 H       -4.9870    -8.5210     0.2430 H     1 <1>   0.0800 
 40 H       -6.4010   -10.8090    -0.9420 H     1 <1>   0.4500 
 41 H       -4.1340   -11.3880    -0.2090 H     1 <1>   0.0800 
 42 H       -3.1830   -10.1670     0.5910 H     1 <1>   0.0800 
 43 H       -3.5450    -9.9810    -1.0800 H     1 <1>   0.0800 
 44 H       -5.1030    -9.7840    -2.6240 H     1 <1>   0.0800 
 45 H       -5.4860    -8.2030    -1.9580 H     1 <1>   0.0800 
 46 H       -7.4090    -8.1250    -0.2760 H     1 <1>   0.0800 
 47 H       -8.1240    -9.6510     0.2160 H     1 <1>   0.0800 
 48 H       -7.2120    -9.9600    -3.6110 H     1 <1>   0.0800 
 49 H       -7.1670    -8.2120    -3.4890 H     1 <1>   0.0800 
 50 H       -8.9310    -8.3330    -1.9810 H     1 <1>   0.0800 
 51 H       -8.8430   -10.0850    -1.9910 H     1 <1>   0.0800 
@<TRIPOS>BOND
  1   1   2  1   
  2   2   3  ar  
  3   2   4  ar  
  4   3   5  1   
  5   3   6  ar  
  6   4   7  ar  
  7   4  28  1   
  8   5   8  1   
  9   6   9  ar  
 10   6  29  1   
 11   7   9  ar  
 12   7  30  1   
 13   8  31  1   
 14   8  32  1   
 15   8  33  1   
 16   9  10  1   
 17  10  11  1   
 18  10  12  2   
 19  11  13  1   
 20  12  14  1   
 21  12  15  1   
 22  13  14  2   
 23  14  16  1   
 24  15  17  ar  
 25  15  18  ar  
 26  16  19  1   
 27  16  34  1   
 28  19  20  1   
 29  19  35  1   
 30  19  36  1   
 31  20  21  1   
 32  20  37  1   
 33  20  38  1   
 34  21  22  1   
 35  21  23  1   
 36  21  39  1   
 37  22  24  1   
 38  22  25  1   
 39  22  40  1   
 40  23  41  1   
 41  23  42  1   
 42  23  43  1   
 43  24  26  1   
 44  24  44  1   
 45  24  45  1   
 46  25  27  1   
 47  25  46  1   
 48  25  47  1   
 49  26  27  1   
 50  26  48  1   
 51  26  49  1   
 52  27  50  1   
 53  27  51  1   
@<TRIPOS>SUBSTRUCTURE
  1 ****  12 GROUP 4 **** **** 0

# MOE 2024.06 (io_trps.svl 2023.06)
