@<TRIPOS>MOLECULE
NONAME
56 59 1 0 0 
SMALL
USER_CHARGES


@<TRIPOS>ATOM
  1 S       -0.2060     0.4720    -0.0470 S.3   1 <1>  -0.3310 
  2 C       -0.4740    -1.2560     0.3250 C.ar  1 <1>   0.4120 
  3 C        1.5710     0.7360     0.3790 C.3   1 <1>   0.2140 
  4 N        0.5660    -1.9240     0.7970 N.ar  1 <1>  -0.6200 
  5 C       -1.7370    -1.7740     0.0960 C.ar  1 <1>  -0.1500 
  6 C        1.9180     2.1910     0.1060 C.ar  1 <1>  -0.1440 
  7 C        0.3210    -3.1990     1.0590 C.ar  1 <1>   0.1600 
  8 C       -1.9690    -3.1030     0.3760 C.ar  1 <1>  -0.1500 
  9 C        1.4760     3.1870     0.9590 C.ar  1 <1>  -0.1500 
 10 C        2.6830     2.5380    -0.9950 C.ar  1 <1>  -0.1500 
 11 C       -0.9020    -3.8250     0.8710 C.ar  1 <1>  -0.1500 
 12 C        1.7930     4.5110     0.7150 C.ar  1 <1>  -0.1500 
 13 C        2.9980     3.8620    -1.2360 C.ar  1 <1>  -0.1500 
 14 C        2.5580     4.8820    -0.3930 C.ar  1 <1>   0.0860 
 15 C        2.8900     6.2690    -0.6690 C.2   1 <1>   0.5440 
 16 O        3.8980     6.5750    -1.2770 O.2   1 <1>  -0.5700 
 17 N        2.0840     7.2910    -0.2540 N.am  1 <1>  -0.7300 
 18 C        2.3290     8.7250    -0.5710 C.3   1 <1>   0.2200 
 19 C        3.6210     9.2070     0.1170 C.3   1 <1>   0.4230 
 20 C        1.2540     9.6170     0.0380 C.3   1 <1>   0.1200 
 21 N        4.5290    10.0250    -0.7780 N.4   1 <1>  -0.9590 
 22 C        3.0940     9.9860     1.3380 C.3   1 <1>   0.1200 
 23 O        1.7020     9.9180     1.3160 O.3   1 <1>  -0.5600 
 24 C        5.0050     9.1950    -1.9340 C.3   1 <1>   0.3430 
 25 C        5.7060    10.5660    -0.0320 C.3   1 <1>   0.3430 
 26 C        5.8070    10.0640    -2.9040 C.3   1 <1>  -0.1600 
 27 C        6.5250    11.4790    -0.9460 C.3   1 <1>  -0.1600 
 28 C        6.9930    10.7420    -2.2070 C.3   1 <1>  -0.1600 
 29 H        1.6920     0.4880     1.4190 H     1 <1>   0.0800 
 30 H        2.1480     0.0610    -0.2270 H     1 <1>   0.0800 
 31 H       -2.5130    -1.1400    -0.2920 H     1 <1>   0.1500 
 32 H        1.1410    -3.7800     1.4460 H     1 <1>   0.1500 
 33 H       -2.9340    -3.5550     0.2170 H     1 <1>   0.1500 
 34 H        0.8790     2.9280     1.8180 H     1 <1>   0.1500 
 35 H        3.0350     1.7770    -1.6710 H     1 <1>   0.1500 
 36 H       -1.0150    -4.8680     1.1100 H     1 <1>   0.1500 
 37 H        1.4420     5.2580     1.4030 H     1 <1>   0.1500 
 38 H        3.5950     4.1130    -2.0960 H     1 <1>   0.1500 
 39 H        1.2050     7.0750     0.2270 H     1 <1>   0.3700 
 40 H        2.3480     8.8420    -1.6400 H     1 <1>   0.0800 
 41 H        4.1690     8.3450     0.4610 H     1 <1>   0.0800 
 42 H        0.2910     9.1410     0.0950 H     1 <1>   0.0800 
 43 H        1.1680    10.5430    -0.5050 H     1 <1>   0.0800 
 44 H        4.0030    10.8210    -1.1580 H     1 <1>   0.4500 
 45 H        3.3650    11.0260     1.3100 H     1 <1>   0.0800 
 46 H        3.4290     9.5410     2.2580 H     1 <1>   0.0800 
 47 H        5.6220     8.3870    -1.5740 H     1 <1>   0.0800 
 48 H        4.1710     8.7570    -2.4580 H     1 <1>   0.0800 
 49 H        5.3830    11.1300     0.8280 H     1 <1>   0.0800 
 50 H        6.3260     9.7520     0.3100 H     1 <1>   0.0800 
 51 H        6.1730     9.4460    -3.7050 H     1 <1>   0.0800 
 52 H        5.1610    10.8060    -3.3400 H     1 <1>   0.0800 
 53 H        5.9370    12.3380    -1.2180 H     1 <1>   0.0800 
 54 H        7.3850    11.8370    -0.4070 H     1 <1>   0.0800 
 55 H        7.4700    11.4340    -2.8830 H     1 <1>   0.0800 
 56 H        7.7220     9.9960    -1.9370 H     1 <1>   0.0800 
@<TRIPOS>BOND
  1   1   2  1   
  2   1   3  1   
  3   2   4  ar  
  4   2   5  ar  
  5   3   6  1   
  6   3  29  1   
  7   3  30  1   
  8   4   7  ar  
  9   5   8  ar  
 10   5  31  1   
 11   6   9  ar  
 12   6  10  ar  
 13   7  11  ar  
 14   7  32  1   
 15   8  11  ar  
 16   8  33  1   
 17   9  12  ar  
 18   9  34  1   
 19  10  13  ar  
 20  10  35  1   
 21  11  36  1   
 22  12  14  ar  
 23  12  37  1   
 24  13  14  ar  
 25  13  38  1   
 26  14  15  1   
 27  15  16  2   
 28  15  17  am  
 29  17  18  1   
 30  17  39  1   
 31  18  19  1   
 32  18  20  1   
 33  18  40  1   
 34  19  21  1   
 35  19  22  1   
 36  19  41  1   
 37  20  23  1   
 38  20  42  1   
 39  20  43  1   
 40  21  24  1   
 41  21  25  1   
 42  21  44  1   
 43  22  23  1   
 44  22  45  1   
 45  22  46  1   
 46  24  26  1   
 47  24  47  1   
 48  24  48  1   
 49  25  27  1   
 50  25  49  1   
 51  25  50  1   
 52  26  28  1   
 53  26  51  1   
 54  26  52  1   
 55  27  28  1   
 56  27  53  1   
 57  27  54  1   
 58  28  55  1   
 59  28  56  1   
@<TRIPOS>SUBSTRUCTURE
  1 ****  14 GROUP 4 **** **** 0

# MOE 2024.06 (io_trps.svl 2023.06)
