@<TRIPOS>MOLECULE
NONAME
59 62 1 0 0 
SMALL
USER_CHARGES


@<TRIPOS>ATOM
  1 O       -0.4240    -0.0040     0.0210 O.2   1 <1>  -0.5700 
  2 C       -1.3900     0.7210    -0.1220 C.2   1 <1>   0.5440 
  3 N       -2.6270     0.1370    -0.2740 N.am  1 <1>  -0.6600 
  4 C       -1.2200     2.1620    -0.1070 C.ar  1 <1>   0.0860 
  5 C       -3.9180     0.7950     0.0550 C.3   1 <1>   0.1400 
  6 C       -2.8100    -1.3380    -0.3320 C.3   1 <1>   0.1400 
  7 C       -0.4230     2.7700     0.8630 C.ar  1 <1>  -0.1500 
  8 C       -1.8370     2.9840    -1.0510 C.ar  1 <1>  -0.1500 
  9 C       -4.7630    -0.3220     0.6640 C.3   1 <1>   0.2000 
 10 C       -4.3100    -1.5730    -0.0990 C.3   1 <1>  -0.0800 
 11 C       -0.2550     4.1490     0.9110 C.ar  1 <1>   0.0830 
 12 C       -1.6830     4.3570    -1.0180 C.ar  1 <1>  -0.1500 
 13 O       -4.4180    -0.4400     2.0020 O.3   1 <1>  -0.6800 
 14 C       -4.6400    -2.9060     0.6060 C.3   1 <1>  -0.0170 
 15 O        0.5180     4.7670     1.8490 O.3   1 <1>  -0.3630 
 16 C       -0.8930     4.9440    -0.0430 C.ar  1 <1>   0.0830 
 17 C       -4.3620    -4.1930    -0.1820 C.ar  1 <1>  -0.1430 
 18 C        1.2460     4.0330     2.8070 C.3   1 <1>   0.0400 
 19 O       -0.7640     6.2900    -0.0150 O.3   1 <1>  -0.3620 
 20 C       -4.4820    -5.4490     0.4660 C.ar  1 <1>   0.0000 
 21 C       -4.0090    -4.2120    -1.5030 C.ar  1 <1>  -0.1500 
 22 C       -0.0260     6.9100    -1.0420 C.3   1 <1>   0.2000 
 23 C       -4.2070    -6.6170    -0.2880 C.ar  1 <1>   0.3100 
 24 C       -4.8640    -5.6160     1.8180 C.ar  1 <1>  -0.1500 
 25 C       -3.7630    -5.4260    -2.1570 C.ar  1 <1>   0.1600 
 26 C        1.4640     6.7830    -0.7230 C.3   1 <1>  -0.2400 
 27 C       -0.4630     8.3720    -1.0960 C.3   1 <1>  -0.2400 
 28 N       -3.8490    -6.5880    -1.5950 N.ar  1 <1>  -0.6200 
 29 C       -4.3130    -7.8720     0.3330 C.ar  1 <1>  -0.1500 
 30 C       -4.9590    -6.8540     2.3940 C.ar  1 <1>  -0.1500 
 31 C       -4.6790    -7.9990     1.6450 C.ar  1 <1>  -0.1500 
 32 H       -3.7960     1.6170     0.7390 H     1 <1>   0.0800 
 33 H       -4.3750     1.1450    -0.8540 H     1 <1>   0.0800 
 34 H       -2.4840    -1.7170    -1.2840 H     1 <1>   0.0800 
 35 H       -2.2250    -1.7990     0.4470 H     1 <1>   0.0800 
 36 H        0.0590     2.1280     1.5750 H     1 <1>   0.1500 
 37 H       -2.4410     2.5360    -1.8200 H     1 <1>   0.1500 
 38 H       -5.8220    -0.1370     0.5970 H     1 <1>   0.0800 
 39 H       -4.8060    -1.5510    -1.0520 H     1 <1>   0.0800 
 40 H       -2.1760     4.9780    -1.7440 H     1 <1>   0.1500 
 41 H       -3.4420    -0.4700     2.0720 H     1 <1>   0.4000 
 42 H       -5.6830    -2.8990     0.8700 H     1 <1>   0.0800 
 43 H       -4.0760    -2.9480     1.5210 H     1 <1>   0.0800 
 44 H        1.7930     4.7320     3.4150 H     1 <1>   0.0800 
 45 H        1.9300     3.3770     2.2990 H     1 <1>   0.0800 
 46 H        0.5580     3.4780     3.4200 H     1 <1>   0.0800 
 47 H       -3.9070    -3.3230    -2.0930 H     1 <1>   0.1500 
 48 H       -0.2540     6.4260    -1.9770 H     1 <1>   0.0800 
 49 H       -5.0910    -4.7540     2.4170 H     1 <1>   0.1500 
 50 H       -3.4840    -5.3880    -3.1960 H     1 <1>   0.1500 
 51 H        1.6750     7.2120     0.2400 H     1 <1>   0.0800 
 52 H        2.0460     7.2930    -1.4670 H     1 <1>   0.0800 
 53 H        1.7540     5.7480    -0.7180 H     1 <1>   0.0800 
 54 H       -0.2620     8.8550    -0.1560 H     1 <1>   0.0800 
 55 H       -1.5150     8.4310    -1.3080 H     1 <1>   0.0800 
 56 H        0.0720     8.8890    -1.8720 H     1 <1>   0.0800 
 57 H       -4.0940    -8.7370    -0.2650 H     1 <1>   0.1500 
 58 H       -5.2500    -6.9620     3.4250 H     1 <1>   0.1500 
 59 H       -4.7560    -8.9670     2.1080 H     1 <1>   0.1500 
@<TRIPOS>BOND
  1   1   2  2   
  2   2   3  am  
  3   2   4  1   
  4   3   5  1   
  5   3   6  1   
  6   4   7  ar  
  7   4   8  ar  
  8   5   9  1   
  9   5  32  1   
 10   5  33  1   
 11   6  10  1   
 12   6  34  1   
 13   6  35  1   
 14   7  11  ar  
 15   7  36  1   
 16   8  12  ar  
 17   8  37  1   
 18   9  10  1   
 19   9  13  1   
 20   9  38  1   
 21  10  14  1   
 22  10  39  1   
 23  11  15  1   
 24  11  16  ar  
 25  12  16  ar  
 26  12  40  1   
 27  13  41  1   
 28  14  17  1   
 29  14  42  1   
 30  14  43  1   
 31  15  18  1   
 32  16  19  1   
 33  17  20  ar  
 34  17  21  ar  
 35  18  44  1   
 36  18  45  1   
 37  18  46  1   
 38  19  22  1   
 39  20  23  ar  
 40  20  24  ar  
 41  21  25  ar  
 42  21  47  1   
 43  22  26  1   
 44  22  27  1   
 45  22  48  1   
 46  23  28  ar  
 47  23  29  ar  
 48  24  30  ar  
 49  24  49  1   
 50  25  28  ar  
 51  25  50  1   
 52  26  51  1   
 53  26  52  1   
 54  26  53  1   
 55  27  54  1   
 56  27  55  1   
 57  27  56  1   
 58  29  31  ar  
 59  29  57  1   
 60  30  31  ar  
 61  30  58  1   
 62  31  59  1   
@<TRIPOS>SUBSTRUCTURE
  1 ****   3 GROUP 4 **** **** 0

# MOE 2024.06 (io_trps.svl 2023.06)
