@<TRIPOS>MOLECULE
NONAME
50 52 1 0 0 
SMALL
USER_CHARGES


@<TRIPOS>ATOM
  1 O       -2.2870     1.5830    -1.3280 O.co2 1 <1>  -0.9000 
  2 C       -1.7800     1.8780    -0.2400 C.2   1 <1>   0.9060 
  3 O       -2.1110     1.2890     0.8020 O.co2 1 <1>  -0.9000 
  4 C       -0.7380     3.0020    -0.1430 C.3   1 <1>  -0.1060 
  5 C       -1.2510     3.9390     0.9780 C.3   1 <1>   0.2000 
  6 C       -0.7390     3.7790    -1.4860 C.3   1 <1>   0.1400 
  7 C        0.6410     2.3030     0.1080 C.3   1 <1>  -0.1600 
  8 O       -1.0820     3.3440     2.2110 O.3   1 <1>  -0.6800 
  9 C       -0.6450     5.3430     1.0140 C.3   1 <1>  -0.1600 
 10 N       -0.1390     5.1530    -1.3880 N.am  1 <1>  -0.6600 
 11 C        1.8530     3.1760     0.4590 C.3   1 <1>  -0.1600 
 12 C       -0.7840     6.0040    -0.3530 C.3   1 <1>   0.1400 
 13 C        0.8820     5.5550    -2.2200 C.2   1 <1>   0.5690 
 14 C        3.1440     2.3540     0.4630 C.3   1 <1>  -0.2400 
 15 O        1.3700     4.8140    -3.0430 O.2   1 <1>  -0.5700 
 16 C        1.4390     6.9740    -2.1710 C.3   1 <1>   0.0440 
 17 C        2.2520     7.2640    -0.9020 C.ar  1 <1>  -0.1430 
 18 C        1.9940     8.3760    -0.0500 C.ar  1 <1>   0.0000 
 19 C        3.2610     6.3860    -0.6020 C.ar  1 <1>  -0.1500 
 20 C        2.7670     8.5060     1.1300 C.ar  1 <1>   0.0000 
 21 C        1.0160     9.3740    -0.2880 C.ar  1 <1>  -0.1500 
 22 C        4.0330     6.5340     0.5510 C.ar  1 <1>  -0.1500 
 23 C        3.7850     7.5720     1.4000 C.ar  1 <1>  -0.1500 
 24 C        2.5120     9.5700     2.0180 C.ar  1 <1>  -0.1500 
 25 C        0.7920    10.3990     0.5880 C.ar  1 <1>  -0.1500 
 26 C        1.5440    10.4980     1.7600 C.ar  1 <1>  -0.1500 
 27 H       -2.3150     4.0530     0.8450 H     1 <1>   0.0800 
 28 H       -1.7560     3.8990    -1.8200 H     1 <1>   0.0800 
 29 H       -0.2360     3.1930    -2.2350 H     1 <1>   0.0800 
 30 H        0.5170     1.5910     0.9080 H     1 <1>   0.0800 
 31 H        0.8750     1.7290    -0.7720 H     1 <1>   0.0800 
 32 H       -1.4350     2.4190     2.0940 H     1 <1>   0.4000 
 33 H       -1.1700     5.9310     1.7430 H     1 <1>   0.0800 
 34 H        0.3900     5.3220     1.2890 H     1 <1>   0.0800 
 35 H        1.9500     3.9700    -0.2530 H     1 <1>   0.0800 
 36 H        1.7150     3.6010     1.4370 H     1 <1>   0.0800 
 37 H       -0.3500     6.9830    -0.3150 H     1 <1>   0.0800 
 38 H       -1.8280     6.1130    -0.5950 H     1 <1>   0.0800 
 39 H        3.3230     1.9390    -0.5130 H     1 <1>   0.0800 
 40 H        3.0710     1.5510     1.1760 H     1 <1>   0.0800 
 41 H        3.9760     2.9800     0.7300 H     1 <1>   0.0800 
 42 H        2.0870     7.1100    -3.0170 H     1 <1>   0.0800 
 43 H        0.6150     7.6380    -2.3090 H     1 <1>   0.0800 
 44 H        3.4760     5.5490    -1.2470 H     1 <1>   0.1500 
 45 H        0.4240     9.3450    -1.1790 H     1 <1>   0.1500 
 46 H        4.8100     5.8190     0.7550 H     1 <1>   0.1500 
 47 H        4.3690     7.6900     2.2940 H     1 <1>   0.1500 
 48 H        3.1010     9.6410     2.9150 H     1 <1>   0.1500 
 49 H        0.0400    11.1440     0.3890 H     1 <1>   0.1500 
 50 H        1.3540    11.3080     2.4430 H     1 <1>   0.1500 
@<TRIPOS>BOND
  1   1   2  ar  
  2   2   3  ar  
  3   2   4  1   
  4   4   5  1   
  5   4   6  1   
  6   4   7  1   
  7   5   8  1   
  8   5   9  1   
  9   5  27  1   
 10   6  10  1   
 11   6  28  1   
 12   6  29  1   
 13   7  11  1   
 14   7  30  1   
 15   7  31  1   
 16   8  32  1   
 17   9  12  1   
 18   9  33  1   
 19   9  34  1   
 20  10  12  1   
 21  10  13  am  
 22  11  14  1   
 23  11  35  1   
 24  11  36  1   
 25  12  37  1   
 26  12  38  1   
 27  13  15  2   
 28  13  16  1   
 29  14  39  1   
 30  14  40  1   
 31  14  41  1   
 32  16  17  1   
 33  16  42  1   
 34  16  43  1   
 35  17  18  ar  
 36  17  19  ar  
 37  18  20  ar  
 38  18  21  ar  
 39  19  22  ar  
 40  19  44  1   
 41  20  23  ar  
 42  20  24  ar  
 43  21  25  ar  
 44  21  45  1   
 45  22  23  ar  
 46  22  46  1   
 47  23  47  1   
 48  24  26  ar  
 49  24  48  1   
 50  25  26  ar  
 51  25  49  1   
 52  26  50  1   
@<TRIPOS>SUBSTRUCTURE
  1 ****  12 GROUP 4 **** **** 0

# MOE 2024.06 (io_trps.svl 2023.06)
