@<TRIPOS>MOLECULE
NONAME
52 54 1 0 0 
SMALL
USER_CHARGES


@<TRIPOS>ATOM
  1 CL       2.0120     2.8500    -3.6730 Cl    1 <1>  -0.1770 
  2 C        1.5710     4.1170    -2.5500 C.ar  1 <1>   0.1770 
  3 C        1.1260     3.8000    -1.2740 C.ar  1 <1>  -0.1440 
  4 C        1.6770     5.4300    -2.9690 C.ar  1 <1>  -0.1500 
  5 C        0.7890     4.8350    -0.4150 C.ar  1 <1>  -0.1500 
  6 C        1.0110     2.3520    -0.8210 C.3   1 <1>  -0.0960 
  7 C        1.3360     6.4500    -2.1000 C.ar  1 <1>  -0.1500 
  8 C        0.8930     6.1650    -0.8110 C.ar  1 <1>   0.1170 
  9 N        0.5310     7.1750     0.0920 N.am  1 <1>  -0.5470 
 10 C        1.0710     8.4210     0.2570 C.2   1 <1>   0.5690 
 11 O        2.0250     8.8050    -0.3830 O.2   1 <1>  -0.5700 
 12 C        0.4600     9.3470     1.3210 C.3   1 <1>   0.1710 
 13 N        1.4060    10.2620     2.0270 N.3   1 <1>  -0.8100 
 14 C        1.7770    11.5260     1.3540 C.3   1 <1>   0.1100 
 15 C        2.2290     9.7400     3.1250 C.3   1 <1>   0.1100 
 16 C        3.2910    11.7360     1.1790 C.3   1 <1>   0.3430 
 17 C        3.4290     8.9260     2.6220 C.3   1 <1>  -0.1600 
 18 N        3.9540    10.4720     0.7330 N.4   1 <1>  -0.9590 
 19 C        4.5110     9.7140     1.8790 C.3   1 <1>   0.3430 
 20 C        4.9400    10.6390    -0.3700 C.3   1 <1>   0.4860 
 21 C        4.3740    11.5000    -1.4840 C.ar  1 <1>  -0.1430 
 22 C        3.4170    10.9930    -2.3500 C.ar  1 <1>   0.1600 
 23 C        4.8020    12.8040    -1.6540 C.ar  1 <1>  -0.1500 
 24 N        2.8520    11.6760    -3.3310 N.ar  1 <1>  -0.6200 
 25 C        4.2270    13.5230    -2.6790 C.ar  1 <1>  -0.1500 
 26 C        3.2690    12.9220    -3.4770 C.ar  1 <1>   0.1600 
 27 H        2.0200     5.6450    -3.9650 H     1 <1>   0.1500 
 28 H        0.4450     4.6090     0.5770 H     1 <1>   0.1500 
 29 H        0.3250     1.8210    -1.4580 H     1 <1>   0.0800 
 30 H        0.6550     2.2870     0.1910 H     1 <1>   0.0800 
 31 H        1.9720     1.8720    -0.8750 H     1 <1>   0.0800 
 32 H        1.4090     7.4710    -2.4320 H     1 <1>   0.1500 
 33 H       -0.2200     6.9160     0.7310 H     1 <1>   0.3700 
 34 H       -0.0370     8.7420     2.0580 H     1 <1>   0.0800 
 35 H       -0.2980     9.9410     0.8410 H     1 <1>   0.0800 
 36 H        1.3790    12.3500     1.9210 H     1 <1>   0.0800 
 37 H        1.3170    11.5630     0.3800 H     1 <1>   0.0800 
 38 H        1.6130     9.1100     3.7460 H     1 <1>   0.0800 
 39 H        2.5670    10.5570     3.7400 H     1 <1>   0.0800 
 40 H        3.7140    12.0630     2.1140 H     1 <1>   0.0800 
 41 H        3.4390    12.5240     0.4610 H     1 <1>   0.0800 
 42 H        3.0950     8.1060     2.0140 H     1 <1>   0.0800 
 43 H        3.8980     8.4830     3.4820 H     1 <1>   0.0800 
 44 H        3.1760     9.8890     0.3560 H     1 <1>   0.4500 
 45 H        5.2490     9.0130     1.5230 H     1 <1>   0.0800 
 46 H        4.9990    10.3920     2.5600 H     1 <1>   0.0800 
 47 H        5.2040     9.6730    -0.7690 H     1 <1>   0.0800 
 48 H        5.8360    11.1010     0.0100 H     1 <1>   0.0800 
 49 H        3.0900     9.9730    -2.2410 H     1 <1>   0.1500 
 50 H        5.5520    13.2550    -1.0260 H     1 <1>   0.1500 
 51 H        4.5160    14.5420    -2.8680 H     1 <1>   0.1500 
 52 H        2.8250    13.4930    -4.2760 H     1 <1>   0.1500 
@<TRIPOS>BOND
  1   1   2  1   
  2   2   3  ar  
  3   2   4  ar  
  4   3   5  ar  
  5   3   6  1   
  6   4   7  ar  
  7   4  27  1   
  8   5   8  ar  
  9   5  28  1   
 10   6  29  1   
 11   6  30  1   
 12   6  31  1   
 13   7   8  ar  
 14   7  32  1   
 15   8   9  1   
 16   9  10  am  
 17   9  33  1   
 18  10  11  2   
 19  10  12  1   
 20  12  13  1   
 21  12  34  1   
 22  12  35  1   
 23  13  14  1   
 24  13  15  1   
 25  14  16  1   
 26  14  36  1   
 27  14  37  1   
 28  15  17  1   
 29  15  38  1   
 30  15  39  1   
 31  16  18  1   
 32  16  40  1   
 33  16  41  1   
 34  17  19  1   
 35  17  42  1   
 36  17  43  1   
 37  18  19  1   
 38  18  20  1   
 39  18  44  1   
 40  19  45  1   
 41  19  46  1   
 42  20  21  1   
 43  20  47  1   
 44  20  48  1   
 45  21  22  ar  
 46  21  23  ar  
 47  22  24  ar  
 48  22  49  1   
 49  23  25  ar  
 50  23  50  1   
 51  24  26  ar  
 52  25  26  ar  
 53  25  51  1   
 54  26  52  1   
@<TRIPOS>SUBSTRUCTURE
  1 ****  11 GROUP 4 **** **** 0

# MOE 2024.06 (io_trps.svl 2023.06)
