@<TRIPOS>MOLECULE
NONAME
42 44 1 0 0 
SMALL
USER_CHARGES


@<TRIPOS>ATOM
  1 O       -1.5170     0.5720     0.0940 O.3   1 <1>  -0.2800 
  2 C       -1.8290     1.3290     1.1300 C.2   1 <1>  -0.0400 
  3 C       -0.2820     0.8640    -0.2580 C.2   1 <1>  -0.0400 
  4 C       -0.7920     2.1310     1.4590 C.2   1 <1>  -0.1500 
  5 C       -3.2160     1.1900     1.7210 C.3   1 <1>   0.5230 
  6 C        0.2240     1.8230     0.5460 C.2   1 <1>  -0.1500 
  7 C        0.3400     0.1290    -1.4250 C.3   1 <1>  -0.0600 
  8 N       -4.1950     1.2890     0.6100 N.4   1 <1>  -0.9590 
  9 C       -5.5480     0.7940     1.0090 C.3   1 <1>   0.3430 
 10 C       -4.2390     2.6590     0.0290 C.3   1 <1>   0.3430 
 11 C       -6.5170     0.7620    -0.1940 C.3   1 <1>   0.0000 
 12 C       -5.1580     2.6720    -1.1940 C.3   1 <1>  -0.1600 
 13 C       -7.9110     0.3030     0.2690 C.3   1 <1>   0.2000 
 14 C       -6.5660     2.1530    -0.8600 C.3   1 <1>  -0.1600 
 15 C       -6.1190    -0.3490    -1.1810 C.3   1 <1>  -0.1600 
 16 O       -8.1840     0.7530     1.5500 O.3   1 <1>  -0.6800 
 17 C       -7.9030    -1.2280     0.2420 C.3   1 <1>  -0.1600 
 18 C       -6.6660    -1.6390    -0.5680 C.3   1 <1>  -0.1600 
 19 H       -0.7090     2.8640     2.2430 H     1 <1>   0.1500 
 20 H       -3.3930     1.9560     2.4580 H     1 <1>   0.0800 
 21 H       -3.2940     0.2250     2.1940 H     1 <1>   0.0800 
 22 H        1.2010     2.2750     0.5210 H     1 <1>   0.1500 
 23 H        1.3450     0.4740    -1.5880 H     1 <1>   0.0800 
 24 H       -0.2360     0.3020    -2.3160 H     1 <1>   0.0800 
 25 H        0.3630    -0.9260    -1.2220 H     1 <1>   0.0800 
 26 H       -3.8190     0.6690    -0.1210 H     1 <1>   0.4500 
 27 H       -5.4760    -0.1960     1.4270 H     1 <1>   0.0800 
 28 H       -5.9570     1.4440     1.7650 H     1 <1>   0.0800 
 29 H       -4.6100     3.3550     0.7630 H     1 <1>   0.0800 
 30 H       -3.2470     2.9680    -0.2650 H     1 <1>   0.0800 
 31 H       -5.2310     3.6800    -1.5630 H     1 <1>   0.0800 
 32 H       -4.7190     2.0790    -1.9770 H     1 <1>   0.0800 
 33 H       -8.6720     0.6790    -0.3960 H     1 <1>   0.0800 
 34 H       -7.1630     2.1190    -1.7560 H     1 <1>   0.0800 
 35 H       -7.0420     2.8460    -0.1850 H     1 <1>   0.0800 
 36 H       -6.6140    -0.1870    -2.1250 H     1 <1>   0.0800 
 37 H       -5.0620    -0.4130    -1.3640 H     1 <1>   0.0800 
 38 H       -9.0920     0.4920     1.8100 H     1 <1>   0.4000 
 39 H       -7.8500    -1.6470     1.2320 H     1 <1>   0.0800 
 40 H       -8.7950    -1.5840    -0.2440 H     1 <1>   0.0800 
 41 H       -5.9330    -2.0750     0.0890 H     1 <1>   0.0800 
 42 H       -6.9130    -2.3610    -1.3290 H     1 <1>   0.0800 
@<TRIPOS>BOND
  1   1   2  1   
  2   1   3  1   
  3   2   4  2   
  4   2   5  1   
  5   3   6  2   
  6   3   7  1   
  7   4   6  1   
  8   4  19  1   
  9   5   8  1   
 10   5  20  1   
 11   5  21  1   
 12   6  22  1   
 13   7  23  1   
 14   7  24  1   
 15   7  25  1   
 16   8   9  1   
 17   8  10  1   
 18   8  26  1   
 19   9  11  1   
 20   9  27  1   
 21   9  28  1   
 22  10  12  1   
 23  10  29  1   
 24  10  30  1   
 25  11  13  1   
 26  11  14  1   
 27  11  15  1   
 28  12  14  1   
 29  12  31  1   
 30  12  32  1   
 31  13  16  1   
 32  13  17  1   
 33  13  33  1   
 34  14  34  1   
 35  14  35  1   
 36  15  18  1   
 37  15  36  1   
 38  15  37  1   
 39  16  38  1   
 40  17  18  1   
 41  17  39  1   
 42  17  40  1   
 43  18  41  1   
 44  18  42  1   
@<TRIPOS>SUBSTRUCTURE
  1 ****   8 GROUP 4 **** **** 0

# MOE 2024.06 (io_trps.svl 2023.06)
