@<TRIPOS>MOLECULE
NONAME
58 61 1 0 0 
SMALL
USER_CHARGES


@<TRIPOS>ATOM
  1 F       -0.0470    -2.1380    -2.1090 F     1 <1>  -0.1900 
  2 C       -0.9110    -1.9680    -1.1460 C.ar  1 <1>   0.1900 
  3 C       -1.3620    -3.0790    -0.4600 C.ar  1 <1>  -0.1500 
  4 C       -1.3420    -0.6900    -0.8530 C.ar  1 <1>  -0.1500 
  5 C       -2.2890    -2.9070     0.5600 C.ar  1 <1>  -0.1440 
  6 C       -2.2600    -0.5220     0.1690 C.ar  1 <1>  -0.1500 
  7 C       -2.7280    -1.6230     0.8710 C.ar  1 <1>  -0.1500 
  8 C       -2.8180    -4.1090     1.3180 C.3   1 <1>   0.4870 
  9 N       -3.8930    -4.7370     0.5050 N.4   1 <1>  -0.9590 
 10 C       -5.0870    -3.8200     0.4230 C.3   1 <1>   0.3430 
 11 C       -4.2370    -6.0940     1.0210 C.3   1 <1>   0.3430 
 12 C       -6.2950    -4.4330    -0.3300 C.3   1 <1>   0.2200 
 13 C       -5.3540    -6.6950     0.1690 C.3   1 <1>  -0.1600 
 14 N       -7.5470    -3.6000    -0.3610 N.am  1 <1>  -0.6600 
 15 C       -6.6420    -5.8350     0.2280 C.3   1 <1>   0.0000 
 16 C       -7.8070    -2.4860     0.4260 C.2   1 <1>   0.7150 
 17 C       -8.5620    -4.1500    -1.3070 C.3   1 <1>   0.1400 
 18 C       -7.7210    -6.4810    -0.6770 C.3   1 <1>  -0.1600 
 19 C       -7.1610    -5.7000     1.6910 C.3   1 <1>   0.1200 
 20 O       -6.8600    -1.8460     0.8490 O.2   1 <1>  -0.5700 
 21 C       -9.1500    -2.0790     0.7790 C.2   1 <1>   0.0550 
 22 C       -8.9500    -5.5730    -0.8820 C.3   1 <1>  -0.1600 
 23 O       -7.1490    -6.9270     2.3340 O.3   1 <1>  -0.6800 
 24 O      -10.0910    -2.9840     1.0200 O.3   1 <1>  -0.2800 
 25 C       -9.6810    -0.8500     0.9540 C.2   1 <1>   0.0460 
 26 C      -11.1270    -2.2290     1.3190 C.2   1 <1>   0.2980 
 27 N      -10.9580    -0.9610     1.2960 N.2   1 <1>  -0.5650 
 28 C       -9.0580     0.5250     0.8190 C.3   1 <1>  -0.0590 
 29 C      -12.4260    -2.9160     1.6640 C.3   1 <1>  -0.0600 
 30 H       -0.9800    -4.0470    -0.7340 H     1 <1>   0.1500 
 31 H       -0.9650     0.1500    -1.4100 H     1 <1>   0.1500 
 32 H       -2.6100     0.4660     0.4190 H     1 <1>   0.1500 
 33 H       -3.4430    -1.4600     1.6620 H     1 <1>   0.1500 
 34 H       -3.2020    -3.8040     2.2780 H     1 <1>   0.0800 
 35 H       -2.0130    -4.8090     1.4770 H     1 <1>   0.0800 
 36 H       -3.5150    -4.8320    -0.4460 H     1 <1>   0.4500 
 37 H       -5.4020    -3.5680     1.4220 H     1 <1>   0.0800 
 38 H       -4.8090    -2.9040    -0.0730 H     1 <1>   0.0800 
 39 H       -3.3720    -6.7370     0.9840 H     1 <1>   0.0800 
 40 H       -4.5670    -6.0330     2.0470 H     1 <1>   0.0800 
 41 H       -5.9790    -4.5480    -1.3530 H     1 <1>   0.0800 
 42 H       -5.0120    -6.7950    -0.8460 H     1 <1>   0.0800 
 43 H       -5.5580    -7.6900     0.5240 H     1 <1>   0.0800 
 44 H       -9.4380    -3.5250    -1.3500 H     1 <1>   0.0800 
 45 H       -8.1400    -4.1740    -2.2980 H     1 <1>   0.0800 
 46 H       -7.2960    -6.6860    -1.6450 H     1 <1>   0.0800 
 47 H       -8.0390    -7.4240    -0.2650 H     1 <1>   0.0800 
 48 H       -8.1620    -5.3070     1.7330 H     1 <1>   0.0800 
 49 H       -6.5360    -5.0470     2.2730 H     1 <1>   0.0800 
 50 H       -9.5350    -5.5210     0.0190 H     1 <1>   0.0800 
 51 H       -9.5850    -6.0000    -1.6390 H     1 <1>   0.0800 
 52 H       -7.9320    -7.4590     2.0830 H     1 <1>   0.4000 
 53 H       -8.0360     0.4590     0.4970 H     1 <1>   0.0800 
 54 H       -9.0940     1.0290     1.7670 H     1 <1>   0.0800 
 55 H       -9.6120     1.1020     0.1010 H     1 <1>   0.0800 
 56 H      -13.1790    -2.1820     1.8860 H     1 <1>   0.0800 
 57 H      -12.2850    -3.5440     2.5230 H     1 <1>   0.0800 
 58 H      -12.7520    -3.5130     0.8340 H     1 <1>   0.0800 
@<TRIPOS>BOND
  1   1   2  1   
  2   2   3  ar  
  3   2   4  ar  
  4   3   5  ar  
  5   3  30  1   
  6   4   6  ar  
  7   4  31  1   
  8   5   7  ar  
  9   5   8  1   
 10   6   7  ar  
 11   6  32  1   
 12   7  33  1   
 13   8   9  1   
 14   8  34  1   
 15   8  35  1   
 16   9  10  1   
 17   9  11  1   
 18   9  36  1   
 19  10  12  1   
 20  10  37  1   
 21  10  38  1   
 22  11  13  1   
 23  11  39  1   
 24  11  40  1   
 25  12  14  1   
 26  12  15  1   
 27  12  41  1   
 28  13  15  1   
 29  13  42  1   
 30  13  43  1   
 31  14  16  am  
 32  14  17  1   
 33  15  18  1   
 34  15  19  1   
 35  16  20  2   
 36  16  21  1   
 37  17  22  1   
 38  17  44  1   
 39  17  45  1   
 40  18  22  1   
 41  18  46  1   
 42  18  47  1   
 43  19  23  1   
 44  19  48  1   
 45  19  49  1   
 46  21  24  1   
 47  21  25  2   
 48  22  50  1   
 49  22  51  1   
 50  23  52  1   
 51  24  26  1   
 52  25  27  1   
 53  25  28  1   
 54  26  27  2   
 55  26  29  1   
 56  28  53  1   
 57  28  54  1   
 58  28  55  1   
 59  29  56  1   
 60  29  57  1   
 61  29  58  1   
@<TRIPOS>SUBSTRUCTURE
  1 ****  10 GROUP 4 **** **** 0

# MOE 2024.06 (io_trps.svl 2023.06)
