@<TRIPOS>MOLECULE
NONAME
39 40 1 0 0 
SMALL
USER_CHARGES


@<TRIPOS>ATOM
  1 S       -0.7140     0.4980     1.4670 S.o2  1 <1>   1.4470 
  2 O       -0.5550    -0.7990     2.0880 O.2   1 <1>  -0.6500 
  3 O       -1.2700     1.5940     2.2340 O.2   1 <1>  -0.6500 
  4 N       -1.6700     0.3180     0.0770 N.am  1 <1>  -0.8490 
  5 C        0.8780     1.0390     0.7810 C.ar  1 <1>  -0.0090 
  6 C       -1.2500    -0.7870    -0.8110 C.3   1 <1>   0.1960 
  7 C       -3.1280     0.3860     0.3180 C.3   1 <1>   0.1960 
  8 C        0.9710     2.2090     0.0390 C.ar  1 <1>  -0.1500 
  9 C        2.0370     0.2950     0.9670 C.ar  1 <1>  -0.1500 
 10 C       -1.7610    -2.1890    -0.4020 C.3   1 <1>   0.2000 
 11 C       -3.8920    -0.8970    -0.0510 C.3   1 <1>  -0.1600 
 12 C        2.1760     2.6240    -0.5020 C.ar  1 <1>  -0.1500 
 13 C        3.2460     0.7040     0.4290 C.ar  1 <1>  -0.1500 
 14 O       -1.9170    -2.8990    -1.5770 O.3   1 <1>  -0.6800 
 15 C       -3.0980    -2.1450     0.3710 C.3   1 <1>  -0.1860 
 16 C        3.3220     1.8710    -0.3110 C.ar  1 <1>  -0.1430 
 17 C       -3.9400    -3.4160     0.3460 C.2   1 <1>   0.9060 
 18 C        4.6470     2.3220    -0.9030 C.3   1 <1>  -0.0160 
 19 O       -4.8660    -3.5080     1.1550 O.co2 1 <1>  -0.9000 
 20 O       -3.7000    -4.3140    -0.4750 O.co2 1 <1>  -0.9000 
 21 C        5.3980     3.2190     0.0830 C.3   1 <1>  -0.2400 
 22 H       -1.6390    -0.5680    -1.7910 H     1 <1>   0.0800 
 23 H       -0.1780    -0.8150    -0.8930 H     1 <1>   0.0800 
 24 H       -3.3180     0.5930     1.3580 H     1 <1>   0.0800 
 25 H       -3.5330     1.2080    -0.2470 H     1 <1>   0.0800 
 26 H        0.0850     2.8010    -0.1160 H     1 <1>   0.1500 
 27 H        1.9940    -0.6170     1.5390 H     1 <1>   0.1500 
 28 H       -1.0240    -2.7080     0.1870 H     1 <1>   0.0800 
 29 H       -4.8470    -0.8910     0.4460 H     1 <1>   0.0800 
 30 H       -4.0810    -0.9280    -1.1100 H     1 <1>   0.0800 
 31 H        2.2170     3.5370    -1.0700 H     1 <1>   0.1500 
 32 H        4.1280     0.1090     0.5910 H     1 <1>   0.1500 
 33 H       -2.5840    -3.6290    -1.3620 H     1 <1>   0.4000 
 34 H       -2.8490    -2.0130     1.4070 H     1 <1>   0.0800 
 35 H        5.2500     1.4630    -1.1410 H     1 <1>   0.0800 
 36 H        4.4710     2.8600    -1.8190 H     1 <1>   0.0800 
 37 H        5.5930     2.6850     0.9960 H     1 <1>   0.0800 
 38 H        4.8100     4.0900     0.3140 H     1 <1>   0.0800 
 39 H        6.3340     3.5350    -0.3410 H     1 <1>   0.0800 
@<TRIPOS>BOND
  1   1   2  2   
  2   1   3  2   
  3   1   4  am  
  4   1   5  1   
  5   4   6  1   
  6   4   7  1   
  7   5   8  ar  
  8   5   9  ar  
  9   6  10  1   
 10   6  22  1   
 11   6  23  1   
 12   7  11  1   
 13   7  24  1   
 14   7  25  1   
 15   8  12  ar  
 16   8  26  1   
 17   9  13  ar  
 18   9  27  1   
 19  10  14  1   
 20  10  15  1   
 21  10  28  1   
 22  11  15  1   
 23  11  29  1   
 24  11  30  1   
 25  12  16  ar  
 26  12  31  1   
 27  13  16  ar  
 28  13  32  1   
 29  14  33  1   
 30  15  17  1   
 31  15  34  1   
 32  16  18  1   
 33  17  19  ar  
 34  17  20  ar  
 35  18  21  1   
 36  18  35  1   
 37  18  36  1   
 38  21  37  1   
 39  21  38  1   
 40  21  39  1   
@<TRIPOS>SUBSTRUCTURE
  1 ****   4 GROUP 4 **** **** 0

# MOE 2024.06 (io_trps.svl 2023.06)
