@<TRIPOS>MOLECULE
NONAME
50 52 1 0 0 
SMALL
USER_CHARGES


@<TRIPOS>ATOM
  1 S       -0.6540     0.2390     1.1700 S.o2  1 <1>   1.4470 
  2 O       -1.2630     1.1890     2.0730 O.2   1 <1>  -0.6500 
  3 O       -0.4490    -1.1200     1.6300 O.2   1 <1>  -0.6500 
  4 N       -1.6660     0.0940    -0.1960 N.am  1 <1>  -0.8490 
  5 C        0.9010     0.8970     0.4820 C.ar  1 <1>  -0.0090 
  6 C       -1.5880    -1.2060    -0.8820 C.3   1 <1>   0.1960 
  7 C       -3.0520     0.5500    -0.0090 C.3   1 <1>   0.1960 
  8 C        1.0120     2.1600    -0.1150 C.ar  1 <1>  -0.1440 
  9 C        2.0420     0.1020     0.5360 C.ar  1 <1>  -0.1500 
 10 C       -2.4180    -2.3130    -0.1650 C.3   1 <1>   0.4230 
 11 C       -3.8710    -0.4970     0.7600 C.3   1 <1>  -0.1600 
 12 C        2.2230     2.5960    -0.6430 C.ar  1 <1>  -0.1500 
 13 C       -0.1780     3.1090    -0.2070 C.3   1 <1>  -0.0960 
 14 C        3.2310     0.5550     0.0040 C.ar  1 <1>   0.1900 
 15 N       -2.2640    -3.7060    -0.7650 N.4   1 <1>  -0.9590 
 16 C       -3.8950    -1.8830     0.0590 C.3   1 <1>   0.0000 
 17 C        3.3460     1.7930    -0.5890 C.ar  1 <1>  -0.1500 
 18 F        4.2800    -0.2180     0.0630 F     1 <1>  -0.1900 
 19 C       -3.3350    -4.6700    -0.3480 C.3   1 <1>   0.3430 
 20 C       -2.0770    -3.7600    -2.2520 C.3   1 <1>   0.2630 
 21 C       -4.5900    -2.9100     1.0010 C.3   1 <1>  -0.1600 
 22 C       -4.6450    -1.8000    -1.3010 C.3   1 <1>   0.1200 
 23 C       -3.9130    -4.2940     1.0160 C.3   1 <1>  -0.1600 
 24 O       -5.8790    -1.1880    -1.1680 O.3   1 <1>  -0.6800 
 25 H       -1.9470    -1.0680    -1.8860 H     1 <1>   0.0800 
 26 H       -0.5570    -1.5080    -0.9400 H     1 <1>   0.0800 
 27 H       -3.0710     1.4920     0.5160 H     1 <1>   0.0800 
 28 H       -3.5020     0.7260    -0.9720 H     1 <1>   0.0800 
 29 H        2.0190    -0.8710     0.9940 H     1 <1>   0.1500 
 30 H       -2.0100    -2.3850     0.8270 H     1 <1>   0.0800 
 31 H       -3.4540    -0.5840     1.7490 H     1 <1>   0.0800 
 32 H       -4.8700    -0.1200     0.8880 H     1 <1>   0.0800 
 33 H        2.3020     3.5680    -1.1000 H     1 <1>   0.1500 
 34 H        0.1020     4.0410    -0.6640 H     1 <1>   0.0800 
 35 H       -0.5600     3.3290     0.7740 H     1 <1>   0.0800 
 36 H       -0.9610     2.6750    -0.8010 H     1 <1>   0.0800 
 37 H       -1.3940    -4.0640    -0.3400 H     1 <1>   0.4500 
 38 H        4.2890     2.1160    -0.9930 H     1 <1>   0.1500 
 39 H       -4.1350    -4.6620    -1.0700 H     1 <1>   0.0800 
 40 H       -2.9330    -5.6710    -0.3110 H     1 <1>   0.0800 
 41 H       -2.9420    -3.3640    -2.7570 H     1 <1>   0.0800 
 42 H       -1.9310    -4.7800    -2.5720 H     1 <1>   0.0800 
 43 H       -1.2110    -3.1890    -2.5480 H     1 <1>   0.0800 
 44 H       -4.5980    -2.5470     2.0160 H     1 <1>   0.0800 
 45 H       -5.6220    -3.0270     0.7210 H     1 <1>   0.0800 
 46 H       -4.8150    -2.7750    -1.7200 H     1 <1>   0.0800 
 47 H       -4.0970    -1.2150    -2.0180 H     1 <1>   0.0800 
 48 H       -4.6340    -5.0360     1.3130 H     1 <1>   0.0800 
 49 H       -3.1240    -4.3130     1.7490 H     1 <1>   0.0800 
 50 H       -6.4790    -1.6850    -0.5760 H     1 <1>   0.4000 
@<TRIPOS>BOND
  1   1   2  2   
  2   1   3  2   
  3   1   4  am  
  4   1   5  1   
  5   4   6  1   
  6   4   7  1   
  7   5   8  ar  
  8   5   9  ar  
  9   6  10  1   
 10   6  25  1   
 11   6  26  1   
 12   7  11  1   
 13   7  27  1   
 14   7  28  1   
 15   8  12  ar  
 16   8  13  1   
 17   9  14  ar  
 18   9  29  1   
 19  10  15  1   
 20  10  16  1   
 21  10  30  1   
 22  11  16  1   
 23  11  31  1   
 24  11  32  1   
 25  12  17  ar  
 26  12  33  1   
 27  13  34  1   
 28  13  35  1   
 29  13  36  1   
 30  14  17  ar  
 31  14  18  1   
 32  15  19  1   
 33  15  20  1   
 34  15  37  1   
 35  16  21  1   
 36  16  22  1   
 37  17  38  1   
 38  19  23  1   
 39  19  39  1   
 40  19  40  1   
 41  20  41  1   
 42  20  42  1   
 43  20  43  1   
 44  21  23  1   
 45  21  44  1   
 46  21  45  1   
 47  22  24  1   
 48  22  46  1   
 49  22  47  1   
 50  23  48  1   
 51  23  49  1   
 52  24  50  1   
@<TRIPOS>SUBSTRUCTURE
  1 ****   4 GROUP 4 **** **** 0

# MOE 2024.06 (io_trps.svl 2023.06)
