@<TRIPOS>MOLECULE
NONAME
50 53 1 0 0 
SMALL
USER_CHARGES


@<TRIPOS>ATOM
  1 O       -2.3490     0.5810    -2.6840 O.2   1 <1>  -0.5700 
  2 C       -1.9670     0.6750    -1.5350 C.2   1 <1>   0.5440 
  3 N       -1.8290    -0.4710    -0.8070 N.am  1 <1>  -0.7300 
  4 C       -1.6910     1.9740    -0.9430 C.ar  1 <1>   0.0860 
  5 C       -2.0360    -1.8460    -1.3210 C.3   1 <1>   0.2200 
  6 C       -0.7830     2.1330     0.1050 C.ar  1 <1>  -0.1500 
  7 C       -2.3310     3.1220    -1.4070 C.ar  1 <1>  -0.1500 
  8 C       -3.3780    -2.4100    -0.8710 C.3   1 <1>  -0.0800 
  9 C       -1.0850    -2.7850    -0.5940 C.3   1 <1>   0.1200 
 10 C       -0.5320     3.3740     0.6650 C.ar  1 <1>  -0.1500 
 11 C       -2.0870     4.3650    -0.8530 C.ar  1 <1>  -0.1500 
 12 C       -3.0720    -2.9500     0.5310 C.3   1 <1>   0.1200 
 13 C       -4.5730    -1.4410    -0.9330 C.3   1 <1>  -0.0160 
 14 O       -1.6790    -3.0040     0.6500 O.3   1 <1>  -0.5600 
 15 C       -1.1820     4.5020     0.1880 C.ar  1 <1>  -0.1440 
 16 C       -5.8640    -2.1470    -0.5490 C.ar  1 <1>  -0.1440 
 17 C       -0.9020     5.8730     0.7960 C.3   1 <1>   0.2390 
 18 C       -6.5600    -2.9250    -1.4520 C.ar  1 <1>  -0.1500 
 19 C       -6.4060    -2.0500     0.7160 C.ar  1 <1>  -0.1500 
 20 N       -0.5040     6.8650    -0.2260 N.pl3 1 <1>   0.3140 
 21 C       -7.7280    -3.5550    -1.0570 C.ar  1 <1>   0.1600 
 22 C       -7.5820    -2.7220     1.0100 C.ar  1 <1>   0.1600 
 23 N       -1.0930     8.0370    -0.3270 N.2   1 <1>  -0.4180 
 24 C        0.4470     6.8180    -1.1480 C.2   1 <1>   0.0070 
 25 N       -8.2550    -3.4740     0.1550 N.ar  1 <1>  -0.6200 
 26 N       -0.5050     8.6590    -1.2840 N.2   1 <1>   0.0000 
 27 N        0.4610     7.9120    -1.8070 N.2   1 <1>  -0.3380 
 28 C        1.3900     5.6560    -1.4070 C.3   1 <1>  -0.0600 
 29 H       -1.6350    -0.4350     0.1950 H     1 <1>   0.3700 
 30 H       -1.9070    -1.8780    -2.3910 H     1 <1>   0.0800 
 31 H       -0.2560     1.2750     0.4850 H     1 <1>   0.1500 
 32 H       -3.0320     3.0330    -2.2200 H     1 <1>   0.1500 
 33 H       -3.6020    -3.2550    -1.4970 H     1 <1>   0.0800 
 34 H       -0.1030    -2.3660    -0.4610 H     1 <1>   0.0800 
 35 H       -1.0180    -3.7310    -1.1010 H     1 <1>   0.0800 
 36 H        0.1750     3.4510     1.4730 H     1 <1>   0.1500 
 37 H       -2.6060     5.2260    -1.2440 H     1 <1>   0.1500 
 38 H       -3.4750    -3.9390     0.6730 H     1 <1>   0.0800 
 39 H       -3.4390    -2.2940     1.3010 H     1 <1>   0.0800 
 40 H       -4.6630    -1.0510    -1.9320 H     1 <1>   0.0800 
 41 H       -4.4160    -0.6050    -0.2740 H     1 <1>   0.0800 
 42 H       -0.1150     5.8110     1.5240 H     1 <1>   0.0800 
 43 H       -1.7880     6.2310     1.2880 H     1 <1>   0.0800 
 44 H       -6.2050    -3.0450    -2.4600 H     1 <1>   0.1500 
 45 H       -5.9290    -1.4600     1.4760 H     1 <1>   0.1500 
 46 H       -8.2580    -4.1570    -1.7750 H     1 <1>   0.1500 
 47 H       -7.9900    -2.6350     2.0030 H     1 <1>   0.1500 
 48 H        2.1420     5.9490    -2.1180 H     1 <1>   0.0800 
 49 H        0.8470     4.8220    -1.8120 H     1 <1>   0.0800 
 50 H        1.8770     5.3570    -0.4970 H     1 <1>   0.0800 
@<TRIPOS>BOND
  1   1   2  2   
  2   2   3  am  
  3   2   4  1   
  4   3   5  1   
  5   3  29  1   
  6   4   6  ar  
  7   4   7  ar  
  8   5   8  1   
  9   5   9  1   
 10   5  30  1   
 11   6  10  ar  
 12   6  31  1   
 13   7  11  ar  
 14   7  32  1   
 15   8  12  1   
 16   8  13  1   
 17   8  33  1   
 18   9  14  1   
 19   9  34  1   
 20   9  35  1   
 21  10  15  ar  
 22  10  36  1   
 23  11  15  ar  
 24  11  37  1   
 25  12  14  1   
 26  12  38  1   
 27  12  39  1   
 28  13  16  1   
 29  13  40  1   
 30  13  41  1   
 31  15  17  1   
 32  16  18  ar  
 33  16  19  ar  
 34  17  20  1   
 35  17  42  1   
 36  17  43  1   
 37  18  21  ar  
 38  18  44  1   
 39  19  22  ar  
 40  19  45  1   
 41  20  23  1   
 42  20  24  1   
 43  21  25  ar  
 44  21  46  1   
 45  22  25  ar  
 46  22  47  1   
 47  23  26  2   
 48  24  27  2   
 49  24  28  1   
 50  26  27  1   
 51  28  48  1   
 52  28  49  1   
 53  28  50  1   
@<TRIPOS>SUBSTRUCTURE
  1 ****   4 GROUP 4 **** **** 0

# MOE 2024.06 (io_trps.svl 2023.06)
