@<TRIPOS>MOLECULE
NONAME
50 53 1 0 0 
SMALL
USER_CHARGES


@<TRIPOS>ATOM
  1 O       -0.4730     0.1850    -0.3970 O.3   1 <1>  -0.6800 
  2 C        0.5300    -0.7220    -0.7100 C.3   1 <1>   0.2000 
  3 C        0.4800    -1.8420     0.3360 C.3   1 <1>  -0.0800 
  4 C        1.8750    -0.0120    -0.5050 C.3   1 <1>   0.3430 
  5 C        1.3850    -1.3000     1.4450 C.3   1 <1>   0.3430 
  6 C        0.9100    -3.2280    -0.2140 C.3   1 <1>  -0.0170 
  7 N        2.4740    -0.5880     0.7370 N.4   1 <1>  -0.9590 
  8 C        2.4110    -3.5040    -0.2530 C.ar  1 <1>   0.1670 
  9 C        3.2490     0.3840     1.5400 C.3   1 <1>   0.5240 
 10 N        3.1490    -2.7490    -1.0100 N.ar  1 <1>  -0.6200 
 11 C        2.9290    -4.5470     0.5320 C.ar  1 <1>  -0.1500 
 12 C        4.3410     0.9580     0.6650 C.2   1 <1>  -0.1810 
 13 C        4.4870    -2.9950    -1.0510 C.ar  1 <1>   0.3100 
 14 C        4.2660    -4.8030     0.5270 C.ar  1 <1>  -0.1500 
 15 C        5.5110     0.3100     0.2870 C.2   1 <1>   0.1390 
 16 C        4.4180     2.1720     0.0740 C.2   1 <1>  -0.3020 
 17 C        5.0950    -4.0070    -0.2780 C.ar  1 <1>   0.0000 
 18 C        5.3030    -2.1910    -1.8620 C.ar  1 <1>  -0.1500 
 19 N        6.2460     1.0460    -0.4840 N.2   1 <1>  -0.7070 
 20 N        5.5790     2.2060    -0.6110 N.pl3 1 <1>   0.3140 
 21 C        6.4930    -4.1710    -0.3410 C.ar  1 <1>  -0.1500 
 22 C        6.6600    -2.3610    -1.9030 C.ar  1 <1>  -0.1500 
 23 C        6.1110     3.3310    -1.4090 C.3   1 <1>   0.0960 
 24 C        7.2610    -3.3630    -1.1340 C.ar  1 <1>  -0.1500 
 25 C        6.7450     4.3990    -0.5090 C.3   1 <1>  -0.2400 
 26 H       -1.3460    -0.1210    -0.7220 H     1 <1>   0.4000 
 27 H        0.3930    -1.0520    -1.7270 H     1 <1>   0.0800 
 28 H       -0.5230    -1.9500     0.7110 H     1 <1>   0.0800 
 29 H        1.7150     1.0490    -0.4070 H     1 <1>   0.0800 
 30 H        2.5290    -0.2000    -1.3410 H     1 <1>   0.0800 
 31 H        1.7660    -2.0890     2.0750 H     1 <1>   0.0800 
 32 H        0.8250    -0.5980     2.0430 H     1 <1>   0.0800 
 33 H        0.5150    -3.3630    -1.2060 H     1 <1>   0.0800 
 34 H        0.4450    -3.9820     0.3960 H     1 <1>   0.0800 
 35 H        3.1230    -1.3130     0.3740 H     1 <1>   0.4500 
 36 H        2.6050     1.1770     1.8810 H     1 <1>   0.0800 
 37 H        3.6880    -0.1010     2.3960 H     1 <1>   0.0800 
 38 H        2.2680    -5.1470     1.1330 H     1 <1>   0.1500 
 39 H        4.6980    -5.5950     1.1150 H     1 <1>   0.1500 
 40 H        5.7970    -0.6880     0.5800 H     1 <1>   0.1500 
 41 H        3.7370     3.0050     0.0960 H     1 <1>   0.1500 
 42 H        4.8360    -1.4250    -2.4530 H     1 <1>   0.1500 
 43 H        6.9510    -4.9460     0.2470 H     1 <1>   0.1500 
 44 H        7.2780    -1.7280    -2.5190 H     1 <1>   0.1500 
 45 H        6.8490     2.9410    -2.0880 H     1 <1>   0.0800 
 46 H        5.3080     3.7550    -1.9840 H     1 <1>   0.0800 
 47 H        8.3310    -3.4850    -1.1800 H     1 <1>   0.1500 
 48 H        7.5520     3.9690     0.0590 H     1 <1>   0.0800 
 49 H        6.0140     4.8090     0.1640 H     1 <1>   0.0800 
 50 H        7.1410     5.1960    -1.1120 H     1 <1>   0.0800 
@<TRIPOS>BOND
  1   1   2  1   
  2   1  26  1   
  3   2   3  1   
  4   2   4  1   
  5   2  27  1   
  6   3   5  1   
  7   3   6  1   
  8   3  28  1   
  9   4   7  1   
 10   4  29  1   
 11   4  30  1   
 12   5   7  1   
 13   5  31  1   
 14   5  32  1   
 15   6   8  1   
 16   6  33  1   
 17   6  34  1   
 18   7   9  1   
 19   7  35  1   
 20   8  10  ar  
 21   8  11  ar  
 22   9  12  1   
 23   9  36  1   
 24   9  37  1   
 25  10  13  ar  
 26  11  14  ar  
 27  11  38  1   
 28  12  15  1   
 29  12  16  2   
 30  13  17  ar  
 31  13  18  ar  
 32  14  17  ar  
 33  14  39  1   
 34  15  19  2   
 35  15  40  1   
 36  16  20  1   
 37  16  41  1   
 38  17  21  ar  
 39  18  22  ar  
 40  18  42  1   
 41  19  20  1   
 42  20  23  1   
 43  21  24  ar  
 44  21  43  1   
 45  22  24  ar  
 46  22  44  1   
 47  23  25  1   
 48  23  45  1   
 49  23  46  1   
 50  24  47  1   
 51  25  48  1   
 52  25  49  1   
 53  25  50  1   
@<TRIPOS>SUBSTRUCTURE
  1 ****   7 GROUP 4 **** **** 0

# MOE 2024.06 (io_trps.svl 2023.06)
