@<TRIPOS>MOLECULE
NONAME
51 53 1 0 0 
SMALL
USER_CHARGES


@<TRIPOS>ATOM
  1 F       -2.1330    -0.4040    -0.9290 F     1 <1>  -0.1900 
  2 C       -2.2120     0.5900    -0.0810 C.ar  1 <1>   0.1900 
  3 C       -1.5810     1.7830    -0.3910 C.ar  1 <1>   0.1900 
  4 C       -2.9190     0.4280     1.1080 C.ar  1 <1>   0.0860 
  5 F       -0.9420     1.8970    -1.5280 F     1 <1>  -0.1900 
  6 C       -1.6130     2.8670     0.4740 C.ar  1 <1>  -0.1440 
  7 C       -3.6140    -0.7950     1.4510 C.2   1 <1>   0.5440 
  8 C       -2.9290     1.5200     1.9800 C.ar  1 <1>  -0.1500 
  9 C       -2.2960     2.7150     1.6730 C.ar  1 <1>  -0.1500 
 10 C       -0.9190     4.1780     0.1330 C.3   1 <1>  -0.0960 
 11 O       -3.4240    -1.2800     2.5500 O.2   1 <1>  -0.5700 
 12 N       -4.5010    -1.4330     0.6050 N.am  1 <1>  -0.6600 
 13 C       -5.2980    -0.7560    -0.4680 C.3   1 <1>   0.2200 
 14 C       -4.5150    -2.9280     0.6070 C.3   1 <1>   0.0600 
 15 C       -5.7490     0.6560    -0.0870 C.3   1 <1>  -0.1600 
 16 C       -6.6280    -1.4660    -0.7270 C.3   1 <1>  -0.1600 
 17 C       -6.9940     0.9470    -0.9350 C.3   1 <1>  -0.0800 
 18 C       -7.5520    -0.4180    -1.3590 C.3   1 <1>  -0.0800 
 19 C       -8.1100     1.6530    -0.1530 C.3   1 <1>  -0.1600 
 20 C       -8.9910    -0.4830    -0.8320 C.3   1 <1>  -0.1600 
 21 C       -9.0080     0.5170     0.3230 C.3   1 <1>   0.4230 
 22 N      -10.3690     0.9790     0.7350 N.4   1 <1>  -0.9590 
 23 C      -11.1170    -0.1300     1.4040 C.3   1 <1>   0.2630 
 24 C      -11.2040     1.5780    -0.3590 C.3   1 <1>   0.2630 
 25 H       -3.4450     1.4190     2.9210 H     1 <1>   0.1500 
 26 H       -2.3350     3.5280     2.3780 H     1 <1>   0.1500 
 27 H       -1.0640     4.9070     0.9100 H     1 <1>   0.0800 
 28 H       -1.3120     4.5750    -0.7860 H     1 <1>   0.0800 
 29 H        0.1370     4.0130     0.0130 H     1 <1>   0.0800 
 30 H       -4.7270    -0.7240    -1.3820 H     1 <1>   0.0800 
 31 H       -4.4510    -3.3010    -0.4000 H     1 <1>   0.0800 
 32 H       -5.4160    -3.2870     1.0710 H     1 <1>   0.0800 
 33 H       -3.6740    -3.3110     1.1610 H     1 <1>   0.0800 
 34 H       -5.9940     0.6740     0.9610 H     1 <1>   0.0800 
 35 H       -4.9880     1.3870    -0.2920 H     1 <1>   0.0800 
 36 H       -6.5010    -2.3110    -1.3810 H     1 <1>   0.0800 
 37 H       -7.0350    -1.7960     0.2120 H     1 <1>   0.0800 
 38 H       -6.7120     1.5200    -1.8040 H     1 <1>   0.0800 
 39 H       -7.5270    -0.5140    -2.4330 H     1 <1>   0.0800 
 40 H       -8.6310     2.3010    -0.8340 H     1 <1>   0.0800 
 41 H       -7.7240     2.2340     0.6660 H     1 <1>   0.0800 
 42 H       -9.2580    -1.4760    -0.5170 H     1 <1>   0.0800 
 43 H       -9.6460    -0.1720    -1.6250 H     1 <1>   0.0800 
 44 H       -8.5200     0.0530     1.1660 H     1 <1>   0.0800 
 45 H      -10.2140     1.7150     1.4400 H     1 <1>   0.4500 
 46 H      -11.3060    -0.9290     0.7060 H     1 <1>   0.0800 
 47 H      -12.0620     0.2280     1.7810 H     1 <1>   0.0800 
 48 H      -10.5460    -0.5230     2.2300 H     1 <1>   0.0800 
 49 H      -11.4190     0.8420    -1.1160 H     1 <1>   0.0800 
 50 H      -10.6910     2.4070    -0.8180 H     1 <1>   0.0800 
 51 H      -12.1380     1.9380     0.0410 H     1 <1>   0.0800 
@<TRIPOS>BOND
  1   1   2  1   
  2   2   3  ar  
  3   2   4  ar  
  4   3   5  1   
  5   3   6  ar  
  6   4   7  1   
  7   4   8  ar  
  8   6   9  ar  
  9   6  10  1   
 10   7  11  2   
 11   7  12  am  
 12   8   9  ar  
 13   8  25  1   
 14   9  26  1   
 15  10  27  1   
 16  10  28  1   
 17  10  29  1   
 18  12  13  1   
 19  12  14  1   
 20  13  15  1   
 21  13  16  1   
 22  13  30  1   
 23  14  31  1   
 24  14  32  1   
 25  14  33  1   
 26  15  17  1   
 27  15  34  1   
 28  15  35  1   
 29  16  18  1   
 30  16  36  1   
 31  16  37  1   
 32  17  18  1   
 33  17  19  1   
 34  17  38  1   
 35  18  20  1   
 36  18  39  1   
 37  19  21  1   
 38  19  40  1   
 39  19  41  1   
 40  20  21  1   
 41  20  42  1   
 42  20  43  1   
 43  21  22  1   
 44  21  44  1   
 45  22  23  1   
 46  22  24  1   
 47  22  45  1   
 48  23  46  1   
 49  23  47  1   
 50  23  48  1   
 51  24  49  1   
 52  24  50  1   
 53  24  51  1   
@<TRIPOS>SUBSTRUCTURE
  1 ****  15 GROUP 4 **** **** 0

# MOE 2024.06 (io_trps.svl 2023.06)
