@<TRIPOS>MOLECULE
NONAME
46 48 1 0 0 
SMALL
USER_CHARGES


@<TRIPOS>ATOM
  1 CL      -3.4900    -0.8240    -3.7210 Cl    1 <1>  -0.1770 
  2 C       -3.8130    -1.4770    -2.1330 C.ar  1 <1>   0.1770 
  3 C       -2.9390    -2.3800    -1.5540 C.ar  1 <1>  -0.1440 
  4 C       -4.9560    -1.0710    -1.4760 C.ar  1 <1>  -0.1500 
  5 C       -3.2440    -2.8710    -0.2950 C.ar  1 <1>  -0.1500 
  6 C       -1.6740    -2.8250    -2.2730 C.3   1 <1>  -0.0960 
  7 C       -5.2520    -1.5690    -0.2150 C.ar  1 <1>  -0.1430 
  8 C       -4.3920    -2.4880     0.3970 C.ar  1 <1>  -0.0090 
  9 C       -6.5250    -1.0760     0.4650 C.3   1 <1>  -0.0960 
 10 S       -4.7160    -3.2280     2.0320 S.o2  1 <1>   1.4470 
 11 O       -3.6570    -4.1440     2.3920 O.2   1 <1>  -0.6500 
 12 O       -5.1520    -2.2410     2.9900 O.2   1 <1>  -0.6500 
 13 N       -6.0700    -4.1770     1.7560 N.am  1 <1>  -0.9140 
 14 C       -5.7940    -5.4810     1.1700 C.3   1 <1>   0.2760 
 15 C       -7.0510    -6.0290     0.5090 C.3   1 <1>  -0.0800 
 16 C       -5.5980    -6.5200     2.2740 C.3   1 <1>   0.1200 
 17 C       -7.8040    -6.6760     1.6780 C.3   1 <1>   0.1200 
 18 C       -7.8850    -5.0110    -0.2930 C.3   1 <1>  -0.0170 
 19 O       -6.8860    -6.8070     2.7250 O.3   1 <1>  -0.5600 
 20 C       -9.0550    -5.6930    -0.9820 C.ar  1 <1>  -0.1430 
 21 C      -10.3280    -5.6770    -0.4480 C.ar  1 <1>  -0.1500 
 22 C       -8.9020    -6.3650    -2.1780 C.ar  1 <1>  -0.1500 
 23 C      -11.3560    -6.3220    -1.1140 C.ar  1 <1>   0.1600 
 24 C       -9.9980    -6.9780    -2.7630 C.ar  1 <1>   0.1600 
 25 N      -11.2200    -6.9740    -2.2580 N.ar  1 <1>  -0.6200 
 26 H       -5.6050    -0.3630    -1.9600 H     1 <1>   0.1500 
 27 H       -2.5690    -3.5730     0.1670 H     1 <1>   0.1500 
 28 H       -1.1120    -3.5220    -1.6780 H     1 <1>   0.0800 
 29 H       -1.0500    -1.9730    -2.4780 H     1 <1>   0.0800 
 30 H       -1.9270    -3.2990    -3.2050 H     1 <1>   0.0800 
 31 H       -7.0900    -0.4340    -0.1870 H     1 <1>   0.0800 
 32 H       -6.2790    -0.5160     1.3500 H     1 <1>   0.0800 
 33 H       -7.1550    -1.9020     0.7400 H     1 <1>   0.0800 
 34 H       -6.4470    -4.3660     2.6860 H     1 <1>   0.4200 
 35 H       -4.9650    -5.4380     0.4820 H     1 <1>   0.0800 
 36 H       -6.7560    -6.8200    -0.1580 H     1 <1>   0.0800 
 37 H       -4.9960    -6.1710     3.0940 H     1 <1>   0.0800 
 38 H       -5.1770    -7.4260     1.8750 H     1 <1>   0.0800 
 39 H       -8.1840    -7.6500     1.4190 H     1 <1>   0.0800 
 40 H       -8.6080    -6.0530     2.0290 H     1 <1>   0.0800 
 41 H       -7.2620    -4.5390    -1.0330 H     1 <1>   0.0800 
 42 H       -8.2590    -4.2370     0.3540 H     1 <1>   0.0800 
 43 H      -10.5320    -5.1710     0.4770 H     1 <1>   0.1500 
 44 H       -7.9440    -6.4190    -2.6610 H     1 <1>   0.1500 
 45 H      -12.3440    -6.3010    -0.6850 H     1 <1>   0.1500 
 46 H       -9.8620    -7.4980    -3.6960 H     1 <1>   0.1500 
@<TRIPOS>BOND
  1   1   2  1   
  2   2   3  ar  
  3   2   4  ar  
  4   3   5  ar  
  5   3   6  1   
  6   4   7  ar  
  7   4  26  1   
  8   5   8  ar  
  9   5  27  1   
 10   6  28  1   
 11   6  29  1   
 12   6  30  1   
 13   7   8  ar  
 14   7   9  1   
 15   8  10  1   
 16   9  31  1   
 17   9  32  1   
 18   9  33  1   
 19  10  11  2   
 20  10  12  2   
 21  10  13  am  
 22  13  14  1   
 23  13  34  1   
 24  14  15  1   
 25  14  16  1   
 26  14  35  1   
 27  15  17  1   
 28  15  18  1   
 29  15  36  1   
 30  16  19  1   
 31  16  37  1   
 32  16  38  1   
 33  17  19  1   
 34  17  39  1   
 35  17  40  1   
 36  18  20  1   
 37  18  41  1   
 38  18  42  1   
 39  20  21  ar  
 40  20  22  ar  
 41  21  23  ar  
 42  21  43  1   
 43  22  24  ar  
 44  22  44  1   
 45  23  25  ar  
 46  23  45  1   
 47  24  25  ar  
 48  24  46  1   
@<TRIPOS>SUBSTRUCTURE
  1 ****  18 GROUP 4 **** **** 0

# MOE 2024.06 (io_trps.svl 2023.06)
