@<TRIPOS>MOLECULE
NONAME
42 44 1 0 0 
SMALL
USER_CHARGES


@<TRIPOS>ATOM
  1 CL      -0.7730     0.2050    -0.8070 Cl    1 <1>  -0.1770 
  2 C       -2.2850     1.0230    -0.4980 C.ar  1 <1>   0.1770 
  3 C       -3.4710     0.4350    -0.8950 C.ar  1 <1>  -0.1500 
  4 C       -2.2750     2.2500     0.1390 C.ar  1 <1>  -0.1500 
  5 C       -4.6650     1.0890    -0.6490 C.ar  1 <1>  -0.1500 
  6 C       -3.4760     2.8950     0.3820 C.ar  1 <1>  -0.1500 
  7 C       -4.6850     2.3250    -0.0050 C.ar  1 <1>   0.1170 
  8 N       -5.8740     3.0230     0.2470 N.am  1 <1>  -0.5470 
  9 C       -7.1550     2.5810     0.4220 C.2   1 <1>   0.6900 
 10 O       -7.3920     1.3920     0.5270 O.2   1 <1>  -0.5700 
 11 N       -8.1710     3.5030     0.5060 N.am  1 <1>  -0.6600 
 12 C       -9.5470     3.0910     0.9180 C.3   1 <1>   0.1400 
 13 C       -8.0850     4.9180     0.0480 C.3   1 <1>   0.1400 
 14 C      -10.5600     3.2720    -0.2400 C.3   1 <1>   0.0000 
 15 C       -9.0680     5.1540    -1.1050 C.3   1 <1>  -0.1600 
 16 C      -11.9930     2.8740     0.1710 C.3   1 <1>   0.2000 
 17 C      -10.5010     4.7330    -0.7380 C.3   1 <1>  -0.1600 
 18 C      -10.2750     2.2650    -1.3690 C.3   1 <1>  -0.1600 
 19 O      -12.2940     3.2040     1.4820 O.3   1 <1>  -0.6800 
 20 C      -12.1100     1.3610    -0.0300 C.3   1 <1>  -0.1600 
 21 C      -10.9270     0.9560    -0.9180 C.3   1 <1>  -0.1600 
 22 H       -3.4570    -0.5200    -1.3890 H     1 <1>   0.1500 
 23 H       -1.3400     2.6860     0.4390 H     1 <1>   0.1500 
 24 H       -5.5890     0.6340    -0.9610 H     1 <1>   0.1500 
 25 H       -3.4710     3.8470     0.8800 H     1 <1>   0.1500 
 26 H       -5.7730     4.0090     0.4500 H     1 <1>   0.3700 
 27 H       -9.5520     2.0700     1.2580 H     1 <1>   0.0800 
 28 H       -9.8380     3.7080     1.7500 H     1 <1>   0.0800 
 29 H       -8.3330     5.5650     0.8730 H     1 <1>   0.0800 
 30 H       -7.0920     5.1620    -0.2840 H     1 <1>   0.0800 
 31 H       -9.0590     6.1970    -1.3670 H     1 <1>   0.0800 
 32 H       -8.7330     4.6020    -1.9650 H     1 <1>   0.0800 
 33 H      -12.7040     3.3740    -0.4650 H     1 <1>   0.0800 
 34 H      -11.1430     4.8620    -1.5920 H     1 <1>   0.0800 
 35 H      -10.8670     5.3790     0.0420 H     1 <1>   0.0800 
 36 H      -10.7500     2.5920    -2.2770 H     1 <1>   0.0800 
 37 H       -9.2250     2.1340    -1.5640 H     1 <1>   0.0800 
 38 H      -11.8310     2.5980     2.0900 H     1 <1>   0.4000 
 39 H      -12.0640     0.8260     0.9030 H     1 <1>   0.0800 
 40 H      -13.0390     1.1350    -0.5220 H     1 <1>   0.0800 
 41 H      -10.2170     0.3870    -0.3390 H     1 <1>   0.0800 
 42 H      -11.2400     0.3630    -1.7590 H     1 <1>   0.0800 
@<TRIPOS>BOND
  1   1   2  1   
  2   2   3  ar  
  3   2   4  ar  
  4   3   5  ar  
  5   3  22  1   
  6   4   6  ar  
  7   4  23  1   
  8   5   7  ar  
  9   5  24  1   
 10   6   7  ar  
 11   6  25  1   
 12   7   8  1   
 13   8   9  am  
 14   8  26  1   
 15   9  10  2   
 16   9  11  am  
 17  11  12  1   
 18  11  13  1   
 19  12  14  1   
 20  12  27  1   
 21  12  28  1   
 22  13  15  1   
 23  13  29  1   
 24  13  30  1   
 25  14  16  1   
 26  14  17  1   
 27  14  18  1   
 28  15  17  1   
 29  15  31  1   
 30  15  32  1   
 31  16  19  1   
 32  16  20  1   
 33  16  33  1   
 34  17  34  1   
 35  17  35  1   
 36  18  21  1   
 37  18  36  1   
 38  18  37  1   
 39  19  38  1   
 40  20  21  1   
 41  20  39  1   
 42  20  40  1   
 43  21  41  1   
 44  21  42  1   
@<TRIPOS>SUBSTRUCTURE
  1 ****   9 GROUP 4 **** **** 0

# MOE 2024.06 (io_trps.svl 2023.06)
