@<TRIPOS>MOLECULE
NONAME
43 45 1 0 0 
SMALL
USER_CHARGES


@<TRIPOS>ATOM
  1 N       -0.5910     0.1870     0.3300 N.ar  1 <1>  -0.6200 
  2 C        0.6000     0.6560     0.0050 C.ar  1 <1>   0.7710 
  3 C       -1.5750     1.0410     0.5330 C.ar  1 <1>   0.4100 
  4 N        0.8150     1.9710    -0.1420 N.ar  1 <1>  -0.1790 
  5 N        1.6330    -0.2100    -0.1950 N.pl3 1 <1>  -0.8380 
  6 N       -2.7890     0.5200     0.8440 N.3   1 <1>  -0.5900 
  7 C       -1.3860     2.4460     0.4250 C.ar  1 <1>  -0.1430 
  8 C       -0.1530     2.8970     0.0550 C.ar  1 <1>   0.2180 
  9 C        3.0810     0.1340    -0.3640 C.3   1 <1>   0.1290 
 10 C        1.4060    -1.6950    -0.1830 C.3   1 <1>   0.1290 
 11 C       -3.1190    -0.9110     1.2040 C.3   1 <1>   0.2450 
 12 C       -3.9910     0.5280    -0.0580 C.3   1 <1>   0.2450 
 13 C       -2.5570     3.3840     0.7460 C.3   1 <1>  -0.0970 
 14 C        0.2470     4.3520    -0.1580 C.3   1 <1>  -0.0970 
 15 C       -3.8910    -1.0120    -0.1290 C.3   1 <1>   0.1080 
 16 C       -5.2210    -1.7480    -0.0420 C.ar  1 <1>   0.2020 
 17 N       -5.2610    -2.8170     0.7420 N.ar  1 <1>  -0.6200 
 18 C       -6.3080    -1.2980    -0.7820 C.ar  1 <1>  -0.1500 
 19 C       -6.4210    -3.4500     0.8020 C.ar  1 <1>   0.1600 
 20 C       -7.5110    -1.9670    -0.7090 C.ar  1 <1>  -0.1500 
 21 C       -7.5580    -3.0730     0.1100 C.ar  1 <1>  -0.1500 
 22 H        1.7510     2.2210    -0.4260 H     1 <1>   0.4570 
 23 H        3.3000     1.1330    -0.0330 H     1 <1>   0.0800 
 24 H        3.3640     0.0290    -1.3990 H     1 <1>   0.0800 
 25 H        3.6840    -0.5420     0.2220 H     1 <1>   0.0800 
 26 H        0.3920    -1.9430    -0.4470 H     1 <1>   0.0800 
 27 H        1.6100    -2.0870     0.7990 H     1 <1>   0.0800 
 28 H        2.0560    -2.1780    -0.8930 H     1 <1>   0.0800 
 29 H       -3.7420    -0.9480     2.0810 H     1 <1>   0.0000 
 30 H       -2.2570    -1.5520     1.2560 H     1 <1>   0.0000 
 31 H       -3.7980     1.0190    -0.9950 H     1 <1>   0.0000 
 32 H       -4.8600     0.8930     0.4620 H     1 <1>   0.0000 
 33 H       -3.1190     3.0100     1.5840 H     1 <1>   0.0800 
 34 H       -3.2180     3.4550    -0.1000 H     1 <1>   0.0800 
 35 H       -2.2310     4.3710     1.0130 H     1 <1>   0.0800 
 36 H        0.8920     4.4480    -1.0130 H     1 <1>   0.0800 
 37 H        0.7620     4.7250     0.7100 H     1 <1>   0.0800 
 38 H       -0.6090     4.9770    -0.3400 H     1 <1>   0.0800 
 39 H       -3.2690    -1.3530    -0.9390 H     1 <1>   0.0000 
 40 H       -6.2220    -0.4350    -1.4150 H     1 <1>   0.1500 
 41 H       -6.4680    -4.3180     1.4380 H     1 <1>   0.1500 
 42 H       -8.3720    -1.6420    -1.2680 H     1 <1>   0.1500 
 43 H       -8.4650    -3.6410     0.2130 H     1 <1>   0.1500 
@<TRIPOS>BOND
  1   1   2  ar  
  2   1   3  ar  
  3   2   4  ar  
  4   2   5  1   
  5   3   6  1   
  6   3   7  ar  
  7   4   8  ar  
  8   4  22  1   
  9   5   9  1   
 10   5  10  1   
 11   6  11  1   
 12   6  12  1   
 13   7   8  ar  
 14   7  13  1   
 15   8  14  1   
 16   9  23  1   
 17   9  24  1   
 18   9  25  1   
 19  10  26  1   
 20  10  27  1   
 21  10  28  1   
 22  11  15  1   
 23  11  29  1   
 24  11  30  1   
 25  12  15  1   
 26  12  31  1   
 27  12  32  1   
 28  13  33  1   
 29  13  34  1   
 30  13  35  1   
 31  14  36  1   
 32  14  37  1   
 33  14  38  1   
 34  15  16  1   
 35  15  39  1   
 36  16  17  ar  
 37  16  18  ar  
 38  17  19  ar  
 39  18  20  ar  
 40  18  40  1   
 41  19  21  ar  
 42  19  41  1   
 43  20  21  ar  
 44  20  42  1   
 45  21  43  1   
@<TRIPOS>SUBSTRUCTURE
  1 ****   6 GROUP 4 **** **** 0

# MOE 2024.06 (io_trps.svl 2023.06)
