@<TRIPOS>MOLECULE
NONAME
51 53 1 0 0 
SMALL
USER_CHARGES


@<TRIPOS>ATOM
  1 O       -1.0890    -0.0600     0.4730 O.3   1 <1>  -0.3630 
  2 C       -0.6500     1.1300    -0.0170 C.ar  1 <1>   0.0830 
  3 C       -1.9440    -0.8930    -0.2680 C.3   1 <1>   0.1200 
  4 C        0.2070     1.8790     0.7840 C.ar  1 <1>  -0.1440 
  5 C       -1.0210     1.6170    -1.2680 C.ar  1 <1>  -0.1500 
  6 C       -2.1960    -2.1480     0.5710 C.3   1 <1>   0.3430 
  7 C        0.6830     3.0970     0.3250 C.ar  1 <1>  -0.1500 
  8 C        0.6290     1.3790     2.1580 C.3   1 <1>  -0.0960 
  9 C       -0.5380     2.8340    -1.7130 C.ar  1 <1>  -0.1500 
 10 N       -3.0010    -3.1820    -0.1620 N.4   1 <1>  -0.9590 
 11 C        0.3180     3.5800    -0.9200 C.ar  1 <1>  -0.1430 
 12 C       -4.4330    -2.7530    -0.3310 C.3   1 <1>   0.3430 
 13 C       -3.0270    -4.4510     0.6370 C.3   1 <1>   0.3430 
 14 C        0.8480     4.9170    -1.4060 C.3   1 <1>  -0.0970 
 15 C       -5.2580    -3.5960     0.6480 C.3   1 <1>   0.2000 
 16 C       -4.4870    -4.9080     0.7170 C.3   1 <1>  -0.0800 
 17 O       -5.1910    -2.9920     1.8970 O.3   1 <1>  -0.6800 
 18 C       -4.8620    -5.8660    -0.4330 C.3   1 <1>  -0.0170 
 19 C       -3.8850    -7.0290    -0.5100 C.ar  1 <1>  -0.1430 
 20 C       -3.0410    -7.2060    -1.5890 C.ar  1 <1>  -0.1500 
 21 C       -3.7880    -7.9650     0.5000 C.ar  1 <1>  -0.1500 
 22 C       -2.1510    -8.2670    -1.5950 C.ar  1 <1>   0.1600 
 23 C       -2.8610    -8.9900     0.3970 C.ar  1 <1>   0.1600 
 24 N       -2.0350    -9.1530    -0.6210 N.ar  1 <1>  -0.6200 
 25 H       -2.8560    -0.3540    -0.4510 H     1 <1>   0.0800 
 26 H       -1.4460    -1.1410    -1.1890 H     1 <1>   0.0800 
 27 H       -1.6810     1.0750    -1.9150 H     1 <1>   0.1500 
 28 H       -2.7100    -1.8680     1.4770 H     1 <1>   0.0800 
 29 H       -1.2400    -2.5670     0.8390 H     1 <1>   0.0800 
 30 H        1.3460     3.6790     0.9410 H     1 <1>   0.1500 
 31 H        1.2790     2.0830     2.6450 H     1 <1>   0.0800 
 32 H        1.1490     0.4430     2.0620 H     1 <1>   0.0800 
 33 H       -0.2390     1.2340     2.7760 H     1 <1>   0.0800 
 34 H       -0.8310     3.2030    -2.6810 H     1 <1>   0.1500 
 35 H       -2.5710    -3.3690    -1.0770 H     1 <1>   0.4500 
 36 H       -4.5730    -1.7030    -0.1340 H     1 <1>   0.0800 
 37 H       -4.7550    -2.9690    -1.3360 H     1 <1>   0.0800 
 38 H       -2.3930    -5.2080     0.2020 H     1 <1>   0.0800 
 39 H       -2.6820    -4.2510     1.6390 H     1 <1>   0.0800 
 40 H        0.8600     4.9510    -2.4810 H     1 <1>   0.0800 
 41 H        1.8510     5.0720    -1.0510 H     1 <1>   0.0800 
 42 H        0.2220     5.7100    -1.0400 H     1 <1>   0.0800 
 43 H       -6.2920    -3.6920     0.3590 H     1 <1>   0.0800 
 44 H       -4.6640    -5.4150     1.6500 H     1 <1>   0.0800 
 45 H       -5.8460    -3.3770     2.5190 H     1 <1>   0.4000 
 46 H       -4.8690    -5.3490    -1.3770 H     1 <1>   0.0800 
 47 H       -5.8540    -6.2540    -0.2730 H     1 <1>   0.0800 
 48 H       -3.0630    -6.5410    -2.4330 H     1 <1>   0.1500 
 49 H       -4.4200    -7.9190     1.3680 H     1 <1>   0.1500 
 50 H       -1.5000    -8.3960    -2.4440 H     1 <1>   0.1500 
 51 H       -2.7960    -9.7130     1.1930 H     1 <1>   0.1500 
@<TRIPOS>BOND
  1   1   2  1   
  2   1   3  1   
  3   2   4  ar  
  4   2   5  ar  
  5   3   6  1   
  6   3  25  1   
  7   3  26  1   
  8   4   7  ar  
  9   4   8  1   
 10   5   9  ar  
 11   5  27  1   
 12   6  10  1   
 13   6  28  1   
 14   6  29  1   
 15   7  11  ar  
 16   7  30  1   
 17   8  31  1   
 18   8  32  1   
 19   8  33  1   
 20   9  11  ar  
 21   9  34  1   
 22  10  12  1   
 23  10  13  1   
 24  10  35  1   
 25  11  14  1   
 26  12  15  1   
 27  12  36  1   
 28  12  37  1   
 29  13  16  1   
 30  13  38  1   
 31  13  39  1   
 32  14  40  1   
 33  14  41  1   
 34  14  42  1   
 35  15  16  1   
 36  15  17  1   
 37  15  43  1   
 38  16  18  1   
 39  16  44  1   
 40  17  45  1   
 41  18  19  1   
 42  18  46  1   
 43  18  47  1   
 44  19  20  ar  
 45  19  21  ar  
 46  20  22  ar  
 47  20  48  1   
 48  21  23  ar  
 49  21  49  1   
 50  22  24  ar  
 51  22  50  1   
 52  23  24  ar  
 53  23  51  1   
@<TRIPOS>SUBSTRUCTURE
  1 ****   6 GROUP 4 **** **** 0

# MOE 2024.06 (io_trps.svl 2023.06)
