@<TRIPOS>MOLECULE
NONAME
48 51 1 0 0 
SMALL
USER_CHARGES


@<TRIPOS>ATOM
  1 O       -0.4660    -0.0010     0.2920 O.2   1 <1>  -0.5700 
  2 C       -1.3690     0.6620     0.7730 C.2   1 <1>   0.7160 
  3 N       -2.5430     0.0210     1.1080 N.am  1 <1>  -0.6600 
  4 C       -1.2190     2.0910     0.9620 C.2   1 <1>  -0.0860 
  5 C       -2.6550    -1.4710     1.1250 C.3   1 <1>   0.1400 
  6 C       -3.8740     0.6960     1.0270 C.3   1 <1>   0.1400 
  7 C       -0.6660     3.0500     0.1430 C.2   1 <1>  -0.3320 
  8 C       -1.6440     2.7930     2.1080 C.2   1 <1>  -0.1500 
  9 C       -3.5640    -1.9670    -0.0140 C.3   1 <1>   0.3440 
 10 C       -4.7280     0.0810    -0.1000 C.3   1 <1>   0.2950 
 11 N       -0.7420     4.2690     0.7310 N.pl3 1 <1>   0.0480 
 12 C       -0.0400     2.8400    -1.2290 C.3   1 <1>  -0.0600 
 13 C       -1.3460     4.1020     1.9340 C.2   1 <1>  -0.3020 
 14 O       -4.8050    -1.3090     0.0400 O.3   1 <1>  -0.5600 
 15 C       -3.7760    -3.4750     0.0870 C.ar  1 <1>  -0.1430 
 16 C       -6.1600     0.6250    -0.0800 C.3   1 <1>  -0.1950 
 17 C       -0.2540     5.5520     0.1950 C.3   1 <1>   0.0160 
 18 C       -4.8260    -4.0150     0.8180 C.ar  1 <1>  -0.1500 
 19 C       -2.8930    -4.3320    -0.5540 C.ar  1 <1>  -0.1500 
 20 C       -7.0170     0.5950    -1.3060 C.3   1 <1>  -0.2000 
 21 C       -6.5090     1.9050    -0.7730 C.3   1 <1>  -0.2000 
 22 C       -4.9900    -5.3860     0.9070 C.ar  1 <1>  -0.1500 
 23 C       -3.0550    -5.7040    -0.4660 C.ar  1 <1>  -0.1500 
 24 C       -4.1040    -6.2320     0.2650 C.ar  1 <1>  -0.1500 
 25 H       -1.6860    -1.9290     1.0300 H     1 <1>   0.0800 
 26 H       -3.0700    -1.7850     2.0670 H     1 <1>   0.0800 
 27 H       -4.3860     0.5830     1.9660 H     1 <1>   0.0800 
 28 H       -3.7620     1.7470     0.8340 H     1 <1>   0.0800 
 29 H       -2.1160     2.3340     2.9600 H     1 <1>   0.1500 
 30 H       -3.1090    -1.7380    -0.9620 H     1 <1>   0.0800 
 31 H       -4.2770     0.2960    -1.0540 H     1 <1>   0.0800 
 32 H       -0.1210     1.8120    -1.5340 H     1 <1>   0.0800 
 33 H        1.0030     3.1000    -1.2010 H     1 <1>   0.0800 
 34 H       -0.5360     3.4490    -1.9620 H     1 <1>   0.0800 
 35 H       -1.5260     4.9220     2.6060 H     1 <1>   0.1500 
 36 H       -6.6480     0.4310     0.8590 H     1 <1>   0.1000 
 37 H       -0.4320     6.3330     0.9100 H     1 <1>   0.0800 
 38 H       -0.7740     5.7750    -0.7180 H     1 <1>   0.0800 
 39 H        0.8000     5.4750     0.0020 H     1 <1>   0.0800 
 40 H       -5.5240    -3.3640     1.3180 H     1 <1>   0.1500 
 41 H       -2.0710    -3.9360    -1.1250 H     1 <1>   0.1500 
 42 H       -6.6000     0.1990    -2.2160 H     1 <1>   0.1000 
 43 H       -8.0590     0.3510    -1.1930 H     1 <1>   0.1000 
 44 H       -7.2090     2.5750    -0.3040 H     1 <1>   0.1000 
 45 H       -5.7560     2.4270    -1.3390 H     1 <1>   0.1000 
 46 H       -5.8090    -5.7930     1.4740 H     1 <1>   0.1500 
 47 H       -2.3650    -6.3610    -0.9670 H     1 <1>   0.1500 
 48 H       -4.2310    -7.2980     0.3340 H     1 <1>   0.1500 
@<TRIPOS>BOND
  1   1   2  2   
  2   2   3  am  
  3   2   4  1   
  4   3   5  1   
  5   3   6  1   
  6   4   7  2   
  7   4   8  1   
  8   5   9  1   
  9   5  25  1   
 10   5  26  1   
 11   6  10  1   
 12   6  27  1   
 13   6  28  1   
 14   7  11  1   
 15   7  12  1   
 16   8  13  2   
 17   8  29  1   
 18   9  14  1   
 19   9  15  1   
 20   9  30  1   
 21  10  14  1   
 22  10  16  1   
 23  10  31  1   
 24  11  13  1   
 25  11  17  1   
 26  12  32  1   
 27  12  33  1   
 28  12  34  1   
 29  13  35  1   
 30  15  18  ar  
 31  15  19  ar  
 32  16  20  1   
 33  16  21  1   
 34  16  36  1   
 35  17  37  1   
 36  17  38  1   
 37  17  39  1   
 38  18  22  ar  
 39  18  40  1   
 40  19  23  ar  
 41  19  41  1   
 42  20  21  1   
 43  20  42  1   
 44  20  43  1   
 45  21  44  1   
 46  21  45  1   
 47  22  24  ar  
 48  22  46  1   
 49  23  24  ar  
 50  23  47  1   
 51  24  48  1   
@<TRIPOS>SUBSTRUCTURE
  1 ****   3 GROUP 4 **** **** 0

# MOE 2024.06 (io_trps.svl 2023.06)
