@<TRIPOS>MOLECULE
NONAME
49 52 1 0 0 
SMALL
USER_CHARGES


@<TRIPOS>ATOM
  1 O       -0.7160    -1.7580    -1.0510 O.2   1 <1>  -0.5700 
  2 C        0.2480    -2.4470    -0.8210 C.2   1 <1>   0.5690 
  3 N        0.5410    -3.0160     0.3650 N.am  1 <1>  -0.6600 
  4 C        1.2620    -2.8310    -1.8630 C.3   1 <1>  -0.0990 
  5 C        1.7010    -3.9190     0.3020 C.3   1 <1>   0.1400 
  6 C       -0.3210    -2.9710     1.5870 C.3   1 <1>   0.2010 
  7 C        2.3180    -3.6260    -1.0730 C.3   1 <1>  -0.1600 
  8 C       -0.9600    -4.3230     1.9100 C.2   1 <1>   0.5690 
  9 O       -0.4810    -4.9780     2.8080 O.2   1 <1>  -0.5700 
 10 N       -2.0310    -4.7810     1.1900 N.am  1 <1>  -0.6600 
 11 C       -2.7050    -4.0700     0.0740 C.3   1 <1>   0.1400 
 12 C       -2.4930    -6.1890     1.2590 C.3   1 <1>   0.1400 
 13 C       -3.8700    -4.9820    -0.3110 C.3   1 <1>   0.2000 
 14 C       -3.3630    -6.3910     0.0070 C.3   1 <1>  -0.0800 
 15 O       -4.9380    -4.7130     0.5290 O.3   1 <1>  -0.6800 
 16 C       -2.5520    -6.9540    -1.1780 C.3   1 <1>  -0.0170 
 17 C       -2.0270    -8.3530    -0.9030 C.ar  1 <1>   0.1670 
 18 N       -0.7720    -8.4710    -0.5930 N.ar  1 <1>  -0.6200 
 19 C       -2.9110    -9.4400    -0.9940 C.ar  1 <1>  -0.1500 
 20 C       -0.2990    -9.7160    -0.3320 C.ar  1 <1>   0.3100 
 21 C       -2.4620   -10.7010    -0.7430 C.ar  1 <1>  -0.1500 
 22 C       -1.1110   -10.8690    -0.3960 C.ar  1 <1>   0.0000 
 23 C        1.0510    -9.8680     0.0210 C.ar  1 <1>  -0.1500 
 24 C       -0.5400   -12.1260    -0.1110 C.ar  1 <1>  -0.1500 
 25 C        1.5870   -11.0980     0.2960 C.ar  1 <1>  -0.1500 
 26 C        0.7810   -12.2390     0.2290 C.ar  1 <1>  -0.1500 
 27 H        0.7860    -3.4470    -2.6040 H     1 <1>   0.0800 
 28 H        1.6800    -1.9550    -2.3220 H     1 <1>   0.0800 
 29 H        2.3920    -3.7110     1.1010 H     1 <1>   0.0800 
 30 H        1.3660    -4.9420     0.3640 H     1 <1>   0.0800 
 31 H        0.2800    -2.6670     2.4240 H     1 <1>   0.0800 
 32 H       -1.0950    -2.2370     1.4560 H     1 <1>   0.0800 
 33 H        3.2000    -3.0250    -0.9380 H     1 <1>   0.0800 
 34 H        2.5950    -4.5360    -1.5750 H     1 <1>   0.0800 
 35 H       -3.0410    -3.0870     0.3590 H     1 <1>   0.0800 
 36 H       -2.0240    -3.9890    -0.7540 H     1 <1>   0.0800 
 37 H       -1.6540    -6.8630     1.2990 H     1 <1>   0.0800 
 38 H       -3.0830    -6.3180     2.1500 H     1 <1>   0.0800 
 39 H       -4.1960    -4.8500    -1.3290 H     1 <1>   0.0800 
 40 H       -4.1810    -7.0590     0.2140 H     1 <1>   0.0800 
 41 H       -4.6100    -4.6770     1.4500 H     1 <1>   0.4000 
 42 H       -1.7190    -6.3090    -1.3960 H     1 <1>   0.0800 
 43 H       -3.1720    -6.9880    -2.0560 H     1 <1>   0.0800 
 44 H       -3.9360    -9.2630    -1.2610 H     1 <1>   0.1500 
 45 H       -3.1080   -11.5580    -0.8030 H     1 <1>   0.1500 
 46 H        1.6520    -8.9790     0.0690 H     1 <1>   0.1500 
 47 H       -1.1650   -12.9990    -0.1640 H     1 <1>   0.1500 
 48 H        2.6240   -11.2010     0.5660 H     1 <1>   0.1500 
 49 H        1.2150   -13.2000     0.4470 H     1 <1>   0.1500 
@<TRIPOS>BOND
  1   1   2  2   
  2   2   3  am  
  3   2   4  1   
  4   3   5  1   
  5   3   6  1   
  6   4   7  1   
  7   4  27  1   
  8   4  28  1   
  9   5   7  1   
 10   5  29  1   
 11   5  30  1   
 12   6   8  1   
 13   6  31  1   
 14   6  32  1   
 15   7  33  1   
 16   7  34  1   
 17   8   9  2   
 18   8  10  am  
 19  10  11  1   
 20  10  12  1   
 21  11  13  1   
 22  11  35  1   
 23  11  36  1   
 24  12  14  1   
 25  12  37  1   
 26  12  38  1   
 27  13  14  1   
 28  13  15  1   
 29  13  39  1   
 30  14  16  1   
 31  14  40  1   
 32  15  41  1   
 33  16  17  1   
 34  16  42  1   
 35  16  43  1   
 36  17  18  ar  
 37  17  19  ar  
 38  18  20  ar  
 39  19  21  ar  
 40  19  44  1   
 41  20  22  ar  
 42  20  23  ar  
 43  21  22  ar  
 44  21  45  1   
 45  22  24  ar  
 46  23  25  ar  
 47  23  46  1   
 48  24  26  ar  
 49  24  47  1   
 50  25  26  ar  
 51  25  48  1   
 52  26  49  1   
@<TRIPOS>SUBSTRUCTURE
  1 ****  18 GROUP 4 **** **** 0

# MOE 2024.06 (io_trps.svl 2023.06)
