@<TRIPOS>MOLECULE
NONAME
56 60 1 0 0 
SMALL
USER_CHARGES


@<TRIPOS>ATOM
  1 O        0.1050    -0.1200    -0.4040 O.2   1 <1>  -0.5700 
  2 C       -1.0890    -0.0540    -0.6220 C.2   1 <1>   0.5440 
  3 N       -1.9070    -1.0470    -0.1530 N.am  1 <1>  -0.6600 
  4 C       -1.6430     1.0590    -1.3540 C.ar  1 <1>   0.0860 
  5 C       -1.5660    -2.0800     0.8210 C.3   1 <1>   0.2200 
  6 C       -3.3480    -1.0530    -0.0130 C.3   1 <1>   0.2200 
  7 C       -1.8560     2.3070    -0.7110 C.ar  1 <1>   0.0000 
  8 C       -1.9950     0.9120    -2.6800 C.ar  1 <1>  -0.1500 
  9 C       -2.3870    -3.2890     0.2810 C.3   1 <1>   0.0610 
 10 C       -2.2130    -1.4290     2.0620 C.3   1 <1>  -0.1600 
 11 C       -3.6480    -2.5390    -0.2600 C.3   1 <1>  -0.1600 
 12 C       -3.4750    -0.7590     1.4850 C.3   1 <1>  -0.1600 
 13 C       -2.4560     3.3630    -1.4350 C.ar  1 <1>   0.3100 
 14 C       -1.5060     2.5610     0.6290 C.ar  1 <1>  -0.1500 
 15 C       -2.5710     1.9580    -3.3990 C.ar  1 <1>  -0.1500 
 16 C       -2.6730    -4.3170     1.4040 C.2   1 <1>   0.5690 
 17 C       -1.6100    -4.0620    -0.8340 C.3   1 <1>  -0.1600 
 18 N       -2.7230     4.5760    -0.8870 N.ar  1 <1>  -0.6200 
 19 C       -2.7970     3.1560    -2.7790 C.ar  1 <1>  -0.1500 
 20 C       -1.7750     3.7890     1.1530 C.ar  1 <1>  -0.1500 
 21 O       -1.8270    -4.4470     2.2610 O.2   1 <1>  -0.5700 
 22 N       -3.8020    -5.1090     1.4400 N.am  1 <1>  -0.6600 
 23 C       -1.0920    -3.2790    -2.0530 C.3   1 <1>  -0.2400 
 24 C       -2.3880     4.7610     0.3530 C.ar  1 <1>   0.1600 
 25 C       -4.1280    -5.9200     2.6550 C.3   1 <1>   0.1400 
 26 C       -4.6530    -5.5010     0.2730 C.3   1 <1>   0.1400 
 27 C       -4.1110    -7.4200     2.3230 C.3   1 <1>   0.1200 
 28 C       -4.6150    -7.0250     0.0660 C.3   1 <1>   0.1200 
 29 O       -4.9620    -7.6920     1.2450 O.3   1 <1>  -0.5600 
 30 H       -0.5080    -2.2620     0.9180 H     1 <1>   0.0800 
 31 H       -3.8700    -0.3670    -0.6580 H     1 <1>   0.0800 
 32 H       -1.8230    -0.0300    -3.1730 H     1 <1>   0.1500 
 33 H       -2.4420    -2.1190     2.8520 H     1 <1>   0.0800 
 34 H       -1.5420    -0.6850     2.4550 H     1 <1>   0.0800 
 35 H       -4.5500    -2.8080     0.2560 H     1 <1>   0.0800 
 36 H       -3.7940    -2.7100    -1.3100 H     1 <1>   0.0800 
 37 H       -3.4550     0.3020     1.6570 H     1 <1>   0.0800 
 38 H       -4.3800    -1.1660     1.9000 H     1 <1>   0.0800 
 39 H       -1.0290     1.7980     1.2210 H     1 <1>   0.1500 
 40 H       -2.8330     1.8130    -4.4340 H     1 <1>   0.1500 
 41 H       -0.7560    -4.5290    -0.3720 H     1 <1>   0.0800 
 42 H       -2.2270    -4.8610    -1.2000 H     1 <1>   0.0800 
 43 H       -3.2440     3.9780    -3.3090 H     1 <1>   0.1500 
 44 H       -1.5250     4.0320     2.1700 H     1 <1>   0.1500 
 45 H       -0.3320    -2.5780    -1.7550 H     1 <1>   0.0800 
 46 H       -1.8830    -2.7450    -2.5460 H     1 <1>   0.0800 
 47 H       -0.6510    -3.9580    -2.7600 H     1 <1>   0.0800 
 48 H       -2.5910     5.7220     0.7940 H     1 <1>   0.1500 
 49 H       -3.4300    -5.7250     3.4500 H     1 <1>   0.0800 
 50 H       -5.1070    -5.6490     3.0090 H     1 <1>   0.0800 
 51 H       -5.6690    -5.1970     0.4580 H     1 <1>   0.0800 
 52 H       -4.3240    -5.0260    -0.6300 H     1 <1>   0.0800 
 53 H       -4.4540    -7.9910     3.1660 H     1 <1>   0.0800 
 54 H       -3.1140    -7.7390     2.0700 H     1 <1>   0.0800 
 55 H       -3.6310    -7.3430    -0.2320 H     1 <1>   0.0800 
 56 H       -5.3180    -7.3160    -0.6930 H     1 <1>   0.0800 
@<TRIPOS>BOND
  1   1   2  2   
  2   2   3  am  
  3   2   4  1   
  4   3   5  1   
  5   3   6  1   
  6   4   7  ar  
  7   4   8  ar  
  8   5   9  1   
  9   5  10  1   
 10   5  30  1   
 11   6  11  1   
 12   6  12  1   
 13   6  31  1   
 14   7  13  ar  
 15   7  14  ar  
 16   8  15  ar  
 17   8  32  1   
 18   9  11  1   
 19   9  16  1   
 20   9  17  1   
 21  10  12  1   
 22  10  33  1   
 23  10  34  1   
 24  11  35  1   
 25  11  36  1   
 26  12  37  1   
 27  12  38  1   
 28  13  18  ar  
 29  13  19  ar  
 30  14  20  ar  
 31  14  39  1   
 32  15  19  ar  
 33  15  40  1   
 34  16  21  2   
 35  16  22  am  
 36  17  23  1   
 37  17  41  1   
 38  17  42  1   
 39  18  24  ar  
 40  19  43  1   
 41  20  24  ar  
 42  20  44  1   
 43  22  25  1   
 44  22  26  1   
 45  23  45  1   
 46  23  46  1   
 47  23  47  1   
 48  24  48  1   
 49  25  27  1   
 50  25  49  1   
 51  25  50  1   
 52  26  28  1   
 53  26  51  1   
 54  26  52  1   
 55  27  29  1   
 56  27  53  1   
 57  27  54  1   
 58  28  29  1   
 59  28  55  1   
 60  28  56  1   
@<TRIPOS>SUBSTRUCTURE
  1 ****   3 GROUP 4 **** **** 0

# MOE 2024.06 (io_trps.svl 2023.06)
