@<TRIPOS>MOLECULE
NONAME
50 52 1 0 0 
SMALL
USER_CHARGES


@<TRIPOS>ATOM
  1 S       -0.2820    -0.3260    -0.3160 S.o2  1 <1>   1.3330 
  2 O        0.2650    -0.5760    -1.6270 O.2   1 <1>  -0.6500 
  3 O       -0.6230     1.0120     0.1040 O.2   1 <1>  -0.6500 
  4 N       -1.7070    -1.2970    -0.1120 N.am  1 <1>  -0.6930 
  5 C        0.8010    -1.0240     0.9110 C.3   1 <1>  -0.1350 
  6 C       -1.7460    -2.6560    -0.3890 C.ar  1 <1>   0.1990 
  7 C       -2.9310    -0.6050     0.3620 C.3   1 <1>   0.1160 
  8 C       -2.1340    -3.5630     0.5910 C.ar  1 <1>  -0.1500 
  9 C       -1.4060    -3.1610    -1.6390 C.ar  1 <1>  -0.1500 
 10 C       -2.1720    -4.9200     0.3350 C.ar  1 <1>  -0.1500 
 11 C       -1.4420    -4.5180    -1.8930 C.ar  1 <1>  -0.1500 
 12 C       -1.8210    -5.4410    -0.9150 C.ar  1 <1>   0.0860 
 13 C       -1.8460    -6.8640    -1.2020 C.2   1 <1>   0.5440 
 14 O       -1.8610    -7.2720    -2.3480 O.2   1 <1>  -0.5700 
 15 N       -1.8610    -7.7910    -0.1990 N.am  1 <1>  -0.7300 
 16 C       -1.8570    -9.2610    -0.3890 C.3   1 <1>   0.2200 
 17 C       -3.2380    -9.8540    -0.1410 C.3   1 <1>  -0.0800 
 18 C       -1.0750    -9.8980     0.7510 C.3   1 <1>   0.1200 
 19 C       -3.2730   -10.0250     1.3820 C.3   1 <1>   0.1200 
 20 C       -4.4250    -9.0600    -0.7200 C.3   1 <1>  -0.0170 
 21 O       -1.9550    -9.8980     1.8340 O.3   1 <1>  -0.5600 
 22 C       -5.7350    -9.7950    -0.4850 C.ar  1 <1>  -0.1430 
 23 C       -6.5860    -9.4660     0.5510 C.ar  1 <1>  -0.1500 
 24 C       -6.1390   -10.8330    -1.2990 C.ar  1 <1>  -0.1500 
 25 C       -7.7640   -10.1760     0.7210 C.ar  1 <1>   0.1600 
 26 C       -7.3380   -11.4780    -1.0430 C.ar  1 <1>   0.1600 
 27 N       -8.1590   -11.1760    -0.0500 N.ar  1 <1>  -0.6200 
 28 H        0.9880    -2.0570     0.6950 H     1 <1>   0.0800 
 29 H        0.3570    -0.9460     1.8840 H     1 <1>   0.0800 
 30 H        1.7360    -0.4990     0.9150 H     1 <1>   0.0800 
 31 H       -3.7680    -1.2810     0.3710 H     1 <1>   0.0800 
 32 H       -3.1570     0.2160    -0.2970 H     1 <1>   0.0800 
 33 H       -2.7720    -0.2210     1.3550 H     1 <1>   0.0800 
 34 H       -2.4060    -3.1930     1.5630 H     1 <1>   0.1500 
 35 H       -1.1180    -2.4820    -2.4220 H     1 <1>   0.1500 
 36 H       -2.4860    -5.5840     1.1200 H     1 <1>   0.1500 
 37 H       -1.1730    -4.8780    -2.8720 H     1 <1>   0.1500 
 38 H       -1.8210    -7.5070     0.7810 H     1 <1>   0.3700 
 39 H       -1.4580    -9.5220    -1.3550 H     1 <1>   0.0800 
 40 H       -3.2530   -10.8380    -0.5740 H     1 <1>   0.0800 
 41 H       -0.1830    -9.3520     1.0040 H     1 <1>   0.0800 
 42 H       -0.8300   -10.9210     0.5230 H     1 <1>   0.0800 
 43 H       -3.6500   -10.9930     1.6660 H     1 <1>   0.0800 
 44 H       -3.8550    -9.2540     1.8570 H     1 <1>   0.0800 
 45 H       -4.2780    -8.9200    -1.7770 H     1 <1>   0.0800 
 46 H       -4.4800    -8.0840    -0.2720 H     1 <1>   0.0800 
 47 H       -6.3480    -8.6660     1.2270 H     1 <1>   0.1500 
 48 H       -5.5340   -11.1440    -2.1310 H     1 <1>   0.1500 
 49 H       -8.4160    -9.9060     1.5340 H     1 <1>   0.1500 
 50 H       -7.6370   -12.2850    -1.6890 H     1 <1>   0.1500 
@<TRIPOS>BOND
  1   1   2  2   
  2   1   3  2   
  3   1   4  am  
  4   1   5  1   
  5   4   6  1   
  6   4   7  1   
  7   5  28  1   
  8   5  29  1   
  9   5  30  1   
 10   6   8  ar  
 11   6   9  ar  
 12   7  31  1   
 13   7  32  1   
 14   7  33  1   
 15   8  10  ar  
 16   8  34  1   
 17   9  11  ar  
 18   9  35  1   
 19  10  12  ar  
 20  10  36  1   
 21  11  12  ar  
 22  11  37  1   
 23  12  13  1   
 24  13  14  2   
 25  13  15  am  
 26  15  16  1   
 27  15  38  1   
 28  16  17  1   
 29  16  18  1   
 30  16  39  1   
 31  17  19  1   
 32  17  20  1   
 33  17  40  1   
 34  18  21  1   
 35  18  41  1   
 36  18  42  1   
 37  19  21  1   
 38  19  43  1   
 39  19  44  1   
 40  20  22  1   
 41  20  45  1   
 42  20  46  1   
 43  22  23  ar  
 44  22  24  ar  
 45  23  25  ar  
 46  23  47  1   
 47  24  26  ar  
 48  24  48  1   
 49  25  27  ar  
 50  25  49  1   
 51  26  27  ar  
 52  26  50  1   
@<TRIPOS>SUBSTRUCTURE
  1 ****  13 GROUP 4 **** **** 0

# MOE 2024.06 (io_trps.svl 2023.06)
