@<TRIPOS>MOLECULE
NONAME
37 38 1 0 0 
SMALL
USER_CHARGES


@<TRIPOS>ATOM
  1 S       -0.6140     0.5690     1.2330 S.o2  1 <1>   1.4470 
  2 O       -1.3200     1.6910     1.8130 O.2   1 <1>  -0.6500 
  3 O       -0.4110    -0.6320     2.0150 O.2   1 <1>  -0.6500 
  4 N       -1.3910     0.1560    -0.2180 N.am  1 <1>  -0.8490 
  5 C        0.9980     1.1660     0.6480 C.ar  1 <1>  -0.0090 
  6 C       -0.9070    -1.1060    -0.8430 C.3   1 <1>   0.1960 
  7 C       -2.8560     0.2360    -0.1640 C.3   1 <1>   0.1960 
  8 C        2.1870     0.6980     1.2010 C.ar  1 <1>  -0.1500 
  9 C        1.0840     2.1140    -0.3680 C.ar  1 <1>  -0.1500 
 10 C       -1.9160    -2.2800    -0.8600 C.3   1 <1>   0.2000 
 11 C       -3.4760    -0.9190     0.6400 C.3   1 <1>  -0.1600 
 12 C        3.4160     1.1560     0.7600 C.ar  1 <1>  -0.1500 
 13 C        2.3070     2.5800    -0.8180 C.ar  1 <1>  -0.1500 
 14 O       -2.7330    -2.1720    -1.9760 O.3   1 <1>  -0.6800 
 15 C       -2.7980    -2.2910     0.3930 C.3   1 <1>  -0.1860 
 16 C        3.4750     2.1040    -0.2480 C.ar  1 <1>   0.0820 
 17 C       -3.7860    -3.4400     0.3340 C.2   1 <1>   0.9060 
 18 O        4.6700     2.5480    -0.6860 O.3   1 <1>  -0.3630 
 19 O       -3.7970    -4.2700     1.2450 O.co2 1 <1>  -0.9000 
 20 O       -4.5340    -3.5210    -0.6510 O.co2 1 <1>  -0.9000 
 21 C        5.2210     3.6830    -0.0500 C.3   1 <1>   1.3000 
 22 F        4.4280     4.7410    -0.1720 F     1 <1>  -0.3400 
 23 F        5.4270     3.4620     1.2430 F     1 <1>  -0.3400 
 24 F        6.3890     3.9880    -0.5980 F     1 <1>  -0.3400 
 25 H       -0.6180    -0.9010    -1.8590 H     1 <1>   0.0800 
 26 H       -0.0240    -1.4430    -0.3300 H     1 <1>   0.0800 
 27 H       -3.1670     1.1800     0.2490 H     1 <1>   0.0800 
 28 H       -3.2330     0.1960    -1.1720 H     1 <1>   0.0800 
 29 H        2.1460    -0.0370     1.9890 H     1 <1>   0.1500 
 30 H        0.1740     2.4870    -0.8100 H     1 <1>   0.1500 
 31 H       -1.3920    -3.2170    -0.9480 H     1 <1>   0.0800 
 32 H       -3.4390    -0.6910     1.6910 H     1 <1>   0.0800 
 33 H       -4.5160    -0.9830     0.3700 H     1 <1>   0.0800 
 34 H        4.3240     0.7780     1.1970 H     1 <1>   0.1500 
 35 H        2.3510     3.3090    -1.6090 H     1 <1>   0.1500 
 36 H       -3.5620    -2.6980    -1.7550 H     1 <1>   0.4000 
 37 H       -2.1530    -2.4890     1.2290 H     1 <1>   0.0800 
@<TRIPOS>BOND
  1   1   2  2   
  2   1   3  2   
  3   1   4  am  
  4   1   5  1   
  5   4   6  1   
  6   4   7  1   
  7   5   8  ar  
  8   5   9  ar  
  9   6  10  1   
 10   6  25  1   
 11   6  26  1   
 12   7  11  1   
 13   7  27  1   
 14   7  28  1   
 15   8  12  ar  
 16   8  29  1   
 17   9  13  ar  
 18   9  30  1   
 19  10  14  1   
 20  10  15  1   
 21  10  31  1   
 22  11  15  1   
 23  11  32  1   
 24  11  33  1   
 25  12  16  ar  
 26  12  34  1   
 27  13  16  ar  
 28  13  35  1   
 29  14  36  1   
 30  15  17  1   
 31  15  37  1   
 32  16  18  1   
 33  17  19  ar  
 34  17  20  ar  
 35  18  21  1   
 36  21  22  1   
 37  21  23  1   
 38  21  24  1   
@<TRIPOS>SUBSTRUCTURE
  1 ****   5 GROUP 4 **** **** 0

# MOE 2024.06 (io_trps.svl 2023.06)
