@<TRIPOS>MOLECULE
NONAME
54 57 1 0 0 
SMALL
USER_CHARGES


@<TRIPOS>ATOM
  1 O        3.7060     1.1620    -2.2500 O.2   1 <1>  -0.5700 
  2 C        3.7930     0.2090    -1.5180 C.2   1 <1>   0.5690 
  3 N        3.0330     0.1040    -0.4080 N.am  1 <1>  -0.7300 
  4 C        4.7730    -0.9110    -1.8010 C.3   1 <1>  -0.0990 
  5 C        3.2090    -0.9910     0.5670 C.3   1 <1>   0.1400 
  6 C        4.1210    -2.2800    -1.5160 C.3   1 <1>  -0.0800 
  7 C        3.3340    -2.3340    -0.1820 C.3   1 <1>  -0.0800 
  8 C        5.1370    -3.4310    -1.4840 C.3   1 <1>  -0.1600 
  9 C        4.0080    -3.4160     0.6690 C.3   1 <1>  -0.1600 
 10 C        4.6910    -4.3340    -0.3380 C.3   1 <1>   0.2200 
 11 N        5.7910    -5.1790     0.2220 N.am  1 <1>  -0.6600 
 12 C        7.0350    -4.7350     0.6480 C.2   1 <1>   0.5440 
 13 C        5.5860    -6.6380    -0.0180 C.3   1 <1>   0.0600 
 14 O        7.9980    -5.4610     0.4890 O.2   1 <1>  -0.5700 
 15 C        7.2420    -3.4570     1.2990 C.ar  1 <1>   0.0860 
 16 C        7.8060    -2.3800     0.6220 C.ar  1 <1>  -0.1500 
 17 C        6.8890    -3.2700     2.6340 C.ar  1 <1>  -0.1500 
 18 C        7.9650    -1.1320     1.2110 C.ar  1 <1>   0.0000 
 19 C        7.0490    -2.0420     3.2480 C.ar  1 <1>  -0.1500 
 20 C        8.5280    -0.0340     0.4580 C.ar  1 <1>   0.0000 
 21 C        7.5740    -0.9800     2.5370 C.ar  1 <1>  -0.1500 
 22 C        7.7920     1.1150     0.1450 C.ar  1 <1>   0.0820 
 23 C        9.8450    -0.1170     0.0150 C.ar  1 <1>  -0.1500 
 24 O        6.5070     1.1820     0.5840 O.3   1 <1>  -0.3630 
 25 C        8.3780     2.1380    -0.5980 C.ar  1 <1>  -0.1500 
 26 C       10.4230     0.9000    -0.7200 C.ar  1 <1>  -0.1500 
 27 C        5.6820     2.2940     0.3130 C.3   1 <1>   0.0400 
 28 C        9.6880     2.0300    -1.0280 C.ar  1 <1>  -0.1500 
 29 H        2.3810     0.8610    -0.1970 H     1 <1>   0.3700 
 30 H        5.0960    -0.8560    -2.8240 H     1 <1>   0.0800 
 31 H        5.6280    -0.7630    -1.1680 H     1 <1>   0.0800 
 32 H        4.1050    -0.7930     1.1330 H     1 <1>   0.0800 
 33 H        2.3740    -1.0190     1.2460 H     1 <1>   0.0800 
 34 H        3.4160    -2.4710    -2.3090 H     1 <1>   0.0800 
 35 H        2.3370    -2.6710    -0.4120 H     1 <1>   0.0800 
 36 H        6.1190    -3.0470    -1.3050 H     1 <1>   0.0800 
 37 H        5.1440    -3.9700    -2.4150 H     1 <1>   0.0800 
 38 H        3.2940    -3.9530     1.2670 H     1 <1>   0.0800 
 39 H        4.7250    -2.9500     1.3080 H     1 <1>   0.0800 
 40 H        3.9260    -4.9820    -0.7350 H     1 <1>   0.0800 
 41 H        4.6070    -6.9320     0.3160 H     1 <1>   0.0800 
 42 H        6.3160    -7.2170     0.5230 H     1 <1>   0.0800 
 43 H        5.6870    -6.8490    -1.0680 H     1 <1>   0.0800 
 44 H        8.1280    -2.5180    -0.3940 H     1 <1>   0.1500 
 45 H        6.4820    -4.1000     3.1840 H     1 <1>   0.1500 
 46 H        6.7640    -1.9110     4.2780 H     1 <1>   0.1500 
 47 H        7.6900    -0.0180     3.0060 H     1 <1>   0.1500 
 48 H       10.4220    -0.9940     0.2530 H     1 <1>   0.1500 
 49 H        7.8320     3.0250    -0.8550 H     1 <1>   0.1500 
 50 H       11.4430     0.8130    -1.0530 H     1 <1>   0.1500 
 51 H        4.7180     2.1110     0.7510 H     1 <1>   0.0800 
 52 H        5.5800     2.4040    -0.7530 H     1 <1>   0.0800 
 53 H        6.1220     3.1720     0.7510 H     1 <1>   0.0800 
 54 H       10.1350     2.8230    -1.6020 H     1 <1>   0.1500 
@<TRIPOS>BOND
  1   1   2  2   
  2   2   3  am  
  3   2   4  1   
  4   3   5  1   
  5   3  29  1   
  6   4   6  1   
  7   4  30  1   
  8   4  31  1   
  9   5   7  1   
 10   5  32  1   
 11   5  33  1   
 12   6   7  1   
 13   6   8  1   
 14   6  34  1   
 15   7   9  1   
 16   7  35  1   
 17   8  10  1   
 18   8  36  1   
 19   8  37  1   
 20   9  10  1   
 21   9  38  1   
 22   9  39  1   
 23  10  11  1   
 24  10  40  1   
 25  11  12  am  
 26  11  13  1   
 27  12  14  2   
 28  12  15  1   
 29  13  41  1   
 30  13  42  1   
 31  13  43  1   
 32  15  16  ar  
 33  15  17  ar  
 34  16  18  ar  
 35  16  44  1   
 36  17  19  ar  
 37  17  45  1   
 38  18  20  1   
 39  18  21  ar  
 40  19  21  ar  
 41  19  46  1   
 42  20  22  ar  
 43  20  23  ar  
 44  21  47  1   
 45  22  24  1   
 46  22  25  ar  
 47  23  26  ar  
 48  23  48  1   
 49  24  27  1   
 50  25  28  ar  
 51  25  49  1   
 52  26  28  ar  
 53  26  50  1   
 54  27  51  1   
 55  27  52  1   
 56  27  53  1   
 57  28  54  1   
@<TRIPOS>SUBSTRUCTURE
  1 ****  16 GROUP 4 **** **** 0

# MOE 2024.06 (io_trps.svl 2023.06)
