@<TRIPOS>MOLECULE
NONAME
44 47 1 0 0 
SMALL
USER_CHARGES


@<TRIPOS>ATOM
  1 CL       0.5850     0.4020    -0.4450 Cl    1 <1>  -0.1770 
  2 C        1.2950     1.9620    -0.1020 C.ar  1 <1>   0.1770 
  3 C        0.5170     3.0910    -0.1600 C.ar  1 <1>  -0.1500 
  4 C        2.6550     2.0140     0.2270 C.ar  1 <1>  -0.1500 
  5 C        1.1100     4.3270     0.1190 C.ar  1 <1>   0.0000 
  6 C        3.2450     3.2250     0.5030 C.ar  1 <1>  -0.1500 
  7 C        2.4620     4.3830     0.4450 C.ar  1 <1>  -0.1520 
  8 C        0.6380     5.6510     0.1560 C.2   1 <1>  -0.1500 
  9 N        2.7880     5.6930     0.6710 N.pl3 1 <1>   0.0330 
 10 C        1.6760     6.4760     0.4800 C.2   1 <1>  -0.2370 
 11 C        1.7160     7.9020     0.6510 C.2   1 <1>   0.7150 
 12 O        0.8710     8.4560     1.3260 O.2   1 <1>  -0.5700 
 13 N        2.7250     8.6630     0.0970 N.am  1 <1>  -0.6600 
 14 C        3.1620     9.9150     0.7970 C.3   1 <1>   0.1400 
 15 C        3.3720     8.2750    -1.1940 C.3   1 <1>   0.1400 
 16 C        4.6400     9.9060     1.2710 C.3   1 <1>   0.4230 
 17 C        4.9100     8.3930    -1.2080 C.3   1 <1>  -0.0800 
 18 N        5.6190    10.3670     0.2180 N.4   1 <1>  -0.9590 
 19 C        5.1030     8.5570     1.8880 C.3   1 <1>   0.1200 
 20 C        5.6640     7.4810    -0.2140 C.3   1 <1>   0.1200 
 21 C        5.3430     9.8600    -1.1590 C.3   1 <1>   0.3430 
 22 C        5.7400    11.8590     0.2020 C.3   1 <1>   0.2630 
 23 O        5.0510     7.4360     1.0390 O.3   1 <1>  -0.5600 
 24 H       -0.5260     3.0380    -0.4110 H     1 <1>   0.1500 
 25 H        3.2160     1.0980     0.2590 H     1 <1>   0.1500 
 26 H        4.2880     3.2900     0.7620 H     1 <1>   0.1500 
 27 H       -0.3820     5.9380    -0.0370 H     1 <1>   0.1500 
 28 H        3.7120     6.0520     0.9560 H     1 <1>   0.2700 
 29 H        2.9710    10.7640     0.1670 H     1 <1>   0.0800 
 30 H        2.5590    10.0490     1.6790 H     1 <1>   0.0800 
 31 H        3.1040     7.2640    -1.4500 H     1 <1>   0.0800 
 32 H        2.9620     8.8990    -1.9700 H     1 <1>   0.0800 
 33 H        4.6920    10.6220     2.0740 H     1 <1>   0.0800 
 34 H        5.2040     8.0580    -2.1870 H     1 <1>   0.0800 
 35 H        6.5310     9.9800     0.4990 H     1 <1>   0.4500 
 36 H        4.4670     8.3290     2.7260 H     1 <1>   0.0800 
 37 H        6.1080     8.6430     2.2620 H     1 <1>   0.0800 
 38 H        6.6940     7.7720    -0.0930 H     1 <1>   0.0800 
 39 H        5.6510     6.4720    -0.5910 H     1 <1>   0.0800 
 40 H        4.5720    10.4580    -1.6170 H     1 <1>   0.0800 
 41 H        6.2350     9.9760    -1.7530 H     1 <1>   0.0800 
 42 H        4.8030    12.3100    -0.0850 H     1 <1>   0.0800 
 43 H        6.4980    12.1670    -0.5010 H     1 <1>   0.0800 
 44 H        6.0130    12.2260     1.1790 H     1 <1>   0.0800 
@<TRIPOS>BOND
  1   1   2  1   
  2   2   3  ar  
  3   2   4  ar  
  4   3   5  ar  
  5   3  24  1   
  6   4   6  ar  
  7   4  25  1   
  8   5   7  ar  
  9   5   8  1   
 10   6   7  ar  
 11   6  26  1   
 12   7   9  1   
 13   8  10  2   
 14   8  27  1   
 15   9  10  1   
 16   9  28  1   
 17  10  11  1   
 18  11  12  2   
 19  11  13  am  
 20  13  14  1   
 21  13  15  1   
 22  14  16  1   
 23  14  29  1   
 24  14  30  1   
 25  15  17  1   
 26  15  31  1   
 27  15  32  1   
 28  16  18  1   
 29  16  19  1   
 30  16  33  1   
 31  17  20  1   
 32  17  21  1   
 33  17  34  1   
 34  18  21  1   
 35  18  22  1   
 36  18  35  1   
 37  19  23  1   
 38  19  36  1   
 39  19  37  1   
 40  20  23  1   
 41  20  38  1   
 42  20  39  1   
 43  21  40  1   
 44  21  41  1   
 45  22  42  1   
 46  22  43  1   
 47  22  44  1   
@<TRIPOS>SUBSTRUCTURE
  1 ****   9 GROUP 4 **** **** 0

# MOE 2024.06 (io_trps.svl 2023.06)
