@<TRIPOS>MOLECULE
NONAME
54 56 1 0 0 
SMALL
USER_CHARGES


@<TRIPOS>ATOM
  1 O       -0.4970    -0.6290     1.5180 O.3   1 <1>  -0.8290 
  2 C        0.2750    -1.4910     1.0780 C.ar  1 <1>   0.4490 
  3 N       -0.2840    -2.6120     0.6030 N.ar  1 <1>  -0.6200 
  4 N        1.5940    -1.2270     1.1250 N.ar  1 <1>  -0.6200 
  5 C        0.5270    -3.5600     0.1760 C.ar  1 <1>   0.3960 
  6 C        2.3840    -2.1550     0.6740 C.ar  1 <1>   0.1660 
  7 C        0.0180    -4.8400    -0.3330 C.2   1 <1>   0.5440 
  8 C        1.8970    -3.3470     0.1940 C.ar  1 <1>  -0.1500 
  9 C        3.8810    -1.8870     0.6960 C.3   1 <1>  -0.0170 
 10 O        0.6200    -5.3870    -1.2480 O.2   1 <1>  -0.5700 
 11 N       -1.0940    -5.5070     0.1710 N.am  1 <1>  -0.6600 
 12 C        4.4750    -1.6820    -0.7130 C.3   1 <1>  -0.0800 
 13 C       -1.5960    -6.7740    -0.4450 C.3   1 <1>   0.1400 
 14 C       -1.9160    -5.0330     1.3260 C.3   1 <1>   0.1400 
 15 C        5.9970    -1.5160    -0.6310 C.3   1 <1>  -0.2400 
 16 C        3.8570    -0.4620    -1.4110 C.3   1 <1>  -0.2400 
 17 C       -2.7280    -6.5000    -1.4430 C.3   1 <1>   0.1400 
 18 C       -3.1070    -4.1560     0.9040 C.3   1 <1>  -0.1600 
 19 N       -3.8860    -5.8090    -0.7950 N.am  1 <1>  -0.6600 
 20 C       -3.6420    -4.3660    -0.5160 C.3   1 <1>   0.1400 
 21 C       -5.0470    -6.4300    -0.3920 C.2   1 <1>   0.5690 
 22 O       -5.9530    -5.7870     0.0960 O.2   1 <1>  -0.5700 
 23 C       -5.2570    -7.9540    -0.5810 C.3   1 <1>   0.2610 
 24 O       -4.1970    -8.7380    -0.0740 O.3   1 <1>  -0.5600 
 25 C       -6.5140    -8.5350     0.0680 C.3   1 <1>  -0.1600 
 26 C       -4.6490    -9.9280     0.4970 C.3   1 <1>   0.1200 
 27 C       -6.1490    -9.9930     0.2500 C.3   1 <1>  -0.1600 
 28 H        2.5590    -4.1070    -0.1680 H     1 <1>   0.1500 
 29 H        4.0680    -1.0140     1.2970 H     1 <1>   0.0800 
 30 H        4.3630    -2.7180     1.1750 H     1 <1>   0.0800 
 31 H        4.2600    -2.5540    -1.3060 H     1 <1>   0.0800 
 32 H       -0.7960    -7.2780    -0.9560 H     1 <1>   0.0800 
 33 H       -1.9500    -7.4390     0.3220 H     1 <1>   0.0800 
 34 H       -2.2950    -5.8920     1.8510 H     1 <1>   0.0800 
 35 H       -1.3000    -4.4890     2.0210 H     1 <1>   0.0800 
 36 H        6.2510    -0.6470    -0.0490 H     1 <1>   0.0800 
 37 H        6.4120    -1.4020    -1.6170 H     1 <1>   0.0800 
 38 H        6.4440    -2.3810    -0.1740 H     1 <1>   0.0800 
 39 H        4.0210     0.4290    -0.8310 H     1 <1>   0.0800 
 40 H        2.7940    -0.5920    -1.5250 H     1 <1>   0.0800 
 41 H        4.2850    -0.3260    -2.3870 H     1 <1>   0.0800 
 42 H       -3.0410    -7.4290    -1.8820 H     1 <1>   0.0800 
 43 H       -2.3440    -5.8870    -2.2400 H     1 <1>   0.0800 
 44 H       -2.8200    -3.1240     0.9970 H     1 <1>   0.0800 
 45 H       -3.9080    -4.3050     1.6040 H     1 <1>   0.0800 
 46 H       -2.9300    -3.9720    -1.2210 H     1 <1>   0.0800 
 47 H       -4.5580    -3.8130    -0.6360 H     1 <1>   0.0800 
 48 H       -5.3000    -8.1500    -1.6370 H     1 <1>   0.0800 
 49 H       -6.6740    -8.0720     1.0270 H     1 <1>   0.0800 
 50 H       -7.3860    -8.3900    -0.5440 H     1 <1>   0.0800 
 51 H       -4.1240   -10.7550     0.0510 H     1 <1>   0.0800 
 52 H       -4.4350    -9.8820     1.5510 H     1 <1>   0.0800 
 53 H       -6.3390   -10.5450    -0.6540 H     1 <1>   0.0800 
 54 H       -6.6740   -10.4540     1.0670 H     1 <1>   0.0800 
@<TRIPOS>BOND
  1   1   2  1   
  2   2   3  ar  
  3   2   4  ar  
  4   3   5  ar  
  5   4   6  ar  
  6   5   7  1   
  7   5   8  ar  
  8   6   8  ar  
  9   6   9  1   
 10   7  10  2   
 11   7  11  am  
 12   8  28  1   
 13   9  12  1   
 14   9  29  1   
 15   9  30  1   
 16  11  13  1   
 17  11  14  1   
 18  12  15  1   
 19  12  16  1   
 20  12  31  1   
 21  13  17  1   
 22  13  32  1   
 23  13  33  1   
 24  14  18  1   
 25  14  34  1   
 26  14  35  1   
 27  15  36  1   
 28  15  37  1   
 29  15  38  1   
 30  16  39  1   
 31  16  40  1   
 32  16  41  1   
 33  17  19  1   
 34  17  42  1   
 35  17  43  1   
 36  18  20  1   
 37  18  44  1   
 38  18  45  1   
 39  19  20  1   
 40  19  21  am  
 41  20  46  1   
 42  20  47  1   
 43  21  22  2   
 44  21  23  1   
 45  23  24  1   
 46  23  25  1   
 47  23  48  1   
 48  24  26  1   
 49  25  27  1   
 50  25  49  1   
 51  25  50  1   
 52  26  27  1   
 53  26  51  1   
 54  26  52  1   
 55  27  53  1   
 56  27  54  1   
@<TRIPOS>SUBSTRUCTURE
  1 ****  11 GROUP 4 **** **** 0

# MOE 2024.06 (io_trps.svl 2023.06)
