@<TRIPOS>MOLECULE
NONAME
48 50 1 0 0 
SMALL
USER_CHARGES


@<TRIPOS>ATOM
  1 O       -1.0970     2.0020    -1.5870 O.co2 1 <1>  -0.9000 
  2 C       -1.1990     0.9680    -0.9000 C.2   1 <1>   0.9060 
  3 O       -0.3780     0.0550    -1.0870 O.co2 1 <1>  -0.9000 
  4 C       -2.2160     0.9050     0.3240 C.3   1 <1>   0.2630 
  5 N       -1.7930     1.7180     1.5430 N.pl3 1 <1>  -0.8690 
  6 C       -2.4330    -0.5400     0.8040 C.3   1 <1>  -0.1600 
  7 C       -3.5830     1.4570    -0.1130 C.3   1 <1>  -0.1600 
  8 C       -0.6470     2.3940     1.4410 C.ar  1 <1>   0.4100 
  9 C       -3.1440    -1.3630    -0.2760 C.3   1 <1>   0.1200 
 10 C       -4.2210     0.5320    -1.1540 C.3   1 <1>   0.1200 
 11 N       -0.7660     3.6740     1.1890 N.ar  1 <1>  -0.6200 
 12 C        0.5520     1.6890     1.2650 C.ar  1 <1>  -0.1500 
 13 O       -4.3530    -0.7440    -0.6040 O.3   1 <1>  -0.5600 
 14 C        0.0870     4.1400     0.2810 C.ar  1 <1>   0.7710 
 15 C        1.4320     2.1930     0.3710 C.ar  1 <1>   0.2180 
 16 N        1.1210     3.3960    -0.1680 N.ar  1 <1>  -0.1790 
 17 N       -0.0850     5.4040    -0.2040 N.pl3 1 <1>  -0.8380 
 18 C        2.6740     1.4520    -0.0990 C.3   1 <1>  -0.0170 
 19 C       -1.3000     6.2220     0.1490 C.3   1 <1>   0.2090 
 20 C        0.7310     6.0750    -1.2700 C.3   1 <1>   0.2090 
 21 C        3.9670     2.2190     0.2110 C.3   1 <1>  -0.2400 
 22 C       -0.9290     7.6930     0.4070 C.3   1 <1>   0.1200 
 23 C        0.9950     7.5520    -0.9230 C.3   1 <1>   0.1200 
 24 O       -0.2040     8.2220    -0.6670 O.3   1 <1>  -0.5600 
 25 H       -2.5810     2.2580     1.8980 H     1 <1>   0.4000 
 26 H       -3.0310    -0.5520     1.6960 H     1 <1>   0.0800 
 27 H       -1.4840    -0.9930     1.0250 H     1 <1>   0.0800 
 28 H       -3.4580     2.4360    -0.5410 H     1 <1>   0.0800 
 29 H       -4.2480     1.5310     0.7280 H     1 <1>   0.0800 
 30 H       -3.3670    -2.3490     0.0890 H     1 <1>   0.0800 
 31 H       -2.5440    -1.4490    -1.1670 H     1 <1>   0.0800 
 32 H       -3.6230     0.4660    -2.0480 H     1 <1>   0.0800 
 33 H       -5.2040     0.8800    -1.4160 H     1 <1>   0.0800 
 34 H        0.6680     0.7330     1.7390 H     1 <1>   0.1500 
 35 H        1.5490     3.7020    -1.0260 H     1 <1>   0.4570 
 36 H        2.5900     1.2710    -1.1580 H     1 <1>   0.0800 
 37 H        2.7090     0.4890     0.3800 H     1 <1>   0.0800 
 38 H       -1.7950     5.8430     1.0250 H     1 <1>   0.0800 
 39 H       -2.0030     6.1750    -0.6650 H     1 <1>   0.0800 
 40 H        0.1950     6.0300    -2.2040 H     1 <1>   0.0800 
 41 H        1.6780     5.5870    -1.4060 H     1 <1>   0.0800 
 42 H        3.9960     3.1600    -0.3070 H     1 <1>   0.0800 
 43 H        4.8160     1.6360    -0.1010 H     1 <1>   0.0800 
 44 H        4.0510     2.3980     1.2690 H     1 <1>   0.0800 
 45 H       -0.3390     7.7820     1.3020 H     1 <1>   0.0800 
 46 H       -1.8210     8.2830     0.5220 H     1 <1>   0.0800 
 47 H        1.4740     8.0490    -1.7480 H     1 <1>   0.0800 
 48 H        1.6270     7.6340    -0.0560 H     1 <1>   0.0800 
@<TRIPOS>BOND
  1   1   2  ar  
  2   2   3  ar  
  3   2   4  1   
  4   4   5  1   
  5   4   6  1   
  6   4   7  1   
  7   5   8  1   
  8   5  25  1   
  9   6   9  1   
 10   6  26  1   
 11   6  27  1   
 12   7  10  1   
 13   7  28  1   
 14   7  29  1   
 15   8  11  ar  
 16   8  12  ar  
 17   9  13  1   
 18   9  30  1   
 19   9  31  1   
 20  10  13  1   
 21  10  32  1   
 22  10  33  1   
 23  11  14  ar  
 24  12  15  ar  
 25  12  34  1   
 26  14  16  ar  
 27  14  17  1   
 28  15  16  ar  
 29  15  18  1   
 30  16  35  1   
 31  17  19  1   
 32  17  20  1   
 33  18  21  1   
 34  18  36  1   
 35  18  37  1   
 36  19  22  1   
 37  19  38  1   
 38  19  39  1   
 39  20  23  1   
 40  20  40  1   
 41  20  41  1   
 42  21  42  1   
 43  21  43  1   
 44  21  44  1   
 45  22  24  1   
 46  22  45  1   
 47  22  46  1   
 48  23  24  1   
 49  23  47  1   
 50  23  48  1   
@<TRIPOS>SUBSTRUCTURE
  1 ****  11 GROUP 4 **** **** 0

# MOE 2024.06 (io_trps.svl 2023.06)
