@<TRIPOS>MOLECULE
NONAME
48 49 1 0 0 
SMALL
USER_CHARGES


@<TRIPOS>ATOM
  1 O       -0.4640    -0.2410     0.5690 O.2   1 <1>  -0.5700 
  2 C        0.5980    -0.8070     0.4970 C.2   1 <1>   0.5690 
  3 N        1.7930    -0.1730     0.2980 N.am  1 <1>  -0.4940 
  4 C        0.6140    -2.3140     0.6280 C.3   1 <1>  -0.0990 
  5 C        2.1200     1.1990     0.1580 C.2   1 <1>  -0.0880 
  6 C        0.2250    -2.9860    -0.6930 C.3   1 <1>  -0.0160 
  7 N        1.3670     2.1890    -0.4040 N.pl3 1 <1>   0.3140 
  8 C        3.2830     1.7800     0.5410 C.2   1 <1>  -0.1810 
  9 C        0.2950    -4.4980    -0.5550 C.ar  1 <1>  -0.1430 
 10 N        2.0220     3.3700    -0.3910 N.2   1 <1>  -0.7070 
 11 C        0.0550     2.1020    -1.0580 C.3   1 <1>   0.0160 
 12 C        3.1580     3.1190     0.1770 C.2   1 <1>   0.1080 
 13 C        4.4830     1.1480     1.2250 C.3   1 <1>  -0.0590 
 14 C       -0.7670    -5.1970    -0.0050 C.ar  1 <1>  -0.1500 
 15 C        1.4210    -5.1890    -0.9710 C.ar  1 <1>  -0.1500 
 16 C        4.2000     4.2020     0.3910 C.3   1 <1>   0.0210 
 17 C       -0.7110    -6.5820     0.1320 C.ar  1 <1>   0.0830 
 18 C        1.4840    -6.5650    -0.8380 C.ar  1 <1>  -0.1500 
 19 C        5.1710     4.2780    -0.7910 C.3   1 <1>  -0.2400 
 20 O       -1.7270    -7.3120     0.6670 O.3   1 <1>  -0.3630 
 21 C        0.4250    -7.2690    -0.2880 C.ar  1 <1>  -0.1430 
 22 C       -2.9270    -6.7100     1.0960 C.3   1 <1>   0.0400 
 23 C        0.5110    -8.7820    -0.1490 C.3   1 <1>  -0.0970 
 24 H        2.6090    -0.7800     0.3440 H     1 <1>   0.3700 
 25 H       -0.0860    -2.5980     1.3930 H     1 <1>   0.0800 
 26 H        1.5880    -2.6480     0.9340 H     1 <1>   0.0800 
 27 H        0.8850    -2.6610    -1.4780 H     1 <1>   0.0800 
 28 H       -0.7740    -2.6940    -0.9670 H     1 <1>   0.0800 
 29 H       -0.0170     1.1750    -1.5930 H     1 <1>   0.0800 
 30 H       -0.0530     2.9230    -1.7410 H     1 <1>   0.0800 
 31 H       -0.7110     2.1550    -0.3080 H     1 <1>   0.0800 
 32 H        4.3100     0.1060     1.4190 H     1 <1>   0.0800 
 33 H        4.6680     1.6420     2.1620 H     1 <1>   0.0800 
 34 H        5.3520     1.2460     0.6010 H     1 <1>   0.0800 
 35 H       -1.6320    -4.6480     0.3120 H     1 <1>   0.1500 
 36 H        2.2540    -4.6640    -1.4030 H     1 <1>   0.1500 
 37 H        4.7400     4.0100     1.2990 H     1 <1>   0.0800 
 38 H        3.6950     5.1460     0.5010 H     1 <1>   0.0800 
 39 H        2.3650    -7.0860    -1.1670 H     1 <1>   0.1500 
 40 H        5.6900     3.3450    -0.9100 H     1 <1>   0.0800 
 41 H        5.8890     5.0620    -0.6330 H     1 <1>   0.0800 
 42 H        4.6240     4.4850    -1.6950 H     1 <1>   0.0800 
 43 H       -3.5750    -7.4840     1.4660 H     1 <1>   0.0800 
 44 H       -3.3880    -6.2160     0.2590 H     1 <1>   0.0800 
 45 H       -2.7050    -6.0120     1.8830 H     1 <1>   0.0800 
 46 H       -0.2850    -9.2430    -0.7050 H     1 <1>   0.0800 
 47 H        0.4140    -9.0570     0.8850 H     1 <1>   0.0800 
 48 H        1.4490    -9.1550    -0.5180 H     1 <1>   0.0800 
@<TRIPOS>BOND
  1   1   2  2   
  2   2   3  am  
  3   2   4  1   
  4   3   5  1   
  5   3  24  1   
  6   4   6  1   
  7   4  25  1   
  8   4  26  1   
  9   5   7  1   
 10   5   8  2   
 11   6   9  1   
 12   6  27  1   
 13   6  28  1   
 14   7  10  1   
 15   7  11  1   
 16   8  12  1   
 17   8  13  1   
 18   9  14  ar  
 19   9  15  ar  
 20  10  12  2   
 21  11  29  1   
 22  11  30  1   
 23  11  31  1   
 24  12  16  1   
 25  13  32  1   
 26  13  33  1   
 27  13  34  1   
 28  14  17  ar  
 29  14  35  1   
 30  15  18  ar  
 31  15  36  1   
 32  16  19  1   
 33  16  37  1   
 34  16  38  1   
 35  17  20  1   
 36  17  21  ar  
 37  18  21  ar  
 38  18  39  1   
 39  19  40  1   
 40  19  41  1   
 41  19  42  1   
 42  20  22  1   
 43  21  23  1   
 44  22  43  1   
 45  22  44  1   
 46  22  45  1   
 47  23  46  1   
 48  23  47  1   
 49  23  48  1   
@<TRIPOS>SUBSTRUCTURE
  1 ****   4 GROUP 4 **** **** 0

# MOE 2024.06 (io_trps.svl 2023.06)
