@<TRIPOS>MOLECULE
NONAME
46 49 1 0 0 
SMALL
USER_CHARGES


@<TRIPOS>ATOM
  1 O        0.9290     4.3940    -1.5840 O.3   1 <1>  -0.0190 
  2 N        1.8540     4.9080    -2.3320 N.2   1 <1>  -0.4100 
  3 C        1.4130     3.5310    -0.7330 C.2   1 <1>  -0.0400 
  4 C        2.9490     4.3220    -2.0040 C.2   1 <1>   0.1080 
  5 C        2.7300     3.4200    -0.9660 C.2   1 <1>  -0.1500 
  6 C        0.4960     2.9000     0.2990 C.3   1 <1>   0.0200 
  7 C        4.2840     4.5840    -2.6680 C.3   1 <1>  -0.0590 
  8 C       -0.0920     3.9250     1.3010 C.3   1 <1>  -0.0800 
  9 C       -1.1330     4.8610     0.6680 C.3   1 <1>   0.2000 
 10 C        0.9680     4.8900     1.8390 C.3   1 <1>   0.3430 
 11 O       -2.1380     5.1050     1.5960 O.3   1 <1>  -0.6800 
 12 C       -0.4060     6.1800     0.3530 C.3   1 <1>   0.3430 
 13 N        0.9850     6.0220     0.8780 N.4   1 <1>  -0.9590 
 14 C        1.6250     7.2760     1.3350 C.3   1 <1>   0.4860 
 15 C        2.6350     7.6480     0.2710 C.ar  1 <1>  -0.1440 
 16 C        3.9400     7.0930     0.2960 C.ar  1 <1>   0.0000 
 17 C        2.2630     8.5130    -0.7260 C.ar  1 <1>  -0.1500 
 18 C        4.8390     7.4300    -0.7450 C.ar  1 <1>   0.3100 
 19 C        4.4200     6.2200     1.2960 C.ar  1 <1>  -0.1500 
 20 C        3.1590     8.8540    -1.7420 C.ar  1 <1>  -0.1500 
 21 N        6.0970     6.9290    -0.8270 N.ar  1 <1>  -0.6200 
 22 C        4.4160     8.3180    -1.7440 C.ar  1 <1>  -0.1500 
 23 C        5.6930     5.7480     1.1970 C.ar  1 <1>  -0.1500 
 24 C        6.4930     6.1330     0.1150 C.ar  1 <1>   0.1600 
 25 H        3.4760     2.8080    -0.4920 H     1 <1>   0.1500 
 26 H       -0.3010     2.3790    -0.2050 H     1 <1>   0.0800 
 27 H        1.0610     2.1630     0.8440 H     1 <1>   0.0800 
 28 H        5.0840     4.4690    -1.9610 H     1 <1>   0.0800 
 29 H        4.3100     5.5840    -3.0610 H     1 <1>   0.0800 
 30 H        4.4280     3.8920    -3.4770 H     1 <1>   0.0800 
 31 H       -0.5310     3.3650     2.1090 H     1 <1>   0.0800 
 32 H       -1.5970     4.4460    -0.2110 H     1 <1>   0.0800 
 33 H        1.9350     4.4170     1.9090 H     1 <1>   0.0800 
 34 H        0.6700     5.2440     2.8120 H     1 <1>   0.0800 
 35 H       -1.8050     5.3160     2.4890 H     1 <1>   0.4000 
 36 H       -0.9170     6.9990     0.8310 H     1 <1>   0.0800 
 37 H       -0.3780     6.3460    -0.7120 H     1 <1>   0.0800 
 38 H        1.5450     5.7170     0.0550 H     1 <1>   0.4500 
 39 H        0.8910     8.0580     1.4400 H     1 <1>   0.0800 
 40 H        2.1180     7.1370     2.2820 H     1 <1>   0.0800 
 41 H        1.2790     8.9500    -0.7630 H     1 <1>   0.1500 
 42 H        3.8110     5.9330     2.1300 H     1 <1>   0.1500 
 43 H        2.8500     9.5350    -2.5180 H     1 <1>   0.1500 
 44 H        5.1200     8.5660    -2.5180 H     1 <1>   0.1500 
 45 H        6.1120     5.0860     1.9350 H     1 <1>   0.1500 
 46 H        7.4970     5.7440     0.0620 H     1 <1>   0.1500 
@<TRIPOS>BOND
  1   1   2  1   
  2   1   3  1   
  3   2   4  2   
  4   3   5  2   
  5   3   6  1   
  6   4   5  1   
  7   4   7  1   
  8   5  25  1   
  9   6   8  1   
 10   6  26  1   
 11   6  27  1   
 12   7  28  1   
 13   7  29  1   
 14   7  30  1   
 15   8   9  1   
 16   8  10  1   
 17   8  31  1   
 18   9  11  1   
 19   9  12  1   
 20   9  32  1   
 21  10  13  1   
 22  10  33  1   
 23  10  34  1   
 24  11  35  1   
 25  12  13  1   
 26  12  36  1   
 27  12  37  1   
 28  13  14  1   
 29  13  38  1   
 30  14  15  1   
 31  14  39  1   
 32  14  40  1   
 33  15  16  ar  
 34  15  17  ar  
 35  16  18  ar  
 36  16  19  ar  
 37  17  20  ar  
 38  17  41  1   
 39  18  21  ar  
 40  18  22  ar  
 41  19  23  ar  
 42  19  42  1   
 43  20  22  ar  
 44  20  43  1   
 45  21  24  ar  
 46  22  44  1   
 47  23  24  ar  
 48  23  45  1   
 49  24  46  1   
@<TRIPOS>SUBSTRUCTURE
  1 ****  13 GROUP 4 **** **** 0

# MOE 2024.06 (io_trps.svl 2023.06)
