@<TRIPOS>MOLECULE
NONAME
50 53 1 0 0 
SMALL
USER_CHARGES


@<TRIPOS>ATOM
  1 N       -0.2330     0.6320    -1.0260 N.2   1 <1>  -0.6210 
  2 C       -1.2150    -0.0810    -1.4710 C.2   1 <1>   0.9190 
  3 C       -0.4610     1.5040    -0.0320 C.2   1 <1>   0.2710 
  4 N       -2.4690    -0.0070    -0.9770 N.pl3 1 <1>  -0.6690 
  5 N       -0.9690    -0.9240    -2.4710 N.pl3 1 <1>  -0.8500 
  6 N        0.6140     2.2410     0.3850 N.pl3 1 <1>  -0.8380 
  7 C       -1.7140     1.6360     0.5200 C.2   1 <1>  -0.1410 
  8 C       -2.7150     0.8460     0.0130 C.cat 1 <1>   0.7910 
  9 C       -3.6600    -0.6400    -1.2310 C.2   1 <1>   0.5030 
 10 C        0.5880     3.4070     1.3130 C.3   1 <1>   0.4330 
 11 C        2.0140     1.9070     0.0170 C.3   1 <1>   0.2090 
 12 N       -4.0170     0.7100     0.3140 N.pl3 1 <1>  -0.3930 
 13 N       -4.6070    -0.2290    -0.4740 N.2   1 <1>  -0.2600 
 14 C       -0.3470     4.5240     0.8390 C.ar  1 <1>  -0.1430 
 15 C        2.0370     3.8870     1.3790 C.3   1 <1>  -0.1600 
 16 C        2.8740     2.6660     1.0170 C.3   1 <1>  -0.1600 
 17 C       -1.0580     5.2720     1.7660 C.ar  1 <1>  -0.1500 
 18 C       -0.4890     4.8200    -0.5090 C.ar  1 <1>  -0.1500 
 19 C       -1.8870     6.3010     1.3550 C.ar  1 <1>  -0.1500 
 20 C       -1.3170     5.8480    -0.9240 C.ar  1 <1>  -0.1500 
 21 C       -2.0130     6.6040     0.0070 C.ar  1 <1>  -0.1430 
 22 C       -2.8900     7.7580    -0.4460 C.3   1 <1>   0.4860 
 23 N       -2.1730     9.0380    -0.1770 N.4   1 <1>  -0.9590 
 24 C       -3.0700    10.2180    -0.3630 C.3   1 <1>   0.2630 
 25 C       -0.9340     9.1630    -1.0100 C.3   1 <1>   0.2630 
 26 H       -0.0160    -0.9450    -2.8360 H     1 <1>   0.4000 
 27 H       -1.6520    -1.4750    -2.9790 H     1 <1>   0.4000 
 28 H       -1.9120     2.3230     1.3160 H     1 <1>   0.1500 
 29 H       -3.7640    -1.3990    -1.9910 H     1 <1>   0.1500 
 30 H        0.2910     3.0540     2.2860 H     1 <1>   0.0800 
 31 H        2.2070     2.2530    -0.9850 H     1 <1>   0.0800 
 32 H        2.1910     0.8460     0.0730 H     1 <1>   0.0800 
 33 H       -4.5210     1.2290     1.0420 H     1 <1>   0.4500 
 34 H        2.2800     4.2770     2.3510 H     1 <1>   0.0800 
 35 H        2.1940     4.6580     0.6460 H     1 <1>   0.0800 
 36 H        3.8310     2.9300     0.6020 H     1 <1>   0.0800 
 37 H        3.0260     2.0490     1.8860 H     1 <1>   0.0800 
 38 H       -0.9620     5.0600     2.8190 H     1 <1>   0.1500 
 39 H        0.0560     4.2450    -1.2400 H     1 <1>   0.1500 
 40 H       -2.4250     6.8620     2.1010 H     1 <1>   0.1500 
 41 H       -1.4020     6.0480    -1.9790 H     1 <1>   0.1500 
 42 H       -3.8190     7.7320     0.0990 H     1 <1>   0.0800 
 43 H       -3.1080     7.6650    -1.4980 H     1 <1>   0.0800 
 44 H       -1.8730     8.9920     0.8080 H     1 <1>   0.4500 
 45 H       -3.4020    10.2810    -1.3870 H     1 <1>   0.0800 
 46 H       -2.5460    11.1280    -0.1160 H     1 <1>   0.0800 
 47 H       -3.9340    10.1390     0.2770 H     1 <1>   0.0800 
 48 H       -1.1830     9.1710    -2.0580 H     1 <1>   0.0800 
 49 H       -0.2700     8.3340    -0.8190 H     1 <1>   0.0800 
 50 H       -0.4130    10.0760    -0.7710 H     1 <1>   0.0800 
@<TRIPOS>BOND
  1   1   2  2   
  2   1   3  1   
  3   2   4  1   
  4   2   5  1   
  5   3   6  1   
  6   3   7  2   
  7   4   8  ar  
  8   4   9  1   
  9   5  26  1   
 10   5  27  1   
 11   6  10  1   
 12   6  11  1   
 13   7   8  1   
 14   7  28  1   
 15   8  12  ar  
 16   9  13  2   
 17   9  29  1   
 18  10  14  1   
 19  10  15  1   
 20  10  30  1   
 21  11  16  1   
 22  11  31  1   
 23  11  32  1   
 24  12  13  1   
 25  12  33  1   
 26  14  17  ar  
 27  14  18  ar  
 28  15  16  1   
 29  15  34  1   
 30  15  35  1   
 31  16  36  1   
 32  16  37  1   
 33  17  19  ar  
 34  17  38  1   
 35  18  20  ar  
 36  18  39  1   
 37  19  21  ar  
 38  19  40  1   
 39  20  21  ar  
 40  20  41  1   
 41  21  22  1   
 42  22  23  1   
 43  22  42  1   
 44  22  43  1   
 45  23  24  1   
 46  23  25  1   
 47  23  44  1   
 48  24  45  1   
 49  24  46  1   
 50  24  47  1   
 51  25  48  1   
 52  25  49  1   
 53  25  50  1   
@<TRIPOS>SUBSTRUCTURE
  1 ****  18 GROUP 4 **** **** 0

# MOE 2024.06 (io_trps.svl 2023.06)
