@<TRIPOS>MOLECULE
NONAME
50 53 1 0 0 
SMALL
USER_CHARGES


@<TRIPOS>ATOM
  1 O       -2.6570     0.0310     3.1130 O.3   1 <1>  -0.6800 
  2 C       -3.2270    -1.0970     2.5660 C.3   1 <1>   0.1200 
  3 C       -4.1590    -0.6170     1.4570 C.3   1 <1>  -0.1600 
  4 C       -4.8750    -1.7910     0.7970 C.3   1 <1>   0.3430 
  5 N       -5.7160    -1.3100    -0.3360 N.4   1 <1>  -0.9590 
  6 C       -6.9090    -0.5270     0.1520 C.3   1 <1>   0.3430 
  7 C       -6.1500    -2.4520    -1.1920 C.3   1 <1>   0.3430 
  8 C       -7.7460     0.0450    -1.0060 C.3   1 <1>   0.1430 
  9 C       -6.9340    -1.9330    -2.4020 C.3   1 <1>  -0.1600 
 10 C       -8.9760     0.6950    -0.4200 C.ar  1 <1>   0.1670 
 11 C       -8.1450    -1.0790    -1.9830 C.3   1 <1>  -0.1600 
 12 C       -7.0540     1.2320    -1.7300 C.3   1 <1>  -0.1600 
 13 N       -9.7410     0.1460     0.4890 N.ar  1 <1>  -0.6200 
 14 C       -9.1890     1.9350    -0.9340 C.ar  1 <1>  -0.1440 
 15 C       -8.1380     2.3070    -1.9480 C.3   1 <1>  -0.0170 
 16 C      -10.7830     0.8910     0.8920 C.ar  1 <1>   0.6200 
 17 C      -10.2740     2.6340    -0.4700 C.ar  1 <1>   0.1600 
 18 N      -11.0690     2.1200     0.4410 N.ar  1 <1>  -0.6200 
 19 C      -11.6630     0.3220     1.9010 C.ar  1 <1>   0.0000 
 20 C      -11.9260    -1.0500     1.9550 C.ar  1 <1>  -0.1500 
 21 C      -12.2840     1.1230     2.8640 C.ar  1 <1>  -0.1500 
 22 C      -12.7570    -1.5930     2.9170 C.ar  1 <1>  -0.1500 
 23 C      -13.1170     0.5860     3.8290 C.ar  1 <1>  -0.1500 
 24 C      -13.3550    -0.7750     3.8580 C.ar  1 <1>  -0.1500 
 25 H       -2.0440    -0.1930     3.8430 H     1 <1>   0.4000 
 26 H       -3.7660    -1.6140     3.3430 H     1 <1>   0.0800 
 27 H       -2.4380    -1.7230     2.1820 H     1 <1>   0.0800 
 28 H       -3.5730    -0.0910     0.7240 H     1 <1>   0.0800 
 29 H       -4.8720     0.0570     1.8970 H     1 <1>   0.0800 
 30 H       -5.4890    -2.3040     1.5210 H     1 <1>   0.0800 
 31 H       -4.1370    -2.4850     0.4280 H     1 <1>   0.0800 
 32 H       -5.1410    -0.6840    -0.9150 H     1 <1>   0.4500 
 33 H       -6.5940     0.2880     0.7810 H     1 <1>   0.0800 
 34 H       -7.5420    -1.1690     0.7420 H     1 <1>   0.0800 
 35 H       -6.7780    -3.1180    -0.6200 H     1 <1>   0.0800 
 36 H       -5.2910    -3.0080    -1.5340 H     1 <1>   0.0800 
 37 H       -7.2820    -2.7750    -2.9760 H     1 <1>   0.0800 
 38 H       -6.2760    -1.3680    -3.0390 H     1 <1>   0.0800 
 39 H       -8.6240    -0.6620    -2.8530 H     1 <1>   0.0800 
 40 H       -8.8670    -1.7180    -1.5010 H     1 <1>   0.0800 
 41 H       -6.5980     0.9510    -2.6630 H     1 <1>   0.0800 
 42 H       -6.2960     1.6540    -1.0930 H     1 <1>   0.0800 
 43 H       -8.5530     2.2380    -2.9400 H     1 <1>   0.0800 
 44 H       -7.7550     3.3000    -1.7820 H     1 <1>   0.0800 
 45 H      -10.4930     3.6200    -0.8440 H     1 <1>   0.1500 
 46 H      -11.4740    -1.7010     1.2280 H     1 <1>   0.1500 
 47 H      -12.1120     2.1850     2.8540 H     1 <1>   0.1500 
 48 H      -12.9420    -2.6530     2.9340 H     1 <1>   0.1500 
 49 H      -13.5810     1.2290     4.5560 H     1 <1>   0.1500 
 50 H      -14.0030    -1.1950     4.6080 H     1 <1>   0.1500 
@<TRIPOS>BOND
  1   1   2  1   
  2   1  25  1   
  3   2   3  1   
  4   2  26  1   
  5   2  27  1   
  6   3   4  1   
  7   3  28  1   
  8   3  29  1   
  9   4   5  1   
 10   4  30  1   
 11   4  31  1   
 12   5   6  1   
 13   5   7  1   
 14   5  32  1   
 15   6   8  1   
 16   6  33  1   
 17   6  34  1   
 18   7   9  1   
 19   7  35  1   
 20   7  36  1   
 21   8  10  1   
 22   8  11  1   
 23   8  12  1   
 24   9  11  1   
 25   9  37  1   
 26   9  38  1   
 27  10  13  ar  
 28  10  14  ar  
 29  11  39  1   
 30  11  40  1   
 31  12  15  1   
 32  12  41  1   
 33  12  42  1   
 34  13  16  ar  
 35  14  15  1   
 36  14  17  ar  
 37  15  43  1   
 38  15  44  1   
 39  16  18  ar  
 40  16  19  1   
 41  17  18  ar  
 42  17  45  1   
 43  19  20  ar  
 44  19  21  ar  
 45  20  22  ar  
 46  20  46  1   
 47  21  23  ar  
 48  21  47  1   
 49  22  24  ar  
 50  22  48  1   
 51  23  24  ar  
 52  23  49  1   
 53  24  50  1   
@<TRIPOS>SUBSTRUCTURE
  1 ****  13 GROUP 4 **** **** 0

# MOE 2024.06 (io_trps.svl 2023.06)
