@<TRIPOS>MOLECULE
NONAME
57 59 1 0 0 
SMALL
USER_CHARGES


@<TRIPOS>ATOM
  1 O       -0.2400    -0.2450    -2.3660 O.2   1 <1>  -0.5700 
  2 C       -0.4190     0.9500    -2.3720 C.2   1 <1>   0.5690 
  3 N       -1.6700     1.5130    -2.3340 N.am  1 <1>  -0.6600 
  4 C        0.8490     1.8120    -2.3070 C.3   1 <1>   0.4040 
  5 C       -1.9500     2.9850    -2.3880 C.3   1 <1>   0.1400 
  6 C       -2.8580     0.6740    -2.0250 C.3   1 <1>   0.1400 
  7 N        1.5560     1.7020    -0.9740 N.4   1 <1>  -0.9590 
  8 C       -3.2300     3.3620    -1.6300 C.3   1 <1>  -0.1600 
  9 C       -3.3890     1.0420    -0.6330 C.3   1 <1>  -0.1600 
 10 C        0.6170     2.0350     0.1400 C.3   1 <1>   0.3430 
 11 C        2.8350     2.4610    -0.9790 C.3   1 <1>   0.3430 
 12 C       -3.3930     2.5620    -0.3210 C.3   1 <1>   0.2800 
 13 C        1.2060     1.7300     1.5180 C.3   1 <1>  -0.1600 
 14 C        3.8180     1.8370     0.0100 C.3   1 <1>  -0.1600 
 15 O       -2.2180     2.8280     0.4330 O.3   1 <1>  -0.5600 
 16 C       -4.6930     2.9400     0.4610 C.3   1 <1>   0.2000 
 17 C        2.2970     2.7240     1.9390 C.3   1 <1>  -0.1600 
 18 C        3.7060     2.3570     1.4530 C.3   1 <1>  -0.1600 
 19 C       -2.3430     3.3890     1.7110 C.3   1 <1>   0.1200 
 20 O       -5.8290     2.8480    -0.3520 O.3   1 <1>  -0.6800 
 21 C       -4.6300     4.3110     1.2030 C.3   1 <1>   0.2800 
 22 C       -3.1910     4.6550     1.6140 C.3   1 <1>  -0.1600 
 23 O       -5.3560     4.1580     2.3680 O.3   1 <1>  -0.6800 
 24 C       -5.2820     5.4980     0.4800 C.3   1 <1>  -0.2400 
 25 H        0.5970     2.8370    -2.5050 H     1 <1>   0.0800 
 26 H        1.5060     1.4760    -3.0890 H     1 <1>   0.0800 
 27 H       -1.1380     3.5280    -1.9400 H     1 <1>   0.0800 
 28 H       -2.0410     3.2940    -3.4160 H     1 <1>   0.0800 
 29 H       -3.6170     0.8580    -2.7680 H     1 <1>   0.0800 
 30 H       -2.6190    -0.3750    -2.0600 H     1 <1>   0.0800 
 31 H        1.7740     0.7000    -0.8670 H     1 <1>   0.4500 
 32 H       -4.0780     3.1810    -2.2670 H     1 <1>   0.0800 
 33 H       -3.2140     4.4140    -1.4260 H     1 <1>   0.0800 
 34 H       -2.8240     0.5190     0.1170 H     1 <1>   0.0800 
 35 H       -4.3920     0.6560    -0.5840 H     1 <1>   0.0800 
 36 H        0.3360     3.0750     0.0910 H     1 <1>   0.0800 
 37 H       -0.2860     1.4540     0.0320 H     1 <1>   0.0800 
 38 H        3.2730     2.4060    -1.9630 H     1 <1>   0.0800 
 39 H        2.6660     3.4990    -0.7420 H     1 <1>   0.0800 
 40 H        0.3980     1.8160     2.2230 H     1 <1>   0.0800 
 41 H        1.5560     0.7140     1.5720 H     1 <1>   0.0800 
 42 H        3.7160     0.7650    -0.0030 H     1 <1>   0.0800 
 43 H        4.8160     2.0520    -0.3310 H     1 <1>   0.0800 
 44 H       -4.8150     2.1790     1.2130 H     1 <1>   0.0800 
 45 H        2.0390     3.7130     1.6000 H     1 <1>   0.0800 
 46 H        2.3260     2.7670     3.0160 H     1 <1>   0.0800 
 47 H        4.1170     1.6070     2.1110 H     1 <1>   0.0800 
 48 H        4.3290     3.2300     1.5600 H     1 <1>   0.0800 
 49 H       -2.7880     2.6630     2.3730 H     1 <1>   0.0800 
 50 H       -1.3560     3.6260     2.0670 H     1 <1>   0.0800 
 51 H       -6.6170     3.0390     0.1960 H     1 <1>   0.4000 
 52 H       -2.7370     5.2960     0.8800 H     1 <1>   0.0800 
 53 H       -3.1770     5.1820     2.5510 H     1 <1>   0.0800 
 54 H       -5.4480     5.0210     2.8140 H     1 <1>   0.4000 
 55 H       -4.8370     5.6450    -0.4850 H     1 <1>   0.0800 
 56 H       -5.1560     6.4040     1.0440 H     1 <1>   0.0800 
 57 H       -6.3340     5.3260     0.3310 H     1 <1>   0.0800 
@<TRIPOS>BOND
  1   1   2  2   
  2   2   3  am  
  3   2   4  1   
  4   3   5  1   
  5   3   6  1   
  6   4   7  1   
  7   4  25  1   
  8   4  26  1   
  9   5   8  1   
 10   5  27  1   
 11   5  28  1   
 12   6   9  1   
 13   6  29  1   
 14   6  30  1   
 15   7  10  1   
 16   7  11  1   
 17   7  31  1   
 18   8  12  1   
 19   8  32  1   
 20   8  33  1   
 21   9  12  1   
 22   9  34  1   
 23   9  35  1   
 24  10  13  1   
 25  10  36  1   
 26  10  37  1   
 27  11  14  1   
 28  11  38  1   
 29  11  39  1   
 30  12  15  1   
 31  12  16  1   
 32  13  17  1   
 33  13  40  1   
 34  13  41  1   
 35  14  18  1   
 36  14  42  1   
 37  14  43  1   
 38  15  19  1   
 39  16  20  1   
 40  16  21  1   
 41  16  44  1   
 42  17  18  1   
 43  17  45  1   
 44  17  46  1   
 45  18  47  1   
 46  18  48  1   
 47  19  22  1   
 48  19  49  1   
 49  19  50  1   
 50  20  51  1   
 51  21  22  1   
 52  21  23  1   
 53  21  24  1   
 54  22  52  1   
 55  22  53  1   
 56  23  54  1   
 57  24  55  1   
 58  24  56  1   
 59  24  57  1   
@<TRIPOS>SUBSTRUCTURE
  1 ****  15 GROUP 4 **** **** 0

# MOE 2024.06 (io_trps.svl 2023.06)
