@<TRIPOS>MOLECULE
NONAME
53 57 1 0 0 
SMALL
USER_CHARGES


@<TRIPOS>ATOM
  1 O        2.0750    -0.4740    -0.7510 O.3   1 <1>  -0.5600 
  2 C        2.6980    -1.4100     0.1090 C.3   1 <1>   0.4600 
  3 C        0.6940    -0.2290    -0.5880 C.3   1 <1>   0.1200 
  4 C        1.7580    -2.5780     0.3690 C.2   1 <1>  -0.3320 
  5 C        3.1040    -0.6890     1.4030 C.3   1 <1>  -0.1600 
  6 C        3.9570    -1.8820    -0.6200 C.3   1 <1>  -0.1600 
  7 C       -0.1330    -1.4960    -0.8500 C.3   1 <1>   0.0210 
  8 N        2.0400    -3.7330     1.0520 N.pl3 1 <1>   0.0330 
  9 C        0.4840    -2.6270    -0.0670 C.2   1 <1>  -0.1810 
 10 C        4.3020     0.2530     1.2280 C.3   1 <1>   0.3430 
 11 C        4.9110    -0.7320    -0.9630 C.3   1 <1>   0.3430 
 12 C        0.9150    -4.5210     1.0360 C.ar  1 <1>  -0.1520 
 13 C       -0.0840    -3.8520     0.3360 C.ar  1 <1>   0.0000 
 14 N        4.5570     0.5140    -0.2190 N.4   1 <1>  -0.9590 
 15 C        0.6830    -5.7850     1.5840 C.ar  1 <1>  -0.1500 
 16 C       -1.3370    -4.4520     0.1740 C.ar  1 <1>  -0.1500 
 17 C        5.4990     1.6290    -0.5020 C.3   1 <1>   0.3430 
 18 C       -0.5550    -6.3630     1.4190 C.ar  1 <1>  -0.1500 
 19 C       -1.5650    -5.6970     0.7140 C.ar  1 <1>  -0.1500 
 20 C        4.8800     2.9580    -0.0760 C.3   1 <1>  -0.1600 
 21 C        5.7090     4.1510    -0.5790 C.3   1 <1>   0.0960 
 22 N        5.0460     5.4200    -0.2240 N.pl3 1 <1>   0.3140 
 23 N        3.8060     5.7080    -0.6570 N.2   1 <1>  -0.7070 
 24 C        5.5400     6.4110     0.5430 C.2   1 <1>  -0.3020 
 25 C        3.5430     6.8790    -0.1600 C.2   1 <1>   0.1390 
 26 C        4.5930     7.3710     0.6050 C.2   1 <1>  -0.1500 
 27 H        0.4090     0.5460    -1.2780 H     1 <1>   0.0800 
 28 H        0.5210     0.1210     0.4150 H     1 <1>   0.0800 
 29 H        3.3700    -1.4190     2.1450 H     1 <1>   0.0800 
 30 H        2.2660    -0.1480     1.8000 H     1 <1>   0.0800 
 31 H        3.6740    -2.3980    -1.5200 H     1 <1>   0.0800 
 32 H        4.4790    -2.5910    -0.0050 H     1 <1>   0.0800 
 33 H       -0.1300    -1.7330    -1.8990 H     1 <1>   0.0800 
 34 H       -1.1490    -1.3380    -0.5360 H     1 <1>   0.0800 
 35 H        2.9200    -4.0070     1.4970 H     1 <1>   0.2700 
 36 H        5.1790    -0.1920     1.6690 H     1 <1>   0.0800 
 37 H        4.0980     1.1760     1.7460 H     1 <1>   0.0800 
 38 H        4.8460    -0.5360    -2.0220 H     1 <1>   0.0800 
 39 H        5.9230    -1.0260    -0.7390 H     1 <1>   0.0800 
 40 H        3.6240     0.7650    -0.6060 H     1 <1>   0.4500 
 41 H        1.4620    -6.2930     2.1240 H     1 <1>   0.1500 
 42 H       -2.1020    -3.9310    -0.3690 H     1 <1>   0.1500 
 43 H        5.6960     1.6640    -1.5620 H     1 <1>   0.0800 
 44 H        6.4340     1.4690     0.0120 H     1 <1>   0.0800 
 45 H       -0.7600    -7.3360     1.8310 H     1 <1>   0.1500 
 46 H       -2.5230    -6.1710     0.5990 H     1 <1>   0.1500 
 47 H        4.8150     3.0150     0.9950 H     1 <1>   0.0800 
 48 H        3.8900     3.0320    -0.4950 H     1 <1>   0.0800 
 49 H        5.7990     4.1230    -1.6500 H     1 <1>   0.0800 
 50 H        6.6920     4.1450    -0.1460 H     1 <1>   0.0800 
 51 H        6.5150     6.3870     0.9940 H     1 <1>   0.1500 
 52 H        2.6150     7.4000    -0.3270 H     1 <1>   0.1500 
 53 H        4.6150     8.3160     1.1180 H     1 <1>   0.1500 
@<TRIPOS>BOND
  1   1   2  1   
  2   1   3  1   
  3   2   4  1   
  4   2   5  1   
  5   2   6  1   
  6   3   7  1   
  7   3  27  1   
  8   3  28  1   
  9   4   8  1   
 10   4   9  2   
 11   5  10  1   
 12   5  29  1   
 13   5  30  1   
 14   6  11  1   
 15   6  31  1   
 16   6  32  1   
 17   7   9  1   
 18   7  33  1   
 19   7  34  1   
 20   8  12  1   
 21   8  35  1   
 22   9  13  1   
 23  10  14  1   
 24  10  36  1   
 25  10  37  1   
 26  11  14  1   
 27  11  38  1   
 28  11  39  1   
 29  12  13  ar  
 30  12  15  ar  
 31  13  16  ar  
 32  14  17  1   
 33  14  40  1   
 34  15  18  ar  
 35  15  41  1   
 36  16  19  ar  
 37  16  42  1   
 38  17  20  1   
 39  17  43  1   
 40  17  44  1   
 41  18  19  ar  
 42  18  45  1   
 43  19  46  1   
 44  20  21  1   
 45  20  47  1   
 46  20  48  1   
 47  21  22  1   
 48  21  49  1   
 49  21  50  1   
 50  22  23  1   
 51  22  24  1   
 52  23  25  2   
 53  24  26  2   
 54  24  51  1   
 55  25  26  1   
 56  25  52  1   
 57  26  53  1   
@<TRIPOS>SUBSTRUCTURE
  1 ****   1 GROUP 4 **** **** 0

# MOE 2024.06 (io_trps.svl 2023.06)
