@<TRIPOS>MOLECULE
NONAME
51 53 1 0 0 
SMALL
USER_CHARGES


@<TRIPOS>ATOM
  1 O        0.3870     0.5340    -0.1290 O.3   1 <1>  -0.6800 
  2 C       -0.9790     0.7650    -0.2010 C.3   1 <1>   0.2800 
  3 C       -1.1970    -0.7750     0.0580 C.3   1 <1>  -0.1600 
  4 C       -2.5380     0.9950    -0.3770 C.3   1 <1>  -0.1600 
  5 C       -0.6830     2.3140    -0.3770 C.3   1 <1>  -0.1600 
  6 C       -2.5800    -1.1250     0.5740 C.3   1 <1>  -0.1600 
  7 C       -3.4190    -0.2410    -0.2740 C.3   1 <1>  -0.1600 
  8 C       -0.3030     2.9590     0.9640 C.3   1 <1>   0.2090 
  9 N       -0.1420     4.4280     0.7810 N.pl3 1 <1>  -0.8690 
 10 C        1.0130     5.0770     0.5150 C.ar  1 <1>   0.4100 
 11 N        2.0890     4.3360     0.3700 N.ar  1 <1>  -0.6200 
 12 C        1.0420     6.4890     0.3870 C.ar  1 <1>  -0.1430 
 13 C        3.2260     4.9310     0.0720 C.ar  1 <1>   0.7710 
 14 C        2.2320     7.0730     0.0610 C.ar  1 <1>   0.2180 
 15 C       -0.2530     7.2730     0.6290 C.3   1 <1>  -0.0970 
 16 N        3.3060     6.2590    -0.0820 N.ar  1 <1>  -0.1790 
 17 N        4.3420     4.1790    -0.0890 N.pl3 1 <1>  -0.8380 
 18 C        2.4750     8.5610    -0.1590 C.3   1 <1>  -0.0970 
 19 C        4.2880     2.6930     0.0290 C.3   1 <1>   0.2090 
 20 C        5.7360     4.6170    -0.3680 C.3   1 <1>   0.2090 
 21 C        5.6570     2.2080    -0.4250 C.3   1 <1>  -0.1600 
 22 C        6.5910     3.3780    -0.1410 C.3   1 <1>  -0.1600 
 23 H        0.5930    -0.2900    -0.6050 H     1 <1>   0.4000 
 24 H       -0.5270    -1.2070     0.7920 H     1 <1>   0.0800 
 25 H       -1.0590    -1.3010    -0.8730 H     1 <1>   0.0800 
 26 H       -2.7660     1.4220    -1.3420 H     1 <1>   0.0800 
 27 H       -2.8900     1.6690     0.3880 H     1 <1>   0.0800 
 28 H       -1.4680     2.9300    -0.7820 H     1 <1>   0.0800 
 29 H        0.1230     2.4880    -1.0760 H     1 <1>   0.0800 
 30 H       -2.6720    -0.8500     1.6120 H     1 <1>   0.0800 
 31 H       -2.8200    -2.1670     0.4470 H     1 <1>   0.0800 
 32 H       -3.5580    -0.6850    -1.2460 H     1 <1>   0.0800 
 33 H       -4.3780    -0.0330     0.1700 H     1 <1>   0.0800 
 34 H        0.6110     2.5310     1.3410 H     1 <1>   0.0800 
 35 H       -1.0740     2.7760     1.6920 H     1 <1>   0.0800 
 36 H       -1.0180     4.9490     0.8360 H     1 <1>   0.4000 
 37 H       -0.7160     6.9460     1.5430 H     1 <1>   0.0800 
 38 H       -0.9400     7.1050    -0.1830 H     1 <1>   0.0800 
 39 H       -0.0910     8.3300     0.7250 H     1 <1>   0.0800 
 40 H        4.2240     6.6070    -0.3210 H     1 <1>   0.4570 
 41 H        1.5770     9.0680    -0.4590 H     1 <1>   0.0800 
 42 H        3.1980     8.7170    -0.9400 H     1 <1>   0.0800 
 43 H        2.8400     9.0130     0.7460 H     1 <1>   0.0800 
 44 H        3.5020     2.2770    -0.5820 H     1 <1>   0.0800 
 45 H        4.1170     2.4230     1.0580 H     1 <1>   0.0800 
 46 H        6.0450     5.4140     0.2880 H     1 <1>   0.0800 
 47 H        5.8160     4.9260    -1.3980 H     1 <1>   0.0800 
 48 H        5.6250     2.0080    -1.4820 H     1 <1>   0.0800 
 49 H        5.9520     1.3110     0.0900 H     1 <1>   0.0800 
 50 H        6.9060     3.3500     0.8880 H     1 <1>   0.0800 
 51 H        7.4630     3.3680    -0.7720 H     1 <1>   0.0800 
@<TRIPOS>BOND
  1   1   2  1   
  2   1  23  1   
  3   2   3  1   
  4   2   4  1   
  5   2   5  1   
  6   3   6  1   
  7   3  24  1   
  8   3  25  1   
  9   4   7  1   
 10   4  26  1   
 11   4  27  1   
 12   5   8  1   
 13   5  28  1   
 14   5  29  1   
 15   6   7  1   
 16   6  30  1   
 17   6  31  1   
 18   7  32  1   
 19   7  33  1   
 20   8   9  1   
 21   8  34  1   
 22   8  35  1   
 23   9  10  1   
 24   9  36  1   
 25  10  11  ar  
 26  10  12  ar  
 27  11  13  ar  
 28  12  14  ar  
 29  12  15  1   
 30  13  16  ar  
 31  13  17  1   
 32  14  16  ar  
 33  14  18  1   
 34  15  37  1   
 35  15  38  1   
 36  15  39  1   
 37  16  40  1   
 38  17  19  1   
 39  17  20  1   
 40  18  41  1   
 41  18  42  1   
 42  18  43  1   
 43  19  21  1   
 44  19  44  1   
 45  19  45  1   
 46  20  22  1   
 47  20  46  1   
 48  20  47  1   
 49  21  22  1   
 50  21  48  1   
 51  21  49  1   
 52  22  50  1   
 53  22  51  1   
@<TRIPOS>SUBSTRUCTURE
  1 ****  11 GROUP 4 **** **** 0

# MOE 2024.06 (io_trps.svl 2023.06)
