@<TRIPOS>MOLECULE
NONAME
41 43 1 0 0 
SMALL
USER_CHARGES


@<TRIPOS>ATOM
  1 S        0.3850     0.3040     0.1680 S.3   1 <1>  -0.3320 
  2 C        0.3510     2.0890     0.3900 C.ar  1 <1>   0.1020 
  3 C       -1.0110    -0.1260    -0.9630 C.3   1 <1>  -0.0100 
  4 C        1.2680     2.6270     1.2720 C.ar  1 <1>  -0.1500 
  5 C       -0.5440     2.9030    -0.2850 C.ar  1 <1>  -0.1500 
  6 C        1.2990     3.9950     1.4810 C.ar  1 <1>  -0.1500 
  7 C       -0.5100     4.2710    -0.0760 C.ar  1 <1>  -0.1500 
  8 C        0.4150     4.8240     0.8020 C.ar  1 <1>  -0.1430 
  9 C        0.4700     6.3270     0.9990 C.3   1 <1>   0.4860 
 10 N        1.7710     6.8230     0.4770 N.4   1 <1>  -0.9590 
 11 C        2.0650     8.2420     0.8930 C.3   1 <1>   0.3430 
 12 C        1.9810     6.4900    -0.9740 C.3   1 <1>   0.3430 
 13 C        3.5240     8.7170     0.6330 C.3   1 <1>   0.2200 
 14 C        3.4420     6.5990    -1.4340 C.3   1 <1>  -0.0190 
 15 N        3.7380     8.9670    -0.8110 N.am  1 <1>  -0.7300 
 16 C        4.6010     7.7440     1.1760 C.3   1 <1>   0.1200 
 17 C        3.7250     8.0350    -1.7800 C.2   1 <1>   0.5690 
 18 C        4.5170     6.0170    -0.4890 C.3   1 <1>   0.1200 
 19 O        4.3420     6.4000     0.8510 O.3   1 <1>  -0.5600 
 20 O        3.9040     8.3470    -2.9250 O.2   1 <1>  -0.5700 
 21 H       -1.0230    -1.1960    -1.0700 H     1 <1>   0.0800 
 22 H       -0.8310     0.3490    -1.9110 H     1 <1>   0.0800 
 23 H       -1.9230     0.2210    -0.5130 H     1 <1>   0.0800 
 24 H        1.9480     1.9730     1.7900 H     1 <1>   0.1500 
 25 H       -1.2620     2.4880    -0.9670 H     1 <1>   0.1500 
 26 H        2.0190     4.3930     2.1770 H     1 <1>   0.1500 
 27 H       -1.2120     4.8930    -0.6060 H     1 <1>   0.1500 
 28 H        0.3810     6.5480     2.0500 H     1 <1>   0.0800 
 29 H       -0.3460     6.7990     0.4770 H     1 <1>   0.0800 
 30 H        2.5100     6.2620     0.9460 H     1 <1>   0.4500 
 31 H        1.3900     8.9170     0.3930 H     1 <1>   0.0800 
 32 H        1.8840     8.3290     1.9510 H     1 <1>   0.0800 
 33 H        1.6700     5.4720    -1.1460 H     1 <1>   0.0800 
 34 H        1.3650     7.1240    -1.5910 H     1 <1>   0.0800 
 35 H        3.6570     9.6610     1.1340 H     1 <1>   0.0800 
 36 H        3.5170     6.0560    -2.3590 H     1 <1>   0.0800 
 37 H        3.9900     9.9170    -1.1070 H     1 <1>   0.3700 
 38 H        4.6180     7.8010     2.2500 H     1 <1>   0.0800 
 39 H        5.5810     8.0120     0.8160 H     1 <1>   0.0800 
 40 H        5.5060     6.3060    -0.8060 H     1 <1>   0.0800 
 41 H        4.4650     4.9420    -0.5110 H     1 <1>   0.0800 
@<TRIPOS>BOND
  1   1   2  1   
  2   1   3  1   
  3   2   4  ar  
  4   2   5  ar  
  5   3  21  1   
  6   3  22  1   
  7   3  23  1   
  8   4   6  ar  
  9   4  24  1   
 10   5   7  ar  
 11   5  25  1   
 12   6   8  ar  
 13   6  26  1   
 14   7   8  ar  
 15   7  27  1   
 16   8   9  1   
 17   9  10  1   
 18   9  28  1   
 19   9  29  1   
 20  10  11  1   
 21  10  12  1   
 22  10  30  1   
 23  11  13  1   
 24  11  31  1   
 25  11  32  1   
 26  12  14  1   
 27  12  33  1   
 28  12  34  1   
 29  13  15  1   
 30  13  16  1   
 31  13  35  1   
 32  14  17  1   
 33  14  18  1   
 34  14  36  1   
 35  15  17  am  
 36  15  37  1   
 37  16  19  1   
 38  16  38  1   
 39  16  39  1   
 40  17  20  2   
 41  18  19  1   
 42  18  40  1   
 43  18  41  1   
@<TRIPOS>SUBSTRUCTURE
  1 ****  12 GROUP 4 **** **** 0

# MOE 2024.06 (io_trps.svl 2023.06)
