@<TRIPOS>MOLECULE
NONAME
57 59 1 0 0 
SMALL
USER_CHARGES


@<TRIPOS>ATOM
  1 O       -0.9600     0.9450     1.2520 O.2   1 <1>  -0.5700 
  2 C       -1.8690     1.4290     0.6160 C.2   1 <1>   0.5690 
  3 N       -2.9640     0.6550     0.2750 N.am  1 <1>  -0.6600 
  4 C       -1.6980     2.9300     0.2210 C.3   1 <1>   0.4840 
  5 C       -2.8910    -0.7980     0.6820 C.3   1 <1>   0.3200 
  6 C       -4.1930     1.1650    -0.4490 C.3   1 <1>   0.1400 
  7 N       -0.2490     3.3690     0.1820 N.4   1 <1>  -0.9590 
  8 C       -2.4620     3.8140     1.2150 C.3   1 <1>  -0.2400 
  9 C       -4.0130    -1.6280     0.0950 C.2   1 <1>  -0.3320 
 10 C       -5.4870     1.1320     0.4080 C.3   1 <1>   0.3430 
 11 C       -0.0050     4.8270    -0.0360 C.3   1 <1>   0.4860 
 12 C        0.5760     2.5680    -0.7760 C.3   1 <1>   0.3430 
 13 N       -4.0770    -2.0540    -1.1840 N.pl3 1 <1>   0.0330 
 14 C       -5.1170    -2.0990     0.7140 C.2   1 <1>   0.0770 
 15 N       -6.5950     0.2990    -0.1810 N.4   1 <1>  -0.9590 
 16 C        1.4810     5.1430     0.0170 C.ar  1 <1>  -0.1440 
 17 C        2.0600     2.7150    -0.4360 C.3   1 <1>  -0.0170 
 18 C       -5.2650    -2.6870    -1.2760 C.2   1 <1>   0.0360 
 19 N       -5.9330    -2.6990    -0.1680 N.2   1 <1>  -0.5650 
 20 C       -7.1160     0.7890    -1.4950 C.3   1 <1>   0.2630 
 21 C       -7.7270     0.1550     0.7870 C.3   1 <1>   0.2630 
 22 C        2.4480     4.1630    -0.1800 C.ar  1 <1>  -0.1440 
 23 C        1.8760     6.4510     0.2600 C.ar  1 <1>  -0.1500 
 24 C        3.7910     4.5000    -0.1310 C.ar  1 <1>  -0.1500 
 25 C        3.2180     6.7820     0.3070 C.ar  1 <1>  -0.1500 
 26 C        4.1760     5.8060     0.1110 C.ar  1 <1>  -0.1500 
 27 H       -2.1220     3.0610    -0.7590 H     1 <1>   0.0800 
 28 H       -2.9330    -0.8560     1.7570 H     1 <1>   0.0800 
 29 H       -1.9440    -1.2150     0.3770 H     1 <1>   0.0800 
 30 H       -4.3320     0.5900    -1.3470 H     1 <1>   0.0800 
 31 H       -4.0360     2.1810    -0.7590 H     1 <1>   0.0800 
 32 H        0.1380     3.1430     1.1120 H     1 <1>   0.4500 
 33 H       -1.9820     3.8000     2.1790 H     1 <1>   0.0800 
 34 H       -3.4620     3.4440     1.3470 H     1 <1>   0.0800 
 35 H       -2.5440     4.8270     0.8640 H     1 <1>   0.0800 
 36 H       -5.8440     2.1400     0.5400 H     1 <1>   0.0800 
 37 H       -5.2360     0.7420     1.3810 H     1 <1>   0.0800 
 38 H       -0.5020     5.4040     0.7260 H     1 <1>   0.0800 
 39 H       -0.3910     5.1270    -0.9970 H     1 <1>   0.0800 
 40 H        0.4060     2.9160    -1.7820 H     1 <1>   0.0800 
 41 H        0.3150     1.5230    -0.7250 H     1 <1>   0.0800 
 42 H       -3.3730    -1.9640    -1.9260 H     1 <1>   0.2700 
 43 H       -5.3850    -2.0170     1.7570 H     1 <1>   0.1500 
 44 H       -6.2340    -0.6760    -0.3170 H     1 <1>   0.4500 
 45 H        2.6450     2.3200    -1.2480 H     1 <1>   0.0800 
 46 H        2.2830     2.1300     0.4390 H     1 <1>   0.0800 
 47 H       -5.6030    -3.1410    -2.1950 H     1 <1>   0.1500 
 48 H       -7.5340     1.7770    -1.3900 H     1 <1>   0.0800 
 49 H       -7.8880     0.1270    -1.8550 H     1 <1>   0.0800 
 50 H       -6.3280     0.8180    -2.2290 H     1 <1>   0.0800 
 51 H       -8.1840     1.1110     0.9820 H     1 <1>   0.0800 
 52 H       -7.3730    -0.2600     1.7170 H     1 <1>   0.0800 
 53 H       -8.4740    -0.5110     0.3860 H     1 <1>   0.0800 
 54 H        1.1490     7.2310     0.4150 H     1 <1>   0.1500 
 55 H        4.5500     3.7500    -0.2790 H     1 <1>   0.1500 
 56 H        3.5200     7.7980     0.4950 H     1 <1>   0.1500 
 57 H        5.2210     6.0630     0.1470 H     1 <1>   0.1500 
@<TRIPOS>BOND
  1   1   2  2   
  2   2   3  am  
  3   2   4  1   
  4   3   5  1   
  5   3   6  1   
  6   4   7  1   
  7   4   8  1   
  8   4  27  1   
  9   5   9  1   
 10   5  28  1   
 11   5  29  1   
 12   6  10  1   
 13   6  30  1   
 14   6  31  1   
 15   7  11  1   
 16   7  12  1   
 17   7  32  1   
 18   8  33  1   
 19   8  34  1   
 20   8  35  1   
 21   9  13  1   
 22   9  14  2   
 23  10  15  1   
 24  10  36  1   
 25  10  37  1   
 26  11  16  1   
 27  11  38  1   
 28  11  39  1   
 29  12  17  1   
 30  12  40  1   
 31  12  41  1   
 32  13  18  1   
 33  13  42  1   
 34  14  19  1   
 35  14  43  1   
 36  15  20  1   
 37  15  21  1   
 38  15  44  1   
 39  16  22  ar  
 40  16  23  ar  
 41  17  22  1   
 42  17  45  1   
 43  17  46  1   
 44  18  19  2   
 45  18  47  1   
 46  20  48  1   
 47  20  49  1   
 48  20  50  1   
 49  21  51  1   
 50  21  52  1   
 51  21  53  1   
 52  22  24  ar  
 53  23  25  ar  
 54  23  54  1   
 55  24  26  ar  
 56  24  55  1   
 57  25  26  ar  
 58  25  56  1   
 59  26  57  1   
@<TRIPOS>SUBSTRUCTURE
  1 ****   2 GROUP 4 **** **** 0

# MOE 2024.06 (io_trps.svl 2023.06)
