@<TRIPOS>MOLECULE
NONAME
59 62 1 0 0 
SMALL
USER_CHARGES


@<TRIPOS>ATOM
  1 O       -1.5480    -0.6320     1.5530 O.3   1 <1>  -0.3630 
  2 C       -2.3250    -1.7100     1.2920 C.ar  1 <1>   0.0830 
  3 C       -0.4320    -0.3140     0.7480 C.3   1 <1>   0.1200 
  4 C       -3.3530    -1.9660     2.1840 C.ar  1 <1>  -0.1500 
  5 C       -2.1440    -2.5520     0.1980 C.ar  1 <1>  -0.1500 
  6 C        0.2190     0.9510     1.3030 C.3   1 <1>   0.1200 
  7 C       -4.2000    -3.0420     1.9910 C.ar  1 <1>  -0.1500 
  8 C       -2.9940    -3.6270     0.0040 C.ar  1 <1>  -0.1500 
  9 O        1.3580     1.2400     0.5650 O.3   1 <1>  -0.6800 
 10 C       -4.0310    -3.8740     0.8930 C.ar  1 <1>  -0.1430 
 11 C       -4.9800    -5.0320     0.6570 C.3   1 <1>   0.4860 
 12 N       -5.9560    -4.6110    -0.3810 N.4   1 <1>  -0.9590 
 13 C       -6.8760    -3.5450     0.1490 C.3   1 <1>   0.3430 
 14 C       -6.7230    -5.7630    -0.9310 C.3   1 <1>   0.3430 
 15 C       -7.8170    -3.0000    -0.9370 C.3   1 <1>   0.1440 
 16 C       -7.6290    -5.2840    -2.0690 C.3   1 <1>  -0.1600 
 17 C       -8.7850    -2.0520    -0.2750 C.ar  1 <1>   0.1670 
 18 C       -8.5770    -4.1560    -1.6210 C.3   1 <1>  -0.1600 
 19 C       -7.0920    -2.0830    -1.9610 C.3   1 <1>  -0.1600 
 20 N       -9.4440    -2.3220     0.8210 N.ar  1 <1>  -0.6200 
 21 C       -8.8750    -0.8690    -0.9390 C.ar  1 <1>  -0.1430 
 22 C       -7.9900    -0.8450    -2.1600 C.3   1 <1>  -0.0170 
 23 C      -10.2370    -1.3370     1.2550 C.ar  1 <1>   0.7200 
 24 C       -9.7140     0.0840    -0.4190 C.ar  1 <1>   0.1600 
 25 N      -10.3960    -0.1420     0.6790 N.ar  1 <1>  -0.6200 
 26 N      -10.9490    -1.5780     2.4110 N.pl3 1 <1>  -0.8380 
 27 C      -11.5850    -0.4700     3.1780 C.3   1 <1>   0.1290 
 28 C      -11.3420    -2.9490     2.8340 C.3   1 <1>   0.1290 
 29 H       -0.7750    -0.1420    -0.2570 H     1 <1>   0.0800 
 30 H        0.2540    -1.1420     0.7860 H     1 <1>   0.0800 
 31 H       -3.4800    -1.3150     3.0310 H     1 <1>   0.1500 
 32 H       -1.3500    -2.3840    -0.5060 H     1 <1>   0.1500 
 33 H        0.5050     0.8210     2.3330 H     1 <1>   0.0800 
 34 H       -0.4530     1.7860     1.2110 H     1 <1>   0.0800 
 35 H       -4.9870    -3.2140     2.7070 H     1 <1>   0.1500 
 36 H       -2.8290    -4.2670    -0.8470 H     1 <1>   0.1500 
 37 H        2.0800     0.6150     0.7760 H     1 <1>   0.4000 
 38 H       -5.4890    -5.2930     1.5720 H     1 <1>   0.0800 
 39 H       -4.4180    -5.8870     0.3180 H     1 <1>   0.0800 
 40 H       -5.4070    -4.1850    -1.1370 H     1 <1>   0.4500 
 41 H       -6.3070    -2.7230     0.5530 H     1 <1>   0.0800 
 42 H       -7.4780    -3.9500     0.9470 H     1 <1>   0.0800 
 43 H       -7.3290    -6.2020    -0.1540 H     1 <1>   0.0800 
 44 H       -6.0480    -6.5180    -1.3030 H     1 <1>   0.0800 
 45 H       -8.2170    -6.1160    -2.4190 H     1 <1>   0.0800 
 46 H       -7.0230    -4.9580    -2.8960 H     1 <1>   0.0800 
 47 H       -9.1380    -3.7840    -2.4620 H     1 <1>   0.0800 
 48 H       -9.2890    -4.5630    -0.9220 H     1 <1>   0.0800 
 49 H       -6.8970    -2.5710    -2.8990 H     1 <1>   0.0800 
 50 H       -6.1550    -1.7480    -1.5480 H     1 <1>   0.0800 
 51 H       -8.5950    -0.9470    -3.0450 H     1 <1>   0.0800 
 52 H       -7.4130     0.0620    -2.2160 H     1 <1>   0.0800 
 53 H       -9.8260     1.0390    -0.9040 H     1 <1>   0.1500 
 54 H      -11.0020     0.4300     3.0920 H     1 <1>   0.0800 
 55 H      -11.6530    -0.7320     4.2190 H     1 <1>   0.0800 
 56 H      -12.5720    -0.2840     2.7910 H     1 <1>   0.0800 
 57 H      -11.2090    -3.6520     2.0300 H     1 <1>   0.0800 
 58 H      -12.3780    -2.9610     3.1230 H     1 <1>   0.0800 
 59 H      -10.7380    -3.2550     3.6710 H     1 <1>   0.0800 
@<TRIPOS>BOND
  1   1   2  1   
  2   1   3  1   
  3   2   4  ar  
  4   2   5  ar  
  5   3   6  1   
  6   3  29  1   
  7   3  30  1   
  8   4   7  ar  
  9   4  31  1   
 10   5   8  ar  
 11   5  32  1   
 12   6   9  1   
 13   6  33  1   
 14   6  34  1   
 15   7  10  ar  
 16   7  35  1   
 17   8  10  ar  
 18   8  36  1   
 19   9  37  1   
 20  10  11  1   
 21  11  12  1   
 22  11  38  1   
 23  11  39  1   
 24  12  13  1   
 25  12  14  1   
 26  12  40  1   
 27  13  15  1   
 28  13  41  1   
 29  13  42  1   
 30  14  16  1   
 31  14  43  1   
 32  14  44  1   
 33  15  17  1   
 34  15  18  1   
 35  15  19  1   
 36  16  18  1   
 37  16  45  1   
 38  16  46  1   
 39  17  20  ar  
 40  17  21  ar  
 41  18  47  1   
 42  18  48  1   
 43  19  22  1   
 44  19  49  1   
 45  19  50  1   
 46  20  23  ar  
 47  21  22  1   
 48  21  24  ar  
 49  22  51  1   
 50  22  52  1   
 51  23  25  ar  
 52  23  26  1   
 53  24  25  ar  
 54  24  53  1   
 55  26  27  1   
 56  26  28  1   
 57  27  54  1   
 58  27  55  1   
 59  27  56  1   
 60  28  57  1   
 61  28  58  1   
 62  28  59  1   
@<TRIPOS>SUBSTRUCTURE
  1 ****  13 GROUP 4 **** **** 0

# MOE 2024.06 (io_trps.svl 2023.06)
