@<TRIPOS>MOLECULE
NONAME
43 45 1 0 0 
SMALL
USER_CHARGES


@<TRIPOS>ATOM
  1 O       -1.1830    -1.0230     0.0040 O.3   1 <1>  -0.5600 
  2 C       -1.4340    -0.2410     1.1260 C.3   1 <1>   0.1200 
  3 C       -1.1220    -0.3830    -1.2280 C.3   1 <1>   0.1200 
  4 C       -2.8380     0.4040     1.1180 C.3   1 <1>   0.4230 
  5 C       -2.5440    -0.0910    -1.7370 C.3   1 <1>  -0.0800 
  6 N       -2.8890     1.5860     0.1710 N.4   1 <1>  -0.9590 
  7 C       -3.9800    -0.6520     0.9620 C.3   1 <1>   0.2090 
  8 C       -3.5180    -1.2590    -1.4640 C.3   1 <1>   0.2090 
  9 C       -3.0940     1.2680    -1.2790 C.3   1 <1>   0.3430 
 10 C       -3.8990     2.5960     0.6190 C.3   1 <1>   0.2630 
 11 N       -4.5610    -0.9370    -0.4210 N.pl3 1 <1>  -0.8380 
 12 C       -5.8730    -1.3420    -0.5450 C.ar  1 <1>   0.4610 
 13 N       -6.4590    -1.3880    -1.7590 N.ar  1 <1>  -0.1790 
 14 C       -6.6870    -1.7210     0.5060 C.ar  1 <1>  -0.1500 
 15 C       -7.7440    -1.7580    -1.9310 C.ar  1 <1>   0.7710 
 16 C       -7.9960    -2.0820     0.2650 C.ar  1 <1>   0.3920 
 17 N       -8.5360    -2.0990    -0.9490 N.ar  1 <1>  -0.6200 
 18 N       -8.2710    -1.7830    -3.1560 N.pl3 1 <1>  -0.9000 
 19 O       -8.7410    -2.4260     1.3120 O.3   1 <1>  -0.3620 
 20 C      -10.0950    -2.8230     1.2050 C.3   1 <1>   0.0400 
 21 H       -1.3520    -0.8960     1.9760 H     1 <1>   0.0800 
 22 H       -0.6590     0.5020     1.2130 H     1 <1>   0.0800 
 23 H       -0.5130     0.5020    -1.1520 H     1 <1>   0.0800 
 24 H       -0.6330    -1.0680    -1.9010 H     1 <1>   0.0800 
 25 H       -2.9460     0.8000     2.1140 H     1 <1>   0.0800 
 26 H       -2.4530    -0.0200    -2.8070 H     1 <1>   0.0800 
 27 H       -1.9640     2.0350     0.2400 H     1 <1>   0.4500 
 28 H       -4.7730    -0.3050     1.6000 H     1 <1>   0.0800 
 29 H       -3.6370    -1.5830     1.3840 H     1 <1>   0.0800 
 30 H       -2.9730    -2.1380    -1.1550 H     1 <1>   0.0800 
 31 H       -3.9890    -1.5230    -2.3940 H     1 <1>   0.0800 
 32 H       -4.1480     1.2910    -1.4990 H     1 <1>   0.0800 
 33 H       -2.6300     2.0440    -1.8670 H     1 <1>   0.0800 
 34 H       -4.8930     2.1820     0.5700 H     1 <1>   0.0800 
 35 H       -3.8600     3.4710    -0.0100 H     1 <1>   0.0800 
 36 H       -3.7030     2.9020     1.6350 H     1 <1>   0.0800 
 37 H       -5.9440    -1.1280    -2.5820 H     1 <1>   0.4570 
 38 H       -6.3400    -1.7620     1.5190 H     1 <1>   0.1500 
 39 H       -7.8330    -1.5930    -4.0580 H     1 <1>   0.4000 
 40 H       -9.2530    -2.0690    -3.2340 H     1 <1>   0.4000 
 41 H      -10.4620    -3.0480     2.1910 H     1 <1>   0.0800 
 42 H      -10.1560    -3.6980     0.5830 H     1 <1>   0.0800 
 43 H      -10.6650    -2.0160     0.7770 H     1 <1>   0.0800 
@<TRIPOS>BOND
  1   1   2  1   
  2   1   3  1   
  3   2   4  1   
  4   2  21  1   
  5   2  22  1   
  6   3   5  1   
  7   3  23  1   
  8   3  24  1   
  9   4   6  1   
 10   4   7  1   
 11   4  25  1   
 12   5   8  1   
 13   5   9  1   
 14   5  26  1   
 15   6   9  1   
 16   6  10  1   
 17   6  27  1   
 18   7  11  1   
 19   7  28  1   
 20   7  29  1   
 21   8  11  1   
 22   8  30  1   
 23   8  31  1   
 24   9  32  1   
 25   9  33  1   
 26  10  34  1   
 27  10  35  1   
 28  10  36  1   
 29  11  12  1   
 30  12  13  ar  
 31  12  14  ar  
 32  13  15  ar  
 33  13  37  1   
 34  14  16  ar  
 35  14  38  1   
 36  15  17  ar  
 37  15  18  1   
 38  16  17  ar  
 39  16  19  1   
 40  18  39  1   
 41  18  40  1   
 42  19  20  1   
 43  20  41  1   
 44  20  42  1   
 45  20  43  1   
@<TRIPOS>SUBSTRUCTURE
  1 ****  11 GROUP 4 **** **** 0

# MOE 2024.06 (io_trps.svl 2023.06)
