@<TRIPOS>MOLECULE
NONAME
40 42 1 0 0 
SMALL
USER_CHARGES


@<TRIPOS>ATOM
  1 O        1.1760    -0.6160    -1.5890 O.2   1 <1>  -0.5700 
  2 C        1.9240    -0.7990    -0.6460 C.2   1 <1>   0.7150 
  3 N        2.7880     0.2320    -0.3160 N.am  1 <1>  -0.6600 
  4 C        1.9370    -2.0750     0.0540 C.2   1 <1>   0.1010 
  5 C        3.3580     0.3750     1.0770 C.3   1 <1>   0.2200 
  6 C        3.1980     1.2050    -1.3730 C.3   1 <1>   0.1400 
  7 N        2.9830    -2.6000     0.6680 N.2   1 <1>  -0.5650 
  8 N        0.8460    -2.8960     0.1320 N.pl3 1 <1>   0.0480 
  9 C        3.3440     1.8280     1.5810 C.3   1 <1>   0.1200 
 10 C        4.7890    -0.2090     1.1600 C.3   1 <1>   0.3430 
 11 C        4.5760     1.8550    -1.1440 C.3   1 <1>  -0.0800 
 12 C        2.5420    -3.7710     1.1440 C.2   1 <1>   0.0770 
 13 C        1.2460    -3.9670     0.8290 C.2   1 <1>  -0.3020 
 14 C       -0.5120    -2.7030    -0.4210 C.3   1 <1>   0.0160 
 15 O        4.5040     2.4990     1.1860 O.3   1 <1>  -0.5600 
 16 N        5.3990    -0.3970    -0.2010 N.4   1 <1>  -0.9590 
 17 C        4.5080     2.9920    -0.1110 C.3   1 <1>   0.1200 
 18 C        5.7550     0.8880    -0.8860 C.3   1 <1>   0.3430 
 19 C        6.5400    -1.3520    -0.1450 C.3   1 <1>   0.2630 
 20 H        2.7330    -0.1790     1.7570 H     1 <1>   0.0800 
 21 H        3.2140     0.6940    -2.3220 H     1 <1>   0.0800 
 22 H        2.4420     1.9710    -1.4450 H     1 <1>   0.0800 
 23 H        3.3460     1.8270     2.6570 H     1 <1>   0.0800 
 24 H        2.4690     2.3620     1.2480 H     1 <1>   0.0800 
 25 H        4.7230    -1.1650     1.6510 H     1 <1>   0.0800 
 26 H        5.4120     0.4250     1.7680 H     1 <1>   0.0800 
 27 H        4.8090     2.3560    -2.0670 H     1 <1>   0.0800 
 28 H        3.1810    -4.4390     1.7010 H     1 <1>   0.1500 
 29 H        0.6070    -4.8010     1.0620 H     1 <1>   0.1500 
 30 H       -1.1690    -3.4680    -0.0510 H     1 <1>   0.0800 
 31 H       -0.4690    -2.7570    -1.4940 H     1 <1>   0.0800 
 32 H       -0.8870    -1.7390    -0.1280 H     1 <1>   0.0800 
 33 H        4.6310    -0.8310    -0.7410 H     1 <1>   0.4500 
 34 H        3.6380     3.6110    -0.2540 H     1 <1>   0.0800 
 35 H        5.3790     3.6190    -0.2010 H     1 <1>   0.0800 
 36 H        6.5060     1.4040    -0.3100 H     1 <1>   0.0800 
 37 H        6.1940     0.6460    -1.8400 H     1 <1>   0.0800 
 38 H        7.3390    -0.9460     0.4540 H     1 <1>   0.0800 
 39 H        6.9140    -1.5470    -1.1370 H     1 <1>   0.0800 
 40 H        6.2200    -2.2850     0.2890 H     1 <1>   0.0800 
@<TRIPOS>BOND
  1   1   2  2   
  2   2   3  am  
  3   2   4  1   
  4   3   5  1   
  5   3   6  1   
  6   4   7  2   
  7   4   8  1   
  8   5   9  1   
  9   5  10  1   
 10   5  20  1   
 11   6  11  1   
 12   6  21  1   
 13   6  22  1   
 14   7  12  1   
 15   8  13  1   
 16   8  14  1   
 17   9  15  1   
 18   9  23  1   
 19   9  24  1   
 20  10  16  1   
 21  10  25  1   
 22  10  26  1   
 23  11  17  1   
 24  11  18  1   
 25  11  27  1   
 26  12  13  2   
 27  12  28  1   
 28  13  29  1   
 29  14  30  1   
 30  14  31  1   
 31  14  32  1   
 32  15  17  1   
 33  16  18  1   
 34  16  19  1   
 35  16  33  1   
 36  17  34  1   
 37  17  35  1   
 38  18  36  1   
 39  18  37  1   
 40  19  38  1   
 41  19  39  1   
 42  19  40  1   
@<TRIPOS>SUBSTRUCTURE
  1 ****   3 GROUP 4 **** **** 0

# MOE 2024.06 (io_trps.svl 2023.06)
