@<TRIPOS>MOLECULE
NONAME
49 50 1 0 0 
SMALL
USER_CHARGES


@<TRIPOS>ATOM
  1 N       -0.8620    -0.8790     0.7530 N.ar  1 <1>  -0.6200 
  2 C       -1.7140    -0.0490     0.1860 C.ar  1 <1>   0.4100 
  3 C        0.4120    -0.5420     0.6640 C.ar  1 <1>   0.4760 
  4 N       -3.0420    -0.3760     0.2780 N.pl3 1 <1>  -0.8690 
  5 C       -1.2870     1.0820    -0.4960 C.ar  1 <1>  -0.1430 
  6 N        0.9310     0.4930     0.0380 N.ar  1 <1>  -0.6200 
  7 C        1.4040    -1.4500     1.3510 C.3   1 <1>  -0.0970 
  8 C       -3.6190    -1.0770     1.4530 C.3   1 <1>   0.3530 
  9 C        0.0650     1.3030    -0.5360 C.ar  1 <1>   0.1600 
 10 C       -2.2470     2.0540    -1.1750 C.3   1 <1>  -0.0170 
 11 C       -4.6910    -2.0850     1.0340 C.ar  1 <1>  -0.1430 
 12 C       -2.8630     3.0180    -0.1530 C.3   1 <1>  -0.1600 
 13 C       -4.6130    -2.9240    -0.0840 C.ar  1 <1>  -0.1430 
 14 C       -5.8070    -2.1700     1.8580 C.ar  1 <1>  -0.1500 
 15 C       -3.8560     3.9770    -0.8160 C.3   1 <1>  -0.2400 
 16 C       -5.6460    -3.8170    -0.3410 C.ar  1 <1>  -0.1500 
 17 C       -3.4540    -2.9270    -1.0760 C.3   1 <1>   0.4860 
 18 C       -6.8280    -3.0620     1.5920 C.ar  1 <1>  -0.1500 
 19 C       -6.7470    -3.8880     0.4900 C.ar  1 <1>  -0.1500 
 20 N       -2.1590    -3.2480    -0.4160 N.4   1 <1>  -0.9590 
 21 C       -1.0510    -3.3410    -1.4050 C.3   1 <1>   0.2630 
 22 C       -2.2310    -4.4450     0.4730 C.3   1 <1>   0.2630 
 23 H       -3.6850     0.3390    -0.0750 H     1 <1>   0.4000 
 24 H        0.9030    -2.2330     1.8870 H     1 <1>   0.0800 
 25 H        1.9880    -0.8740     2.0450 H     1 <1>   0.0800 
 26 H        2.0620    -1.8820     0.6200 H     1 <1>   0.0800 
 27 H       -4.0490    -0.3370     2.1070 H     1 <1>   0.0800 
 28 H       -2.8580    -1.5900     2.0130 H     1 <1>   0.0800 
 29 H        0.4620     2.1650    -1.0470 H     1 <1>   0.1500 
 30 H       -3.0220     1.5080    -1.6840 H     1 <1>   0.0800 
 31 H       -1.7190     2.6230    -1.9210 H     1 <1>   0.0800 
 32 H       -2.0790     3.5880     0.3150 H     1 <1>   0.0800 
 33 H       -3.3690     2.4640     0.6180 H     1 <1>   0.0800 
 34 H       -5.8970    -1.5390     2.7270 H     1 <1>   0.1500 
 35 H       -3.3660     4.5680    -1.5710 H     1 <1>   0.0800 
 36 H       -4.2690     4.6450    -0.0800 H     1 <1>   0.0800 
 37 H       -4.6650     3.4340    -1.2730 H     1 <1>   0.0800 
 38 H       -5.6120    -4.4700    -1.1970 H     1 <1>   0.1500 
 39 H       -3.3900    -1.9590    -1.5450 H     1 <1>   0.0800 
 40 H       -3.6530    -3.6540    -1.8460 H     1 <1>   0.0800 
 41 H       -7.6860    -3.1130     2.2410 H     1 <1>   0.1500 
 42 H       -7.5430    -4.5830     0.2800 H     1 <1>   0.1500 
 43 H       -1.9610    -2.4010     0.1670 H     1 <1>   0.4500 
 44 H       -1.2140    -4.1670    -2.0790 H     1 <1>   0.0800 
 45 H       -0.1120    -3.4860    -0.8960 H     1 <1>   0.0800 
 46 H       -0.9870    -2.4290    -1.9760 H     1 <1>   0.0800 
 47 H       -2.4670    -5.3250    -0.1020 H     1 <1>   0.0800 
 48 H       -2.9940    -4.3090     1.2230 H     1 <1>   0.0800 
 49 H       -1.2870    -4.5960     0.9710 H     1 <1>   0.0800 
@<TRIPOS>BOND
  1   1   2  ar  
  2   1   3  ar  
  3   2   4  1   
  4   2   5  ar  
  5   3   6  ar  
  6   3   7  1   
  7   4   8  1   
  8   4  23  1   
  9   5   9  ar  
 10   5  10  1   
 11   6   9  ar  
 12   7  24  1   
 13   7  25  1   
 14   7  26  1   
 15   8  11  1   
 16   8  27  1   
 17   8  28  1   
 18   9  29  1   
 19  10  12  1   
 20  10  30  1   
 21  10  31  1   
 22  11  13  ar  
 23  11  14  ar  
 24  12  15  1   
 25  12  32  1   
 26  12  33  1   
 27  13  16  ar  
 28  13  17  1   
 29  14  18  ar  
 30  14  34  1   
 31  15  35  1   
 32  15  36  1   
 33  15  37  1   
 34  16  19  ar  
 35  16  38  1   
 36  17  20  1   
 37  17  39  1   
 38  17  40  1   
 39  18  19  ar  
 40  18  41  1   
 41  19  42  1   
 42  20  21  1   
 43  20  22  1   
 44  20  43  1   
 45  21  44  1   
 46  21  45  1   
 47  21  46  1   
 48  22  47  1   
 49  22  48  1   
 50  22  49  1   
@<TRIPOS>SUBSTRUCTURE
  1 ****   4 GROUP 4 **** **** 0

# MOE 2024.06 (io_trps.svl 2023.06)
