@<TRIPOS>MOLECULE
NONAME
39 41 1 0 0 
SMALL
USER_CHARGES


@<TRIPOS>ATOM
  1 S        0.1610    -1.6430    -2.2820 S.3   1 <1>  -0.0800 
  2 C        0.1940    -2.6260    -0.8180 C.ar  1 <1>   0.2970 
  3 C       -1.5630    -1.9440    -2.5040 C.2   1 <1>  -0.1100 
  4 N        1.2890    -2.8390    -0.1230 N.ar  1 <1>  -0.5670 
  5 C       -1.0550    -3.1220    -0.5410 C.ar  1 <1>   0.0000 
  6 C       -2.0380    -2.7280    -1.5210 C.2   1 <1>  -0.1500 
  7 C        1.0850    -3.6170     0.9200 C.ar  1 <1>   0.4770 
  8 C       -1.1310    -3.9190     0.6050 C.ar  1 <1>   0.4100 
  9 N       -0.0490    -4.1750     1.3190 N.ar  1 <1>  -0.6200 
 10 C        2.2920    -3.9190     1.7760 C.3   1 <1>  -0.0960 
 11 N       -2.3130    -4.4850     1.0360 N.pl3 1 <1>  -0.8380 
 12 C       -2.3240    -5.7710     1.8010 C.3   1 <1>   0.3890 
 13 C       -3.5580    -3.6820     1.1900 C.3   1 <1>   0.1290 
 14 C       -3.2990    -6.7470     1.1650 C.2   1 <1>   0.0070 
 15 N       -4.3770    -7.1740     1.7340 N.2   1 <1>  -0.3380 
 16 N       -3.1470    -7.2680    -0.0590 N.pl3 1 <1>   0.0480 
 17 N       -4.9710    -8.0020     0.8750 N.2   1 <1>  -0.3380 
 18 C       -4.2290    -8.0420    -0.1760 C.2   1 <1>   0.0370 
 19 C       -2.0630    -7.0460    -1.0520 C.3   1 <1>   0.1760 
 20 C       -2.6290    -6.3930    -2.3170 C.3   1 <1>  -0.2400 
 21 C       -1.3620    -8.3690    -1.3820 C.3   1 <1>  -0.2400 
 22 H       -2.0310    -1.4930    -3.3620 H     1 <1>   0.1500 
 23 H       -3.0550    -3.0620    -1.4350 H     1 <1>   0.1500 
 24 H        3.1320    -3.3220     1.4710 H     1 <1>   0.0800 
 25 H        2.5460    -4.9580     1.6800 H     1 <1>   0.0800 
 26 H        2.0670    -3.7040     2.8040 H     1 <1>   0.0800 
 27 H       -2.6140    -5.5820     2.8200 H     1 <1>   0.0800 
 28 H       -1.3470    -6.2210     1.8150 H     1 <1>   0.0800 
 29 H       -3.3820    -2.6530     0.9290 H     1 <1>   0.0800 
 30 H       -3.8960    -3.7180     2.2120 H     1 <1>   0.0800 
 31 H       -4.3310    -4.0840     0.5570 H     1 <1>   0.0800 
 32 H       -4.4410    -8.6250    -1.0530 H     1 <1>   0.1500 
 33 H       -1.3380    -6.3800    -0.6210 H     1 <1>   0.0800 
 34 H       -3.3210    -7.0490    -2.8140 H     1 <1>   0.0800 
 35 H       -1.8300    -6.1600    -2.9970 H     1 <1>   0.0800 
 36 H       -3.1310    -5.4770    -2.0620 H     1 <1>   0.0800 
 37 H       -2.0410    -9.0600    -1.8480 H     1 <1>   0.0800 
 38 H       -0.9660    -8.8110    -0.4850 H     1 <1>   0.0800 
 39 H       -0.5440    -8.1900    -2.0570 H     1 <1>   0.0800 
@<TRIPOS>BOND
  1   1   2  1   
  2   1   3  1   
  3   2   4  ar  
  4   2   5  ar  
  5   3   6  2   
  6   3  22  1   
  7   4   7  ar  
  8   5   6  1   
  9   5   8  ar  
 10   6  23  1   
 11   7   9  ar  
 12   7  10  1   
 13   8   9  ar  
 14   8  11  1   
 15  10  24  1   
 16  10  25  1   
 17  10  26  1   
 18  11  12  1   
 19  11  13  1   
 20  12  14  1   
 21  12  27  1   
 22  12  28  1   
 23  13  29  1   
 24  13  30  1   
 25  13  31  1   
 26  14  15  2   
 27  14  16  1   
 28  15  17  1   
 29  16  18  1   
 30  16  19  1   
 31  17  18  2   
 32  18  32  1   
 33  19  20  1   
 34  19  21  1   
 35  19  33  1   
 36  20  34  1   
 37  20  35  1   
 38  20  36  1   
 39  21  37  1   
 40  21  38  1   
 41  21  39  1   
@<TRIPOS>SUBSTRUCTURE
  1 ****   8 GROUP 4 **** **** 0

# MOE 2024.06 (io_trps.svl 2023.06)
