@<TRIPOS>MOLECULE
NONAME
47 48 1 0 0 
SMALL
USER_CHARGES


@<TRIPOS>ATOM
  1 S       -1.4810     0.5510     1.8780 S.o2  1 <1>   1.3330 
  2 O       -2.2820    -0.3490     2.6720 O.2   1 <1>  -0.6500 
  3 O       -0.9140     1.7350     2.4750 O.2   1 <1>  -0.6500 
  4 N       -2.4520     1.0310     0.5270 N.am  1 <1>  -0.6930 
  5 C       -0.1840    -0.3780     1.0900 C.3   1 <1>  -0.1350 
  6 C       -2.0240     1.9860    -0.3910 C.ar  1 <1>   0.1990 
  7 C       -3.6840     0.2320     0.2480 C.3   1 <1>   0.2570 
  8 C       -1.8140     3.3030     0.0010 C.ar  1 <1>  -0.1500 
  9 C       -1.7980     1.6480    -1.7210 C.ar  1 <1>  -0.1500 
 10 C       -3.4230    -1.2630    -0.0230 C.2   1 <1>   0.5690 
 11 C       -1.3910     4.2630    -0.9020 C.ar  1 <1>  -0.1440 
 12 C       -1.3780     2.6000    -2.6320 C.ar  1 <1>  -0.1500 
 13 O       -2.7500    -1.5430    -0.9930 O.2   1 <1>  -0.5700 
 14 N       -3.9450    -2.2650     0.7590 N.am  1 <1>  -0.6600 
 15 C       -1.1750     3.9060    -2.2230 C.ar  1 <1>  -0.1500 
 16 C       -1.1640     5.6950    -0.4530 C.3   1 <1>  -0.0970 
 17 C       -3.6290    -3.6920     0.4550 C.3   1 <1>   0.3200 
 18 C       -4.9070    -2.0720     1.8860 C.3   1 <1>   0.1400 
 19 C       -4.5590    -4.2090    -0.6270 C.2   1 <1>   0.0060 
 20 C       -6.3490    -2.0750     1.3630 C.3   1 <1>   0.1200 
 21 N       -5.4820    -5.1010    -0.4550 N.2   1 <1>  -0.5650 
 22 N       -4.4850    -3.7440    -1.8920 N.pl3 1 <1>   0.0330 
 23 O       -7.2120    -1.7430     2.3960 O.3   1 <1>  -0.6800 
 24 C       -6.0380    -5.2260    -1.6760 C.2   1 <1>   0.0770 
 25 C       -5.4420    -4.4030    -2.5670 C.2   1 <1>  -0.3020 
 26 H        0.5050    -0.7430     1.8250 H     1 <1>   0.0800 
 27 H        0.3490     0.2470     0.4000 H     1 <1>   0.0800 
 28 H       -0.5920    -1.2130     0.5550 H     1 <1>   0.0800 
 29 H       -4.1700     0.6380    -0.6200 H     1 <1>   0.0800 
 30 H       -4.3600     0.3620     1.0690 H     1 <1>   0.0800 
 31 H       -1.9880     3.5710     1.0280 H     1 <1>   0.1500 
 32 H       -1.9450     0.6350    -2.0460 H     1 <1>   0.1500 
 33 H       -1.2070     2.3270    -3.6590 H     1 <1>   0.1500 
 34 H       -0.8490     4.6430    -2.9350 H     1 <1>   0.1500 
 35 H       -1.0360     5.7420     0.6140 H     1 <1>   0.0800 
 36 H       -2.0080     6.3010    -0.7280 H     1 <1>   0.0800 
 37 H       -0.2810     6.0950    -0.9170 H     1 <1>   0.0800 
 38 H       -3.7370    -4.2960     1.3380 H     1 <1>   0.0800 
 39 H       -2.6090    -3.7800     0.1230 H     1 <1>   0.0800 
 40 H       -4.7070    -1.1470     2.3960 H     1 <1>   0.0800 
 41 H       -4.7850    -2.8640     2.6040 H     1 <1>   0.0800 
 42 H       -6.6270    -3.0440     0.9840 H     1 <1>   0.0800 
 43 H       -6.4700    -1.3370     0.5900 H     1 <1>   0.0800 
 44 H       -3.8320    -3.0180    -2.2180 H     1 <1>   0.2700 
 45 H       -7.3190    -2.4940     3.0130 H     1 <1>   0.4000 
 46 H       -6.8500    -5.9120    -1.8520 H     1 <1>   0.1500 
 47 H       -5.6430    -4.2570    -3.6130 H     1 <1>   0.1500 
@<TRIPOS>BOND
  1   1   2  2   
  2   1   3  2   
  3   1   4  am  
  4   1   5  1   
  5   4   6  1   
  6   4   7  1   
  7   5  26  1   
  8   5  27  1   
  9   5  28  1   
 10   6   8  ar  
 11   6   9  ar  
 12   7  10  1   
 13   7  29  1   
 14   7  30  1   
 15   8  11  ar  
 16   8  31  1   
 17   9  12  ar  
 18   9  32  1   
 19  10  13  2   
 20  10  14  am  
 21  11  15  ar  
 22  11  16  1   
 23  12  15  ar  
 24  12  33  1   
 25  14  17  1   
 26  14  18  1   
 27  15  34  1   
 28  16  35  1   
 29  16  36  1   
 30  16  37  1   
 31  17  19  1   
 32  17  38  1   
 33  17  39  1   
 34  18  20  1   
 35  18  40  1   
 36  18  41  1   
 37  19  21  2   
 38  19  22  1   
 39  20  23  1   
 40  20  42  1   
 41  20  43  1   
 42  21  24  1   
 43  22  25  1   
 44  22  44  1   
 45  23  45  1   
 46  24  25  2   
 47  24  46  1   
 48  25  47  1   
@<TRIPOS>SUBSTRUCTURE
  1 ****  10 GROUP 4 **** **** 0

# MOE 2024.06 (io_trps.svl 2023.06)
