@<TRIPOS>MOLECULE
NONAME
42 44 1 0 0 
SMALL
USER_CHARGES


@<TRIPOS>ATOM
  1 CL      -0.2770    -0.5110    -1.0700 Cl    1 <1>  -0.1770 
  2 C       -0.4710    -2.2030    -0.6760 C.ar  1 <1>   0.1770 
  3 C       -1.7340    -2.7660    -0.6250 C.ar  1 <1>   0.1600 
  4 C        0.6390    -2.9740    -0.4150 C.ar  1 <1>  -0.1500 
  5 N       -1.9740    -4.0380    -0.3350 N.ar  1 <1>  -0.6200 
  6 C        0.4000    -4.2980    -0.1130 C.ar  1 <1>  -0.1500 
  7 C       -0.9070    -4.7880    -0.0870 C.ar  1 <1>   0.4270 
  8 N       -1.2270    -6.0950     0.2050 N.am  1 <1>  -0.5470 
  9 C       -0.4970    -7.2350     0.3490 C.2   1 <1>   0.5690 
 10 O        0.7050    -7.2820     0.2550 O.2   1 <1>  -0.5700 
 11 C       -1.2760    -8.5200     0.6390 C.3   1 <1>   0.1710 
 12 N       -2.6820    -8.5090     0.1330 N.3   1 <1>  -0.8100 
 13 C       -2.7430    -8.5210    -1.3440 C.3   1 <1>   0.1100 
 14 C       -3.4390    -9.6840     0.6110 C.3   1 <1>   0.1100 
 15 C       -4.0230    -9.2730    -1.6860 C.3   1 <1>   0.2000 
 16 C       -4.0740   -10.3580    -0.6170 C.3   1 <1>  -0.0800 
 17 O       -5.0900    -8.4190    -1.4800 O.3   1 <1>  -0.6800 
 18 C       -3.2960   -11.6110    -1.0680 C.3   1 <1>  -0.0160 
 19 C       -3.3250   -12.7160    -0.0240 C.ar  1 <1>   0.1670 
 20 N       -2.2490   -12.8450     0.7360 N.ar  1 <1>  -0.6200 
 21 C       -4.4510   -13.5300     0.0920 C.ar  1 <1>   0.1600 
 22 C       -2.3710   -13.8330     1.6070 C.ar  1 <1>   0.1600 
 23 N       -4.5770   -14.5140     0.9660 N.ar  1 <1>  -0.6200 
 24 C       -3.4970   -14.6400     1.7190 C.ar  1 <1>   0.1600 
 25 H       -2.5810    -2.1370    -0.8330 H     1 <1>   0.1500 
 26 H        1.6310    -2.5590    -0.4470 H     1 <1>   0.1500 
 27 H        1.2270    -4.9480     0.1030 H     1 <1>   0.1500 
 28 H       -2.2340    -6.2590     0.2350 H     1 <1>   0.3700 
 29 H       -1.2900    -8.6470     1.7060 H     1 <1>   0.0800 
 30 H       -0.7400    -9.3530     0.2170 H     1 <1>   0.0800 
 31 H       -2.7480    -7.5240    -1.7510 H     1 <1>   0.0800 
 32 H       -1.9020    -9.0580    -1.7470 H     1 <1>   0.0800 
 33 H       -2.8110   -10.3640     1.1610 H     1 <1>   0.0800 
 34 H       -4.2150    -9.3400     1.2730 H     1 <1>   0.0800 
 35 H       -4.0610    -9.6380    -2.6980 H     1 <1>   0.0800 
 36 H       -5.0920   -10.6420    -0.4100 H     1 <1>   0.0800 
 37 H       -4.9200    -7.9420    -0.6410 H     1 <1>   0.4000 
 38 H       -2.2710   -11.3590    -1.2790 H     1 <1>   0.0800 
 39 H       -3.7270   -11.9880    -1.9780 H     1 <1>   0.0800 
 40 H       -5.2840   -13.3580    -0.5650 H     1 <1>   0.1500 
 41 H       -1.5400   -14.0140     2.2660 H     1 <1>   0.1500 
 42 H       -3.5030   -15.4190     2.4600 H     1 <1>   0.1500 
@<TRIPOS>BOND
  1   1   2  1   
  2   2   3  ar  
  3   2   4  ar  
  4   3   5  ar  
  5   3  25  1   
  6   4   6  ar  
  7   4  26  1   
  8   5   7  ar  
  9   6   7  ar  
 10   6  27  1   
 11   7   8  1   
 12   8   9  am  
 13   8  28  1   
 14   9  10  2   
 15   9  11  1   
 16  11  12  1   
 17  11  29  1   
 18  11  30  1   
 19  12  13  1   
 20  12  14  1   
 21  13  15  1   
 22  13  31  1   
 23  13  32  1   
 24  14  16  1   
 25  14  33  1   
 26  14  34  1   
 27  15  16  1   
 28  15  17  1   
 29  15  35  1   
 30  16  18  1   
 31  16  36  1   
 32  17  37  1   
 33  18  19  1   
 34  18  38  1   
 35  18  39  1   
 36  19  20  ar  
 37  19  21  ar  
 38  20  22  ar  
 39  21  23  ar  
 40  21  40  1   
 41  22  24  ar  
 42  22  41  1   
 43  23  24  ar  
 44  24  42  1   
@<TRIPOS>SUBSTRUCTURE
  1 ****  12 GROUP 4 **** **** 0

# MOE 2024.06 (io_trps.svl 2023.06)
