@<TRIPOS>MOLECULE
NONAME
49 51 1 0 0 
SMALL
USER_CHARGES


@<TRIPOS>ATOM
  1 F        1.4720    -0.8790    -0.3940 F     1 <1>  -0.1900 
  2 C        1.0370    -2.1070    -0.4210 C.ar  1 <1>   0.1900 
  3 C        1.1520    -2.8830     0.7150 C.ar  1 <1>  -0.1500 
  4 C        0.4740    -2.5910    -1.5830 C.ar  1 <1>  -0.1500 
  5 C        0.6880    -4.1890     0.6960 C.ar  1 <1>  -0.1440 
  6 C        0.0140    -3.8950    -1.5970 C.ar  1 <1>  -0.1500 
  7 C        0.1070    -4.7180    -0.4700 C.ar  1 <1>   0.0860 
  8 C        0.8260    -5.0290     1.9600 C.3   1 <1>  -0.0960 
  9 C       -0.4130    -6.0730    -0.5480 C.2   1 <1>   0.5440 
 10 O        0.2860    -7.0310    -0.2720 O.2   1 <1>  -0.5700 
 11 N       -1.7200    -6.3210    -0.9080 N.am  1 <1>  -0.6600 
 12 C       -2.1410    -7.7130    -1.2280 C.3   1 <1>   0.1400 
 13 C       -2.8260    -5.4460    -0.4370 C.3   1 <1>   0.1400 
 14 C       -2.6720    -8.3490     0.0680 C.3   1 <1>   0.4230 
 15 C       -3.4650    -6.0860     0.8110 C.3   1 <1>  -0.1600 
 16 N       -2.7830    -9.8630     0.0380 N.4   1 <1>  -0.9590 
 17 C       -3.9090    -7.5660     0.6170 C.3   1 <1>   0.0000 
 18 C       -3.7050   -10.4080     1.0830 C.3   1 <1>   0.3430 
 19 C       -3.1470   -10.4390    -1.2950 C.3   1 <1>   0.2630 
 20 C       -4.3310    -8.1330     2.0060 C.3   1 <1>  -0.1600 
 21 C       -5.1310    -7.5370    -0.3490 C.3   1 <1>   0.1200 
 22 C       -3.7250    -9.5130     2.3210 C.3   1 <1>  -0.1600 
 23 O       -5.6620    -8.7980    -0.5740 O.3   1 <1>  -0.6800 
 24 H        1.6030    -2.4590     1.5950 H     1 <1>   0.1500 
 25 H        0.4040    -1.9600    -2.4510 H     1 <1>   0.1500 
 26 H       -0.4230    -4.2900    -2.4970 H     1 <1>   0.1500 
 27 H        1.1580    -4.4310     2.7900 H     1 <1>   0.0800 
 28 H        1.5440    -5.8140     1.8000 H     1 <1>   0.0800 
 29 H       -0.1180    -5.4730     2.2210 H     1 <1>   0.0800 
 30 H       -2.8920    -7.6950    -1.9960 H     1 <1>   0.0800 
 31 H       -1.2940    -8.2690    -1.5930 H     1 <1>   0.0800 
 32 H       -2.4540    -4.4660    -0.1860 H     1 <1>   0.0800 
 33 H       -3.5490    -5.3260    -1.2250 H     1 <1>   0.0800 
 34 H       -1.8950    -8.1490     0.7880 H     1 <1>   0.0800 
 35 H       -2.7370    -6.0280     1.6030 H     1 <1>   0.0800 
 36 H       -4.3040    -5.4850     1.1180 H     1 <1>   0.0800 
 37 H       -1.8390   -10.2000     0.2710 H     1 <1>   0.4500 
 38 H       -4.7070   -10.4680     0.6900 H     1 <1>   0.0800 
 39 H       -3.3980   -11.4050     1.3560 H     1 <1>   0.0800 
 40 H       -4.1060   -10.0720    -1.6170 H     1 <1>   0.0800 
 41 H       -3.1980   -11.5140    -1.2330 H     1 <1>   0.0800 
 42 H       -2.4100   -10.1760    -2.0350 H     1 <1>   0.0800 
 43 H       -4.0500    -7.4640     2.8030 H     1 <1>   0.0800 
 44 H       -5.4040    -8.2130     2.0520 H     1 <1>   0.0800 
 45 H       -4.8780    -7.1170    -1.3060 H     1 <1>   0.0800 
 46 H       -5.9140    -6.9350     0.0810 H     1 <1>   0.0800 
 47 H       -4.3150    -9.9860     3.0870 H     1 <1>   0.0800 
 48 H       -2.7250    -9.4100     2.7060 H     1 <1>   0.0800 
 49 H       -6.5460    -8.7250    -0.9940 H     1 <1>   0.4000 
@<TRIPOS>BOND
  1   1   2  1   
  2   2   3  ar  
  3   2   4  ar  
  4   3   5  ar  
  5   3  24  1   
  6   4   6  ar  
  7   4  25  1   
  8   5   7  ar  
  9   5   8  1   
 10   6   7  ar  
 11   6  26  1   
 12   7   9  1   
 13   8  27  1   
 14   8  28  1   
 15   8  29  1   
 16   9  10  2   
 17   9  11  am  
 18  11  12  1   
 19  11  13  1   
 20  12  14  1   
 21  12  30  1   
 22  12  31  1   
 23  13  15  1   
 24  13  32  1   
 25  13  33  1   
 26  14  16  1   
 27  14  17  1   
 28  14  34  1   
 29  15  17  1   
 30  15  35  1   
 31  15  36  1   
 32  16  18  1   
 33  16  19  1   
 34  16  37  1   
 35  17  20  1   
 36  17  21  1   
 37  18  22  1   
 38  18  38  1   
 39  18  39  1   
 40  19  40  1   
 41  19  41  1   
 42  19  42  1   
 43  20  22  1   
 44  20  43  1   
 45  20  44  1   
 46  21  23  1   
 47  21  45  1   
 48  21  46  1   
 49  22  47  1   
 50  22  48  1   
 51  23  49  1   
@<TRIPOS>SUBSTRUCTURE
  1 ****  11 GROUP 4 **** **** 0

# MOE 2024.06 (io_trps.svl 2023.06)
