@<TRIPOS>MOLECULE
NONAME
55 57 1 0 0 
SMALL
USER_CHARGES


@<TRIPOS>ATOM
  1 F        3.2420     0.5540    -0.6780 F     1 <1>  -0.1900 
  2 C        2.3480    -0.3980    -0.6030 C.ar  1 <1>   0.1900 
  3 C        1.0030    -0.0670    -0.6830 C.ar  1 <1>  -0.1440 
  4 C        2.7910    -1.6950    -0.4470 C.ar  1 <1>  -0.1500 
  5 C        0.0820    -1.0990    -0.6010 C.ar  1 <1>  -0.1500 
  6 C        0.5480     1.3750    -0.8540 C.3   1 <1>  -0.0960 
  7 C        1.8640    -2.7270    -0.3640 C.ar  1 <1>   0.1170 
  8 C        0.5110    -2.4080    -0.4440 C.ar  1 <1>  -0.1500 
  9 N        2.2210    -4.0730    -0.2070 N.am  1 <1>  -0.5470 
 10 C        3.4090    -4.7110     0.0110 C.2   1 <1>   0.5690 
 11 O        4.4750    -4.1570     0.1310 O.2   1 <1>  -0.5700 
 12 C        3.3420    -6.2350     0.1130 C.3   1 <1>   0.1710 
 13 N        2.0280    -6.7400     0.6160 N.3   1 <1>  -0.8100 
 14 C        1.8530    -8.1720     0.3180 C.3   1 <1>   0.1100 
 15 C        1.8700    -6.4720     2.0630 C.3   1 <1>   0.1100 
 16 C        0.3730    -8.6120     0.5030 C.3   1 <1>   0.0000 
 17 C        0.6830    -7.2450     2.6630 C.3   1 <1>  -0.1600 
 18 C       -0.2900    -7.6780     1.5650 C.3   1 <1>   0.2000 
 19 C       -0.4220    -8.4000    -0.8100 C.3   1 <1>   0.1200 
 20 C        0.3260   -10.1050     0.9560 C.3   1 <1>  -0.0170 
 21 O       -1.4050    -8.2480     2.1590 O.3   1 <1>  -0.6800 
 22 O        0.1780    -9.0140    -1.9030 O.3   1 <1>  -0.6800 
 23 C        0.9440   -11.1160    -0.0080 C.ar  1 <1>  -0.1430 
 24 C        0.1330   -11.8030    -0.9010 C.ar  1 <1>  -0.1500 
 25 C        2.3070   -11.3760     0.0010 C.ar  1 <1>  -0.1500 
 26 C        0.6790   -12.7120    -1.7890 C.ar  1 <1>  -0.1500 
 27 C        2.8540   -12.2860    -0.8870 C.ar  1 <1>  -0.1500 
 28 C        2.0400   -12.9520    -1.7860 C.ar  1 <1>  -0.1500 
 29 H        3.8460    -1.8850    -0.3940 H     1 <1>   0.1500 
 30 H       -0.9720    -0.8910    -0.6590 H     1 <1>   0.1500 
 31 H       -0.5240     1.4410    -0.8950 H     1 <1>   0.0800 
 32 H        0.9520     1.7790    -1.7650 H     1 <1>   0.0800 
 33 H        0.8980     1.9690    -0.0290 H     1 <1>   0.0800 
 34 H       -0.2210    -3.1930    -0.3840 H     1 <1>   0.1500 
 35 H        1.4490    -4.7470    -0.1990 H     1 <1>   0.3700 
 36 H        4.1410    -6.5810     0.7450 H     1 <1>   0.0800 
 37 H        3.5160    -6.6190    -0.8770 H     1 <1>   0.0800 
 38 H        2.1820    -8.3850    -0.6850 H     1 <1>   0.0800 
 39 H        2.4870    -8.7290     0.9860 H     1 <1>   0.0800 
 40 H        2.7690    -6.7410     2.5940 H     1 <1>   0.0800 
 41 H        1.7090    -5.4160     2.2030 H     1 <1>   0.0800 
 42 H        0.1820    -6.6130     3.3740 H     1 <1>   0.0800 
 43 H        1.0590    -8.1070     3.1840 H     1 <1>   0.0800 
 44 H       -0.6360    -6.7820     1.0760 H     1 <1>   0.0800 
 45 H       -0.4860    -7.3510    -1.0430 H     1 <1>   0.0800 
 46 H       -1.4200    -8.7910    -0.7120 H     1 <1>   0.0800 
 47 H        0.8210   -10.2030     1.9060 H     1 <1>   0.0800 
 48 H       -0.6970   -10.4000     1.1110 H     1 <1>   0.0800 
 49 H       -1.1360    -8.9170     2.8160 H     1 <1>   0.4000 
 50 H        0.4210    -9.9410    -1.6780 H     1 <1>   0.4000 
 51 H       -0.9310   -11.6330    -0.9140 H     1 <1>   0.1500 
 52 H        2.9560   -10.8800     0.6990 H     1 <1>   0.1500 
 53 H        0.0430   -13.2340    -2.4840 H     1 <1>   0.1500 
 54 H        3.9130   -12.4770    -0.8780 H     1 <1>   0.1500 
 55 H        2.4660   -13.6580    -2.4780 H     1 <1>   0.1500 
@<TRIPOS>BOND
  1   1   2  1   
  2   2   3  ar  
  3   2   4  ar  
  4   3   5  ar  
  5   3   6  1   
  6   4   7  ar  
  7   4  29  1   
  8   5   8  ar  
  9   5  30  1   
 10   6  31  1   
 11   6  32  1   
 12   6  33  1   
 13   7   8  ar  
 14   7   9  1   
 15   8  34  1   
 16   9  10  am  
 17   9  35  1   
 18  10  11  2   
 19  10  12  1   
 20  12  13  1   
 21  12  36  1   
 22  12  37  1   
 23  13  14  1   
 24  13  15  1   
 25  14  16  1   
 26  14  38  1   
 27  14  39  1   
 28  15  17  1   
 29  15  40  1   
 30  15  41  1   
 31  16  18  1   
 32  16  19  1   
 33  16  20  1   
 34  17  18  1   
 35  17  42  1   
 36  17  43  1   
 37  18  21  1   
 38  18  44  1   
 39  19  22  1   
 40  19  45  1   
 41  19  46  1   
 42  20  23  1   
 43  20  47  1   
 44  20  48  1   
 45  21  49  1   
 46  22  50  1   
 47  23  24  ar  
 48  23  25  ar  
 49  24  26  ar  
 50  24  51  1   
 51  25  27  ar  
 52  25  52  1   
 53  26  28  ar  
 54  26  53  1   
 55  27  28  ar  
 56  27  54  1   
 57  28  55  1   
@<TRIPOS>SUBSTRUCTURE
  1 ****  13 GROUP 4 **** **** 0

# MOE 2024.06 (io_trps.svl 2023.06)
