@<TRIPOS>MOLECULE
NONAME
54 56 1 0 0 
SMALL
USER_CHARGES


@<TRIPOS>ATOM
  1 F       -0.9410    -0.2930     0.7410 F     1 <1>  -0.1900 
  2 C       -2.1410     0.1960     0.5600 C.ar  1 <1>   0.1900 
  3 C       -2.3750     1.5710     0.4550 C.ar  1 <1>   0.0830 
  4 C       -3.1720    -0.7200     0.4810 C.ar  1 <1>  -0.1500 
  5 O       -1.4470     2.5690     0.5160 O.3   1 <1>  -0.3630 
  6 C       -3.6830     1.9870     0.2670 C.ar  1 <1>  -0.1500 
  7 C       -4.4660    -0.2700     0.2950 C.ar  1 <1>  -0.1500 
  8 C       -0.0650     2.3280     0.6600 C.3   1 <1>   0.0400 
  9 C       -4.7540     1.0940     0.1810 C.ar  1 <1>   0.0530 
 10 C       -6.1010     1.5780    -0.0130 C.2   1 <1>   0.0870 
 11 O       -6.4110     2.8110     0.3030 O.3   1 <1>  -0.0190 
 12 C       -7.2400     1.0010    -0.4800 C.2   1 <1>  -0.0860 
 13 N       -7.6650     3.0990     0.0790 N.2   1 <1>  -0.4100 
 14 C       -8.1880     2.0260    -0.4040 C.2   1 <1>   0.3720 
 15 C       -7.4710    -0.3260    -0.9480 C.2   1 <1>   0.7160 
 16 N       -9.5310     1.9230    -0.8020 N.pl3 1 <1>  -0.8210 
 17 O       -6.9280    -0.7110    -1.9680 O.2   1 <1>  -0.5700 
 18 N       -8.2540    -1.2100    -0.2460 N.am  1 <1>  -0.6600 
 19 C       -9.7190     1.7550    -2.2700 C.3   1 <1>   0.1290 
 20 C      -10.4510     2.9510    -0.2390 C.3   1 <1>   0.1290 
 21 C       -8.4860    -2.6100    -0.6650 C.3   1 <1>   0.1400 
 22 C       -9.0300    -0.8770     0.9650 C.3   1 <1>   0.1400 
 23 C       -9.6470    -3.0930     0.2090 C.3   1 <1>  -0.0800 
 24 C       -9.5450    -2.2200     1.4690 C.3   1 <1>  -0.1600 
 25 C       -9.6850    -4.6240     0.4370 C.3   1 <1>   0.2800 
 26 O       -8.5190    -5.0240     1.0410 O.3   1 <1>  -0.6800 
 27 C      -10.8230    -5.0420     1.3690 C.3   1 <1>  -0.2400 
 28 C       -9.7730    -5.3980    -0.8790 C.3   1 <1>  -0.2400 
 29 H       -2.9620    -1.7710     0.5650 H     1 <1>   0.1500 
 30 H       -3.8680     3.0430     0.1820 H     1 <1>   0.1500 
 31 H       -5.2560    -0.9960     0.2400 H     1 <1>   0.1500 
 32 H        0.4420     3.2760     0.6570 H     1 <1>   0.0800 
 33 H        0.2750     1.7300    -0.1680 H     1 <1>   0.0800 
 34 H        0.1080     1.8260     1.5960 H     1 <1>   0.0800 
 35 H       -9.0880     0.9680    -2.6450 H     1 <1>   0.0800 
 36 H       -9.4690     2.6700    -2.7790 H     1 <1>   0.0800 
 37 H      -10.7430     1.4990    -2.4810 H     1 <1>   0.0800 
 38 H      -10.3020     3.0300     0.8250 H     1 <1>   0.0800 
 39 H      -11.4730     2.6710    -0.4240 H     1 <1>   0.0800 
 40 H      -10.2550     3.9090    -0.6890 H     1 <1>   0.0800 
 41 H       -7.5930    -3.1810    -0.4780 H     1 <1>   0.0800 
 42 H       -8.7300    -2.6610    -1.7130 H     1 <1>   0.0800 
 43 H       -9.8540    -0.2400     0.6920 H     1 <1>   0.0800 
 44 H       -8.4160    -0.3820     1.6990 H     1 <1>   0.0800 
 45 H      -10.5530    -2.8180    -0.3020 H     1 <1>   0.0800 
 46 H      -10.4900    -2.1100     1.9710 H     1 <1>   0.0800 
 47 H       -8.8250    -2.6220     2.1580 H     1 <1>   0.0800 
 48 H       -8.4630    -4.6300     1.9300 H     1 <1>   0.4000 
 49 H      -10.7340    -4.5730     2.3310 H     1 <1>   0.0800 
 50 H      -10.8240    -6.1090     1.5020 H     1 <1>   0.0800 
 51 H      -11.7680    -4.7580     0.9410 H     1 <1>   0.0800 
 52 H       -8.9220    -5.1930    -1.5040 H     1 <1>   0.0800 
 53 H      -10.6630    -5.1220    -1.4140 H     1 <1>   0.0800 
 54 H       -9.8080    -6.4560    -0.6880 H     1 <1>   0.0800 
@<TRIPOS>BOND
  1   1   2  1   
  2   2   3  ar  
  3   2   4  ar  
  4   3   5  1   
  5   3   6  ar  
  6   4   7  ar  
  7   4  29  1   
  8   5   8  1   
  9   6   9  ar  
 10   6  30  1   
 11   7   9  ar  
 12   7  31  1   
 13   8  32  1   
 14   8  33  1   
 15   8  34  1   
 16   9  10  1   
 17  10  11  1   
 18  10  12  2   
 19  11  13  1   
 20  12  14  1   
 21  12  15  1   
 22  13  14  2   
 23  14  16  1   
 24  15  17  2   
 25  15  18  am  
 26  16  19  1   
 27  16  20  1   
 28  18  21  1   
 29  18  22  1   
 30  19  35  1   
 31  19  36  1   
 32  19  37  1   
 33  20  38  1   
 34  20  39  1   
 35  20  40  1   
 36  21  23  1   
 37  21  41  1   
 38  21  42  1   
 39  22  24  1   
 40  22  43  1   
 41  22  44  1   
 42  23  24  1   
 43  23  25  1   
 44  23  45  1   
 45  24  46  1   
 46  24  47  1   
 47  25  26  1   
 48  25  27  1   
 49  25  28  1   
 50  26  48  1   
 51  27  49  1   
 52  27  50  1   
 53  27  51  1   
 54  28  52  1   
 55  28  53  1   
 56  28  54  1   
@<TRIPOS>SUBSTRUCTURE
  1 ****  15 GROUP 4 **** **** 0

# MOE 2024.06 (io_trps.svl 2023.06)
