@<TRIPOS>MOLECULE
NONAME
48 51 1 0 0 
SMALL
USER_CHARGES


@<TRIPOS>ATOM
  1 O        0.4170     0.1950     1.1710 O.2   1 <1>  -0.5700 
  2 C        1.1150    -0.5260     0.4840 C.2   1 <1>   0.5440 
  3 N        0.5530    -1.6420    -0.1090 N.am  1 <1>  -0.6600 
  4 C        2.5190    -0.1980     0.3220 C.ar  1 <1>   0.0860 
  5 C        1.3560    -2.7480    -0.7050 C.3   1 <1>   0.1400 
  6 C       -0.9190    -1.8800    -0.0810 C.3   1 <1>   0.1400 
  7 C        3.3660    -0.1170     1.4240 C.ar  1 <1>  -0.1500 
  8 C        3.0700     0.0460    -0.9350 C.ar  1 <1>  -0.1500 
  9 C        1.0580    -4.0550     0.0340 C.3   1 <1>  -0.1600 
 10 C       -1.2160    -3.1820     0.6650 C.3   1 <1>  -0.1600 
 11 C        4.7100     0.1760     1.2780 C.ar  1 <1>  -0.1500 
 12 C        4.4130     0.3390    -1.0870 C.ar  1 <1>  -0.1500 
 13 C       -0.4410    -4.3470     0.0520 C.3   1 <1>   0.2890 
 14 C        5.2430     0.4010     0.0200 C.ar  1 <1>  -0.1430 
 15 N       -0.6750    -5.5530     0.8680 N.pl3 1 <1>  -0.8690 
 16 C        6.7170     0.7250    -0.1410 C.3   1 <1>  -0.0970 
 17 C       -1.2120    -6.7530     0.5510 C.2   1 <1>   0.2710 
 18 N       -1.2420    -7.6060     1.5760 N.2   1 <1>  -0.6210 
 19 C       -1.6890    -7.0950    -0.6920 C.2   1 <1>  -0.1410 
 20 C       -1.7370    -8.7880     1.3870 C.2   1 <1>   0.9190 
 21 C       -2.2030    -8.3620    -0.8340 C.cat 1 <1>   0.7910 
 22 N       -2.2260    -9.2030     0.1970 N.pl3 1 <1>  -0.6690 
 23 N       -1.7600    -9.6270     2.4180 N.pl3 1 <1>  -0.8500 
 24 N       -2.7420    -9.0230    -1.8720 N.pl3 1 <1>  -0.3930 
 25 C       -2.7920   -10.3600    -0.2750 C.2   1 <1>   0.5030 
 26 N       -3.1120   -10.2820    -1.5130 N.2   1 <1>  -0.2600 
 27 H        2.4100    -2.5430    -0.6360 H     1 <1>   0.0800 
 28 H        1.1010    -2.8440    -1.7460 H     1 <1>   0.0800 
 29 H       -1.2820    -1.9410    -1.0930 H     1 <1>   0.0800 
 30 H       -1.4310    -1.0650     0.4020 H     1 <1>   0.0800 
 31 H        2.9550    -0.2850     2.4040 H     1 <1>   0.1500 
 32 H        2.4310     0.0070    -1.8000 H     1 <1>   0.1500 
 33 H        1.4280    -3.9700     1.0400 H     1 <1>   0.0800 
 34 H        1.5770    -4.8610    -0.4510 H     1 <1>   0.0800 
 35 H       -2.2710    -3.3830     0.6190 H     1 <1>   0.0800 
 36 H       -0.9400    -3.0530     1.6960 H     1 <1>   0.0800 
 37 H        5.3390     0.2300     2.1500 H     1 <1>   0.1500 
 38 H        4.8110     0.5220    -2.0700 H     1 <1>   0.1500 
 39 H       -0.7810    -4.5030    -0.9560 H     1 <1>   0.0800 
 40 H       -0.3760    -5.4450     1.8440 H     1 <1>   0.4000 
 41 H        7.2950     0.2410     0.6250 H     1 <1>   0.0800 
 42 H        6.8660     1.7870    -0.0690 H     1 <1>   0.0800 
 43 H        7.0750     0.3890    -1.0980 H     1 <1>   0.0800 
 44 H       -1.6680    -6.4150    -1.5170 H     1 <1>   0.1500 
 45 H       -1.3830    -9.2870     3.3050 H     1 <1>   0.4000 
 46 H       -2.1130   -10.5780     2.4220 H     1 <1>   0.4000 
 47 H       -2.8710    -8.6520    -2.8210 H     1 <1>   0.4500 
 48 H       -2.9430   -11.2300     0.3450 H     1 <1>   0.1500 
@<TRIPOS>BOND
  1   1   2  2   
  2   2   3  am  
  3   2   4  1   
  4   3   5  1   
  5   3   6  1   
  6   4   7  ar  
  7   4   8  ar  
  8   5   9  1   
  9   5  27  1   
 10   5  28  1   
 11   6  10  1   
 12   6  29  1   
 13   6  30  1   
 14   7  11  ar  
 15   7  31  1   
 16   8  12  ar  
 17   8  32  1   
 18   9  13  1   
 19   9  33  1   
 20   9  34  1   
 21  10  13  1   
 22  10  35  1   
 23  10  36  1   
 24  11  14  ar  
 25  11  37  1   
 26  12  14  ar  
 27  12  38  1   
 28  13  15  1   
 29  13  39  1   
 30  14  16  1   
 31  15  17  1   
 32  15  40  1   
 33  16  41  1   
 34  16  42  1   
 35  16  43  1   
 36  17  18  1   
 37  17  19  2   
 38  18  20  2   
 39  19  21  1   
 40  19  44  1   
 41  20  22  1   
 42  20  23  1   
 43  21  22  ar  
 44  21  24  ar  
 45  22  25  1   
 46  23  45  1   
 47  23  46  1   
 48  24  26  1   
 49  24  47  1   
 50  25  26  2   
 51  25  48  1   
@<TRIPOS>SUBSTRUCTURE
  1 ****   9 GROUP 4 **** **** 0

# MOE 2024.06 (io_trps.svl 2023.06)
