@<TRIPOS>MOLECULE
NONAME
51 53 1 0 0 
SMALL
USER_CHARGES


@<TRIPOS>ATOM
  1 F        0.7590    -0.1940    -2.8290 F     1 <1>  -0.1900 
  2 C        1.0230     0.4830    -1.7390 C.ar  1 <1>   0.1900 
  3 C        0.7100     1.8300    -1.6780 C.ar  1 <1>   0.1900 
  4 C        1.6190    -0.1650    -0.6710 C.ar  1 <1>  -0.1440 
  5 F        0.1330     2.4210    -2.6930 F     1 <1>  -0.1900 
  6 C        0.9960     2.5730    -0.5490 C.ar  1 <1>  -0.1500 
  7 C        1.9170     0.5800     0.4690 C.ar  1 <1>   0.0820 
  8 C        1.9700    -1.6420    -0.7540 C.3   1 <1>   0.4860 
  9 C        1.6030     1.9420     0.5260 C.ar  1 <1>  -0.1500 
 10 O        2.5190    -0.0800     1.4930 O.3   1 <1>  -0.3630 
 11 N        0.8480    -2.5080    -0.3010 N.4   1 <1>  -0.9590 
 12 C        2.9990     0.6050     2.6330 C.3   1 <1>   0.0400 
 13 C       -0.3430    -2.4480    -1.1920 C.3   1 <1>   0.3430 
 14 C        0.4310    -2.2590     1.1020 C.3   1 <1>   0.3430 
 15 C       -1.2360    -3.6540    -0.8690 C.3   1 <1>   0.2000 
 16 C       -0.5340    -3.3560     1.5600 C.3   1 <1>  -0.1600 
 17 O       -0.4410    -4.7760    -1.0850 O.3   1 <1>  -0.6800 
 18 C       -1.7300    -3.6570     0.6050 C.3   1 <1>  -0.1060 
 19 C       -2.2960    -5.0350     0.9790 C.2   1 <1>   0.9060 
 20 C       -2.9180    -2.6740     0.8190 C.3   1 <1>  -0.0160 
 21 O       -2.4130    -5.9090     0.1100 O.co2 1 <1>  -0.9000 
 22 O       -2.5990    -5.2370     2.1560 O.co2 1 <1>  -0.9000 
 23 C       -2.7060    -1.2180     0.4210 C.ar  1 <1>  -0.1430 
 24 C       -2.1830    -0.3100     1.3290 C.ar  1 <1>  -0.1500 
 25 C       -3.0650    -0.7810    -0.8450 C.ar  1 <1>  -0.1500 
 26 C       -1.9840     1.0100     0.9630 C.ar  1 <1>  -0.1500 
 27 C       -2.8660     0.5380    -1.2130 C.ar  1 <1>  -0.1500 
 28 C       -2.3230     1.4340    -0.3090 C.ar  1 <1>  -0.1500 
 29 H        0.7490     3.6200    -0.5160 H     1 <1>   0.1500 
 30 H        2.8360    -1.8300    -0.1400 H     1 <1>   0.0800 
 31 H        2.2270    -1.8900    -1.7710 H     1 <1>   0.0800 
 32 H        1.8230     2.5310     1.3980 H     1 <1>   0.1500 
 33 H        1.1140    -3.5070    -0.3620 H     1 <1>   0.4500 
 34 H        3.4870    -0.1070     3.2740 H     1 <1>   0.0800 
 35 H        2.1690     1.0510     3.1520 H     1 <1>   0.0800 
 36 H        3.7050     1.3560     2.3220 H     1 <1>   0.0800 
 37 H       -0.8630    -1.5210    -1.0490 H     1 <1>   0.0800 
 38 H       -0.0430    -2.5130    -2.2240 H     1 <1>   0.0800 
 39 H        1.2940    -2.2540     1.7480 H     1 <1>   0.0800 
 40 H       -0.0400    -1.2950     1.1700 H     1 <1>   0.0800 
 41 H       -2.0720    -3.7110    -1.5470 H     1 <1>   0.0800 
 42 H        0.0400    -4.2590     1.6780 H     1 <1>   0.0800 
 43 H       -0.9080    -3.1140     2.5400 H     1 <1>   0.0800 
 44 H       -1.0160    -5.5510    -0.7940 H     1 <1>   0.4000 
 45 H       -3.7670    -3.0500     0.2730 H     1 <1>   0.0800 
 46 H       -3.2100    -2.7040     1.8560 H     1 <1>   0.0800 
 47 H       -1.9360    -0.6280     2.3270 H     1 <1>   0.1500 
 48 H       -3.5060    -1.4640    -1.5510 H     1 <1>   0.1500 
 49 H       -1.5760     1.7100     1.6710 H     1 <1>   0.1500 
 50 H       -3.1410     0.8720    -2.1990 H     1 <1>   0.1500 
 51 H       -2.1750     2.4610    -0.5950 H     1 <1>   0.1500 
@<TRIPOS>BOND
  1   1   2  1   
  2   2   3  ar  
  3   2   4  ar  
  4   3   5  1   
  5   3   6  ar  
  6   4   7  ar  
  7   4   8  1   
  8   6   9  ar  
  9   6  29  1   
 10   7   9  ar  
 11   7  10  1   
 12   8  11  1   
 13   8  30  1   
 14   8  31  1   
 15   9  32  1   
 16  10  12  1   
 17  11  13  1   
 18  11  14  1   
 19  11  33  1   
 20  12  34  1   
 21  12  35  1   
 22  12  36  1   
 23  13  15  1   
 24  13  37  1   
 25  13  38  1   
 26  14  16  1   
 27  14  39  1   
 28  14  40  1   
 29  15  17  1   
 30  15  18  1   
 31  15  41  1   
 32  16  18  1   
 33  16  42  1   
 34  16  43  1   
 35  17  44  1   
 36  18  19  1   
 37  18  20  1   
 38  19  21  ar  
 39  19  22  ar  
 40  20  23  1   
 41  20  45  1   
 42  20  46  1   
 43  23  24  ar  
 44  23  25  ar  
 45  24  26  ar  
 46  24  47  1   
 47  25  27  ar  
 48  25  48  1   
 49  26  28  ar  
 50  26  49  1   
 51  27  28  ar  
 52  27  50  1   
 53  28  51  1   
@<TRIPOS>SUBSTRUCTURE
  1 ****  13 GROUP 4 **** **** 0

# MOE 2024.06 (io_trps.svl 2023.06)
