@<TRIPOS>MOLECULE
NONAME
52 54 1 0 0 
SMALL
USER_CHARGES


@<TRIPOS>ATOM
  1 O       -1.5230    -3.3370    -0.0660 O.co2 1 <1>  -0.9000 
  2 C       -1.0400    -3.2950     1.0790 C.2   1 <1>   1.0330 
  3 O       -1.8150    -3.5570     2.0180 O.co2 1 <1>  -0.9000 
  4 C        0.3750    -3.2780     1.2770 C.2   1 <1>  -0.2330 
  5 C        1.0020    -4.1670     2.1450 C.2   1 <1>   0.3720 
  6 C        1.4130    -2.5930     0.7260 C.2   1 <1>   0.0870 
  7 N        2.2790    -4.0840     2.0760 N.2   1 <1>  -0.4100 
  8 N        0.3190    -5.0350     2.9850 N.pl3 1 <1>  -0.8520 
  9 O        2.5110    -3.1200     1.2230 O.3   1 <1>  -0.0190 
 10 C        1.5300    -1.4920    -0.2030 C.ar  1 <1>   0.0530 
 11 C        0.4730    -6.4850     2.7640 C.3   1 <1>   0.2090 
 12 C        0.6450    -1.2920    -1.2630 C.ar  1 <1>  -0.1500 
 13 C        2.5690    -0.5700    -0.0630 C.ar  1 <1>  -0.1500 
 14 C       -0.7660    -7.0380     2.0480 C.3   1 <1>  -0.1600 
 15 C        0.7840    -0.2260    -2.1330 C.ar  1 <1>  -0.1500 
 16 C        2.7170     0.4980    -0.9300 C.ar  1 <1>  -0.1500 
 17 C       -0.8810    -6.5080     0.6060 C.3   1 <1>   0.4230 
 18 C        1.8220     0.6730    -1.9690 C.ar  1 <1>  -0.1500 
 19 N       -2.2780    -6.5790     0.0880 N.4   1 <1>  -0.9590 
 20 C        0.0520    -7.3010    -0.3170 C.3   1 <1>  -0.2400 
 21 C       -2.3900    -6.0610    -1.3230 C.3   1 <1>   0.3430 
 22 C       -3.2670    -5.7640     0.8790 C.3   1 <1>   0.3430 
 23 C       -3.8560    -6.0270    -1.8240 C.3   1 <1>   0.1100 
 24 C       -4.7140    -6.0900     0.4420 C.3   1 <1>   0.1100 
 25 N       -4.7760    -6.7300    -0.8980 N.3   1 <1>  -0.8100 
 26 C       -6.1490    -6.7460    -1.4140 C.3   1 <1>   0.0300 
 27 H       -0.6740    -4.7230     3.0110 H     1 <1>   0.4000 
 28 H        0.5760    -6.9600     3.7240 H     1 <1>   0.0800 
 29 H        1.3730    -6.6780     2.2060 H     1 <1>   0.0800 
 30 H       -0.1630    -1.9790    -1.4180 H     1 <1>   0.1500 
 31 H        3.2700    -0.6920     0.7440 H     1 <1>   0.1500 
 32 H       -1.6110    -6.7730     2.6500 H     1 <1>   0.0800 
 33 H       -0.7040    -8.1110     2.0320 H     1 <1>   0.0800 
 34 H        0.0820    -0.0980    -2.9380 H     1 <1>   0.1500 
 35 H        3.5280     1.1920    -0.7950 H     1 <1>   0.1500 
 36 H       -0.5680    -5.4830     0.5920 H     1 <1>   0.0800 
 37 H        1.9320     1.5030    -2.6450 H     1 <1>   0.1500 
 38 H       -2.6450    -7.5350     0.0750 H     1 <1>   0.4500 
 39 H       -0.2950    -8.3100    -0.4420 H     1 <1>   0.0800 
 40 H        1.0430    -7.3340     0.0980 H     1 <1>   0.0800 
 41 H        0.1430    -6.8240    -1.2750 H     1 <1>   0.0800 
 42 H       -1.8210    -6.6880    -1.9860 H     1 <1>   0.0800 
 43 H       -1.9790    -5.0670    -1.3820 H     1 <1>   0.0800 
 44 H       -3.1000    -4.7190     0.6890 H     1 <1>   0.0800 
 45 H       -3.1690    -5.9130     1.9380 H     1 <1>   0.0800 
 46 H       -3.9030    -6.4780    -2.7990 H     1 <1>   0.0800 
 47 H       -4.1590    -4.9970    -1.9250 H     1 <1>   0.0800 
 48 H       -5.2780    -5.1730     0.4460 H     1 <1>   0.0800 
 49 H       -5.1600    -6.7510     1.1650 H     1 <1>   0.0800 
 50 H       -6.1780    -7.2500    -2.3650 H     1 <1>   0.0800 
 51 H       -6.5210    -5.7430    -1.5370 H     1 <1>   0.0800 
 52 H       -6.7910    -7.2760    -0.7300 H     1 <1>   0.0800 
@<TRIPOS>BOND
  1   1   2  ar  
  2   2   3  ar  
  3   2   4  1   
  4   4   5  1   
  5   4   6  2   
  6   5   7  2   
  7   5   8  1   
  8   6   9  1   
  9   6  10  1   
 10   7   9  1   
 11   8  11  1   
 12   8  27  1   
 13  10  12  ar  
 14  10  13  ar  
 15  11  14  1   
 16  11  28  1   
 17  11  29  1   
 18  12  15  ar  
 19  12  30  1   
 20  13  16  ar  
 21  13  31  1   
 22  14  17  1   
 23  14  32  1   
 24  14  33  1   
 25  15  18  ar  
 26  15  34  1   
 27  16  18  ar  
 28  16  35  1   
 29  17  19  1   
 30  17  20  1   
 31  17  36  1   
 32  18  37  1   
 33  19  21  1   
 34  19  22  1   
 35  19  38  1   
 36  20  39  1   
 37  20  40  1   
 38  20  41  1   
 39  21  23  1   
 40  21  42  1   
 41  21  43  1   
 42  22  24  1   
 43  22  44  1   
 44  22  45  1   
 45  23  25  1   
 46  23  46  1   
 47  23  47  1   
 48  24  25  1   
 49  24  48  1   
 50  24  49  1   
 51  25  26  1   
 52  26  50  1   
 53  26  51  1   
 54  26  52  1   
@<TRIPOS>SUBSTRUCTURE
  1 ****   2 GROUP 4 **** **** 0

# MOE 2024.06 (io_trps.svl 2023.06)
