@<TRIPOS>MOLECULE
NONAME
42 45 1 0 0 
SMALL
USER_CHARGES


@<TRIPOS>ATOM
  1 CL      -2.0290    -1.4710     2.9090 Cl    1 <1>  -0.1240 
  2 C       -2.9090    -1.4160     1.4070 C.2   1 <1>   0.1640 
  3 S       -4.0940    -0.1400     1.2380 S.3   1 <1>  -0.0800 
  4 C       -2.8500    -2.1950     0.3150 C.2   1 <1>  -0.1500 
  5 C       -4.5220    -0.7030    -0.3820 C.2   1 <1>  -0.0220 
  6 C       -3.7700    -1.7810    -0.7020 C.2   1 <1>  -0.1500 
  7 S       -5.7950     0.2090    -1.2890 S.o2  1 <1>   1.5000 
  8 O       -6.3080    -0.6210    -2.3570 O.2   1 <1>  -0.6500 
  9 O       -5.3000     1.5330    -1.5980 O.2   1 <1>  -0.6500 
 10 N       -7.0430     0.3900    -0.1570 N.am  1 <1>  -0.8490 
 11 C       -8.0450     1.3780    -0.5790 C.3   1 <1>   0.1960 
 12 C       -7.6950    -0.8830     0.2030 C.3   1 <1>   0.1960 
 13 C       -8.8900     1.8390     0.6320 C.3   1 <1>   0.1440 
 14 C       -9.0080    -0.6790     0.9870 C.3   1 <1>  -0.1600 
 15 C      -10.2010     2.3870     0.0960 C.ar  1 <1>   0.1670 
 16 C       -9.0840     0.6980     1.6640 C.3   1 <1>  -0.1600 
 17 C       -8.2670     3.0890     1.3070 C.3   1 <1>  -0.1600 
 18 N      -11.2000     1.6670    -0.3650 N.ar  1 <1>  -0.6200 
 19 C      -10.2250     3.7490     0.1270 C.ar  1 <1>  -0.1430 
 20 C       -8.9460     4.3210     0.6860 C.3   1 <1>  -0.0170 
 21 C      -12.2380     2.3750    -0.7860 C.ar  1 <1>   0.4770 
 22 C      -11.3510     4.3820    -0.3380 C.ar  1 <1>   0.1600 
 23 N      -12.3750     3.6950    -0.8010 N.ar  1 <1>  -0.6200 
 24 C      -13.4070     1.5830    -1.3210 C.3   1 <1>  -0.0970 
 25 H       -2.1970    -3.0400     0.1850 H     1 <1>   0.1500 
 26 H       -3.8320    -2.3120    -1.6380 H     1 <1>   0.1500 
 27 H       -8.6820     0.9370    -1.3290 H     1 <1>   0.0800 
 28 H       -7.5740     2.2380    -1.0230 H     1 <1>   0.0800 
 29 H       -7.0120    -1.4560     0.8080 H     1 <1>   0.0800 
 30 H       -7.9150    -1.4580    -0.6820 H     1 <1>   0.0800 
 31 H       -9.1130    -1.4590     1.7190 H     1 <1>   0.0800 
 32 H       -9.8350    -0.7750     0.3040 H     1 <1>   0.0800 
 33 H      -10.0230     0.8150     2.1750 H     1 <1>   0.0800 
 34 H       -8.2980     0.7430     2.3970 H     1 <1>   0.0800 
 35 H       -7.1960     3.1180     1.1970 H     1 <1>   0.0800 
 36 H       -8.4990     3.0810     2.3580 H     1 <1>   0.0800 
 37 H       -8.3480     4.7240    -0.1140 H     1 <1>   0.0800 
 38 H       -9.1360     5.0830     1.4220 H     1 <1>   0.0800 
 39 H      -11.4170     5.4560    -0.3330 H     1 <1>   0.1500 
 40 H      -13.4490     0.6210    -0.8470 H     1 <1>   0.0800 
 41 H      -13.2890     1.4520    -2.3790 H     1 <1>   0.0800 
 42 H      -14.3250     2.1070    -1.1290 H     1 <1>   0.0800 
@<TRIPOS>BOND
  1   1   2  1   
  2   2   3  1   
  3   2   4  2   
  4   3   5  1   
  5   4   6  1   
  6   4  25  1   
  7   5   6  2   
  8   5   7  1   
  9   6  26  1   
 10   7   8  2   
 11   7   9  2   
 12   7  10  am  
 13  10  11  1   
 14  10  12  1   
 15  11  13  1   
 16  11  27  1   
 17  11  28  1   
 18  12  14  1   
 19  12  29  1   
 20  12  30  1   
 21  13  15  1   
 22  13  16  1   
 23  13  17  1   
 24  14  16  1   
 25  14  31  1   
 26  14  32  1   
 27  15  18  ar  
 28  15  19  ar  
 29  16  33  1   
 30  16  34  1   
 31  17  20  1   
 32  17  35  1   
 33  17  36  1   
 34  18  21  ar  
 35  19  20  1   
 36  19  22  ar  
 37  20  37  1   
 38  20  38  1   
 39  21  23  ar  
 40  21  24  1   
 41  22  23  ar  
 42  22  39  1   
 43  24  40  1   
 44  24  41  1   
 45  24  42  1   
@<TRIPOS>SUBSTRUCTURE
  1 ****  11 GROUP 4 **** **** 0

# MOE 2024.06 (io_trps.svl 2023.06)
