@<TRIPOS>MOLECULE
NONAME
49 52 1 0 0 
SMALL
USER_CHARGES


@<TRIPOS>ATOM
  1 O       -3.3390     2.0570     1.3490 O.2   1 <1>  -0.5700 
  2 C       -2.6400     1.5520     0.5010 C.2   1 <1>   0.5690 
  3 N       -2.2730     0.2280     0.5850 N.am  1 <1>  -0.6600 
  4 C       -2.2450     2.4520    -0.6620 C.3   1 <1>   0.1570 
  5 C       -2.8720    -0.6370     1.6350 C.3   1 <1>   0.3200 
  6 C       -1.3440    -0.4640    -0.3690 C.3   1 <1>   0.1400 
  7 N       -0.8010     2.7630    -0.6820 N.pl3 1 <1>   0.0480 
  8 C       -4.0370    -1.3790     1.0120 C.2   1 <1>  -0.3320 
  9 C       -2.0480    -1.1410    -1.5610 C.3   1 <1>   0.1200 
 10 C        0.0520     2.4980    -1.7090 C.ar  1 <1>  -0.1520 
 11 C       -0.0380     3.3550     0.2800 C.2   1 <1>   0.1010 
 12 N       -4.1320    -2.7120     0.8360 N.pl3 1 <1>   0.0480 
 13 C       -5.1720    -0.8420     0.5130 C.2   1 <1>   0.0770 
 14 O       -3.1250    -0.3930    -2.0110 O.3   1 <1>  -0.6800 
 15 C        1.2900     2.9400    -1.2840 C.ar  1 <1>   0.2270 
 16 C       -0.1080     1.9060    -2.9670 C.ar  1 <1>  -0.1500 
 17 N        1.2060     3.4710    -0.0360 N.2   1 <1>  -0.5650 
 18 C       -0.6150     3.8320     1.6040 C.3   1 <1>  -0.0150 
 19 C       -5.3200    -2.8880     0.2150 C.2   1 <1>   0.0360 
 20 C       -3.1820    -3.7650     1.2400 C.3   1 <1>   0.0160 
 21 N       -5.9690    -1.7910    -0.0030 N.2   1 <1>  -0.5650 
 22 C        2.4030     2.8030    -2.1120 C.ar  1 <1>  -0.1500 
 23 C        0.9970     1.7740    -3.7780 C.ar  1 <1>  -0.1500 
 24 C       -1.5340     5.0140     1.6360 C.3   1 <1>  -0.2000 
 25 C       -0.1580     5.1190     2.2180 C.3   1 <1>  -0.2000 
 26 C        2.2530     2.2220    -3.3520 C.ar  1 <1>  -0.1500 
 27 H       -2.7840     3.3770    -0.5820 H     1 <1>   0.0800 
 28 H       -2.5260     1.9890    -1.5850 H     1 <1>   0.0800 
 29 H       -3.2280    -0.0440     2.4610 H     1 <1>   0.0800 
 30 H       -2.1320    -1.3160     2.0180 H     1 <1>   0.0800 
 31 H       -0.7760    -1.2070     0.1620 H     1 <1>   0.0800 
 32 H       -0.6220     0.2290    -0.7500 H     1 <1>   0.0800 
 33 H       -2.4150    -2.1130    -1.2860 H     1 <1>   0.0800 
 34 H       -1.3570    -1.2550    -2.3790 H     1 <1>   0.0800 
 35 H       -5.4530     0.2000     0.4940 H     1 <1>   0.1500 
 36 H       -3.8750    -0.5060    -1.3820 H     1 <1>   0.4000 
 37 H       -1.0750     1.5620    -3.2930 H     1 <1>   0.1500 
 38 H       -0.8150     3.0190     2.2800 H     1 <1>   0.1000 
 39 H       -5.6800    -3.8620    -0.0650 H     1 <1>   0.1500 
 40 H       -3.1010    -3.7760     2.3110 H     1 <1>   0.0800 
 41 H       -2.2200    -3.5670     0.8050 H     1 <1>   0.0800 
 42 H       -3.5370    -4.7210     0.9000 H     1 <1>   0.0800 
 43 H        3.3530     3.1570    -1.7570 H     1 <1>   0.1500 
 44 H        0.9040     1.3250    -4.7520 H     1 <1>   0.1500 
 45 H       -2.3860     4.9730     2.2930 H     1 <1>   0.1000 
 46 H       -1.7390     5.5410     0.7210 H     1 <1>   0.1000 
 47 H        0.5940     5.6840     1.6950 H     1 <1>   0.1000 
 48 H       -0.0400     5.1620     3.2860 H     1 <1>   0.1000 
 49 H        3.1020     2.1100    -4.0040 H     1 <1>   0.1500 
@<TRIPOS>BOND
  1   1   2  2   
  2   2   3  am  
  3   2   4  1   
  4   3   5  1   
  5   3   6  1   
  6   4   7  1   
  7   4  27  1   
  8   4  28  1   
  9   5   8  1   
 10   5  29  1   
 11   5  30  1   
 12   6   9  1   
 13   6  31  1   
 14   6  32  1   
 15   7  10  1   
 16   7  11  1   
 17   8  12  1   
 18   8  13  2   
 19   9  14  1   
 20   9  33  1   
 21   9  34  1   
 22  10  15  ar  
 23  10  16  ar  
 24  11  17  2   
 25  11  18  1   
 26  12  19  1   
 27  12  20  1   
 28  13  21  1   
 29  13  35  1   
 30  14  36  1   
 31  15  17  1   
 32  15  22  ar  
 33  16  23  ar  
 34  16  37  1   
 35  18  24  1   
 36  18  25  1   
 37  18  38  1   
 38  19  21  2   
 39  19  39  1   
 40  20  40  1   
 41  20  41  1   
 42  20  42  1   
 43  22  26  ar  
 44  22  43  1   
 45  23  26  ar  
 46  23  44  1   
 47  24  25  1   
 48  24  45  1   
 49  24  46  1   
 50  25  47  1   
 51  25  48  1   
 52  26  49  1   
@<TRIPOS>SUBSTRUCTURE
  1 ****   2 GROUP 4 **** **** 0

# MOE 2024.06 (io_trps.svl 2023.06)
