@<TRIPOS>MOLECULE
NONAME
51 54 1 0 0 
SMALL
USER_CHARGES


@<TRIPOS>ATOM
  1 O       -0.5210     0.1800     1.5970 O.2   1 <1>  -0.5700 
  2 C       -1.4560     0.8880     1.2710 C.2   1 <1>   0.7160 
  3 N       -2.6620     0.3020     0.9660 N.am  1 <1>  -0.6600 
  4 C       -1.2940     2.3200     1.1830 C.2   1 <1>  -0.0860 
  5 C       -3.6790     0.9160     0.0710 C.3   1 <1>   0.1400 
  6 C       -2.9060    -1.1560     1.0670 C.3   1 <1>   0.1400 
  7 C       -0.3350     3.1010     0.6090 C.2   1 <1>  -0.3320 
  8 C       -2.1820     3.2470     1.7250 C.2   1 <1>   0.1390 
  9 C       -4.6080    -0.2270    -0.3600 C.3   1 <1>   0.2000 
 10 C       -3.7630    -1.4880    -0.1560 C.3   1 <1>  -0.0800 
 11 N       -0.6600     4.4130     0.8090 N.pl3 1 <1>   0.5930 
 12 C        0.9000     2.6110    -0.1380 C.3   1 <1>  -0.0600 
 13 N       -1.8390     4.4700     1.5000 N.2   1 <1>  -0.7070 
 14 O       -5.7120    -0.2830     0.4970 O.3   1 <1>  -0.5600 
 15 C       -4.5720    -2.7890    -0.0040 C.3   1 <1>   0.0200 
 16 C        0.0200     5.6060     0.3620 C.ar  1 <1>   0.2870 
 17 C       -6.7860     0.5290     0.1390 C.3   1 <1>   0.0400 
 18 C       -3.7010    -4.0340     0.0270 C.2   1 <1>  -0.0400 
 19 N        1.3520     5.5900     0.2080 N.ar  1 <1>  -0.6200 
 20 C       -0.7340     6.7530     0.1040 C.ar  1 <1>  -0.1500 
 21 O       -4.2670    -5.1900     0.2500 O.3   1 <1>  -0.0190 
 22 C       -2.3850    -4.2500    -0.1380 C.2   1 <1>  -0.1500 
 23 C        1.9190     6.7130    -0.2000 C.ar  1 <1>   0.1600 
 24 C       -0.1300     7.9150    -0.3230 C.ar  1 <1>  -0.1500 
 25 N       -3.4040    -6.1650     0.2470 N.2   1 <1>  -0.4100 
 26 C       -2.2610    -5.6270     0.0170 C.2   1 <1>   0.1080 
 27 C        1.2380     7.8840    -0.4760 C.ar  1 <1>  -0.1500 
 28 C       -0.9610    -6.3950    -0.0720 C.3   1 <1>  -0.0590 
 29 H       -4.2240     1.6900     0.5810 H     1 <1>   0.0800 
 30 H       -3.1830     1.3290    -0.7900 H     1 <1>   0.0800 
 31 H       -1.9860    -1.7150     1.0750 H     1 <1>   0.0800 
 32 H       -3.4510    -1.3530     1.9740 H     1 <1>   0.0800 
 33 H       -3.0660     2.9700     2.2760 H     1 <1>   0.1500 
 34 H       -4.9490    -0.1300    -1.3770 H     1 <1>   0.0800 
 35 H       -3.1070    -1.5840    -1.0030 H     1 <1>   0.0800 
 36 H        0.8820     1.5420    -0.2540 H     1 <1>   0.0800 
 37 H        1.7890     2.8740     0.4090 H     1 <1>   0.0800 
 38 H        0.9510     3.0590    -1.1140 H     1 <1>   0.0800 
 39 H       -5.2600    -2.8780    -0.8250 H     1 <1>   0.0800 
 40 H       -5.1520    -2.7550     0.9030 H     1 <1>   0.0800 
 41 H       -7.5560     0.4100     0.8810 H     1 <1>   0.0800 
 42 H       -7.1610     0.2200    -0.8210 H     1 <1>   0.0800 
 43 H       -6.4700     1.5570     0.1100 H     1 <1>   0.0800 
 44 H       -1.8000     6.7300     0.2420 H     1 <1>   0.1500 
 45 H       -1.5840    -3.5650    -0.3420 H     1 <1>   0.1500 
 46 H        2.9890     6.6990    -0.3200 H     1 <1>   0.1500 
 47 H       -0.7000     8.8050    -0.5250 H     1 <1>   0.1500 
 48 H        1.7720     8.7570    -0.8040 H     1 <1>   0.1500 
 49 H       -0.2590    -6.0070     0.6420 H     1 <1>   0.0800 
 50 H       -0.5510    -6.3040    -1.0610 H     1 <1>   0.0800 
 51 H       -1.1340    -7.4350     0.1390 H     1 <1>   0.0800 
@<TRIPOS>BOND
  1   1   2  2   
  2   2   3  am  
  3   2   4  1   
  4   3   5  1   
  5   3   6  1   
  6   4   7  2   
  7   4   8  1   
  8   5   9  1   
  9   5  29  1   
 10   5  30  1   
 11   6  10  1   
 12   6  31  1   
 13   6  32  1   
 14   7  11  1   
 15   7  12  1   
 16   8  13  2   
 17   8  33  1   
 18   9  10  1   
 19   9  14  1   
 20   9  34  1   
 21  10  15  1   
 22  10  35  1   
 23  11  13  1   
 24  11  16  1   
 25  12  36  1   
 26  12  37  1   
 27  12  38  1   
 28  14  17  1   
 29  15  18  1   
 30  15  39  1   
 31  15  40  1   
 32  16  19  ar  
 33  16  20  ar  
 34  17  41  1   
 35  17  42  1   
 36  17  43  1   
 37  18  21  1   
 38  18  22  2   
 39  19  23  ar  
 40  20  24  ar  
 41  20  44  1   
 42  21  25  1   
 43  22  26  1   
 44  22  45  1   
 45  23  27  ar  
 46  23  46  1   
 47  24  27  ar  
 48  24  47  1   
 49  25  26  2   
 50  26  28  1   
 51  27  48  1   
 52  28  49  1   
 53  28  50  1   
 54  28  51  1   
@<TRIPOS>SUBSTRUCTURE
  1 ****   2 GROUP 4 **** **** 0

# MOE 2024.06 (io_trps.svl 2023.06)
