@<TRIPOS>MOLECULE
NONAME
45 47 1 0 0 
SMALL
USER_CHARGES


@<TRIPOS>ATOM
  1 O       -1.4920     0.5930    -1.9200 O.2   1 <1>  -0.5700 
  2 C       -1.5360     0.7160    -0.7070 C.2   1 <1>   0.7160 
  3 N       -1.9080    -0.3620     0.0420 N.am  1 <1>  -0.7300 
  4 C       -1.2200     1.9690    -0.0400 C.2   1 <1>   0.2030 
  5 C       -2.3270    -1.6850    -0.4680 C.3   1 <1>   0.2200 
  6 N       -1.2960     2.1830     1.2630 N.2   1 <1>  -0.7070 
  7 C       -0.7900     3.1300    -0.6950 C.2   1 <1>  -0.1500 
  8 C       -3.8380    -1.7980    -0.3700 C.3   1 <1>  -0.0800 
  9 C       -1.8530    -2.7880     0.4780 C.3   1 <1>   0.1200 
 10 N       -0.9190     3.4590     1.4340 N.pl3 1 <1>   0.3000 
 11 C       -0.6080     4.0570     0.2660 C.2   1 <1>  -0.3320 
 12 C       -4.0160    -2.2570     1.0780 C.3   1 <1>   0.1200 
 13 C       -4.3950    -2.8200    -1.3780 C.3   1 <1>  -0.0160 
 14 O       -2.8870    -3.0170     1.3920 O.3   1 <1>  -0.5600 
 15 C       -0.1450     5.4970     0.1400 C.3   1 <1>   0.0200 
 16 C       -5.9110    -2.9130    -1.2910 C.ar  1 <1>  -0.1430 
 17 C       -1.2700     6.4660     0.5200 C.3   1 <1>  -0.1600 
 18 C       -6.5470    -3.9790    -0.6880 C.ar  1 <1>  -0.1500 
 19 C       -6.7280    -1.9300    -1.8120 C.ar  1 <1>  -0.1500 
 20 C       -0.8300     7.9260     0.3690 C.3   1 <1>  -0.2400 
 21 C       -7.9310    -4.0070    -0.6320 C.ar  1 <1>   0.1600 
 22 C       -8.1030    -2.0540    -1.7030 C.ar  1 <1>   0.1600 
 23 N       -8.7240    -3.0690    -1.1240 N.ar  1 <1>  -0.6200 
 24 H       -1.9610    -0.2100     1.0530 H     1 <1>   0.3700 
 25 H       -1.9570    -1.8290    -1.4700 H     1 <1>   0.0800 
 26 H       -0.6470     3.2170    -1.7580 H     1 <1>   0.1500 
 27 H       -4.3140    -0.8480    -0.5360 H     1 <1>   0.0800 
 28 H       -0.9570    -2.5180     1.0090 H     1 <1>   0.0800 
 29 H       -1.6920    -3.7040    -0.0610 H     1 <1>   0.0800 
 30 H       -0.8810     3.9050     2.3590 H     1 <1>   0.2700 
 31 H       -4.8990    -2.8510     1.2350 H     1 <1>   0.0800 
 32 H       -4.0320    -1.4110     1.7430 H     1 <1>   0.0800 
 33 H       -3.9630    -3.7910    -1.2030 H     1 <1>   0.0800 
 34 H       -4.1260    -2.5200    -2.3760 H     1 <1>   0.0800 
 35 H        0.7120     5.6580     0.7710 H     1 <1>   0.0800 
 36 H        0.1560     5.6810    -0.8780 H     1 <1>   0.0800 
 37 H       -2.1200     6.2840    -0.1160 H     1 <1>   0.0800 
 38 H       -1.5730     6.2920     1.5370 H     1 <1>   0.0800 
 39 H       -5.9820    -4.7860    -0.2590 H     1 <1>   0.1500 
 40 H       -6.3080    -1.0700    -2.3000 H     1 <1>   0.1500 
 41 H       -0.5500     8.1320    -0.6490 H     1 <1>   0.0800 
 42 H        0.0080     8.1370     1.0100 H     1 <1>   0.0800 
 43 H       -1.6390     8.5830     0.6380 H     1 <1>   0.0800 
 44 H       -8.4110    -4.8460    -0.1580 H     1 <1>   0.1500 
 45 H       -8.7240    -1.2770    -2.1140 H     1 <1>   0.1500 
@<TRIPOS>BOND
  1   1   2  2   
  2   2   3  am  
  3   2   4  1   
  4   3   5  1   
  5   3  24  1   
  6   4   6  2   
  7   4   7  1   
  8   5   8  1   
  9   5   9  1   
 10   5  25  1   
 11   6  10  1   
 12   7  11  2   
 13   7  26  1   
 14   8  12  1   
 15   8  13  1   
 16   8  27  1   
 17   9  14  1   
 18   9  28  1   
 19   9  29  1   
 20  10  11  1   
 21  10  30  1   
 22  11  15  1   
 23  12  14  1   
 24  12  31  1   
 25  12  32  1   
 26  13  16  1   
 27  13  33  1   
 28  13  34  1   
 29  15  17  1   
 30  15  35  1   
 31  15  36  1   
 32  16  18  ar  
 33  16  19  ar  
 34  17  20  1   
 35  17  37  1   
 36  17  38  1   
 37  18  21  ar  
 38  18  39  1   
 39  19  22  ar  
 40  19  40  1   
 41  20  41  1   
 42  20  42  1   
 43  20  43  1   
 44  21  23  ar  
 45  21  44  1   
 46  22  23  ar  
 47  22  45  1   
@<TRIPOS>SUBSTRUCTURE
  1 ****   3 GROUP 4 **** **** 0

# MOE 2024.06 (io_trps.svl 2023.06)
