@<TRIPOS>MOLECULE
NONAME
57 59 1 0 0 
SMALL
USER_CHARGES


@<TRIPOS>ATOM
  1 O       -1.4070     2.7650     2.3110 O.2   1 <1>  -0.5700 
  2 C       -1.0620     3.1400     1.2230 C.2   1 <1>   0.5690 
  3 N        0.2410     3.1410     0.8920 N.am  1 <1>  -0.8000 
  4 C       -2.1130     3.6170     0.2230 C.3   1 <1>  -0.0190 
  5 C       -2.9260     4.7910     0.8020 C.3   1 <1>  -0.1600 
  6 C       -3.0570     2.4630    -0.1680 C.3   1 <1>  -0.1600 
  7 C       -4.0610     5.2210    -0.1250 C.3   1 <1>   0.3430 
  8 C       -4.1900     2.9270    -1.0810 C.3   1 <1>   0.3430 
  9 N       -4.9220     4.0510    -0.4330 N.4   1 <1>  -0.9590 
 10 C       -6.1600     4.4330    -1.2170 C.3   1 <1>   0.4040 
 11 C       -7.3000     3.4040    -1.1280 C.2   1 <1>   0.5690 
 12 O       -7.1360     2.4730    -0.3680 O.2   1 <1>  -0.5700 
 13 N       -8.4590     3.5680    -1.8410 N.am  1 <1>  -0.6600 
 14 C       -8.6980     4.6650    -2.8330 C.3   1 <1>   0.1400 
 15 C       -9.7160     3.0360    -1.2660 C.3   1 <1>   0.1400 
 16 C       -9.8760     5.5590    -2.4080 C.3   1 <1>  -0.1600 
 17 C      -10.3490     4.1320    -0.3900 C.3   1 <1>  -0.1600 
 18 C      -10.0930     5.5810    -0.8850 C.3   1 <1>   0.2800 
 19 O       -8.8720     6.0330    -0.3230 O.3   1 <1>  -0.5600 
 20 C      -11.2670     6.5230    -0.5310 C.3   1 <1>  -0.1600 
 21 C       -8.8800     7.0390     0.6540 C.3   1 <1>   0.1200 
 22 C      -11.3680     6.8500     0.9700 C.3   1 <1>   0.2800 
 23 C      -10.0010     6.7900     1.6610 C.3   1 <1>  -0.1600 
 24 O      -11.8180     8.1460     1.0620 O.3   1 <1>  -0.6800 
 25 C      -12.4050     6.0040     1.7090 C.3   1 <1>  -0.2400 
 26 H        0.9210     2.8150     1.5830 H     1 <1>   0.3700 
 27 H        0.6280     3.4370    -0.0030 H     1 <1>   0.3700 
 28 H       -1.6060     3.9580    -0.6620 H     1 <1>   0.0800 
 29 H       -2.2720     5.6290     0.9720 H     1 <1>   0.0800 
 30 H       -3.3410     4.5140     1.7560 H     1 <1>   0.0800 
 31 H       -3.4820     2.0210     0.7170 H     1 <1>   0.0800 
 32 H       -2.4940     1.6940    -0.6680 H     1 <1>   0.0800 
 33 H       -3.6500     5.6230    -1.0380 H     1 <1>   0.0800 
 34 H       -4.6420     5.9920     0.3560 H     1 <1>   0.0800 
 35 H       -4.8630     2.1010    -1.2570 H     1 <1>   0.0800 
 36 H       -3.7870     3.2470    -2.0280 H     1 <1>   0.0800 
 37 H       -5.2880     3.6600     0.4520 H     1 <1>   0.4500 
 38 H       -5.9050     4.5780    -2.2520 H     1 <1>   0.0800 
 39 H       -6.5520     5.3610    -0.8360 H     1 <1>   0.0800 
 40 H       -8.9080     4.2300    -3.7970 H     1 <1>   0.0800 
 41 H       -7.8240     5.2800    -2.9390 H     1 <1>   0.0800 
 42 H       -9.5350     2.1480    -0.6830 H     1 <1>   0.0800 
 43 H      -10.3830     2.7700    -2.0700 H     1 <1>   0.0800 
 44 H      -10.7710     5.1940    -2.8790 H     1 <1>   0.0800 
 45 H       -9.7170     6.5560    -2.7760 H     1 <1>   0.0800 
 46 H       -9.9900     4.0230     0.6160 H     1 <1>   0.0800 
 47 H      -11.4040     3.9350    -0.3700 H     1 <1>   0.0800 
 48 H      -12.1910     6.0940    -0.8740 H     1 <1>   0.0800 
 49 H      -11.1300     7.4330    -1.0870 H     1 <1>   0.0800 
 50 H       -9.0060     7.9890     0.1620 H     1 <1>   0.0800 
 51 H       -7.9240     7.0280     1.1460 H     1 <1>   0.0800 
 52 H       -9.9560     7.5060     2.4630 H     1 <1>   0.0800 
 53 H       -9.8440     5.8210     2.0980 H     1 <1>   0.0800 
 54 H      -11.1980     8.7500     0.6170 H     1 <1>   0.4000 
 55 H      -12.1290     4.9660     1.7000 H     1 <1>   0.0800 
 56 H      -13.3690     6.1050     1.2450 H     1 <1>   0.0800 
 57 H      -12.4770     6.3220     2.7330 H     1 <1>   0.0800 
@<TRIPOS>BOND
  1   1   2  2   
  2   2   3  am  
  3   2   4  1   
  4   3  26  1   
  5   3  27  1   
  6   4   5  1   
  7   4   6  1   
  8   4  28  1   
  9   5   7  1   
 10   5  29  1   
 11   5  30  1   
 12   6   8  1   
 13   6  31  1   
 14   6  32  1   
 15   7   9  1   
 16   7  33  1   
 17   7  34  1   
 18   8   9  1   
 19   8  35  1   
 20   8  36  1   
 21   9  10  1   
 22   9  37  1   
 23  10  11  1   
 24  10  38  1   
 25  10  39  1   
 26  11  12  2   
 27  11  13  am  
 28  13  14  1   
 29  13  15  1   
 30  14  16  1   
 31  14  40  1   
 32  14  41  1   
 33  15  17  1   
 34  15  42  1   
 35  15  43  1   
 36  16  18  1   
 37  16  44  1   
 38  16  45  1   
 39  17  18  1   
 40  17  46  1   
 41  17  47  1   
 42  18  19  1   
 43  18  20  1   
 44  19  21  1   
 45  20  22  1   
 46  20  48  1   
 47  20  49  1   
 48  21  23  1   
 49  21  50  1   
 50  21  51  1   
 51  22  23  1   
 52  22  24  1   
 53  22  25  1   
 54  23  52  1   
 55  23  53  1   
 56  24  54  1   
 57  25  55  1   
 58  25  56  1   
 59  25  57  1   
@<TRIPOS>SUBSTRUCTURE
  1 ****  10 GROUP 4 **** **** 0

# MOE 2024.06 (io_trps.svl 2023.06)
