@<TRIPOS>MOLECULE
NONAME
47 48 1 0 0 
SMALL
USER_CHARGES


@<TRIPOS>ATOM
  1 S       -0.2450     0.1640    -0.6140 S.o2  1 <1>   1.3330 
  2 O       -0.7240     1.3800    -1.2300 O.2   1 <1>  -0.6500 
  3 O       -0.6870    -0.1810     0.7190 O.2   1 <1>  -0.6500 
  4 N       -0.6480    -1.1330    -1.6330 N.am  1 <1>  -0.8490 
  5 C        1.5460     0.1690    -0.6950 C.3   1 <1>  -0.0550 
  6 C       -1.9570    -0.9550    -2.2670 C.3   1 <1>   0.1160 
  7 C       -0.5910    -2.4370    -0.9630 C.3   1 <1>   0.1160 
  8 C        2.2060     1.3180     0.0920 C.3   1 <1>  -0.0800 
  9 C        3.6990     1.3770    -0.1890 C.3   1 <1>   0.2200 
 10 C        2.1980     1.0630     1.5990 C.3   1 <1>   0.1200 
 11 N        4.1820     2.7480     0.0820 N.am  1 <1>  -0.7300 
 12 C        4.2720     0.4060     0.8440 C.3   1 <1>   0.1200 
 13 O        3.3090     0.2580     1.8480 O.3   1 <1>  -0.5600 
 14 C        4.3160     3.7300    -0.8560 C.2   1 <1>   0.6160 
 15 O        4.1830     3.4040    -2.0220 O.2   1 <1>  -0.5700 
 16 C        4.5960     5.0980    -0.4850 C.2   1 <1>   0.0290 
 17 C        4.0150     5.5890     0.7350 C.2   1 <1>   0.6160 
 18 C        5.3730     5.9700    -1.2290 C.2   1 <1>  -0.1380 
 19 O        3.3550     4.9180     1.5190 O.2   1 <1>  -0.5700 
 20 N        4.2100     6.8950     1.0870 N.am  1 <1>  -0.5390 
 21 C        5.5360     7.3100    -0.8060 C.2   1 <1>  -0.1500 
 22 C        6.0910     5.5740    -2.5160 C.3   1 <1>  -0.1020 
 23 C        4.9550     7.7580     0.3400 C.2   1 <1>  -0.0290 
 24 C        5.0890     9.1800     0.8460 C.3   1 <1>  -0.1020 
 25 H        1.9230    -0.7700    -0.3390 H     1 <1>   0.0800 
 26 H        1.8250     0.2630    -1.7270 H     1 <1>   0.0800 
 27 H       -2.1760    -1.7870    -2.9130 H     1 <1>   0.0800 
 28 H       -1.9590    -0.0580    -2.8630 H     1 <1>   0.0800 
 29 H       -2.7270    -0.8740    -1.5170 H     1 <1>   0.0800 
 30 H       -0.7620    -3.2260    -1.6750 H     1 <1>   0.0800 
 31 H       -1.3380    -2.4960    -0.1880 H     1 <1>   0.0800 
 32 H        0.3780    -2.5850    -0.5190 H     1 <1>   0.0800 
 33 H        1.7180     2.2460    -0.1580 H     1 <1>   0.0800 
 34 H        3.9560     1.0870    -1.1940 H     1 <1>   0.0800 
 35 H        1.3140     0.5670     1.9570 H     1 <1>   0.0800 
 36 H        2.3320     1.9850     2.1410 H     1 <1>   0.0800 
 37 H        4.0260     3.0670     1.0470 H     1 <1>   0.3700 
 38 H        5.1890     0.7650     1.2780 H     1 <1>   0.0800 
 39 H        4.4320    -0.5640     0.4070 H     1 <1>   0.0800 
 40 H        3.7580     7.1770     1.9580 H     1 <1>   0.3700 
 41 H        6.1290     7.9730    -1.4100 H     1 <1>   0.1500 
 42 H        6.9420     6.2060    -2.6930 H     1 <1>   0.0800 
 43 H        5.4170     5.6600    -3.3500 H     1 <1>   0.0800 
 44 H        6.4440     4.5600    -2.4630 H     1 <1>   0.0800 
 45 H        5.5480     9.1830     1.8180 H     1 <1>   0.0800 
 46 H        4.1180     9.6380     0.9160 H     1 <1>   0.0800 
 47 H        5.6960     9.7650     0.1790 H     1 <1>   0.0800 
@<TRIPOS>BOND
  1   1   2  2   
  2   1   3  2   
  3   1   4  am  
  4   1   5  1   
  5   4   6  1   
  6   4   7  1   
  7   5   8  1   
  8   5  25  1   
  9   5  26  1   
 10   6  27  1   
 11   6  28  1   
 12   6  29  1   
 13   7  30  1   
 14   7  31  1   
 15   7  32  1   
 16   8   9  1   
 17   8  10  1   
 18   8  33  1   
 19   9  11  1   
 20   9  12  1   
 21   9  34  1   
 22  10  13  1   
 23  10  35  1   
 24  10  36  1   
 25  11  14  am  
 26  11  37  1   
 27  12  13  1   
 28  12  38  1   
 29  12  39  1   
 30  14  15  2   
 31  14  16  1   
 32  16  17  1   
 33  16  18  2   
 34  17  19  2   
 35  17  20  am  
 36  18  21  1   
 37  18  22  1   
 38  20  23  1   
 39  20  40  1   
 40  21  23  2   
 41  21  41  1   
 42  22  42  1   
 43  22  43  1   
 44  22  44  1   
 45  23  24  1   
 46  24  45  1   
 47  24  46  1   
 48  24  47  1   
@<TRIPOS>SUBSTRUCTURE
  1 ****  11 GROUP 4 **** **** 0

# MOE 2024.06 (io_trps.svl 2023.06)
