@<TRIPOS>MOLECULE
NONAME
43 45 1 0 0 
SMALL
USER_CHARGES


@<TRIPOS>ATOM
  1 CL       0.1740    -0.0130    -2.0750 Cl    1 <1>  -0.1770 
  2 C        1.0490    -0.5600    -0.6520 C.ar  1 <1>   0.1770 
  3 C        0.8860    -1.8300    -0.0960 C.ar  1 <1>   0.4100 
  4 C        1.9470     0.2940    -0.0710 C.ar  1 <1>   0.1600 
  5 N        1.6120    -2.1760     0.9570 N.ar  1 <1>  -0.6200 
  6 N        0.0020    -2.7870    -0.5810 N.pl3 1 <1>  -0.8380 
  7 N        2.6600    -0.0470     0.9880 N.ar  1 <1>  -0.6200 
  8 C        2.4470    -1.2730     1.4340 C.ar  1 <1>   0.4770 
  9 C        0.0710    -4.2140    -0.1510 C.3   1 <1>   0.2090 
 10 C       -1.3850    -2.4600    -0.9850 C.3   1 <1>   0.2090 
 11 C        3.2540    -1.6870     2.6410 C.3   1 <1>  -0.0960 
 12 C       -1.2630    -4.8270    -0.5640 C.3   1 <1>   0.0640 
 13 C       -2.2220    -3.6360    -0.4970 C.3   1 <1>  -0.1600 
 14 C       -1.6170    -6.0860     0.2440 C.ar  1 <1>  -0.1440 
 15 C       -0.9240    -7.2710    -0.0110 C.ar  1 <1>   0.0820 
 16 C       -2.6020    -6.0910     1.2270 C.ar  1 <1>  -0.1500 
 17 O        0.0700    -7.2540    -0.9400 O.3   1 <1>  -0.3630 
 18 C       -1.2510    -8.4430     0.6830 C.ar  1 <1>   0.0820 
 19 C       -2.8970    -7.2410     1.9370 C.ar  1 <1>  -0.1500 
 20 C        1.3750    -7.5470    -0.4850 C.3   1 <1>   0.0400 
 21 O       -0.6600    -9.6370     0.4310 O.3   1 <1>  -0.3630 
 22 C       -2.2230    -8.4160     1.6660 C.ar  1 <1>  -0.1500 
 23 C       -0.9740   -10.2300    -0.8100 C.3   1 <1>   0.0400 
 24 H        2.0890     1.2780    -0.4810 H     1 <1>   0.1500 
 25 H        0.1810    -4.2730     0.9180 H     1 <1>   0.0800 
 26 H        0.8980    -4.7100    -0.6270 H     1 <1>   0.0800 
 27 H       -1.4300    -2.3900    -2.0590 H     1 <1>   0.0800 
 28 H       -1.7160    -1.5350    -0.5450 H     1 <1>   0.0800 
 29 H        3.3720    -2.7550     2.6600 H     1 <1>   0.0800 
 30 H        2.7450    -1.3730     3.5320 H     1 <1>   0.0800 
 31 H        4.2260    -1.2310     2.6090 H     1 <1>   0.0800 
 32 H       -1.1760    -5.1100    -1.5990 H     1 <1>   0.0800 
 33 H       -3.1010    -3.7830    -1.0970 H     1 <1>   0.0800 
 34 H       -2.5060    -3.4200     0.5150 H     1 <1>   0.0800 
 35 H       -3.1600    -5.2060     1.4660 H     1 <1>   0.1500 
 36 H       -3.6560    -7.2240     2.7000 H     1 <1>   0.1500 
 37 H        2.0700    -7.2610    -1.2530 H     1 <1>   0.0800 
 38 H        1.4590    -8.6010    -0.2930 H     1 <1>   0.0800 
 39 H        1.5670    -6.9870     0.4140 H     1 <1>   0.0800 
 40 H       -2.4510    -9.3160     2.2080 H     1 <1>   0.1500 
 41 H       -0.4950   -11.1910    -0.8540 H     1 <1>   0.0800 
 42 H       -0.6130    -9.6030    -1.6050 H     1 <1>   0.0800 
 43 H       -2.0410   -10.3440    -0.8790 H     1 <1>   0.0800 
@<TRIPOS>BOND
  1   1   2  1   
  2   2   3  ar  
  3   2   4  ar  
  4   3   5  ar  
  5   3   6  1   
  6   4   7  ar  
  7   4  24  1   
  8   5   8  ar  
  9   6   9  1   
 10   6  10  1   
 11   7   8  ar  
 12   8  11  1   
 13   9  12  1   
 14   9  25  1   
 15   9  26  1   
 16  10  13  1   
 17  10  27  1   
 18  10  28  1   
 19  11  29  1   
 20  11  30  1   
 21  11  31  1   
 22  12  13  1   
 23  12  14  1   
 24  12  32  1   
 25  13  33  1   
 26  13  34  1   
 27  14  15  ar  
 28  14  16  ar  
 29  15  17  1   
 30  15  18  ar  
 31  16  19  ar  
 32  16  35  1   
 33  17  20  1   
 34  18  21  1   
 35  18  22  ar  
 36  19  22  ar  
 37  19  36  1   
 38  20  37  1   
 39  20  38  1   
 40  20  39  1   
 41  21  23  1   
 42  22  40  1   
 43  23  41  1   
 44  23  42  1   
 45  23  43  1   
@<TRIPOS>SUBSTRUCTURE
  1 ****   9 GROUP 4 **** **** 0

# MOE 2024.06 (io_trps.svl 2023.06)
