@<TRIPOS>MOLECULE
NONAME
56 59 1 0 0 
SMALL
USER_CHARGES


@<TRIPOS>ATOM
  1 O       -1.3540     0.5540    -3.0680 O.2   1 <1>  -0.5700 
  2 C       -1.3090     1.3220    -2.1400 C.2   1 <1>   0.5690 
  3 N       -2.0770     1.2910    -1.0110 N.am  1 <1>  -0.4770 
  4 C       -0.3340     2.4630    -2.1280 C.3   1 <1>  -0.0990 
  5 C       -3.0610     0.3520    -0.6370 C.ar  1 <1>   0.1170 
  6 C       -1.6990     2.3900    -0.1020 C.3   1 <1>   0.1400 
  7 C       -0.4030     2.9690    -0.6900 C.3   1 <1>   0.2890 
  8 C       -4.1640     0.7390     0.1180 C.ar  1 <1>  -0.1500 
  9 C       -2.9540    -0.9880    -0.9980 C.ar  1 <1>  -0.1500 
 10 N       -0.4110     4.4540    -0.6670 N.pl3 1 <1>  -0.8690 
 11 C       -5.1260    -0.1750     0.5120 C.ar  1 <1>   0.0830 
 12 C       -3.9100    -1.9100    -0.6140 C.ar  1 <1>  -0.1500 
 13 C        0.4200     5.3380    -0.0940 C.ar  1 <1>   0.4100 
 14 O       -6.1570     0.3080     1.2500 O.3   1 <1>  -0.3630 
 15 C       -4.9970    -1.5100     0.1430 C.ar  1 <1>  -0.1500 
 16 N        0.0910     6.5910    -0.2950 N.ar  1 <1>  -0.6200 
 17 C        1.5530     4.9730     0.6580 C.ar  1 <1>  -0.1500 
 18 C       -7.2110    -0.5310     1.6700 C.3   1 <1>   0.0400 
 19 C        0.8660     7.5310     0.2300 C.ar  1 <1>   0.7710 
 20 C        2.3290     5.9490     1.1900 C.ar  1 <1>   0.2180 
 21 N        1.9550     7.2290     0.9570 N.ar  1 <1>  -0.1790 
 22 N        0.5530     8.8340     0.0310 N.pl3 1 <1>  -0.8380 
 23 C        3.5790     5.6790     2.0190 C.3   1 <1>  -0.0170 
 24 C       -0.6580     9.2360    -0.7400 C.3   1 <1>   0.2090 
 25 C        1.3000    10.0460     0.4670 C.3   1 <1>   0.2090 
 26 C        4.8500     6.1890     1.3260 C.3   1 <1>  -0.2400 
 27 C       -0.7610    10.7450    -0.5660 C.3   1 <1>  -0.1600 
 28 C        0.6690    11.1980    -0.3030 C.3   1 <1>  -0.1600 
 29 H       -0.6600     3.2020    -2.8360 H     1 <1>   0.0800 
 30 H        0.6500     2.1140    -2.3780 H     1 <1>   0.0800 
 31 H       -1.5370     2.0120     0.8920 H     1 <1>   0.0800 
 32 H       -2.4800     3.1300    -0.0960 H     1 <1>   0.0800 
 33 H        0.4280     2.5750    -0.1350 H     1 <1>   0.0800 
 34 H       -4.2960     1.7630     0.4060 H     1 <1>   0.1500 
 35 H       -2.1150    -1.3150    -1.5850 H     1 <1>   0.1500 
 36 H       -1.1780     4.8750    -1.2050 H     1 <1>   0.4000 
 37 H       -3.8060    -2.9410    -0.9060 H     1 <1>   0.1500 
 38 H       -5.7240    -2.2450     0.4300 H     1 <1>   0.1500 
 39 H        1.7830     3.9350     0.7960 H     1 <1>   0.1500 
 40 H       -7.9140     0.0660     2.2210 H     1 <1>   0.0800 
 41 H       -6.8120    -1.3040     2.3030 H     1 <1>   0.0800 
 42 H       -7.6890    -0.9510     0.8020 H     1 <1>   0.0800 
 43 H        2.4750     8.0190     1.3160 H     1 <1>   0.4570 
 44 H        3.6780     4.6190     2.1830 H     1 <1>   0.0800 
 45 H        3.4820     6.1430     2.9860 H     1 <1>   0.0800 
 46 H       -1.5420     8.7400    -0.3730 H     1 <1>   0.0800 
 47 H       -0.5160     8.9900    -1.7800 H     1 <1>   0.0800 
 48 H        2.3510     9.9750     0.2400 H     1 <1>   0.0800 
 49 H        1.1540    10.1990     1.5240 H     1 <1>   0.0800 
 50 H        4.9620     5.7300     0.3580 H     1 <1>   0.0800 
 51 H        5.7140     5.9330     1.9170 H     1 <1>   0.0800 
 52 H        4.8350     7.2570     1.2050 H     1 <1>   0.0800 
 53 H       -1.3800    10.9580     0.2890 H     1 <1>   0.0800 
 54 H       -1.1900    11.2170    -1.4330 H     1 <1>   0.0800 
 55 H        1.1880    11.3260    -1.2380 H     1 <1>   0.0800 
 56 H        0.7100    12.1220     0.2470 H     1 <1>   0.0800 
@<TRIPOS>BOND
  1   1   2  2   
  2   2   3  am  
  3   2   4  1   
  4   3   5  1   
  5   3   6  1   
  6   4   7  1   
  7   4  29  1   
  8   4  30  1   
  9   5   8  ar  
 10   5   9  ar  
 11   6   7  1   
 12   6  31  1   
 13   6  32  1   
 14   7  10  1   
 15   7  33  1   
 16   8  11  ar  
 17   8  34  1   
 18   9  12  ar  
 19   9  35  1   
 20  10  13  1   
 21  10  36  1   
 22  11  14  1   
 23  11  15  ar  
 24  12  15  ar  
 25  12  37  1   
 26  13  16  ar  
 27  13  17  ar  
 28  14  18  1   
 29  15  38  1   
 30  16  19  ar  
 31  17  20  ar  
 32  17  39  1   
 33  18  40  1   
 34  18  41  1   
 35  18  42  1   
 36  19  21  ar  
 37  19  22  1   
 38  20  21  ar  
 39  20  23  1   
 40  21  43  1   
 41  22  24  1   
 42  22  25  1   
 43  23  26  1   
 44  23  44  1   
 45  23  45  1   
 46  24  27  1   
 47  24  46  1   
 48  24  47  1   
 49  25  28  1   
 50  25  48  1   
 51  25  49  1   
 52  26  50  1   
 53  26  51  1   
 54  26  52  1   
 55  27  28  1   
 56  27  53  1   
 57  27  54  1   
 58  28  55  1   
 59  28  56  1   
@<TRIPOS>SUBSTRUCTURE
  1 ****  10 GROUP 4 **** **** 0

# MOE 2024.06 (io_trps.svl 2023.06)
