@<TRIPOS>MOLECULE
NONAME
51 55 1 0 0 
SMALL
USER_CHARGES


@<TRIPOS>ATOM
  1 O        0.1460     0.8530     0.5700 O.2   1 <1>  -0.5700 
  2 C       -0.5660     1.8450     0.5120 C.2   1 <1>   0.7160 
  3 N       -1.8840     1.6580     0.1160 N.am  1 <1>  -0.6600 
  4 C        0.0170     3.1360     0.8790 C.2   1 <1>   0.1410 
  5 C       -2.9960     2.6200     0.3990 C.3   1 <1>   0.1400 
  6 C       -2.3430     0.3870    -0.5130 C.3   1 <1>   0.1400 
  7 N       -0.4030     4.3700     0.4530 N.2   1 <1>  -0.5650 
  8 C        1.1030     3.3190     1.6860 C.2   1 <1>  -0.3020 
  9 C       -3.7640     2.9760    -0.8880 C.3   1 <1>   0.1430 
 10 C       -3.1150     0.6880    -1.8040 C.3   1 <1>  -0.1600 
 11 C        0.4100     5.2080     1.0010 C.2   1 <1>   0.0360 
 12 N        1.3550     4.6290     1.7700 N.pl3 1 <1>   0.0480 
 13 C       -4.8950     3.9210    -0.5260 C.ar  1 <1>   0.1670 
 14 C       -4.2660     1.6820    -1.5660 C.3   1 <1>  -0.1600 
 15 C       -2.9100     3.8410    -1.8520 C.3   1 <1>  -0.1600 
 16 C        2.4360     5.2880     2.5210 C.3   1 <1>   0.0160 
 17 N       -6.0090     3.5830     0.0800 N.ar  1 <1>  -0.6200 
 18 C       -4.6140     5.2000    -0.8970 C.ar  1 <1>  -0.1440 
 19 C       -3.2610     5.3090    -1.5560 C.3   1 <1>  -0.0170 
 20 C       -6.8750     4.5800     0.3080 C.ar  1 <1>   0.6200 
 21 C       -5.5500     6.1630    -0.6260 C.ar  1 <1>   0.1600 
 22 N       -6.6820     5.8640    -0.0300 N.ar  1 <1>  -0.6200 
 23 C       -8.1250     4.2400     0.9750 C.ar  1 <1>   0.0000 
 24 C       -8.2160     3.1590     1.8580 C.ar  1 <1>  -0.1500 
 25 C       -9.2930     4.9790     0.7660 C.ar  1 <1>  -0.1500 
 26 C       -9.4010     2.8330     2.4920 C.ar  1 <1>  -0.1500 
 27 C      -10.4820     4.6600     1.3970 C.ar  1 <1>  -0.1500 
 28 C      -10.5380     3.5840     2.2630 C.ar  1 <1>  -0.1500 
 29 H       -2.6390     3.5130     0.8740 H     1 <1>   0.0800 
 30 H       -3.6790     2.1530     1.0880 H     1 <1>   0.0800 
 31 H       -2.9780    -0.1350     0.1820 H     1 <1>   0.0800 
 32 H       -1.5050    -0.2510    -0.7420 H     1 <1>   0.0800 
 33 H        1.6870     2.5630     2.1800 H     1 <1>   0.1500 
 34 H       -3.5100    -0.2310    -2.1990 H     1 <1>   0.0800 
 35 H       -2.4290     1.0850    -2.5320 H     1 <1>   0.0800 
 36 H        0.3620     6.2750     0.8710 H     1 <1>   0.1500 
 37 H       -4.7550     1.9150    -2.4950 H     1 <1>   0.0800 
 38 H       -4.9970     1.2170    -0.9270 H     1 <1>   0.0800 
 39 H       -3.1930     3.6310    -2.8680 H     1 <1>   0.0800 
 40 H       -1.8550     3.6560    -1.7550 H     1 <1>   0.0800 
 41 H        2.9330     4.5660     3.1420 H     1 <1>   0.0800 
 42 H        2.0210     6.0640     3.1370 H     1 <1>   0.0800 
 43 H        3.1410     5.7120     1.8290 H     1 <1>   0.0800 
 44 H       -3.2950     5.8980    -2.4550 H     1 <1>   0.0800 
 45 H       -2.5530     5.7330    -0.8640 H     1 <1>   0.0800 
 46 H       -5.3700     7.1880    -0.9000 H     1 <1>   0.1500 
 47 H       -7.3410     2.5630     2.0490 H     1 <1>   0.1500 
 48 H       -9.2690     5.8200     0.0940 H     1 <1>   0.1500 
 49 H       -9.4370     1.9940     3.1650 H     1 <1>   0.1500 
 50 H      -11.3630     5.2500     1.2140 H     1 <1>   0.1500 
 51 H      -11.4620     3.3330     2.7560 H     1 <1>   0.1500 
@<TRIPOS>BOND
  1   1   2  2   
  2   2   3  am  
  3   2   4  1   
  4   3   5  1   
  5   3   6  1   
  6   4   7  1   
  7   4   8  2   
  8   5   9  1   
  9   5  29  1   
 10   5  30  1   
 11   6  10  1   
 12   6  31  1   
 13   6  32  1   
 14   7  11  2   
 15   8  12  1   
 16   8  33  1   
 17   9  13  1   
 18   9  14  1   
 19   9  15  1   
 20  10  14  1   
 21  10  34  1   
 22  10  35  1   
 23  11  12  1   
 24  11  36  1   
 25  12  16  1   
 26  13  17  ar  
 27  13  18  ar  
 28  14  37  1   
 29  14  38  1   
 30  15  19  1   
 31  15  39  1   
 32  15  40  1   
 33  16  41  1   
 34  16  42  1   
 35  16  43  1   
 36  17  20  ar  
 37  18  19  1   
 38  18  21  ar  
 39  19  44  1   
 40  19  45  1   
 41  20  22  ar  
 42  20  23  1   
 43  21  22  ar  
 44  21  46  1   
 45  23  24  ar  
 46  23  25  ar  
 47  24  26  ar  
 48  24  47  1   
 49  25  27  ar  
 50  25  48  1   
 51  26  28  ar  
 52  26  49  1   
 53  27  28  ar  
 54  27  50  1   
 55  28  51  1   
@<TRIPOS>SUBSTRUCTURE
  1 ****  13 GROUP 4 **** **** 0

# MOE 2024.06 (io_trps.svl 2023.06)
