@<TRIPOS>MOLECULE
NONAME
55 58 1 0 0 
SMALL
USER_CHARGES


@<TRIPOS>ATOM
  1 O       -4.3720     2.7470    -1.5080 O.2   1 <1>  -0.5700 
  2 C       -3.5990     2.1270    -0.8030 C.2   1 <1>   0.5440 
  3 N       -3.5080     0.7600    -0.9530 N.am  1 <1>  -0.6600 
  4 C       -2.8000     2.8440     0.1690 C.ar  1 <1>   0.0860 
  5 C       -2.5880    -0.0710    -0.0930 C.3   1 <1>   0.3640 
  6 C       -4.4610     0.0640    -1.8690 C.3   1 <1>   0.1400 
  7 C       -1.5670     3.3790    -0.1860 C.ar  1 <1>  -0.1500 
  8 C       -3.2210     2.9890     1.4890 C.ar  1 <1>  -0.1500 
  9 C       -1.1320     0.2660    -0.4320 C.ar  1 <1>  -0.1430 
 10 C       -2.7790    -1.6190    -0.1740 C.3   1 <1>   0.2000 
 11 C       -4.1250    -1.4130    -2.0780 C.3   1 <1>   0.1200 
 12 C       -0.7410     3.9960     0.7410 C.ar  1 <1>   0.1170 
 13 C       -2.4220     3.6200     2.4240 C.ar  1 <1>  -0.1500 
 14 C       -0.6820     0.2880    -1.7460 C.ar  1 <1>  -0.1500 
 15 C       -0.2370     0.5670     0.5860 C.ar  1 <1>  -0.1500 
 16 O       -3.9460    -2.0180    -0.8400 O.3   1 <1>  -0.5600 
 17 C       -2.8260    -2.2750     1.2140 C.3   1 <1>   0.1200 
 18 N        0.5090     4.4630     0.3220 N.am  1 <1>  -0.5470 
 19 C       -1.1850     4.1160     2.0520 C.ar  1 <1>  -0.1500 
 20 C        0.6340     0.6030    -2.0360 C.ar  1 <1>  -0.1500 
 21 C        1.0780     0.8880     0.2990 C.ar  1 <1>  -0.1500 
 22 O       -1.6990    -1.9530     1.9650 O.3   1 <1>  -0.6800 
 23 C        1.7010     4.4770     0.9940 C.2   1 <1>   0.5770 
 24 C        1.5160     0.9030    -1.0120 C.ar  1 <1>  -0.1500 
 25 O        1.8230     4.0860     2.1290 O.2   1 <1>  -0.5700 
 26 C        2.9310     4.9700     0.2440 C.3   1 <1>   0.0530 
 27 C        3.9770     5.7370     1.1000 C.3   1 <1>   0.0000 
 28 C        2.7380     6.2930    -0.5490 C.3   1 <1>   0.0000 
 29 C        4.1830     6.6640    -0.1250 C.3   1 <1>   0.0000 
 30 H       -2.7640     0.2200     0.9280 H     1 <1>   0.0800 
 31 H       -5.4520     0.1400    -1.4560 H     1 <1>   0.0800 
 32 H       -4.4680     0.5640    -2.8220 H     1 <1>   0.0800 
 33 H       -1.2410     3.2760    -1.2040 H     1 <1>   0.1500 
 34 H       -4.1820     2.5990     1.7780 H     1 <1>   0.1500 
 35 H       -1.9560    -2.0480    -0.7180 H     1 <1>   0.0800 
 36 H       -3.2330    -1.5330    -2.6680 H     1 <1>   0.0800 
 37 H       -4.9400    -1.9090    -2.5750 H     1 <1>   0.0800 
 38 H       -2.7560     3.7240     3.4420 H     1 <1>   0.1500 
 39 H       -1.3600     0.0670    -2.5520 H     1 <1>   0.1500 
 40 H       -0.5600     0.5640     1.6140 H     1 <1>   0.1500 
 41 H       -2.8730    -3.3460     1.1210 H     1 <1>   0.0800 
 42 H       -3.6880    -1.9250     1.7560 H     1 <1>   0.0800 
 43 H        0.5640     4.7070    -0.6650 H     1 <1>   0.3700 
 44 H       -0.5610     4.5970     2.7840 H     1 <1>   0.1500 
 45 H        0.9720     0.6150    -3.0570 H     1 <1>   0.1500 
 46 H        1.7550     1.1310     1.1010 H     1 <1>   0.1500 
 47 H       -0.8880    -2.3220     1.5600 H     1 <1>   0.4000 
 48 H        2.5400     1.1490    -1.2340 H     1 <1>   0.1500 
 49 H        3.3890     4.2030    -0.3590 H     1 <1>   0.0000 
 50 H        3.5450     6.2560     1.9390 H     1 <1>   0.0000 
 51 H        4.8440     5.1530     1.3550 H     1 <1>   0.0000 
 52 H        2.6180     6.1520    -1.6080 H     1 <1>   0.0000 
 53 H        2.0020     6.9470    -0.1130 H     1 <1>   0.0000 
 54 H        4.9260     6.2920    -0.8090 H     1 <1>   0.0000 
 55 H        4.3090     7.7020     0.1300 H     1 <1>   0.0000 
@<TRIPOS>BOND
  1   1   2  2   
  2   2   3  am  
  3   2   4  1   
  4   3   5  1   
  5   3   6  1   
  6   4   7  ar  
  7   4   8  ar  
  8   5   9  1   
  9   5  10  1   
 10   5  30  1   
 11   6  11  1   
 12   6  31  1   
 13   6  32  1   
 14   7  12  ar  
 15   7  33  1   
 16   8  13  ar  
 17   8  34  1   
 18   9  14  ar  
 19   9  15  ar  
 20  10  16  1   
 21  10  17  1   
 22  10  35  1   
 23  11  16  1   
 24  11  36  1   
 25  11  37  1   
 26  12  18  1   
 27  12  19  ar  
 28  13  19  ar  
 29  13  38  1   
 30  14  20  ar  
 31  14  39  1   
 32  15  21  ar  
 33  15  40  1   
 34  17  22  1   
 35  17  41  1   
 36  17  42  1   
 37  18  23  am  
 38  18  43  1   
 39  19  44  1   
 40  20  24  ar  
 41  20  45  1   
 42  21  24  ar  
 43  21  46  1   
 44  22  47  1   
 45  23  25  2   
 46  23  26  1   
 47  24  48  1   
 48  26  27  1   
 49  26  28  1   
 50  26  49  1   
 51  27  29  1   
 52  27  50  1   
 53  27  51  1   
 54  28  29  1   
 55  28  52  1   
 56  28  53  1   
 57  29  54  1   
 58  29  55  1   
@<TRIPOS>SUBSTRUCTURE
  1 ****   7 GROUP 4 **** **** 0

# MOE 2024.06 (io_trps.svl 2023.06)
