@<TRIPOS>MOLECULE
NONAME
51 53 1 0 0 
SMALL
USER_CHARGES


@<TRIPOS>ATOM
  1 O       -0.1910     0.9020     1.5080 O.2   1 <1>  -0.5700 
  2 C       -0.0260     1.8120     0.7170 C.2   1 <1>   0.6900 
  3 N       -1.0620     2.6650     0.4260 N.am  1 <1>  -0.6600 
  4 N        1.1790     2.0110     0.1050 N.am  1 <1>  -0.5470 
  5 C       -2.4500     2.3230     0.8800 C.3   1 <1>   0.1400 
  6 C       -0.8950     3.9470    -0.3210 C.3   1 <1>   0.1400 
  7 C        2.4090     1.3370     0.1770 C.ar  1 <1>   0.1170 
  8 C       -3.5350     2.8430    -0.0930 C.3   1 <1>   0.0000 
  9 C       -2.0030     4.9380     0.0420 C.3   1 <1>  -0.1600 
 10 C        3.5860     2.0190    -0.1440 C.ar  1 <1>  -0.1430 
 11 C        2.4930    -0.0050     0.5360 C.ar  1 <1>  -0.1500 
 12 C       -4.9230     2.3960     0.4130 C.3   1 <1>   0.2000 
 13 C       -3.4140     4.3860    -0.2320 C.3   1 <1>  -0.1600 
 14 C       -3.4350     2.1090    -1.4470 C.3   1 <1>  -0.1600 
 15 C        4.8020     1.3570    -0.0960 C.ar  1 <1>  -0.1500 
 16 C        3.5660     3.4900    -0.5410 C.3   1 <1>  -0.0970 
 17 C        3.7090    -0.6640     0.5870 C.ar  1 <1>  -0.1430 
 18 O       -5.9160     3.1510    -0.2220 O.3   1 <1>  -0.5600 
 19 C       -5.0650     0.9360    -0.0380 C.3   1 <1>  -0.1600 
 20 C       -4.1460     0.7650    -1.2540 C.3   1 <1>  -0.1600 
 21 C        4.8650     0.0230     0.2670 C.ar  1 <1>  -0.1500 
 22 C        3.7740    -2.1270     0.9860 C.3   1 <1>  -0.0970 
 23 C       -7.1230     3.2380     0.4660 C.3   1 <1>   0.0400 
 24 H        1.1850     2.8270    -0.4900 H     1 <1>   0.3700 
 25 H       -2.5360     1.2550     0.9850 H     1 <1>   0.0800 
 26 H       -2.6030     2.7570     1.8530 H     1 <1>   0.0800 
 27 H        0.0570     4.3880    -0.0780 H     1 <1>   0.0800 
 28 H       -0.9230     3.7460    -1.3780 H     1 <1>   0.0800 
 29 H       -1.9090     5.1730     1.0880 H     1 <1>   0.0800 
 30 H       -1.8640     5.8530    -0.5050 H     1 <1>   0.0800 
 31 H        1.5950    -0.5430     0.7730 H     1 <1>   0.1500 
 32 H       -5.0140     2.5150     1.4800 H     1 <1>   0.0800 
 33 H       -3.7330     4.6830    -1.2160 H     1 <1>   0.0800 
 34 H       -4.0860     4.8620     0.4620 H     1 <1>   0.0800 
 35 H       -3.9740     2.6640    -2.1950 H     1 <1>   0.0800 
 36 H       -2.4240     1.9730    -1.7850 H     1 <1>   0.0800 
 37 H        5.7130     1.8720    -0.3400 H     1 <1>   0.1500 
 38 H        4.5650     3.8680    -0.6660 H     1 <1>   0.0800 
 39 H        3.0830     4.0710     0.2230 H     1 <1>   0.0800 
 40 H        3.0400     3.6140    -1.4710 H     1 <1>   0.0800 
 41 H       -4.7270     0.2880     0.7510 H     1 <1>   0.0800 
 42 H       -6.0830     0.6840    -0.2750 H     1 <1>   0.0800 
 43 H       -3.4240    -0.0110    -1.0610 H     1 <1>   0.0800 
 44 H       -4.7090     0.5070    -2.1340 H     1 <1>   0.0800 
 45 H        5.8180    -0.4760     0.3000 H     1 <1>   0.1500 
 46 H        4.6420    -2.3090     1.5930 H     1 <1>   0.0800 
 47 H        3.8270    -2.7420     0.1060 H     1 <1>   0.0800 
 48 H        2.9010    -2.4040     1.5500 H     1 <1>   0.0800 
 49 H       -7.8070     3.8120    -0.1330 H     1 <1>   0.0800 
 50 H       -6.9590     3.7370     1.4050 H     1 <1>   0.0800 
 51 H       -7.5210     2.2510     0.6250 H     1 <1>   0.0800 
@<TRIPOS>BOND
  1   1   2  2   
  2   2   3  am  
  3   2   4  am  
  4   3   5  1   
  5   3   6  1   
  6   4   7  1   
  7   4  24  1   
  8   5   8  1   
  9   5  25  1   
 10   5  26  1   
 11   6   9  1   
 12   6  27  1   
 13   6  28  1   
 14   7  10  ar  
 15   7  11  ar  
 16   8  12  1   
 17   8  13  1   
 18   8  14  1   
 19   9  13  1   
 20   9  29  1   
 21   9  30  1   
 22  10  15  ar  
 23  10  16  1   
 24  11  17  ar  
 25  11  31  1   
 26  12  18  1   
 27  12  19  1   
 28  12  32  1   
 29  13  33  1   
 30  13  34  1   
 31  14  20  1   
 32  14  35  1   
 33  14  36  1   
 34  15  21  ar  
 35  15  37  1   
 36  16  38  1   
 37  16  39  1   
 38  16  40  1   
 39  17  21  ar  
 40  17  22  1   
 41  18  23  1   
 42  19  20  1   
 43  19  41  1   
 44  19  42  1   
 45  20  43  1   
 46  20  44  1   
 47  21  45  1   
 48  22  46  1   
 49  22  47  1   
 50  22  48  1   
 51  23  49  1   
 52  23  50  1   
 53  23  51  1   
@<TRIPOS>SUBSTRUCTURE
  1 ****   2 GROUP 4 **** **** 0

# MOE 2024.06 (io_trps.svl 2023.06)
