@<TRIPOS>MOLECULE
NONAME
49 51 1 0 0 
SMALL
USER_CHARGES


@<TRIPOS>ATOM
  1 CL       0.5650     1.0720     1.9320 Cl    1 <1>  -0.1770 
  2 C        1.7540     1.4680     0.7110 C.ar  1 <1>   0.1770 
  3 C        2.5180     0.4700     0.1170 C.ar  1 <1>   0.0820 
  4 C        1.9200     2.7940     0.3590 C.ar  1 <1>  -0.1500 
  5 O        2.3780    -0.8290     0.4550 O.3   1 <1>  -0.3630 
  6 C        3.4660     0.8160    -0.8320 C.ar  1 <1>  -0.1500 
  7 C        2.8710     3.1410    -0.5920 C.ar  1 <1>  -0.1430 
  8 C        1.2950    -1.5210    -0.1550 C.3   1 <1>   0.1810 
  9 C        3.6370     2.1440    -1.1840 C.ar  1 <1>  -0.1500 
 10 C        3.0850     4.5950    -0.9820 C.3   1 <1>   0.2540 
 11 C        1.1780    -2.9460     0.3730 C.2   1 <1>   0.5690 
 12 N        4.4280     5.0290    -0.5540 N.3   1 <1>  -0.8100 
 13 O        0.5170    -3.7500    -0.2330 O.2   1 <1>  -0.5700 
 14 N        1.8030    -3.3080     1.5120 N.am  1 <1>  -0.8000 
 15 C        4.5890     5.0840     0.9410 C.3   1 <1>   0.1900 
 16 C        4.8870     6.2130    -1.3100 C.3   1 <1>   0.1100 
 17 C        4.2520     6.4500     1.5720 C.3   1 <1>   0.1200 
 18 C        6.0200     4.6450     1.3380 C.3   1 <1>   0.3430 
 19 C        6.0990     6.9500    -0.7010 C.3   1 <1>  -0.0800 
 20 O        5.3770     7.2790     1.5870 O.3   1 <1>  -0.5600 
 21 N        6.9270     4.6850     0.1470 N.4   1 <1>  -0.9590 
 22 C        5.6660     7.9340     0.3980 C.3   1 <1>   0.1200 
 23 C        7.2960     6.0750    -0.2610 C.3   1 <1>   0.3430 
 24 C        8.1060     3.7890     0.2960 C.3   1 <1>   0.2630 
 25 H        1.3070     3.5400     0.8320 H     1 <1>   0.1500 
 26 H        4.0620     0.0460    -1.2900 H     1 <1>   0.1500 
 27 H        0.3830    -0.9920     0.0510 H     1 <1>   0.0800 
 28 H        1.4630    -1.5450    -1.2160 H     1 <1>   0.0800 
 29 H        4.3720     2.4050    -1.9260 H     1 <1>   0.1500 
 30 H        2.3310     5.2260    -0.5410 H     1 <1>   0.0800 
 31 H        3.0000     4.6740    -2.0540 H     1 <1>   0.0800 
 32 H        1.7270    -4.2630     1.8620 H     1 <1>   0.3700 
 33 H        2.3910    -2.6570     2.0350 H     1 <1>   0.3700 
 34 H        3.9180     4.3730     1.3900 H     1 <1>   0.0800 
 35 H        5.1430     5.8890    -2.3060 H     1 <1>   0.0800 
 36 H        4.0720     6.9130    -1.4080 H     1 <1>   0.0800 
 37 H        3.9740     6.3010     2.6010 H     1 <1>   0.0800 
 38 H        3.4340     6.9380     1.0710 H     1 <1>   0.0800 
 39 H        5.9640     3.6370     1.7110 H     1 <1>   0.0800 
 40 H        6.4000     5.2700     2.1300 H     1 <1>   0.0800 
 41 H        6.4740     7.5830    -1.4840 H     1 <1>   0.0800 
 42 H        6.2860     4.3510    -0.6000 H     1 <1>   0.4500 
 43 H        4.8040     8.5090     0.1000 H     1 <1>   0.0800 
 44 H        6.4660     8.6230     0.6090 H     1 <1>   0.0800 
 45 H        7.8130     6.5650     0.5480 H     1 <1>   0.0800 
 46 H        7.9790     6.0110    -1.0920 H     1 <1>   0.0800 
 47 H        8.7380     4.1350     1.0980 H     1 <1>   0.0800 
 48 H        8.6800     3.7720    -0.6160 H     1 <1>   0.0800 
 49 H        7.7840     2.7840     0.5180 H     1 <1>   0.0800 
@<TRIPOS>BOND
  1   1   2  1   
  2   2   3  ar  
  3   2   4  ar  
  4   3   5  1   
  5   3   6  ar  
  6   4   7  ar  
  7   4  25  1   
  8   5   8  1   
  9   6   9  ar  
 10   6  26  1   
 11   7   9  ar  
 12   7  10  1   
 13   8  11  1   
 14   8  27  1   
 15   8  28  1   
 16   9  29  1   
 17  10  12  1   
 18  10  30  1   
 19  10  31  1   
 20  11  13  2   
 21  11  14  am  
 22  12  15  1   
 23  12  16  1   
 24  14  32  1   
 25  14  33  1   
 26  15  17  1   
 27  15  18  1   
 28  15  34  1   
 29  16  19  1   
 30  16  35  1   
 31  16  36  1   
 32  17  20  1   
 33  17  37  1   
 34  17  38  1   
 35  18  21  1   
 36  18  39  1   
 37  18  40  1   
 38  19  22  1   
 39  19  23  1   
 40  19  41  1   
 41  20  22  1   
 42  21  23  1   
 43  21  24  1   
 44  21  42  1   
 45  22  43  1   
 46  22  44  1   
 47  23  45  1   
 48  23  46  1   
 49  24  47  1   
 50  24  48  1   
 51  24  49  1   
@<TRIPOS>SUBSTRUCTURE
  1 ****   7 GROUP 4 **** **** 0

# MOE 2024.06 (io_trps.svl 2023.06)
