@<TRIPOS>MOLECULE
NONAME
44 46 1 0 0 
SMALL
USER_CHARGES


@<TRIPOS>ATOM
  1 S       -0.7410    -1.2770    -2.5630 S.3   1 <1>  -0.0800 
  2 C        0.2420    -2.7120    -2.3460 C.2   1 <1>   0.4620 
  3 C       -1.9500    -1.9860    -1.5290 C.2   1 <1>  -0.1100 
  4 N       -0.2820    -3.6010    -1.5910 N.2   1 <1>  -0.5650 
  5 N        1.4450    -2.7830    -2.9640 N.pl3 1 <1>  -0.8840 
  6 C       -1.5200    -3.1950    -1.1270 C.2   1 <1>   0.0460 
  7 C       -2.2420    -4.1770    -0.2150 C.3   1 <1>   0.0210 
  8 C       -3.5830    -3.6430     0.3190 C.3   1 <1>  -0.0990 
  9 C       -4.3100    -4.6140     1.2390 C.2   1 <1>   0.5690 
 10 O       -3.7870    -5.6730     1.4950 O.2   1 <1>  -0.5700 
 11 N       -5.5380    -4.2890     1.7540 N.am  1 <1>  -0.6600 
 12 C       -6.2750    -5.2690     2.6050 C.3   1 <1>   0.1400 
 13 C       -6.2910    -3.0360     1.4690 C.3   1 <1>   0.1400 
 14 C       -7.0740    -6.2850     1.7670 C.3   1 <1>   0.1400 
 15 C       -7.3660    -3.2540     0.3970 C.3   1 <1>  -0.1600 
 16 N       -7.7280    -5.7000     0.5480 N.am  1 <1>  -0.6600 
 17 C       -8.3710    -4.3660     0.7230 C.3   1 <1>   0.1400 
 18 C       -7.8270    -6.3750    -0.6550 C.2   1 <1>   0.7160 
 19 O       -8.6380    -5.9900    -1.4770 O.2   1 <1>  -0.5700 
 20 C       -7.0230    -7.5300    -0.9810 C.2   1 <1>  -0.0860 
 21 C       -7.4330    -8.6870    -1.5660 C.2   1 <1>  -0.0100 
 22 C       -5.6330    -7.7140    -0.8080 C.2   1 <1>  -0.1500 
 23 O       -6.4380    -9.5250    -1.7300 O.3   1 <1>  -0.2800 
 24 C       -5.3480    -8.9440    -1.2780 C.2   1 <1>  -0.0100 
 25 H       -2.8400    -1.4160    -1.3430 H     1 <1>   0.1500 
 26 H        2.0380    -3.5980    -2.8060 H     1 <1>   0.4000 
 27 H        1.8270    -2.0130    -3.5120 H     1 <1>   0.4000 
 28 H       -1.5960    -4.4080     0.6140 H     1 <1>   0.0800 
 29 H       -2.4100    -5.0900    -0.7600 H     1 <1>   0.0800 
 30 H       -4.2260    -3.4250    -0.5130 H     1 <1>   0.0800 
 31 H       -3.3980    -2.7370     0.8650 H     1 <1>   0.0800 
 32 H       -6.9450    -4.7460     3.2640 H     1 <1>   0.0800 
 33 H       -5.5780    -5.8040     3.2280 H     1 <1>   0.0800 
 34 H       -5.6210    -2.2590     1.1470 H     1 <1>   0.0800 
 35 H       -6.7550    -2.6920     2.3780 H     1 <1>   0.0800 
 36 H       -7.8340    -6.7230     2.3900 H     1 <1>   0.0800 
 37 H       -6.4050    -7.0780     1.4940 H     1 <1>   0.0800 
 38 H       -6.9030    -3.4560    -0.5520 H     1 <1>   0.0800 
 39 H       -7.9130    -2.3350     0.2910 H     1 <1>   0.0800 
 40 H       -9.2160    -4.2790     0.0600 H     1 <1>   0.0800 
 41 H       -8.7440    -4.2610     1.7260 H     1 <1>   0.0800 
 42 H       -8.4200    -8.9700    -1.8900 H     1 <1>   0.1500 
 43 H       -4.9600    -6.9910    -0.3830 H     1 <1>   0.1500 
 44 H       -4.4130    -9.4750    -1.3330 H     1 <1>   0.1500 
@<TRIPOS>BOND
  1   1   2  1   
  2   1   3  1   
  3   2   4  2   
  4   2   5  1   
  5   3   6  2   
  6   3  25  1   
  7   4   6  1   
  8   5  26  1   
  9   5  27  1   
 10   6   7  1   
 11   7   8  1   
 12   7  28  1   
 13   7  29  1   
 14   8   9  1   
 15   8  30  1   
 16   8  31  1   
 17   9  10  2   
 18   9  11  am  
 19  11  12  1   
 20  11  13  1   
 21  12  14  1   
 22  12  32  1   
 23  12  33  1   
 24  13  15  1   
 25  13  34  1   
 26  13  35  1   
 27  14  16  1   
 28  14  36  1   
 29  14  37  1   
 30  15  17  1   
 31  15  38  1   
 32  15  39  1   
 33  16  17  1   
 34  16  18  am  
 35  17  40  1   
 36  17  41  1   
 37  18  19  2   
 38  18  20  1   
 39  20  21  2   
 40  20  22  1   
 41  21  23  1   
 42  21  42  1   
 43  22  24  2   
 44  22  43  1   
 45  23  24  1   
 46  24  44  1   
@<TRIPOS>SUBSTRUCTURE
  1 ****   9 GROUP 4 **** **** 0

# MOE 2024.06 (io_trps.svl 2023.06)
