@<TRIPOS>MOLECULE
Untitled Document
38 40 1 0 0 
SMALL
USER_CHARGES


@<TRIPOS>ATOM
  1 O       -0.0390    -0.0460     0.2760 O.3   1 <1>  -0.8500 
  2 C       -1.1050    -0.6630     0.1900 C.2   1 <1>  -0.0500 
  3 N       -2.2940     0.0380     0.3810 N.pl3 1 <1>  -0.2210 
  4 C       -1.1440    -2.0490    -0.1290 C.2   1 <1>   0.0290 
  5 O       -2.2510     1.3810     0.7900 O.3   1 <1>  -0.2590 
  6 C       -3.5500    -0.5400     0.2060 C.ar  1 <1>   0.1000 
  7 C       -2.4040    -2.6820    -0.1930 C.2   1 <1>   0.4690 
  8 C        0.0490    -2.7840    -0.3790 C.2   1 <1>   0.6160 
  9 C       -1.8290     2.1900    -0.2870 C.3   1 <1>   0.2150 
 10 C       -3.6200    -1.9060    -0.0960 C.ar  1 <1>   0.0860 
 11 C       -4.7300     0.2010     0.3240 C.ar  1 <1>  -0.1500 
 12 O       -2.5400    -3.9120    -0.3040 O.2   1 <1>  -0.5700 
 13 O        0.1090    -3.6890    -1.2160 O.2   1 <1>  -0.5700 
 14 N        1.2130    -2.4730     0.2810 N.am  1 <1>  -0.7300 
 15 C       -2.3210     3.6220    -0.0440 C.3   1 <1>  -0.1950 
 16 C       -4.8860    -2.4740    -0.2870 C.ar  1 <1>  -0.1500 
 17 C       -5.9640    -0.3830     0.1330 C.ar  1 <1>  -0.1500 
 18 C        2.5750    -3.0360    -0.0690 C.3   1 <1>   0.0340 
 19 C       -3.7120     4.0410    -0.4040 C.3   1 <1>  -0.2000 
 20 C       -2.5410     4.5640    -1.1860 C.3   1 <1>  -0.2000 
 21 C       -6.0430    -1.7300    -0.1770 C.ar  1 <1>  -0.1500 
 22 C        3.6990    -2.9630     0.9770 C.2   1 <1>   0.9060 
 23 O        3.7890    -3.8390     1.8510 O.co2 1 <1>  -0.9000 
 24 O        4.5660    -2.0830     0.8680 O.co2 1 <1>  -0.9000 
 25 H       -2.2330     1.7950    -1.2010 H     1 <1>   0.0800 
 26 H       -0.7540     2.1560    -0.3290 H     1 <1>   0.0800 
 27 H       -4.6710     1.2450     0.5700 H     1 <1>   0.1500 
 28 H        1.1840    -1.4730     0.5730 H     1 <1>   0.3700 
 29 H       -1.8840     4.0390     0.8460 H     1 <1>   0.1000 
 30 H       -4.9540    -3.5220    -0.5250 H     1 <1>   0.1500 
 31 H       -6.8610     0.2030     0.2260 H     1 <1>   0.1500 
 32 H        2.9290    -2.5270    -0.9450 H     1 <1>   0.0800 
 33 H        2.4580    -4.0730    -0.3200 H     1 <1>   0.0800 
 34 H       -4.2350     4.7000     0.2670 H     1 <1>   0.1000 
 35 H       -4.3640     3.3200    -0.8670 H     1 <1>   0.1000 
 36 H       -2.3870     4.2070    -2.1900 H     1 <1>   0.1000 
 37 H       -2.2530     5.5940    -1.0650 H     1 <1>   0.1000 
 38 H       -7.0020    -2.1930    -0.3290 H     1 <1>   0.1500 
@<TRIPOS>BOND
  1   1   2  1   
  2   2   3  1   
  3   2   4  2   
  4   3   5  1   
  5   3   6  1   
  6   4   7  1   
  7   4   8  1   
  8   5   9  1   
  9   6  10  ar  
 10   6  11  ar  
 11   7  10  1   
 12   7  12  2   
 13   8  13  2   
 14   8  14  am  
 15   9  15  1   
 16   9  25  1   
 17   9  26  1   
 18  10  16  ar  
 19  11  17  ar  
 20  11  27  1   
 21  14  18  1   
 22  14  28  1   
 23  15  19  1   
 24  15  20  1   
 25  15  29  1   
 26  16  21  ar  
 27  16  30  1   
 28  17  21  ar  
 29  17  31  1   
 30  18  22  1   
 31  18  32  1   
 32  18  33  1   
 33  19  20  1   
 34  19  34  1   
 35  19  35  1   
 36  20  36  1   
 37  20  37  1   
 38  21  38  1   
 39  22  23  ar  
 40  22  24  ar  
@<TRIPOS>SUBSTRUCTURE
  1 ****   2 GROUP 4 **** **** 0

# MOE 2024.06 (io_trps.svl 2023.06)
