@<TRIPOS>MOLECULE
NONAME
48 51 1 0 0 
SMALL
USER_CHARGES


@<TRIPOS>ATOM
  1 O       -0.6210    -0.1170     0.3710 O.2   1 <1>  -0.5700 
  2 C       -1.6070     0.5650     0.1620 C.2   1 <1>   0.5440 
  3 N       -1.4380     1.9090    -0.1000 N.am  1 <1>  -0.6600 
  4 C       -2.9060    -0.0620     0.1860 C.ar  1 <1>   0.0860 
  5 C       -2.4340     2.7740    -0.8000 C.3   1 <1>   0.1400 
  6 C       -0.1260     2.5890     0.1120 C.3   1 <1>   0.1400 
  7 C       -3.1340    -1.2310    -0.5350 C.ar  1 <1>   0.1600 
  8 C       -3.9740     0.4370     0.9250 C.ar  1 <1>  -0.1500 
  9 C       -2.5180     4.1520    -0.1230 C.3   1 <1>   0.1200 
 10 C       -0.3340     3.9840     0.7270 C.3   1 <1>   0.1200 
 11 N       -4.2780    -1.8900    -0.6050 N.ar  1 <1>  -0.6200 
 12 C       -5.1680    -0.2400     0.8700 C.ar  1 <1>  -0.1500 
 13 O       -1.2480     4.7330    -0.0260 O.3   1 <1>  -0.5600 
 14 C       -5.2930    -1.3910     0.0930 C.ar  1 <1>   0.4100 
 15 N       -6.4930    -2.0640     0.0290 N.pl3 1 <1>  -0.8380 
 16 C       -6.5170    -3.5290    -0.2620 C.3   1 <1>   0.2090 
 17 C       -7.7400    -1.3540    -0.3540 C.3   1 <1>   0.2090 
 18 C       -7.6880    -4.1980     0.4770 C.3   1 <1>   0.1000 
 19 C       -8.9280    -1.9870     0.3800 C.3   1 <1>  -0.1600 
 20 C       -7.7360    -5.6910     0.1720 C.2   1 <1>  -0.3320 
 21 C       -9.0150    -3.5020     0.1230 C.3   1 <1>  -0.1600 
 22 N       -6.7840    -6.5530     0.5940 N.pl3 1 <1>   0.3000 
 23 C       -8.6390    -6.4310    -0.5120 C.2   1 <1>  -0.1500 
 24 N       -7.0420    -7.8150     0.2050 N.2   1 <1>  -0.7070 
 25 C       -8.1540    -7.7320    -0.4570 C.2   1 <1>   0.1390 
 26 H       -3.4060     2.3180    -0.8140 H     1 <1>   0.0800 
 27 H       -2.1210     2.9090    -1.8210 H     1 <1>   0.0800 
 28 H        0.3800     2.6860    -0.8320 H     1 <1>   0.0800 
 29 H        0.4990     2.0050     0.7650 H     1 <1>   0.0800 
 30 H       -2.3060    -1.6390    -1.0890 H     1 <1>   0.1500 
 31 H       -3.8530     1.3210     1.5250 H     1 <1>   0.1500 
 32 H       -2.9340     4.0660     0.8660 H     1 <1>   0.0800 
 33 H       -3.1360     4.8140    -0.7030 H     1 <1>   0.0800 
 34 H        0.5970     4.5230     0.7450 H     1 <1>   0.0800 
 35 H       -0.7030     3.8990     1.7340 H     1 <1>   0.0800 
 36 H       -6.0160     0.0980     1.4330 H     1 <1>   0.1500 
 37 H       -5.5920    -3.9770     0.0530 H     1 <1>   0.0800 
 38 H       -6.6180    -3.6780    -1.3230 H     1 <1>   0.0800 
 39 H       -7.8790    -1.4430    -1.4190 H     1 <1>   0.0800 
 40 H       -7.6720    -0.3090    -0.1110 H     1 <1>   0.0800 
 41 H       -7.5180    -4.0780     1.5330 H     1 <1>   0.0800 
 42 H       -9.8370    -1.5140     0.0570 H     1 <1>   0.0800 
 43 H       -8.8180    -1.8030     1.4350 H     1 <1>   0.0800 
 44 H       -9.8110    -3.9250     0.7090 H     1 <1>   0.0800 
 45 H       -9.2370    -3.6670    -0.9170 H     1 <1>   0.0800 
 46 H       -5.9510    -6.3150     1.1480 H     1 <1>   0.2700 
 47 H       -9.5430    -6.1230    -1.0050 H     1 <1>   0.1500 
 48 H       -8.6390    -8.5820    -0.9080 H     1 <1>   0.1500 
@<TRIPOS>BOND
  1   1   2  2   
  2   2   3  am  
  3   2   4  1   
  4   3   5  1   
  5   3   6  1   
  6   4   7  ar  
  7   4   8  ar  
  8   5   9  1   
  9   5  26  1   
 10   5  27  1   
 11   6  10  1   
 12   6  28  1   
 13   6  29  1   
 14   7  11  ar  
 15   7  30  1   
 16   8  12  ar  
 17   8  31  1   
 18   9  13  1   
 19   9  32  1   
 20   9  33  1   
 21  10  13  1   
 22  10  34  1   
 23  10  35  1   
 24  11  14  ar  
 25  12  14  ar  
 26  12  36  1   
 27  14  15  1   
 28  15  16  1   
 29  15  17  1   
 30  16  18  1   
 31  16  37  1   
 32  16  38  1   
 33  17  19  1   
 34  17  39  1   
 35  17  40  1   
 36  18  20  1   
 37  18  21  1   
 38  18  41  1   
 39  19  21  1   
 40  19  42  1   
 41  19  43  1   
 42  20  22  1   
 43  20  23  2   
 44  21  44  1   
 45  21  45  1   
 46  22  24  1   
 47  22  46  1   
 48  23  25  1   
 49  23  47  1   
 50  24  25  2   
 51  25  48  1   
@<TRIPOS>SUBSTRUCTURE
  1 ****  14 GROUP 4 **** **** 0

# MOE 2024.06 (io_trps.svl 2023.06)
