@<TRIPOS>MOLECULE
NONAME
49 51 1 0 0 
SMALL
USER_CHARGES


@<TRIPOS>ATOM
  1 O        0.5960     0.2590    -0.3020 O.co2 1 <1>  -0.9030 
  2 C        1.1220    -0.8610    -0.2000 C.2   1 <1>   0.9770 
  3 O        0.4160    -1.8800    -0.2090 O.co2 1 <1>  -0.9030 
  4 C        2.5680    -0.9590    -0.0720 C.ar  1 <1>  -0.1860 
  5 C        3.3490     0.1910    -0.0570 C.ar  1 <1>  -0.1170 
  6 C        3.2190    -2.2030     0.0380 C.ar  1 <1>  -0.1580 
  7 C        4.7220     0.0850     0.0680 C.ar  1 <1>   0.3020 
  8 C        4.5900    -2.3050     0.1620 C.ar  1 <1>  -0.1170 
  9 N        5.7130     1.0430     0.1050 N.pl3 1 <1>  -0.7040 
 10 C        5.3460    -1.1380     0.1800 C.ar  1 <1>   0.3020 
 11 C        6.8960     0.4420     0.2160 C.cat 1 <1>   1.0690 
 12 N        6.7140    -0.8930     0.3000 N.pl3 1 <1>  -0.7680 
 13 N        8.0660     1.1380     0.2350 N.pl3 1 <1>  -0.5970 
 14 C        7.6390    -1.9910     0.6970 C.3   1 <1>   0.2670 
 15 C        8.1410     2.5560     0.7370 C.3   1 <1>   0.1600 
 16 C        9.3900     0.4920    -0.0540 C.3   1 <1>   0.1600 
 17 C        8.1260     3.6130    -0.3970 C.3   1 <1>   0.3370 
 18 C       10.2620     1.3120    -1.0030 C.3   1 <1>  -0.2470 
 19 N        8.3170     5.0180     0.0940 N.4   1 <1>  -0.9610 
 20 C        8.0740     6.0000    -1.0270 C.3   1 <1>   0.3370 
 21 C        9.6960     5.2590     0.6650 C.3   1 <1>   0.3370 
 22 C        8.3600     7.4490    -0.5910 C.3   1 <1>   0.1120 
 23 C        9.9130     6.7410     1.0290 C.3   1 <1>   0.1120 
 24 O        9.6540     7.5500    -0.0780 O.3   1 <1>  -0.5650 
 25 H        2.8760     1.1550    -0.1420 H     1 <1>   0.1420 
 26 H        2.6070    -3.0930     0.0220 H     1 <1>   0.1420 
 27 H        5.0560    -3.2700     0.2410 H     1 <1>   0.1420 
 28 H        5.5030     2.0270     0.0080 H     1 <1>   0.4440 
 29 H        7.1110    -2.7310     1.2740 H     1 <1>   0.0720 
 30 H        8.4400    -1.6130     1.3070 H     1 <1>   0.0720 
 31 H        8.0450    -2.4650    -0.1810 H     1 <1>   0.0720 
 32 H        9.0440     2.6590     1.3140 H     1 <1>   0.0720 
 33 H        7.3140     2.7420     1.4010 H     1 <1>   0.0720 
 34 H        9.2360    -0.4600    -0.5310 H     1 <1>   0.0720 
 35 H        9.9200     0.3240     0.8700 H     1 <1>   0.0720 
 36 H        7.1830     3.5500    -0.9140 H     1 <1>   0.0720 
 37 H        8.9050     3.3920    -1.1060 H     1 <1>   0.0720 
 38 H        9.7370     1.5340    -1.9150 H     1 <1>   0.0720 
 39 H       11.1310     0.7320    -1.2640 H     1 <1>   0.0720 
 40 H       10.6170     2.2140    -0.5390 H     1 <1>   0.0720 
 41 H        7.6370     5.2490     0.8310 H     1 <1>   0.4440 
 42 H        7.0530     5.9290    -1.3650 H     1 <1>   0.0720 
 43 H        8.7160     5.7680    -1.8600 H     1 <1>   0.0720 
 44 H       10.4440     4.9790    -0.0580 H     1 <1>   0.0720 
 45 H        9.8440     4.6590     1.5470 H     1 <1>   0.0720 
 46 H        7.6620     7.7800     0.1590 H     1 <1>   0.0720 
 47 H        8.2930     8.1120    -1.4370 H     1 <1>   0.0720 
 48 H       10.9360     6.9050     1.3200 H     1 <1>   0.0720 
 49 H        9.2730     7.0450     1.8400 H     1 <1>   0.0720 
@<TRIPOS>BOND
  1   1   2  ar  
  2   2   3  ar  
  3   2   4  1   
  4   4   5  ar  
  5   4   6  ar  
  6   5   7  ar  
  7   5  25  1   
  8   6   8  ar  
  9   6  26  1   
 10   7   9  1   
 11   7  10  ar  
 12   8  10  ar  
 13   8  27  1   
 14   9  11  ar  
 15   9  28  1   
 16  10  12  1   
 17  11  12  ar  
 18  11  13  ar  
 19  12  14  1   
 20  13  15  1   
 21  13  16  1   
 22  14  29  1   
 23  14  30  1   
 24  14  31  1   
 25  15  17  1   
 26  15  32  1   
 27  15  33  1   
 28  16  18  1   
 29  16  34  1   
 30  16  35  1   
 31  17  19  1   
 32  17  36  1   
 33  17  37  1   
 34  18  38  1   
 35  18  39  1   
 36  18  40  1   
 37  19  20  1   
 38  19  21  1   
 39  19  41  1   
 40  20  22  1   
 41  20  42  1   
 42  20  43  1   
 43  21  23  1   
 44  21  44  1   
 45  21  45  1   
 46  22  24  1   
 47  22  46  1   
 48  22  47  1   
 49  23  24  1   
 50  23  48  1   
 51  23  49  1   
@<TRIPOS>SUBSTRUCTURE
  1 ****   9 GROUP 4 **** **** 0

# MOE 2024.06 (io_trps.svl 2023.06)
