@<TRIPOS>MOLECULE
NONAME
46 49 1 0 0 
SMALL
USER_CHARGES


@<TRIPOS>ATOM
  1 O        2.5050    -0.7710     2.6970 O.2   1 <1>  -0.5700 
  2 C        2.3630    -0.9970     1.5080 C.2   1 <1>   0.5440 
  3 N        2.6180     0.0300     0.6120 N.am  1 <1>  -0.6600 
  4 C        2.0040    -2.3350     1.0900 C.ar  1 <1>   0.0860 
  5 C        2.9410     1.3930     1.1410 C.3   1 <1>   0.1400 
  6 C        2.8630    -0.2440    -0.8380 C.3   1 <1>   0.1400 
  7 C        0.8330    -2.6110     0.3770 C.ar  1 <1>   0.0830 
  8 C        2.8490    -3.4040     1.3970 C.ar  1 <1>  -0.1500 
  9 C        4.4580     1.7170     1.1410 C.3   1 <1>   0.4230 
 10 C        4.2280     0.2510    -1.3650 C.3   1 <1>  -0.0800 
 11 O        0.0000    -1.5920     0.0400 O.3   1 <1>  -0.3630 
 12 C        0.5250    -3.9230     0.0080 C.ar  1 <1>   0.0830 
 13 C        2.5520    -4.6980     1.0120 C.ar  1 <1>  -0.1500 
 14 N        4.9300     2.3550    -0.1440 N.4   1 <1>  -0.9590 
 15 C        5.3800     0.5230     1.5120 C.3   1 <1>   0.1200 
 16 C        5.4680    -0.4270    -0.7400 C.3   1 <1>   0.1200 
 17 C        4.3100     1.7790    -1.3740 C.3   1 <1>   0.3430 
 18 C       -1.0660    -1.8560    -0.8550 C.3   1 <1>   0.1200 
 19 O       -0.6260    -4.2170    -0.6480 O.3   1 <1>  -0.3630 
 20 C        1.3860    -4.9590     0.3150 C.ar  1 <1>  -0.1500 
 21 C        4.7580     3.8400    -0.1140 C.3   1 <1>   0.2630 
 22 O        5.3600    -0.5820     0.6400 O.3   1 <1>  -0.5600 
 23 C       -1.6520    -3.2480    -0.5930 C.3   1 <1>   0.1200 
 24 H        2.3950     2.1320     0.5840 H     1 <1>   0.0800 
 25 H        2.5910     1.4720     2.1550 H     1 <1>   0.0800 
 26 H        2.8080    -1.3020    -1.0250 H     1 <1>   0.0800 
 27 H        2.0670     0.2110    -1.4030 H     1 <1>   0.0800 
 28 H        3.7520    -3.2020     1.9480 H     1 <1>   0.1500 
 29 H        4.6000     2.4440     1.9220 H     1 <1>   0.0800 
 30 H        4.2400    -0.0280    -2.4030 H     1 <1>   0.0800 
 31 H        3.2240    -5.5030     1.2590 H     1 <1>   0.1500 
 32 H        5.9360     2.1450    -0.1930 H     1 <1>   0.4500 
 33 H        5.0810     0.1480     2.4760 H     1 <1>   0.0800 
 34 H        6.3990     0.8540     1.5970 H     1 <1>   0.0800 
 35 H        6.3800     0.0990    -0.9640 H     1 <1>   0.0800 
 36 H        5.5570    -1.4230    -1.1410 H     1 <1>   0.0800 
 37 H        3.3150     2.1750    -1.5020 H     1 <1>   0.0800 
 38 H        4.8910     2.0870    -2.2290 H     1 <1>   0.0800 
 39 H       -1.8130    -1.0960    -0.7140 H     1 <1>   0.0800 
 40 H       -0.6850    -1.7970    -1.8580 H     1 <1>   0.0800 
 41 H        1.1380    -5.9620     0.0160 H     1 <1>   0.1500 
 42 H        3.7120     4.0970    -0.0530 H     1 <1>   0.0800 
 43 H        5.1690     4.2840    -1.0070 H     1 <1>   0.0800 
 44 H        5.2660     4.2600     0.7390 H     1 <1>   0.0800 
 45 H       -2.3890    -3.5010    -1.3340 H     1 <1>   0.0800 
 46 H       -2.1020    -3.2900     0.3830 H     1 <1>   0.0800 
@<TRIPOS>BOND
  1   1   2  2   
  2   2   3  am  
  3   2   4  1   
  4   3   5  1   
  5   3   6  1   
  6   4   7  ar  
  7   4   8  ar  
  8   5   9  1   
  9   5  24  1   
 10   5  25  1   
 11   6  10  1   
 12   6  26  1   
 13   6  27  1   
 14   7  11  1   
 15   7  12  ar  
 16   8  13  ar  
 17   8  28  1   
 18   9  14  1   
 19   9  15  1   
 20   9  29  1   
 21  10  16  1   
 22  10  17  1   
 23  10  30  1   
 24  11  18  1   
 25  12  19  1   
 26  12  20  ar  
 27  13  20  ar  
 28  13  31  1   
 29  14  17  1   
 30  14  21  1   
 31  14  32  1   
 32  15  22  1   
 33  15  33  1   
 34  15  34  1   
 35  16  22  1   
 36  16  35  1   
 37  16  36  1   
 38  17  37  1   
 39  17  38  1   
 40  18  23  1   
 41  18  39  1   
 42  18  40  1   
 43  19  23  1   
 44  20  41  1   
 45  21  42  1   
 46  21  43  1   
 47  21  44  1   
 48  23  45  1   
 49  23  46  1   
@<TRIPOS>SUBSTRUCTURE
  1 ****   3 GROUP 4 **** **** 0

# MOE 2024.06 (io_trps.svl 2023.06)
