@<TRIPOS>MOLECULE
NONAME
57 60 1 0 0 
SMALL
USER_CHARGES


@<TRIPOS>ATOM
  1 CL      -0.1860     0.1660    -2.6860 Cl    1 <1>  -0.1770 
  2 C       -0.9720    -0.7380    -1.4210 C.ar  1 <1>   0.1770 
  3 C       -0.2400    -1.1540    -0.3250 C.ar  1 <1>  -0.1500 
  4 C       -2.3190    -1.0270    -1.5270 C.ar  1 <1>  -0.1500 
  5 C       -0.8700    -1.8750     0.6750 C.ar  1 <1>  -0.1500 
  6 C       -2.9380    -1.7480    -0.5210 C.ar  1 <1>  -0.1500 
  7 C       -2.2260    -2.1950     0.5960 C.ar  1 <1>   0.0860 
  8 C       -2.8720    -2.9580     1.6480 C.2   1 <1>   0.5440 
  9 O       -2.7390    -2.6010     2.8030 O.2   1 <1>  -0.5700 
 10 N       -3.6250    -4.0830     1.3800 N.am  1 <1>  -0.6600 
 11 C       -4.5700    -4.6400     2.3850 C.3   1 <1>   0.1400 
 12 C       -3.4800    -4.9010     0.1460 C.3   1 <1>   0.1400 
 13 C       -5.9480    -4.8270     1.7420 C.3   1 <1>  -0.1600 
 14 C       -4.8480    -5.0820    -0.5140 C.3   1 <1>  -0.1600 
 15 C       -5.8740    -5.6900     0.4670 C.3   1 <1>  -0.0190 
 16 C       -7.2640    -5.8470    -0.1690 C.2   1 <1>   0.5690 
 17 O       -7.6340    -4.9700    -0.9170 O.2   1 <1>  -0.5700 
 18 N       -8.0590    -6.9390     0.1050 N.am  1 <1>  -0.6600 
 19 C       -9.3500    -7.1050    -0.6360 C.3   1 <1>   0.2200 
 20 C       -7.7190    -7.9640     1.1400 C.3   1 <1>   0.0600 
 21 C       -9.5750    -8.5040    -1.2030 C.3   1 <1>  -0.1600 
 22 C      -10.5720    -6.8380     0.2360 C.3   1 <1>  -0.1600 
 23 C      -11.0860    -8.5640    -1.4630 C.3   1 <1>  -0.0800 
 24 C      -11.7280    -7.5450    -0.4870 C.3   1 <1>  -0.0800 
 25 C      -11.6470   -10.0000    -1.4050 C.3   1 <1>   0.1400 
 26 C      -12.7600    -8.1580     0.4800 C.3   1 <1>  -0.0990 
 27 N      -13.1000    -9.9640    -1.1400 N.am  1 <1>  -0.7300 
 28 C      -13.6690    -9.1200    -0.2540 C.2   1 <1>   0.5690 
 29 O      -14.8540    -9.1350    -0.0420 O.2   1 <1>  -0.5700 
 30 H        0.8060    -0.9120    -0.2580 H     1 <1>   0.1500 
 31 H       -2.8720    -0.6890    -2.3850 H     1 <1>   0.1500 
 32 H       -0.3130    -2.1970     1.5390 H     1 <1>   0.1500 
 33 H       -3.9890    -1.9690    -0.5900 H     1 <1>   0.1500 
 34 H       -4.1910    -5.5830     2.7390 H     1 <1>   0.0800 
 35 H       -4.6590    -3.9770     3.2290 H     1 <1>   0.0800 
 36 H       -2.7970    -4.4420    -0.5470 H     1 <1>   0.0800 
 37 H       -3.0760    -5.8630     0.4140 H     1 <1>   0.0800 
 38 H       -6.6110    -5.2800     2.4550 H     1 <1>   0.0800 
 39 H       -6.3490    -3.8590     1.4970 H     1 <1>   0.0800 
 40 H       -5.1950    -4.1250    -0.8610 H     1 <1>   0.0800 
 41 H       -4.7500    -5.7220    -1.3720 H     1 <1>   0.0800 
 42 H       -5.5030    -6.6610     0.7320 H     1 <1>   0.0800 
 43 H       -9.3880    -6.4190    -1.4670 H     1 <1>   0.0800 
 44 H       -8.6080    -8.4290     1.5270 H     1 <1>   0.0800 
 45 H       -7.2010    -7.5120     1.9670 H     1 <1>   0.0800 
 46 H       -7.0940    -8.7230     0.7030 H     1 <1>   0.0800 
 47 H       -9.0120    -8.6520    -2.1080 H     1 <1>   0.0800 
 48 H       -9.3080    -9.2560    -0.4860 H     1 <1>   0.0800 
 49 H      -10.4340    -7.2570     1.2150 H     1 <1>   0.0800 
 50 H      -10.7530    -5.7810     0.3260 H     1 <1>   0.0800 
 51 H      -11.2570    -8.1950    -2.4610 H     1 <1>   0.0800 
 52 H      -12.2450    -6.8150    -1.0890 H     1 <1>   0.0800 
 53 H      -11.1750   -10.5540    -0.6120 H     1 <1>   0.0800 
 54 H      -11.4570   -10.5070    -2.3360 H     1 <1>   0.0800 
 55 H      -13.3490    -7.3830     0.9340 H     1 <1>   0.0800 
 56 H      -12.2670    -8.7090     1.2590 H     1 <1>   0.0800 
 57 H      -13.7080   -10.6350    -1.6120 H     1 <1>   0.3700 
@<TRIPOS>BOND
  1   1   2  1   
  2   2   3  ar  
  3   2   4  ar  
  4   3   5  ar  
  5   3  30  1   
  6   4   6  ar  
  7   4  31  1   
  8   5   7  ar  
  9   5  32  1   
 10   6   7  ar  
 11   6  33  1   
 12   7   8  1   
 13   8   9  2   
 14   8  10  am  
 15  10  11  1   
 16  10  12  1   
 17  11  13  1   
 18  11  34  1   
 19  11  35  1   
 20  12  14  1   
 21  12  36  1   
 22  12  37  1   
 23  13  15  1   
 24  13  38  1   
 25  13  39  1   
 26  14  15  1   
 27  14  40  1   
 28  14  41  1   
 29  15  16  1   
 30  15  42  1   
 31  16  17  2   
 32  16  18  am  
 33  18  19  1   
 34  18  20  1   
 35  19  21  1   
 36  19  22  1   
 37  19  43  1   
 38  20  44  1   
 39  20  45  1   
 40  20  46  1   
 41  21  23  1   
 42  21  47  1   
 43  21  48  1   
 44  22  24  1   
 45  22  49  1   
 46  22  50  1   
 47  23  24  1   
 48  23  25  1   
 49  23  51  1   
 50  24  26  1   
 51  24  52  1   
 52  25  27  1   
 53  25  53  1   
 54  25  54  1   
 55  26  28  1   
 56  26  55  1   
 57  26  56  1   
 58  27  28  am  
 59  27  57  1   
 60  28  29  2   
@<TRIPOS>SUBSTRUCTURE
  1 ****  16 GROUP 4 **** **** 0

# MOE 2024.06 (io_trps.svl 2023.06)
