@<TRIPOS>MOLECULE
NONAME
53 55 1 0 0 
SMALL
USER_CHARGES


@<TRIPOS>ATOM
  1 F       -2.6720     0.4280     2.8480 F     1 <1>  -0.1900 
  2 C       -2.6210     0.9480     1.6510 C.ar  1 <1>   0.1900 
  3 C       -2.6230     2.3240     1.5240 C.ar  1 <1>  -0.1500 
  4 C       -2.5640     0.1030     0.5620 C.ar  1 <1>  -0.1500 
  5 C       -2.5770     2.8970     0.2570 C.ar  1 <1>  -0.1440 
  6 C       -2.5030     0.6660    -0.6990 C.ar  1 <1>  -0.1500 
  7 C       -2.5050     2.0460    -0.8460 C.ar  1 <1>  -0.1500 
  8 C       -2.5640     4.4300     0.0860 C.3   1 <1>   0.1440 
  9 C       -3.4100     5.1400     1.1610 C.3   1 <1>  -0.1600 
 10 C       -3.2560     4.8800    -1.2180 C.3   1 <1>  -0.1600 
 11 C       -1.0740     4.8540     0.1410 C.3   1 <1>   0.1400 
 12 C       -3.9450     6.4360     0.5480 C.3   1 <1>  -0.1600 
 13 C       -3.8700     6.2620    -0.9700 C.3   1 <1>  -0.1600 
 14 N       -0.8340     6.3080    -0.0560 N.am  1 <1>  -0.7300 
 15 C       -0.0260     7.0820     0.7130 C.2   1 <1>   0.5690 
 16 O        0.5780     6.6350     1.6560 O.2   1 <1>  -0.5700 
 17 C        0.1180     8.5660     0.3820 C.3   1 <1>  -0.0190 
 18 C       -1.2300     9.3090     0.4540 C.3   1 <1>  -0.1600 
 19 C        0.8140     8.7900    -0.9840 C.3   1 <1>  -0.1600 
 20 C       -1.0680    10.8320     0.2750 C.3   1 <1>   0.2000 
 21 C        0.5180    10.1660    -1.6130 C.3   1 <1>  -0.1600 
 22 O       -2.2150    11.3110    -0.3840 O.3   1 <1>  -0.5600 
 23 C        0.1910    11.2150    -0.5470 C.3   1 <1>   0.2000 
 24 C       -3.3190    11.5340     0.4380 C.3   1 <1>   0.0400 
 25 O       -0.0310    12.4180    -1.1850 O.3   1 <1>  -0.6800 
 26 H       -2.6550     2.9200     2.4170 H     1 <1>   0.1500 
 27 H       -2.5650    -0.9630     0.7020 H     1 <1>   0.1500 
 28 H       -2.4520     0.0320    -1.5680 H     1 <1>   0.1500 
 29 H       -2.4450     2.4450    -1.8420 H     1 <1>   0.1500 
 30 H       -4.2560     4.5210     1.4080 H     1 <1>   0.0800 
 31 H       -2.8480     5.3310     2.0580 H     1 <1>   0.0800 
 32 H       -2.5830     4.8850    -2.0570 H     1 <1>   0.0800 
 33 H       -4.0650     4.2030    -1.4340 H     1 <1>   0.0800 
 34 H       -0.5330     4.3180    -0.6200 H     1 <1>   0.0800 
 35 H       -0.6640     4.5530     1.0910 H     1 <1>   0.0800 
 36 H       -4.9560     6.6220     0.8700 H     1 <1>   0.0800 
 37 H       -3.3320     7.2640     0.8550 H     1 <1>   0.0800 
 38 H       -3.2580     7.0340    -1.4020 H     1 <1>   0.0800 
 39 H       -4.8510     6.3210    -1.4120 H     1 <1>   0.0800 
 40 H       -1.3660     6.7360    -0.8140 H     1 <1>   0.3700 
 41 H        0.7530     8.9880     1.1430 H     1 <1>   0.0800 
 42 H       -1.6920     9.1130     1.4060 H     1 <1>   0.0800 
 43 H       -1.8710     8.9300    -0.3220 H     1 <1>   0.0800 
 44 H        1.8760     8.6850    -0.8390 H     1 <1>   0.0800 
 45 H        0.5170     8.0310    -1.6860 H     1 <1>   0.0800 
 46 H       -0.9900    11.3140     1.2350 H     1 <1>   0.0800 
 47 H       -0.3290    10.0760    -2.2710 H     1 <1>   0.0800 
 48 H        1.3650    10.4870    -2.1950 H     1 <1>   0.0800 
 49 H        1.0400    11.3380     0.1040 H     1 <1>   0.0800 
 50 H       -4.1230    11.9010    -0.1760 H     1 <1>   0.0800 
 51 H       -3.0670    12.2720     1.1800 H     1 <1>   0.0800 
 52 H       -3.6140    10.6110     0.9050 H     1 <1>   0.0800 
 53 H       -0.9990    12.4530    -1.3600 H     1 <1>   0.4000 
@<TRIPOS>BOND
  1   1   2  1   
  2   2   3  ar  
  3   2   4  ar  
  4   3   5  ar  
  5   3  26  1   
  6   4   6  ar  
  7   4  27  1   
  8   5   7  ar  
  9   5   8  1   
 10   6   7  ar  
 11   6  28  1   
 12   7  29  1   
 13   8   9  1   
 14   8  10  1   
 15   8  11  1   
 16   9  12  1   
 17   9  30  1   
 18   9  31  1   
 19  10  13  1   
 20  10  32  1   
 21  10  33  1   
 22  11  14  1   
 23  11  34  1   
 24  11  35  1   
 25  12  13  1   
 26  12  36  1   
 27  12  37  1   
 28  13  38  1   
 29  13  39  1   
 30  14  15  am  
 31  14  40  1   
 32  15  16  2   
 33  15  17  1   
 34  17  18  1   
 35  17  19  1   
 36  17  41  1   
 37  18  20  1   
 38  18  42  1   
 39  18  43  1   
 40  19  21  1   
 41  19  44  1   
 42  19  45  1   
 43  20  22  1   
 44  20  23  1   
 45  20  46  1   
 46  21  23  1   
 47  21  47  1   
 48  21  48  1   
 49  22  24  1   
 50  23  25  1   
 51  23  49  1   
 52  24  50  1   
 53  24  51  1   
 54  24  52  1   
 55  25  53  1   
@<TRIPOS>SUBSTRUCTURE
  1 ****  14 GROUP 4 **** **** 0

# MOE 2024.06 (io_trps.svl 2023.06)
