@<TRIPOS>MOLECULE
NONAME
50 52 1 0 0 
SMALL
USER_CHARGES


@<TRIPOS>ATOM
  1 S       -0.7870     0.8100     0.4290 S.o2  1 <1>   1.4470 
  2 O       -0.5620    -0.0880     1.5410 O.2   1 <1>  -0.6500 
  3 O       -1.5470     2.0220     0.6480 O.2   1 <1>  -0.6500 
  4 N       -1.5340    -0.0480    -0.8290 N.am  1 <1>  -0.8490 
  5 C        0.8160     1.2720    -0.2950 C.ar  1 <1>  -0.0090 
  6 C       -0.9500    -1.3770    -1.1240 C.3   1 <1>   0.1960 
  7 C       -2.9960    -0.0560    -0.8010 C.3   1 <1>   0.1960 
  8 C        0.9070     1.7690    -1.5880 C.ar  1 <1>  -0.1500 
  9 C        1.9970     1.1540     0.4280 C.ar  1 <1>  -0.1500 
 10 C       -1.8300    -2.6020    -0.7540 C.3   1 <1>  -0.1060 
 11 C       -3.5280    -0.9690     0.3070 C.3   1 <1>  -0.1600 
 12 C        2.1240     2.1370    -2.1340 C.ar  1 <1>  -0.1500 
 13 C        3.2160     1.5210    -0.1170 C.ar  1 <1>  -0.1500 
 14 C       -2.7080    -2.9570    -1.9640 C.2   1 <1>   0.9060 
 15 C       -2.6880    -2.2430     0.4870 C.3   1 <1>   0.2000 
 16 C       -0.9340    -3.8460    -0.4890 C.3   1 <1>  -0.0650 
 17 C        3.3120     2.0320    -1.4120 C.ar  1 <1>   0.0860 
 18 O       -2.1980    -2.9680    -3.0900 O.co2 1 <1>  -0.9000 
 19 O       -3.9000    -3.2630    -1.8050 O.co2 1 <1>  -0.9000 
 20 O       -3.5540    -3.2790     0.7770 O.3   1 <1>  -0.6800 
 21 C        0.0570    -3.7380     0.6840 C.3   1 <1>  -0.1950 
 22 C        4.5810     2.4400    -1.9940 C.2   1 <1>   0.5440 
 23 C        1.4620    -3.2540     0.5000 C.3   1 <1>  -0.2000 
 24 C        1.1950    -4.7040     0.7780 C.3   1 <1>  -0.2000 
 25 O        4.7470     2.4120    -3.1970 O.2   1 <1>  -0.5700 
 26 N        5.6070     2.8800    -1.2000 N.am  1 <1>  -0.7300 
 27 C        6.9450     3.3140    -1.6800 C.3   1 <1>   0.0600 
 28 H       -0.7030    -1.4090    -2.1720 H     1 <1>   0.0800 
 29 H       -0.0130    -1.4490    -0.6080 H     1 <1>   0.0800 
 30 H       -3.3760     0.9430    -0.6730 H     1 <1>   0.0800 
 31 H       -3.3550    -0.4110    -1.7540 H     1 <1>   0.0800 
 32 H        0.0080     1.8650    -2.1760 H     1 <1>   0.1500 
 33 H        1.9580     0.7640     1.4320 H     1 <1>   0.1500 
 34 H       -4.5440    -1.2220     0.0580 H     1 <1>   0.0800 
 35 H       -3.5410    -0.4290     1.2360 H     1 <1>   0.0800 
 36 H        2.1610     2.5140    -3.1430 H     1 <1>   0.1500 
 37 H        4.1070     1.4000     0.4740 H     1 <1>   0.1500 
 38 H       -2.0550    -2.1100     1.3450 H     1 <1>   0.0800 
 39 H       -1.5770    -4.6890    -0.3020 H     1 <1>   0.0800 
 40 H       -0.3890    -4.0730    -1.3900 H     1 <1>   0.0800 
 41 H       -3.9810    -3.5020    -0.1010 H     1 <1>   0.4000 
 42 H       -0.4320    -3.5210     1.6190 H     1 <1>   0.1000 
 43 H        1.8030    -2.9810    -0.4840 H     1 <1>   0.1000 
 44 H        1.8870    -2.6370     1.2730 H     1 <1>   0.1000 
 45 H        1.4460    -5.1050     1.7440 H     1 <1>   0.1000 
 46 H        1.3340    -5.4180    -0.0150 H     1 <1>   0.1000 
 47 H        5.4290     3.0160    -0.2040 H     1 <1>   0.3700 
 48 H        7.0520     3.1170    -2.7330 H     1 <1>   0.0800 
 49 H        7.7140     2.7800    -1.1500 H     1 <1>   0.0800 
 50 H        7.0660     4.3700    -1.5130 H     1 <1>   0.0800 
@<TRIPOS>BOND
  1   1   2  2   
  2   1   3  2   
  3   1   4  am  
  4   1   5  1   
  5   4   6  1   
  6   4   7  1   
  7   5   8  ar  
  8   5   9  ar  
  9   6  10  1   
 10   6  28  1   
 11   6  29  1   
 12   7  11  1   
 13   7  30  1   
 14   7  31  1   
 15   8  12  ar  
 16   8  32  1   
 17   9  13  ar  
 18   9  33  1   
 19  10  14  1   
 20  10  15  1   
 21  10  16  1   
 22  11  15  1   
 23  11  34  1   
 24  11  35  1   
 25  12  17  ar  
 26  12  36  1   
 27  13  17  ar  
 28  13  37  1   
 29  14  18  ar  
 30  14  19  ar  
 31  15  20  1   
 32  15  38  1   
 33  16  21  1   
 34  16  39  1   
 35  16  40  1   
 36  17  22  1   
 37  20  41  1   
 38  21  23  1   
 39  21  24  1   
 40  21  42  1   
 41  22  25  2   
 42  22  26  am  
 43  23  24  1   
 44  23  43  1   
 45  23  44  1   
 46  24  45  1   
 47  24  46  1   
 48  26  27  1   
 49  26  47  1   
 50  27  48  1   
 51  27  49  1   
 52  27  50  1   
@<TRIPOS>SUBSTRUCTURE
  1 ****   6 GROUP 4 **** **** 0

# MOE 2024.06 (io_trps.svl 2023.06)
