@<TRIPOS>MOLECULE
NONAME
50 52 1 0 0 
SMALL
USER_CHARGES


@<TRIPOS>ATOM
  1 O        0.1430     0.8370     0.9670 O.2   1 <1>  -0.5700 
  2 C        0.2100     2.0320     0.7920 C.2   1 <1>   0.5690 
  3 N       -0.8820     2.8480     0.9480 N.am  1 <1>  -0.6600 
  4 C        1.5480     2.6320     0.3830 C.3   1 <1>  -0.0990 
  5 C       -2.2010     2.2940     1.3730 C.3   1 <1>   0.1400 
  6 C       -0.8880     4.3080     0.6230 C.3   1 <1>   0.1400 
  7 C        2.7370     1.6780     0.5660 C.3   1 <1>  -0.0160 
  8 C       -3.2450     2.4480     0.2460 C.3   1 <1>   0.0000 
  9 C       -2.3090     4.8380     0.3660 C.3   1 <1>  -0.1600 
 10 C        4.0350     2.3680     0.1730 C.ar  1 <1>  -0.1440 
 11 C       -4.6520     2.1750     0.8080 C.3   1 <1>   0.2000 
 12 C       -3.1330     3.8380    -0.4580 C.3   1 <1>  -0.1600 
 13 C       -3.1260     1.3280    -0.8020 C.3   1 <1>  -0.1600 
 14 C        4.7490     3.0970     1.1130 C.ar  1 <1>  -0.1500 
 15 C        4.5100     2.2770    -1.1270 C.ar  1 <1>  -0.1500 
 16 O       -5.1760     3.2990     1.4510 O.3   1 <1>  -0.5600 
 17 C       -5.5030     1.7550    -0.3950 C.3   1 <1>  -0.1600 
 18 C       -4.5130     1.2290    -1.4450 C.3   1 <1>  -0.1600 
 19 C        5.9270     3.7300     0.7570 C.ar  1 <1>  -0.1500 
 20 C        5.6890     2.9080    -1.4880 C.ar  1 <1>  -0.1500 
 21 C       -6.3040     3.0580     2.2310 C.3   1 <1>   0.0400 
 22 C        6.3940     3.6330    -0.5420 C.ar  1 <1>   0.0820 
 23 O        7.5380     4.2490    -0.8750 O.3   1 <1>  -0.5330 
 24 H        1.4880     2.9210    -0.6490 H     1 <1>   0.0800 
 25 H        1.7270     3.5120     0.9730 H     1 <1>   0.0800 
 26 H       -2.1100     1.2610     1.6600 H     1 <1>   0.0800 
 27 H       -2.5310     2.8370     2.2420 H     1 <1>   0.0800 
 28 H       -0.4390     4.8570     1.4330 H     1 <1>   0.0800 
 29 H       -0.3010     4.4710    -0.2640 H     1 <1>   0.0800 
 30 H        2.5950     0.7990    -0.0390 H     1 <1>   0.0800 
 31 H        2.7910     1.3590     1.5920 H     1 <1>   0.0800 
 32 H       -2.8020     5.0200     1.3050 H     1 <1>   0.0800 
 33 H       -2.2500     5.7790    -0.1510 H     1 <1>   0.0800 
 34 H       -4.5980     1.3630     1.5150 H     1 <1>   0.0800 
 35 H       -2.6470     3.7300    -1.4110 H     1 <1>   0.0800 
 36 H       -4.1080     4.2500    -0.6520 H     1 <1>   0.0800 
 37 H       -2.3480     1.5100    -1.5230 H     1 <1>   0.0800 
 38 H       -2.9060     0.3960    -0.3100 H     1 <1>   0.0800 
 39 H        4.3920     3.1740     2.1250 H     1 <1>   0.1500 
 40 H        3.9630     1.7130    -1.8620 H     1 <1>   0.1500 
 41 H       -6.2030     0.9900    -0.1120 H     1 <1>   0.0800 
 42 H       -6.0330     2.6040    -0.7920 H     1 <1>   0.0800 
 43 H       -4.7350     0.2160    -1.7310 H     1 <1>   0.0800 
 44 H       -4.5530     1.8550    -2.3210 H     1 <1>   0.0800 
 45 H        6.4870     4.2960     1.4790 H     1 <1>   0.1500 
 46 H        6.0490     2.8300    -2.4970 H     1 <1>   0.1500 
 47 H       -6.5970     3.9870     2.6880 H     1 <1>   0.0800 
 48 H       -6.0620     2.3400     2.9950 H     1 <1>   0.0800 
 49 H       -7.1020     2.6960     1.6070 H     1 <1>   0.0800 
 50 H        7.7890     4.1100    -1.8050 H     1 <1>   0.4500 
@<TRIPOS>BOND
  1   1   2  2   
  2   2   3  am  
  3   2   4  1   
  4   3   5  1   
  5   3   6  1   
  6   4   7  1   
  7   4  24  1   
  8   4  25  1   
  9   5   8  1   
 10   5  26  1   
 11   5  27  1   
 12   6   9  1   
 13   6  28  1   
 14   6  29  1   
 15   7  10  1   
 16   7  30  1   
 17   7  31  1   
 18   8  11  1   
 19   8  12  1   
 20   8  13  1   
 21   9  12  1   
 22   9  32  1   
 23   9  33  1   
 24  10  14  ar  
 25  10  15  ar  
 26  11  16  1   
 27  11  17  1   
 28  11  34  1   
 29  12  35  1   
 30  12  36  1   
 31  13  18  1   
 32  13  37  1   
 33  13  38  1   
 34  14  19  ar  
 35  14  39  1   
 36  15  20  ar  
 37  15  40  1   
 38  16  21  1   
 39  17  18  1   
 40  17  41  1   
 41  17  42  1   
 42  18  43  1   
 43  18  44  1   
 44  19  22  ar  
 45  19  45  1   
 46  20  22  ar  
 47  20  46  1   
 48  21  47  1   
 49  21  48  1   
 50  21  49  1   
 51  22  23  1   
 52  23  50  1   
@<TRIPOS>SUBSTRUCTURE
  1 ****   2 GROUP 4 **** **** 0

# MOE 2024.06 (io_trps.svl 2023.06)
