@<TRIPOS>MOLECULE
NONAME
56 58 1 0 0 
SMALL
USER_CHARGES


@<TRIPOS>ATOM
  1 O       -2.9450    -0.7190     0.4360 O.2   1 <1>  -0.5700 
  2 C       -2.2730    -1.7230     0.3790 C.2   1 <1>   0.5690 
  3 N       -2.4120    -2.6380    -0.6340 N.am  1 <1>  -0.6600 
  4 C       -1.2490    -1.9420     1.4800 C.3   1 <1>  -0.0990 
  5 C       -1.7410    -3.9670    -0.6490 C.3   1 <1>   0.1400 
  6 C       -3.3930    -2.4050    -1.7230 C.3   1 <1>   0.1400 
  7 C       -0.8290    -3.4090     1.6400 C.3   1 <1>  -0.1600 
  8 C       -0.5120    -4.0000     0.2640 C.3   1 <1>  -0.1600 
  9 C       -4.7660    -2.9170    -1.2870 C.3   1 <1>  -0.1600 
 10 C       -5.8740    -2.4280    -2.2340 C.3   1 <1>  -0.0990 
 11 C       -7.2620    -2.7540    -1.7050 C.2   1 <1>   0.5690 
 12 O       -7.8280    -3.6930    -2.2130 O.2   1 <1>  -0.5700 
 13 N       -7.8290    -2.0170    -0.6940 N.am  1 <1>  -0.6600 
 14 C       -9.1930    -2.3460    -0.1840 C.3   1 <1>   0.1400 
 15 C       -7.1770    -0.8450    -0.0250 C.3   1 <1>   0.1400 
 16 C      -10.1870    -1.1710    -0.3990 C.3   1 <1>   0.0000 
 17 C       -8.2050     0.0780     0.6470 C.3   1 <1>  -0.1600 
 18 C      -11.4030    -1.4010     0.5280 C.3   1 <1>   0.2000 
 19 C       -9.4720     0.2000    -0.2110 C.3   1 <1>  -0.1600 
 20 C      -10.8170    -1.2780    -1.7980 C.3   1 <1>  -0.1600 
 21 O      -12.1830    -0.2420     0.6080 O.3   1 <1>  -0.5600 
 22 C      -12.2310    -2.4760    -0.1860 C.3   1 <1>  -0.1600 
 23 C      -11.9550    -2.3010    -1.6850 C.3   1 <1>  -0.1600 
 24 C      -12.9670    -0.1330     1.7540 C.3   1 <1>   0.0400 
 25 H       -0.3880    -1.3470     1.2420 H     1 <1>   0.0800 
 26 H       -1.6530    -1.5800     2.4080 H     1 <1>   0.0800 
 27 H       -2.4490    -4.7100    -0.3230 H     1 <1>   0.0800 
 28 H       -1.4400    -4.2080    -1.6550 H     1 <1>   0.0800 
 29 H       -3.4450    -1.3480    -1.9220 H     1 <1>   0.0800 
 30 H       -3.0730    -2.8970    -2.6260 H     1 <1>   0.0800 
 31 H        0.0320    -3.4750     2.2830 H     1 <1>   0.0800 
 32 H       -1.6330    -3.9650     2.0940 H     1 <1>   0.0800 
 33 H       -0.1810    -5.0180     0.3720 H     1 <1>   0.0800 
 34 H        0.2860    -3.4450    -0.1970 H     1 <1>   0.0800 
 35 H       -4.7670    -3.9920    -1.2610 H     1 <1>   0.0800 
 36 H       -4.9670    -2.5580    -0.2940 H     1 <1>   0.0800 
 37 H       -5.7540    -2.9030    -3.1910 H     1 <1>   0.0800 
 38 H       -5.7960    -1.3700    -2.3960 H     1 <1>   0.0800 
 39 H       -9.5660    -3.2410    -0.6520 H     1 <1>   0.0800 
 40 H       -9.1040    -2.5570     0.8670 H     1 <1>   0.0800 
 41 H       -6.4730    -1.1930     0.7110 H     1 <1>   0.0800 
 42 H       -6.6400    -0.2690    -0.7570 H     1 <1>   0.0800 
 43 H       -8.4580    -0.3070     1.6200 H     1 <1>   0.0800 
 44 H       -7.7640     1.0480     0.7910 H     1 <1>   0.0800 
 45 H      -11.1000    -1.6930     1.5200 H     1 <1>   0.0800 
 46 H       -9.1730     0.5720    -1.1760 H     1 <1>   0.0800 
 47 H      -10.1270     0.9370     0.2140 H     1 <1>   0.0800 
 48 H      -11.2410    -0.3260    -2.0690 H     1 <1>   0.0800 
 49 H      -10.0950    -1.5600    -2.5460 H     1 <1>   0.0800 
 50 H      -11.8880    -3.4470     0.1220 H     1 <1>   0.0800 
 51 H      -13.2800    -2.3990     0.0370 H     1 <1>   0.0800 
 52 H      -11.6620    -3.2410    -2.1220 H     1 <1>   0.0800 
 53 H      -12.8300    -1.9360    -2.1950 H     1 <1>   0.0800 
 54 H      -13.5370     0.7760     1.6820 H     1 <1>   0.0800 
 55 H      -12.3260    -0.0900     2.6170 H     1 <1>   0.0800 
 56 H      -13.6330    -0.9740     1.8170 H     1 <1>   0.0800 
@<TRIPOS>BOND
  1   1   2  2   
  2   2   3  am  
  3   2   4  1   
  4   3   5  1   
  5   3   6  1   
  6   4   7  1   
  7   4  25  1   
  8   4  26  1   
  9   5   8  1   
 10   5  27  1   
 11   5  28  1   
 12   6   9  1   
 13   6  29  1   
 14   6  30  1   
 15   7   8  1   
 16   7  31  1   
 17   7  32  1   
 18   8  33  1   
 19   8  34  1   
 20   9  10  1   
 21   9  35  1   
 22   9  36  1   
 23  10  11  1   
 24  10  37  1   
 25  10  38  1   
 26  11  12  2   
 27  11  13  am  
 28  13  14  1   
 29  13  15  1   
 30  14  16  1   
 31  14  39  1   
 32  14  40  1   
 33  15  17  1   
 34  15  41  1   
 35  15  42  1   
 36  16  18  1   
 37  16  19  1   
 38  16  20  1   
 39  17  19  1   
 40  17  43  1   
 41  17  44  1   
 42  18  21  1   
 43  18  22  1   
 44  18  45  1   
 45  19  46  1   
 46  19  47  1   
 47  20  23  1   
 48  20  48  1   
 49  20  49  1   
 50  21  24  1   
 51  22  23  1   
 52  22  50  1   
 53  22  51  1   
 54  23  52  1   
 55  23  53  1   
 56  24  54  1   
 57  24  55  1   
 58  24  56  1   
@<TRIPOS>SUBSTRUCTURE
  1 ****  13 GROUP 4 **** **** 0

# MOE 2024.06 (io_trps.svl 2023.06)
