@<TRIPOS>MOLECULE
NONAME
52 54 1 0 0 
SMALL
USER_CHARGES


@<TRIPOS>ATOM
  1 O       -0.2660     0.8300    -0.2090 O.2   1 <1>  -0.5700 
  2 C       -0.3140     2.0250    -0.0350 C.2   1 <1>   0.5690 
  3 N       -1.3580     2.6300     0.6120 N.am  1 <1>  -0.6600 
  4 C        0.8270     2.8780    -0.5940 C.3   1 <1>   0.1810 
  5 C       -1.3990     4.1180     0.7950 C.3   1 <1>   0.3640 
  6 C       -2.4310     1.8540     1.3010 C.3   1 <1>   0.0600 
  7 O        0.9350     4.1370     0.0240 O.3   1 <1>  -0.5600 
  8 C       -2.7680     4.6990     0.4000 C.ar  1 <1>  -0.1430 
  9 C       -0.2720     4.8770     0.0460 C.3   1 <1>   0.2610 
 10 C       -3.4360     4.4330    -0.8010 C.ar  1 <1>  -0.1430 
 11 C       -3.3590     5.5610     1.3160 C.ar  1 <1>  -0.1500 
 12 C       -0.0240     6.2760     0.6420 C.2   1 <1>   0.5690 
 13 C       -4.6650     5.0300    -1.0440 C.ar  1 <1>  -0.1500 
 14 C       -2.9050     3.4960    -1.8840 C.3   1 <1>  -0.0960 
 15 C       -4.5820     6.1510     1.0620 C.ar  1 <1>  -0.1500 
 16 O       -0.3090     6.4780     1.8030 O.2   1 <1>  -0.5700 
 17 N        0.5370     7.2730    -0.1240 N.am  1 <1>  -0.6600 
 18 C       -5.2380     5.8850    -0.1220 C.ar  1 <1>  -0.1500 
 19 C        0.9180     8.5780     0.4900 C.3   1 <1>   0.3210 
 20 C        0.9890     7.0750    -1.5330 C.3   1 <1>   0.0600 
 21 C        2.4190     8.7860     0.3960 C.2   1 <1>  -0.1810 
 22 C        3.1220     9.7340    -0.2450 C.2   1 <1>  -0.0400 
 23 C        3.4090     7.9960     0.9820 C.2   1 <1>   0.1080 
 24 O        4.3900     9.5000    -0.0430 O.3   1 <1>  -0.0190 
 25 C        2.7200    10.9240    -1.0920 C.3   1 <1>  -0.0600 
 26 N        4.5780     8.4490     0.6990 N.2   1 <1>  -0.4100 
 27 C        3.1760     6.7660     1.8350 C.3   1 <1>  -0.0590 
 28 H        0.6830     3.0250    -1.6480 H     1 <1>   0.0800 
 29 H        1.7580     2.3620    -0.4420 H     1 <1>   0.0800 
 30 H       -1.2550     4.2830     1.8480 H     1 <1>   0.0800 
 31 H       -3.3900     2.0900     0.8740 H     1 <1>   0.0800 
 32 H       -2.4430     2.1010     2.3480 H     1 <1>   0.0800 
 33 H       -2.2610     0.7960     1.1990 H     1 <1>   0.0800 
 34 H       -0.5810     5.0110    -0.9700 H     1 <1>   0.0800 
 35 H       -2.8650     5.7900     2.2460 H     1 <1>   0.1500 
 36 H       -5.1950     4.8310    -1.9590 H     1 <1>   0.1500 
 37 H       -3.4290     3.6460    -2.8110 H     1 <1>   0.0800 
 38 H       -3.0480     2.4740    -1.5840 H     1 <1>   0.0800 
 39 H       -1.8630     3.6580    -2.0720 H     1 <1>   0.0800 
 40 H       -5.0210     6.8160     1.7850 H     1 <1>   0.1500 
 41 H       -6.1920     6.3400    -0.3260 H     1 <1>   0.1500 
 42 H        0.4020     9.3670    -0.0260 H     1 <1>   0.0800 
 43 H        0.6240     8.6210     1.5240 H     1 <1>   0.0800 
 44 H        1.3050     8.0100    -1.9630 H     1 <1>   0.0800 
 45 H        0.1860     6.6840    -2.1320 H     1 <1>   0.0800 
 46 H        1.8200     6.3910    -1.5510 H     1 <1>   0.0800 
 47 H        1.6520    10.9870    -1.1810 H     1 <1>   0.0800 
 48 H        3.1490    10.8310    -2.0730 H     1 <1>   0.0800 
 49 H        3.0860    11.8280    -0.6390 H     1 <1>   0.0800 
 50 H        2.3950     6.9520     2.5490 H     1 <1>   0.0800 
 51 H        4.0760     6.5100     2.3640 H     1 <1>   0.0800 
 52 H        2.8940     5.9390     1.2110 H     1 <1>   0.0800 
@<TRIPOS>BOND
  1   1   2  2   
  2   2   3  am  
  3   2   4  1   
  4   3   5  1   
  5   3   6  1   
  6   4   7  1   
  7   4  28  1   
  8   4  29  1   
  9   5   8  1   
 10   5   9  1   
 11   5  30  1   
 12   6  31  1   
 13   6  32  1   
 14   6  33  1   
 15   7   9  1   
 16   8  10  ar  
 17   8  11  ar  
 18   9  12  1   
 19   9  34  1   
 20  10  13  ar  
 21  10  14  1   
 22  11  15  ar  
 23  11  35  1   
 24  12  16  2   
 25  12  17  am  
 26  13  18  ar  
 27  13  36  1   
 28  14  37  1   
 29  14  38  1   
 30  14  39  1   
 31  15  18  ar  
 32  15  40  1   
 33  17  19  1   
 34  17  20  1   
 35  18  41  1   
 36  19  21  1   
 37  19  42  1   
 38  19  43  1   
 39  20  44  1   
 40  20  45  1   
 41  20  46  1   
 42  21  22  2   
 43  21  23  1   
 44  22  24  1   
 45  22  25  1   
 46  23  26  2   
 47  23  27  1   
 48  24  26  1   
 49  25  47  1   
 50  25  48  1   
 51  25  49  1   
 52  27  50  1   
 53  27  51  1   
 54  27  52  1   
@<TRIPOS>SUBSTRUCTURE
  1 ****  12 GROUP 4 **** **** 0

# MOE 2024.06 (io_trps.svl 2023.06)
