@<TRIPOS>MOLECULE
NONAME
55 57 1 0 0 
SMALL
USER_CHARGES


@<TRIPOS>ATOM
  1 O        1.8330    -0.6290     2.3620 O.2   1 <1>  -0.5700 
  2 C        1.6450    -1.0900     1.2610 C.2   1 <1>   0.5690 
  3 N        1.8050    -0.3900     0.1080 N.am  1 <1>  -0.7300 
  4 C        1.1910    -2.5460     1.1450 C.3   1 <1>   0.1710 
  5 C        2.2180     0.9960    -0.1170 C.3   1 <1>   0.3000 
  6 N        0.3750    -2.8540    -0.0730 N.3   1 <1>  -0.8100 
  7 C        2.1960     1.2530    -1.6390 C.3   1 <1>  -0.1600 
  8 C        1.2140     1.9300     0.5620 C.3   1 <1>  -0.2400 
  9 C        3.6190     1.2060     0.4640 C.3   1 <1>  -0.2400 
 10 C       -0.9390    -2.1860    -0.0580 C.3   1 <1>   0.1100 
 11 C        0.0580    -4.2810    -0.1450 C.3   1 <1>   0.1100 
 12 C        3.0920     0.3340    -2.4910 C.3   1 <1>  -0.2400 
 13 C       -1.9210    -3.1340     0.6380 C.3   1 <1>   0.2000 
 14 C       -1.2020    -4.4860     0.7050 C.3   1 <1>  -0.0800 
 15 O       -2.1880    -2.6900     1.9230 O.3   1 <1>  -0.6800 
 16 C       -2.0810    -5.6460     0.2000 C.3   1 <1>  -0.0170 
 17 C       -1.3860    -7.0130     0.1390 C.ar  1 <1>  -0.1440 
 18 C       -1.8080    -8.0100    -0.7780 C.ar  1 <1>   0.0000 
 19 C       -0.3430    -7.3350     0.9630 C.ar  1 <1>  -0.1500 
 20 C       -1.0820    -9.2270    -0.8140 C.ar  1 <1>   0.3100 
 21 C       -2.9120    -7.8830    -1.6550 C.ar  1 <1>  -0.1500 
 22 C        0.2940    -8.5760     0.8570 C.ar  1 <1>   0.1600 
 23 N       -0.0360    -9.4920     0.0060 N.ar  1 <1>  -0.6200 
 24 C       -1.4570   -10.2220    -1.7320 C.ar  1 <1>  -0.1500 
 25 C       -3.2550    -8.8740    -2.5350 C.ar  1 <1>  -0.1500 
 26 C       -2.5170   -10.0580    -2.5800 C.ar  1 <1>  -0.1500 
 27 H        1.5610    -0.9010    -0.7440 H     1 <1>   0.3700 
 28 H        0.6450    -2.8000     2.0350 H     1 <1>   0.0800 
 29 H        2.0810    -3.1490     1.1270 H     1 <1>   0.0800 
 30 H        1.1820     1.1610    -1.9890 H     1 <1>   0.0800 
 31 H        2.4940     2.2710    -1.8170 H     1 <1>   0.0800 
 32 H        1.4660     2.9550     0.3610 H     1 <1>   0.0800 
 33 H        1.2250     1.7900     1.6280 H     1 <1>   0.0800 
 34 H        0.2200     1.7450     0.1980 H     1 <1>   0.0800 
 35 H        3.9840     2.1840     0.2100 H     1 <1>   0.0800 
 36 H        4.3060     0.4720     0.0840 H     1 <1>   0.0800 
 37 H        3.5970     1.1280     1.5360 H     1 <1>   0.0800 
 38 H       -0.9080    -1.2150     0.4070 H     1 <1>   0.0800 
 39 H       -1.2560    -2.0600    -1.0790 H     1 <1>   0.0800 
 40 H       -0.1510    -4.5300    -1.1730 H     1 <1>   0.0800 
 41 H        0.8810    -4.8920     0.1870 H     1 <1>   0.0800 
 42 H        2.8290    -0.7000    -2.3590 H     1 <1>   0.0800 
 43 H        4.1280     0.4620    -2.2330 H     1 <1>   0.0800 
 44 H        2.9770     0.5800    -3.5310 H     1 <1>   0.0800 
 45 H       -2.8550    -3.1790     0.1040 H     1 <1>   0.0800 
 46 H       -0.9050    -4.6780     1.7200 H     1 <1>   0.0800 
 47 H       -1.3560    -2.4460     2.3730 H     1 <1>   0.4000 
 48 H       -2.4120    -5.3730    -0.7840 H     1 <1>   0.0800 
 49 H       -2.9510    -5.7300     0.8280 H     1 <1>   0.0800 
 50 H        0.0300    -6.6660     1.7140 H     1 <1>   0.1500 
 51 H       -3.5100    -6.9930    -1.6360 H     1 <1>   0.1500 
 52 H        1.1140    -8.7790     1.5250 H     1 <1>   0.1500 
 53 H       -0.8770   -11.1260    -1.7430 H     1 <1>   0.1500 
 54 H       -4.0950    -8.7580    -3.1980 H     1 <1>   0.1500 
 55 H       -2.7930   -10.8290    -3.2780 H     1 <1>   0.1500 
@<TRIPOS>BOND
  1   1   2  2   
  2   2   3  am  
  3   2   4  1   
  4   3   5  1   
  5   3  27  1   
  6   4   6  1   
  7   4  28  1   
  8   4  29  1   
  9   5   7  1   
 10   5   8  1   
 11   5   9  1   
 12   6  10  1   
 13   6  11  1   
 14   7  12  1   
 15   7  30  1   
 16   7  31  1   
 17   8  32  1   
 18   8  33  1   
 19   8  34  1   
 20   9  35  1   
 21   9  36  1   
 22   9  37  1   
 23  10  13  1   
 24  10  38  1   
 25  10  39  1   
 26  11  14  1   
 27  11  40  1   
 28  11  41  1   
 29  12  42  1   
 30  12  43  1   
 31  12  44  1   
 32  13  14  1   
 33  13  15  1   
 34  13  45  1   
 35  14  16  1   
 36  14  46  1   
 37  15  47  1   
 38  16  17  1   
 39  16  48  1   
 40  16  49  1   
 41  17  18  ar  
 42  17  19  ar  
 43  18  20  ar  
 44  18  21  ar  
 45  19  22  ar  
 46  19  50  1   
 47  20  23  ar  
 48  20  24  ar  
 49  21  25  ar  
 50  21  51  1   
 51  22  23  ar  
 52  22  52  1   
 53  24  26  ar  
 54  24  53  1   
 55  25  26  ar  
 56  25  54  1   
 57  26  55  1   
@<TRIPOS>SUBSTRUCTURE
  1 ****  11 GROUP 4 **** **** 0

# MOE 2024.06 (io_trps.svl 2023.06)
