@<TRIPOS>MOLECULE
NONAME
52 54 1 0 0 
SMALL
USER_CHARGES


@<TRIPOS>ATOM
  1 O       -0.9880    -0.2620     0.0400 O.2   1 <1>  -0.5700 
  2 C       -1.8720     0.4770    -0.3700 C.2   1 <1>   0.5440 
  3 N       -3.0300    -0.0480    -0.9370 N.am  1 <1>  -0.2980 
  4 C       -1.7540     1.9080    -0.2830 C.ar  1 <1>   0.0860 
  5 N       -4.0690     0.7180    -1.4110 N.2   1 <1>  -0.5120 
  6 C       -3.2020    -1.5200    -1.0600 C.3   1 <1>   0.1400 
  7 C       -2.8170     2.6780    -0.7720 C.ar  1 <1>   0.0860 
  8 C       -0.6420     2.5590     0.2610 C.ar  1 <1>  -0.1500 
  9 C       -3.9460     1.9940    -1.3230 C.2   1 <1>   0.3040 
 10 C       -3.9260    -2.0750     0.1670 C.3   1 <1>   0.1400 
 11 C       -2.7370     4.0740    -0.7060 C.ar  1 <1>  -0.1500 
 12 C       -0.5790     3.9350     0.3190 C.ar  1 <1>  -0.1500 
 13 N       -4.2050    -3.5230    -0.0070 N.am  1 <1>  -0.7300 
 14 C       -1.6320     4.6960    -0.1680 C.ar  1 <1>  -0.1500 
 15 C       -4.0570    -4.4750     0.9450 C.2   1 <1>   0.5690 
 16 O       -3.6920    -4.2130     2.0640 O.2   1 <1>  -0.5700 
 17 C       -4.3630    -5.9150     0.5990 C.3   1 <1>  -0.0990 
 18 C       -5.8780    -6.1750     0.5810 C.3   1 <1>   0.2510 
 19 N       -6.2380    -7.6270     0.7690 N.3   1 <1>  -0.8100 
 20 C       -6.6350    -5.5590    -0.6180 C.2   1 <1>   0.5690 
 21 C       -5.4270    -8.6210     0.0300 C.3   1 <1>   0.1900 
 22 C       -7.7200    -7.8670     0.7330 C.3   1 <1>   0.1100 
 23 O       -6.0900    -4.9340    -1.5000 O.2   1 <1>  -0.5700 
 24 N       -7.9690    -5.7770    -0.6500 N.am  1 <1>  -0.7300 
 25 C       -5.6720    -8.5860    -1.4820 C.3   1 <1>  -0.2400 
 26 C       -5.6630   -10.0190     0.6020 C.3   1 <1>  -0.2400 
 27 C       -8.6180    -6.6590     0.3530 C.3   1 <1>   0.1400 
 28 H       -2.2420    -1.9950    -1.1620 H     1 <1>   0.0800 
 29 H       -3.7810    -1.7240    -1.9430 H     1 <1>   0.0800 
 30 H        0.1740     1.9650     0.6380 H     1 <1>   0.1500 
 31 H       -4.7470     2.6120    -1.6880 H     1 <1>   0.0600 
 32 H       -4.8590    -1.5550     0.2980 H     1 <1>   0.0800 
 33 H       -3.3160    -1.9250     1.0420 H     1 <1>   0.0800 
 34 H       -3.5520     4.6680    -1.0820 H     1 <1>   0.1500 
 35 H        0.2850     4.4220     0.7400 H     1 <1>   0.1500 
 36 H       -4.7000    -3.7880    -0.8730 H     1 <1>   0.3700 
 37 H       -1.5780     5.7710    -0.1200 H     1 <1>   0.1500 
 38 H       -3.9080    -6.5280     1.3530 H     1 <1>   0.0800 
 39 H       -3.9270    -6.1490    -0.3540 H     1 <1>   0.0800 
 40 H       -6.2630    -5.6680     1.4480 H     1 <1>   0.0800 
 41 H       -4.3850    -8.4110     0.1980 H     1 <1>   0.0800 
 42 H       -8.0260    -8.2280     1.7000 H     1 <1>   0.0800 
 43 H       -7.9480    -8.6510     0.0360 H     1 <1>   0.0800 
 44 H       -8.5110    -5.4120    -1.4350 H     1 <1>   0.3700 
 45 H       -6.6960    -8.7920    -1.7260 H     1 <1>   0.0800 
 46 H       -5.0610    -9.3310    -1.9590 H     1 <1>   0.0800 
 47 H       -5.3950    -7.6330    -1.8910 H     1 <1>   0.0800 
 48 H       -6.6430   -10.3880     0.3660 H     1 <1>   0.0800 
 49 H       -5.5340   -10.0030     1.6700 H     1 <1>   0.0800 
 50 H       -4.9440   -10.7020     0.1880 H     1 <1>   0.0800 
 51 H       -8.8260    -6.0820     1.2380 H     1 <1>   0.0800 
 52 H       -9.5560    -7.0190    -0.0330 H     1 <1>   0.0800 
@<TRIPOS>BOND
  1   1   2  2   
  2   2   3  am  
  3   2   4  1   
  4   3   5  1   
  5   3   6  1   
  6   4   7  ar  
  7   4   8  ar  
  8   5   9  2   
  9   6  10  1   
 10   6  28  1   
 11   6  29  1   
 12   7   9  1   
 13   7  11  ar  
 14   8  12  ar  
 15   8  30  1   
 16   9  31  1   
 17  10  13  1   
 18  10  32  1   
 19  10  33  1   
 20  11  14  ar  
 21  11  34  1   
 22  12  14  ar  
 23  12  35  1   
 24  13  15  am  
 25  13  36  1   
 26  14  37  1   
 27  15  16  2   
 28  15  17  1   
 29  17  18  1   
 30  17  38  1   
 31  17  39  1   
 32  18  19  1   
 33  18  20  1   
 34  18  40  1   
 35  19  21  1   
 36  19  22  1   
 37  20  23  2   
 38  20  24  am  
 39  21  25  1   
 40  21  26  1   
 41  21  41  1   
 42  22  27  1   
 43  22  42  1   
 44  22  43  1   
 45  24  27  1   
 46  24  44  1   
 47  25  45  1   
 48  25  46  1   
 49  25  47  1   
 50  26  48  1   
 51  26  49  1   
 52  26  50  1   
 53  27  51  1   
 54  27  52  1   
@<TRIPOS>SUBSTRUCTURE
  1 ****  10 GROUP 4 **** **** 0

# MOE 2024.06 (io_trps.svl 2023.06)
