@<TRIPOS>MOLECULE
NONAME
45 48 1 0 0 
SMALL
USER_CHARGES


@<TRIPOS>ATOM
  1 O       -4.2580     2.8560    -1.0280 O.2   1 <1>  -0.5700 
  2 C       -3.1140     2.5210    -0.8400 C.2   1 <1>   0.5690 
  3 N       -2.6710     1.2820    -1.1690 N.am  1 <1>  -0.7300 
  4 C       -2.1490     3.5140    -0.2130 C.3   1 <1>   0.0440 
  5 C       -3.4910     0.1960    -1.7460 C.3   1 <1>   0.2200 
  6 C       -0.8990     2.8420     0.3490 C.ar  1 <1>  -0.1440 
  7 C       -3.7140    -0.8700    -0.6880 C.3   1 <1>  -0.0800 
  8 C       -2.6800    -0.5600    -2.7960 C.3   1 <1>   0.1200 
  9 C        0.2580     2.7670    -0.4210 C.ar  1 <1>  -0.1500 
 10 C       -0.9240     2.2850     1.6280 C.ar  1 <1>  -0.1500 
 11 C       -2.4250    -1.6860    -0.7970 C.3   1 <1>   0.1200 
 12 C       -4.9670    -1.7130    -0.9910 C.3   1 <1>  -0.0160 
 13 O       -1.9930    -1.5750    -2.1220 O.3   1 <1>  -0.5600 
 14 C        1.3560     2.1260     0.1150 C.ar  1 <1>   0.0820 
 15 C        0.1930     1.6450     2.1500 C.ar  1 <1>  -0.1500 
 16 C       -5.2020    -2.7690     0.0780 C.ar  1 <1>  -0.1440 
 17 O        2.5550     1.9320    -0.4430 O.3   1 <1>  -0.3630 
 18 C        1.3260     1.5800     1.3640 C.ar  1 <1>   0.0820 
 19 C       -4.9090    -4.1020    -0.1320 C.ar  1 <1>  -0.1500 
 20 C       -5.7230    -2.4470     1.3140 C.ar  1 <1>  -0.1500 
 21 C        3.3390     1.2170     0.5110 C.3   1 <1>   0.4000 
 22 O        2.5040     1.0170     1.6500 O.3   1 <1>  -0.3630 
 23 C       -5.1400    -5.0210     0.8790 C.ar  1 <1>   0.1600 
 24 C       -5.9160    -3.4440     2.2570 C.ar  1 <1>   0.1600 
 25 N       -5.6350    -4.7240     2.0690 N.ar  1 <1>  -0.6200 
 26 H       -1.7020     1.0300    -0.9510 H     1 <1>   0.3700 
 27 H       -1.8760     4.2360    -0.9600 H     1 <1>   0.0800 
 28 H       -2.6620     4.0390     0.5720 H     1 <1>   0.0800 
 29 H       -4.4070     0.5960    -2.1490 H     1 <1>   0.0800 
 30 H       -3.8160    -0.4340     0.2910 H     1 <1>   0.0800 
 31 H       -1.9770     0.0720    -3.3090 H     1 <1>   0.0800 
 32 H       -3.3320    -1.0320    -3.5100 H     1 <1>   0.0800 
 33 H        0.3160     3.1850    -1.4100 H     1 <1>   0.1500 
 34 H       -1.8190     2.3430     2.2240 H     1 <1>   0.1500 
 35 H       -2.5530    -2.7250    -0.5520 H     1 <1>   0.0800 
 36 H       -1.6570    -1.2650    -0.1710 H     1 <1>   0.0800 
 37 H       -4.8730    -2.1890    -1.9520 H     1 <1>   0.0800 
 38 H       -5.8290    -1.0690    -1.0320 H     1 <1>   0.0800 
 39 H        0.1890     1.2100     3.1330 H     1 <1>   0.1500 
 40 H       -4.5020    -4.4350    -1.0690 H     1 <1>   0.1500 
 41 H       -5.9800    -1.4320     1.5540 H     1 <1>   0.1500 
 42 H        3.6270     0.2650     0.1020 H     1 <1>   0.0800 
 43 H        4.1940     1.8070     0.7900 H     1 <1>   0.0800 
 44 H       -4.9040    -6.0560     0.6980 H     1 <1>   0.1500 
 45 H       -6.3230    -3.1740     3.2160 H     1 <1>   0.1500 
@<TRIPOS>BOND
  1   1   2  2   
  2   2   3  am  
  3   2   4  1   
  4   3   5  1   
  5   3  26  1   
  6   4   6  1   
  7   4  27  1   
  8   4  28  1   
  9   5   7  1   
 10   5   8  1   
 11   5  29  1   
 12   6   9  ar  
 13   6  10  ar  
 14   7  11  1   
 15   7  12  1   
 16   7  30  1   
 17   8  13  1   
 18   8  31  1   
 19   8  32  1   
 20   9  14  ar  
 21   9  33  1   
 22  10  15  ar  
 23  10  34  1   
 24  11  13  1   
 25  11  35  1   
 26  11  36  1   
 27  12  16  1   
 28  12  37  1   
 29  12  38  1   
 30  14  17  1   
 31  14  18  ar  
 32  15  18  ar  
 33  15  39  1   
 34  16  19  ar  
 35  16  20  ar  
 36  17  21  1   
 37  18  22  1   
 38  19  23  ar  
 39  19  40  1   
 40  20  24  ar  
 41  20  41  1   
 42  21  22  1   
 43  21  42  1   
 44  21  43  1   
 45  23  25  ar  
 46  23  44  1   
 47  24  25  ar  
 48  24  45  1   
@<TRIPOS>SUBSTRUCTURE
  1 ****  11 GROUP 4 **** **** 0

# MOE 2024.06 (io_trps.svl 2023.06)
