@<TRIPOS>MOLECULE
NONAME
58 61 1 0 0 
SMALL
USER_CHARGES


@<TRIPOS>ATOM
  1 O       -3.6600     2.4790    -1.2210 O.2   1 <1>  -0.5700 
  2 C       -3.1280     1.6650    -0.5010 C.2   1 <1>   0.5690 
  3 N       -3.4190     0.3270    -0.6350 N.am  1 <1>  -0.6600 
  4 C       -2.1340     2.2030     0.5410 C.3   1 <1>  -0.0190 
  5 C       -2.7930    -0.7630     0.2010 C.3   1 <1>   0.3640 
  6 C       -4.4820    -0.0630    -1.6140 C.3   1 <1>   0.1400 
  7 C       -2.7260     3.3640     1.3650 C.3   1 <1>  -0.1600 
  8 C       -0.8250     2.6620    -0.1270 C.3   1 <1>  -0.1600 
  9 C       -1.2920    -0.8340    -0.1000 C.ar  1 <1>  -0.1440 
 10 C       -3.4020    -2.1940     0.0580 C.3   1 <1>   0.2000 
 11 C       -4.5410    -1.5660    -1.8850 C.3   1 <1>   0.1200 
 12 C       -1.7170     3.8970     2.3870 C.3   1 <1>   0.1400 
 13 C        0.1700     3.1820     0.9100 C.3   1 <1>   0.1400 
 14 C       -0.3770    -0.9010     0.9430 C.ar  1 <1>  -0.1500 
 15 C       -0.8190    -0.8320    -1.4060 C.ar  1 <1>  -0.1500 
 16 O       -4.5980    -2.2400    -0.6720 O.3   1 <1>  -0.5600 
 17 C       -3.7040    -2.8330     1.4220 C.3   1 <1>   0.1200 
 18 N       -0.4580     4.2860     1.6900 N.am  1 <1>  -0.6600 
 19 C        0.9810    -0.9620     0.6870 C.ar  1 <1>  -0.1500 
 20 C        0.5390    -0.8950    -1.6640 C.ar  1 <1>  -0.1500 
 21 O       -2.5630    -2.8750     2.2190 O.3   1 <1>  -0.6800 
 22 C        0.0270     5.5710     1.7690 C.2   1 <1>   0.5770 
 23 C        1.4410    -0.9590    -0.6170 C.ar  1 <1>  -0.1500 
 24 O       -0.4620     6.3800     2.5240 O.2   1 <1>  -0.5700 
 25 C        1.2100     6.0120     0.9050 C.3   1 <1>   0.0530 
 26 C        1.5120     7.5380     0.8550 C.3   1 <1>   0.0000 
 27 C        0.8950     6.1160    -0.6130 C.3   1 <1>   0.0000 
 28 C        1.8420     7.3410    -0.6470 C.3   1 <1>   0.0000 
 29 H       -1.8900     1.4340     1.2440 H     1 <1>   0.0800 
 30 H       -2.9150    -0.4760     1.2310 H     1 <1>   0.0800 
 31 H       -5.4350     0.2590    -1.2330 H     1 <1>   0.0800 
 32 H       -4.3150     0.4520    -2.5450 H     1 <1>   0.0800 
 33 H       -3.6090     3.0290     1.8790 H     1 <1>   0.0800 
 34 H       -3.0140     4.1700     0.7120 H     1 <1>   0.0800 
 35 H       -1.0330     3.4390    -0.8420 H     1 <1>   0.0800 
 36 H       -0.3800     1.8410    -0.6590 H     1 <1>   0.0800 
 37 H       -2.7050    -2.8270    -0.4620 H     1 <1>   0.0800 
 38 H       -3.6840    -1.9010    -2.4420 H     1 <1>   0.0800 
 39 H       -5.4320    -1.8060    -2.4380 H     1 <1>   0.0800 
 40 H       -1.4930     3.1400     3.1190 H     1 <1>   0.0800 
 41 H       -2.1450     4.7400     2.9020 H     1 <1>   0.0800 
 42 H        1.0680     3.5040     0.4180 H     1 <1>   0.0800 
 43 H        0.4360     2.3860     1.5850 H     1 <1>   0.0800 
 44 H       -0.7180    -0.9100     1.9650 H     1 <1>   0.1500 
 45 H       -1.5070    -0.7740    -2.2310 H     1 <1>   0.1500 
 46 H       -4.0650    -3.8390     1.2960 H     1 <1>   0.0800 
 47 H       -4.4450    -2.2510     1.9430 H     1 <1>   0.0800 
 48 H        1.6810    -1.0150     1.5040 H     1 <1>   0.1500 
 49 H        0.8950    -0.8920    -2.6800 H     1 <1>   0.1500 
 50 H       -1.9270    -3.5380     1.8800 H     1 <1>   0.4000 
 51 H        2.4970    -1.0070    -0.8180 H     1 <1>   0.1500 
 52 H        2.1060     5.4440     1.0960 H     1 <1>   0.0000 
 53 H        0.6450     8.1620     0.9960 H     1 <1>   0.0000 
 54 H        2.3570     7.8360     1.4490 H     1 <1>   0.0000 
 55 H        1.2460     5.2820    -1.1940 H     1 <1>   0.0000 
 56 H       -0.1300     6.3790    -0.8130 H     1 <1>   0.0000 
 57 H        2.8700     7.0680    -0.8150 H     1 <1>   0.0000 
 58 H        1.4980     8.1410    -1.2780 H     1 <1>   0.0000 
@<TRIPOS>BOND
  1   1   2  2   
  2   2   3  am  
  3   2   4  1   
  4   3   5  1   
  5   3   6  1   
  6   4   7  1   
  7   4   8  1   
  8   4  29  1   
  9   5   9  1   
 10   5  10  1   
 11   5  30  1   
 12   6  11  1   
 13   6  31  1   
 14   6  32  1   
 15   7  12  1   
 16   7  33  1   
 17   7  34  1   
 18   8  13  1   
 19   8  35  1   
 20   8  36  1   
 21   9  14  ar  
 22   9  15  ar  
 23  10  16  1   
 24  10  17  1   
 25  10  37  1   
 26  11  16  1   
 27  11  38  1   
 28  11  39  1   
 29  12  18  1   
 30  12  40  1   
 31  12  41  1   
 32  13  18  1   
 33  13  42  1   
 34  13  43  1   
 35  14  19  ar  
 36  14  44  1   
 37  15  20  ar  
 38  15  45  1   
 39  17  21  1   
 40  17  46  1   
 41  17  47  1   
 42  18  22  am  
 43  19  23  ar  
 44  19  48  1   
 45  20  23  ar  
 46  20  49  1   
 47  21  50  1   
 48  22  24  2   
 49  22  25  1   
 50  23  51  1   
 51  25  26  1   
 52  25  27  1   
 53  25  52  1   
 54  26  28  1   
 55  26  53  1   
 56  26  54  1   
 57  27  28  1   
 58  27  55  1   
 59  27  56  1   
 60  28  57  1   
 61  28  58  1   
@<TRIPOS>SUBSTRUCTURE
  1 ****   4 GROUP 4 **** **** 0

# MOE 2024.06 (io_trps.svl 2023.06)
