@<TRIPOS>MOLECULE
NONAME
46 49 1 0 0 
SMALL
USER_CHARGES


@<TRIPOS>ATOM
  1 O        0.7540     0.0540     0.7120 O.3   1 <1>  -0.0190 
  2 N        1.1430    -1.1450     0.4840 N.2   1 <1>  -0.4100 
  3 C        1.7320     0.8940     0.5070 C.2   1 <1>   0.4250 
  4 C        2.3640    -0.9980     0.1420 C.2   1 <1>   0.3350 
  5 N        2.7940     0.2650     0.1370 N.2   1 <1>  -0.5650 
  6 C        1.5490     2.3140     0.6960 C.ar  1 <1>   0.0530 
  7 C        3.2900    -2.1290    -0.2360 C.3   1 <1>  -0.0590 
  8 C        2.5660     3.2280     0.4790 C.ar  1 <1>  -0.1500 
  9 C        0.3450     2.8750     1.1090 C.ar  1 <1>  -0.1500 
 10 C        2.3620     4.5870     0.6660 C.ar  1 <1>   0.4100 
 11 C        0.2330     4.2400     1.2710 C.ar  1 <1>   0.1600 
 12 N        1.2080     5.1070     1.0590 N.ar  1 <1>  -0.6200 
 13 N        3.3960     5.4600     0.4470 N.pl3 1 <1>  -0.8690 
 14 C        3.1400     6.8780     0.1300 C.3   1 <1>   0.3890 
 15 C        4.2640     7.4370    -0.7360 C.2   1 <1>   0.0070 
 16 N        5.1260     6.7230    -1.3840 N.2   1 <1>  -0.3380 
 17 N        4.4760     8.7460    -0.9230 N.pl3 1 <1>   0.0480 
 18 N        5.9400     7.5650    -2.0180 N.2   1 <1>  -0.3380 
 19 C        5.5400     8.7540    -1.7310 C.2   1 <1>   0.0370 
 20 C        3.7370     9.9140    -0.3780 C.3   1 <1>   0.1760 
 21 C        3.2340    10.8210    -1.5140 C.3   1 <1>  -0.1600 
 22 C        4.6210    10.6940     0.6080 C.3   1 <1>  -0.1600 
 23 C        2.4880    12.0410    -0.9530 C.3   1 <1>  -0.1600 
 24 C        3.8780    11.9160     1.1670 C.3   1 <1>  -0.1600 
 25 C        3.3650    12.8190     0.0370 C.3   1 <1>  -0.1600 
 26 H        2.7710    -3.0680    -0.1770 H     1 <1>   0.0800 
 27 H        4.1290    -2.1460     0.4340 H     1 <1>   0.0800 
 28 H        3.6430    -1.9840    -1.2400 H     1 <1>   0.0800 
 29 H        3.5340     2.8860     0.1630 H     1 <1>   0.1500 
 30 H       -0.5050     2.2470     1.3050 H     1 <1>   0.1500 
 31 H       -0.7100     4.6470     1.5940 H     1 <1>   0.1500 
 32 H        4.1710     5.1190    -0.1350 H     1 <1>   0.4000 
 33 H        3.0720     7.4250     1.0530 H     1 <1>   0.0800 
 34 H        2.2080     6.9730    -0.4010 H     1 <1>   0.0800 
 35 H        5.9990     9.6560    -2.0910 H     1 <1>   0.1500 
 36 H        2.8780     9.5510     0.1580 H     1 <1>   0.0800 
 37 H        2.5720    10.2650    -2.1550 H     1 <1>   0.0800 
 38 H        4.0650    11.1680    -2.1030 H     1 <1>   0.0800 
 39 H        5.5150    11.0290     0.1100 H     1 <1>   0.0800 
 40 H        4.9090    10.0510     1.4230 H     1 <1>   0.0800 
 41 H        1.5900    11.7160    -0.4550 H     1 <1>   0.0800 
 42 H        2.1980    12.6890    -1.7620 H     1 <1>   0.0800 
 43 H        4.5380    12.4780     1.8060 H     1 <1>   0.0800 
 44 H        3.0450    11.5870     1.7660 H     1 <1>   0.0800 
 45 H        2.7980    13.6320     0.4570 H     1 <1>   0.0800 
 46 H        4.2040    13.2450    -0.4870 H     1 <1>   0.0800 
@<TRIPOS>BOND
  1   1   2  1   
  2   1   3  1   
  3   2   4  2   
  4   3   5  2   
  5   3   6  1   
  6   4   5  1   
  7   4   7  1   
  8   6   8  ar  
  9   6   9  ar  
 10   7  26  1   
 11   7  27  1   
 12   7  28  1   
 13   8  10  ar  
 14   8  29  1   
 15   9  11  ar  
 16   9  30  1   
 17  10  12  ar  
 18  10  13  1   
 19  11  12  ar  
 20  11  31  1   
 21  13  14  1   
 22  13  32  1   
 23  14  15  1   
 24  14  33  1   
 25  14  34  1   
 26  15  16  2   
 27  15  17  1   
 28  16  18  1   
 29  17  19  1   
 30  17  20  1   
 31  18  19  2   
 32  19  35  1   
 33  20  21  1   
 34  20  22  1   
 35  20  36  1   
 36  21  23  1   
 37  21  37  1   
 38  21  38  1   
 39  22  24  1   
 40  22  39  1   
 41  22  40  1   
 42  23  25  1   
 43  23  41  1   
 44  23  42  1   
 45  24  25  1   
 46  24  43  1   
 47  24  44  1   
 48  25  45  1   
 49  25  46  1   
@<TRIPOS>SUBSTRUCTURE
  1 ****  13 GROUP 4 **** **** 0

# MOE 2024.06 (io_trps.svl 2023.06)
