@<TRIPOS>MOLECULE
NONAME
45 46 1 0 0 
SMALL
USER_CHARGES


@<TRIPOS>ATOM
  1 O       -1.3640     0.4920     1.5160 O.2   1 <1>  -0.5700 
  2 C       -2.3180     1.2480     1.5620 C.2   1 <1>   0.5440 
  3 N       -3.5840     0.7220     1.6700 N.am  1 <1>  -0.6600 
  4 C       -2.1000     2.6750     1.4370 C.ar  1 <1>   0.0860 
  5 C       -3.7870    -0.7180     2.0080 C.3   1 <1>   0.3200 
  6 C       -4.7850     1.4260     1.1260 C.3   1 <1>   0.1400 
  7 C       -1.4660     3.1960     0.3120 C.ar  1 <1>  -0.1500 
  8 C       -2.5100     3.5690     2.4240 C.ar  1 <1>  -0.1500 
  9 C       -3.7190    -1.5680     0.7520 C.2   1 <1>   0.0070 
 10 C       -4.8190     1.3340    -0.4050 C.3   1 <1>   0.1200 
 11 C       -1.2490     4.5570     0.1650 C.ar  1 <1>  -0.1440 
 12 C       -2.3050     4.9290     2.2860 C.ar  1 <1>  -0.1500 
 13 N       -4.7180    -2.1920     0.2140 N.2   1 <1>  -0.5650 
 14 N       -2.5600    -1.7210     0.0810 N.pl3 1 <1>   0.0330 
 15 O       -5.7260     2.2590    -0.9010 O.3   1 <1>  -0.6800 
 16 C       -1.6780     5.4260     1.1580 C.ar  1 <1>  -0.1500 
 17 C       -0.5470     5.0860    -1.0710 C.3   1 <1>   0.4860 
 18 C       -4.1760    -2.7900    -0.8660 C.2   1 <1>   0.0770 
 19 C       -2.8580    -2.5120    -0.9640 C.2   1 <1>  -0.3020 
 20 N        0.8730     5.3840    -0.7250 N.4   1 <1>  -0.9590 
 21 C        1.5590     6.1150    -1.8320 C.3   1 <1>   0.2630 
 22 C        1.6280     4.1470    -0.3450 C.3   1 <1>   0.2630 
 23 H       -4.7440    -0.8510     2.4810 H     1 <1>   0.0800 
 24 H       -3.0280    -1.0400     2.6990 H     1 <1>   0.0800 
 25 H       -4.7560     2.4610     1.4170 H     1 <1>   0.0800 
 26 H       -5.6790     0.9860     1.5320 H     1 <1>   0.0800 
 27 H       -1.1500     2.5030    -0.4490 H     1 <1>   0.1500 
 28 H       -2.9960     3.1880     3.3060 H     1 <1>   0.1500 
 29 H       -5.1130     0.3520    -0.7350 H     1 <1>   0.0800 
 30 H       -3.8570     1.5790    -0.8180 H     1 <1>   0.0800 
 31 H       -2.6380     5.6020     3.0600 H     1 <1>   0.1500 
 32 H       -1.6690    -1.2770     0.3440 H     1 <1>   0.2700 
 33 H       -6.6430     1.9340    -0.7900 H     1 <1>   0.4000 
 34 H       -1.5370     6.4900     1.0680 H     1 <1>   0.1500 
 35 H       -1.0450     5.9830    -1.4040 H     1 <1>   0.0800 
 36 H       -0.5940     4.3560    -1.8630 H     1 <1>   0.0800 
 37 H       -4.7730    -3.3990    -1.5260 H     1 <1>   0.1500 
 38 H       -2.1370    -2.8230    -1.6980 H     1 <1>   0.1500 
 39 H        0.8410     5.9910     0.1090 H     1 <1>   0.4500 
 40 H        1.6000     5.5030    -2.7180 H     1 <1>   0.0800 
 41 H        2.5670     6.3700    -1.5440 H     1 <1>   0.0800 
 42 H        1.0310     7.0260    -2.0650 H     1 <1>   0.0800 
 43 H        1.6540     3.4530    -1.1700 H     1 <1>   0.0800 
 44 H        1.1580     3.6630     0.4970 H     1 <1>   0.0800 
 45 H        2.6410     4.3950    -0.0710 H     1 <1>   0.0800 
@<TRIPOS>BOND
  1   1   2  2   
  2   2   3  am  
  3   2   4  1   
  4   3   5  1   
  5   3   6  1   
  6   4   7  ar  
  7   4   8  ar  
  8   5   9  1   
  9   5  23  1   
 10   5  24  1   
 11   6  10  1   
 12   6  25  1   
 13   6  26  1   
 14   7  11  ar  
 15   7  27  1   
 16   8  12  ar  
 17   8  28  1   
 18   9  13  2   
 19   9  14  1   
 20  10  15  1   
 21  10  29  1   
 22  10  30  1   
 23  11  16  ar  
 24  11  17  1   
 25  12  16  ar  
 26  12  31  1   
 27  13  18  1   
 28  14  19  1   
 29  14  32  1   
 30  15  33  1   
 31  16  34  1   
 32  17  20  1   
 33  17  35  1   
 34  17  36  1   
 35  18  19  2   
 36  18  37  1   
 37  19  38  1   
 38  20  21  1   
 39  20  22  1   
 40  20  39  1   
 41  21  40  1   
 42  21  41  1   
 43  21  42  1   
 44  22  43  1   
 45  22  44  1   
 46  22  45  1   
@<TRIPOS>SUBSTRUCTURE
  1 ****   2 GROUP 4 **** **** 0

# MOE 2024.06 (io_trps.svl 2023.06)
