@<TRIPOS>MOLECULE
NONAME
61 63 1 0 0 
SMALL
USER_CHARGES


@<TRIPOS>ATOM
  1 CL       2.3580    -4.6230    -2.1480 Cl    1 <1>  -0.1770 
  2 C        2.8530    -3.6010    -0.8210 C.ar  1 <1>   0.1770 
  3 C        1.9020    -2.9020    -0.0800 C.ar  1 <1>   0.0860 
  4 C        4.2050    -3.5160    -0.5440 C.ar  1 <1>  -0.1500 
  5 C        0.4890    -3.0060    -0.3590 C.2   1 <1>   0.5440 
  6 C        2.3690    -2.0890     0.9520 C.ar  1 <1>  -0.1500 
  7 C        4.6410    -2.7110     0.4930 C.ar  1 <1>  -0.1500 
  8 O       -0.0820    -2.0480    -0.8460 O.2   1 <1>  -0.5700 
  9 N       -0.2390    -4.1390    -0.0520 N.am  1 <1>  -0.6600 
 10 C        3.7200    -1.9950     1.2390 C.ar  1 <1>  -0.1500 
 11 C       -1.6330    -4.3120    -0.5460 C.3   1 <1>   0.1400 
 12 C        0.2720    -5.2350     0.8180 C.3   1 <1>   0.1400 
 13 C       -1.7700    -5.6610    -1.2570 C.3   1 <1>  -0.1600 
 14 C        0.1170    -6.5870     0.1150 C.3   1 <1>  -0.1600 
 15 C       -1.3340    -6.8270    -0.3510 C.3   1 <1>  -0.0190 
 16 C       -1.5180    -8.1750    -1.0670 C.2   1 <1>   0.5690 
 17 O       -0.5620    -8.6590    -1.6240 O.2   1 <1>  -0.5700 
 18 N       -2.7350    -8.8160    -1.0750 N.am  1 <1>  -0.6600 
 19 C       -2.9200   -10.0450    -1.9190 C.3   1 <1>   0.3210 
 20 C       -3.9550    -8.3920    -0.3320 C.3   1 <1>   0.1400 
 21 C       -3.1600   -11.2910    -1.0670 C.2   1 <1>   0.0460 
 22 C       -3.9390    -8.9710     1.0960 C.3   1 <1>   0.3430 
 23 N       -4.3830   -11.5940    -0.5690 N.2   1 <1>  -0.5650 
 24 C       -2.2560   -12.2380    -0.7250 C.2   1 <1>  -0.3320 
 25 N       -5.2680    -8.8570     1.7900 N.4   1 <1>  -0.9590 
 26 C       -4.1980   -12.7280     0.0290 C.2   1 <1>   0.0360 
 27 N       -2.9250   -13.1710    -0.0250 N.pl3 1 <1>   0.0330 
 28 C       -0.7690   -12.3450    -1.0260 C.3   1 <1>  -0.0600 
 29 C       -5.1130    -9.1530     3.2460 C.3   1 <1>   0.2630 
 30 C       -6.2570    -9.8100     1.1860 C.3   1 <1>   0.2630 
 31 H        4.9060    -4.0740    -1.1380 H     1 <1>   0.1500 
 32 H        1.6560    -1.5250     1.5290 H     1 <1>   0.1500 
 33 H        5.6930    -2.6380     0.7170 H     1 <1>   0.1500 
 34 H        4.0570    -1.3610     2.0430 H     1 <1>   0.1500 
 35 H       -1.8920    -3.5250    -1.2350 H     1 <1>   0.0800 
 36 H       -2.3080    -4.2560     0.2900 H     1 <1>   0.0800 
 37 H       -0.2890    -5.2350     1.7360 H     1 <1>   0.0800 
 38 H        1.3070    -5.0810     1.0670 H     1 <1>   0.0800 
 39 H       -1.1580    -5.6460    -2.1430 H     1 <1>   0.0800 
 40 H       -2.7880    -5.7890    -1.5730 H     1 <1>   0.0800 
 41 H        0.4200    -7.3730     0.7830 H     1 <1>   0.0800 
 42 H        0.7810    -6.6120    -0.7320 H     1 <1>   0.0800 
 43 H       -1.9450    -6.8230     0.5300 H     1 <1>   0.0800 
 44 H       -2.0620   -10.2120    -2.5440 H     1 <1>   0.0800 
 45 H       -3.7590    -9.9060    -2.5770 H     1 <1>   0.0800 
 46 H       -4.8170    -8.7510    -0.8660 H     1 <1>   0.0800 
 47 H       -4.0120    -7.3200    -0.2940 H     1 <1>   0.0800 
 48 H       -3.1890    -8.4480     1.6650 H     1 <1>   0.0800 
 49 H       -3.6530   -10.0090     1.0510 H     1 <1>   0.0800 
 50 H       -5.6240    -7.8960     1.6850 H     1 <1>   0.4500 
 51 H       -4.9690   -13.2920     0.5250 H     1 <1>   0.1500 
 52 H       -2.5520   -14.0440     0.3630 H     1 <1>   0.2700 
 53 H       -0.4190   -11.4740    -1.5510 H     1 <1>   0.0800 
 54 H       -0.5730   -13.2100    -1.6350 H     1 <1>   0.0800 
 55 H       -0.2080   -12.4290    -0.1120 H     1 <1>   0.0800 
 56 H       -4.7400   -10.1550     3.3860 H     1 <1>   0.0800 
 57 H       -6.0620    -9.0650     3.7490 H     1 <1>   0.0800 
 58 H       -4.4200    -8.4610     3.6990 H     1 <1>   0.0800 
 59 H       -5.9040   -10.8250     1.2840 H     1 <1>   0.0800 
 60 H       -6.3950    -9.6050     0.1370 H     1 <1>   0.0800 
 61 H       -7.2110    -9.7280     1.6810 H     1 <1>   0.0800 
@<TRIPOS>BOND
  1   1   2  1   
  2   2   3  ar  
  3   2   4  ar  
  4   3   5  1   
  5   3   6  ar  
  6   4   7  ar  
  7   4  31  1   
  8   5   8  2   
  9   5   9  am  
 10   6  10  ar  
 11   6  32  1   
 12   7  10  ar  
 13   7  33  1   
 14   9  11  1   
 15   9  12  1   
 16  10  34  1   
 17  11  13  1   
 18  11  35  1   
 19  11  36  1   
 20  12  14  1   
 21  12  37  1   
 22  12  38  1   
 23  13  15  1   
 24  13  39  1   
 25  13  40  1   
 26  14  15  1   
 27  14  41  1   
 28  14  42  1   
 29  15  16  1   
 30  15  43  1   
 31  16  17  2   
 32  16  18  am  
 33  18  19  1   
 34  18  20  1   
 35  19  21  1   
 36  19  44  1   
 37  19  45  1   
 38  20  22  1   
 39  20  46  1   
 40  20  47  1   
 41  21  23  1   
 42  21  24  2   
 43  22  25  1   
 44  22  48  1   
 45  22  49  1   
 46  23  26  2   
 47  24  27  1   
 48  24  28  1   
 49  25  29  1   
 50  25  30  1   
 51  25  50  1   
 52  26  27  1   
 53  26  51  1   
 54  27  52  1   
 55  28  53  1   
 56  28  54  1   
 57  28  55  1   
 58  29  56  1   
 59  29  57  1   
 60  29  58  1   
 61  30  59  1   
 62  30  60  1   
 63  30  61  1   
@<TRIPOS>SUBSTRUCTURE
  1 ****  15 GROUP 4 **** **** 0

# MOE 2024.06 (io_trps.svl 2023.06)
