@<TRIPOS>MOLECULE
NONAME
51 53 1 0 0 
SMALL
USER_CHARGES


@<TRIPOS>ATOM
  1 O        0.7480    -3.6300     1.2790 O.3   1 <1>  -0.6800 
  2 C        0.5850    -2.2940     0.9460 C.3   1 <1>   0.2000 
  3 C        1.7580    -1.8550     0.0500 C.3   1 <1>   0.0000 
  4 C       -0.6700    -2.1630     0.0840 C.3   1 <1>  -0.1600 
  5 C        3.0770    -2.5250     0.5130 C.3   1 <1>   0.3430 
  6 C        1.9000    -0.3140     0.0650 C.3   1 <1>  -0.1600 
  7 C        1.3200    -2.3520    -1.3450 C.3   1 <1>  -0.1600 
  8 C       -0.2100    -2.2640    -1.3760 C.3   1 <1>  -0.1600 
  9 N        4.3040    -1.6890     0.2830 N.4   1 <1>  -0.9590 
 10 C        3.0960     0.1770    -0.7780 C.3   1 <1>  -0.1600 
 11 C        4.2130    -0.8610    -0.9480 C.3   1 <1>   0.3430 
 12 C        5.5350    -2.5210     0.3200 C.3   1 <1>   0.4860 
 13 C        6.7360    -1.5980     0.3590 C.ar  1 <1>  -0.1440 
 14 C        7.5260    -1.4280    -0.7690 C.ar  1 <1>  -0.1500 
 15 C        7.0540    -0.9080     1.5190 C.ar  1 <1>  -0.1500 
 16 C        8.6080    -0.5680    -0.7380 C.ar  1 <1>  -0.1500 
 17 C        8.1370    -0.0490     1.5440 C.ar  1 <1>  -0.1500 
 18 C        8.9230     0.1330     0.4170 C.ar  1 <1>  -0.1440 
 19 C       10.1170     1.0860     0.4650 C.3   1 <1>   0.0630 
 20 C        9.9420     2.2330    -0.5350 C.3   1 <1>  -0.2400 
 21 C       11.4270     0.3350     0.2080 C.3   1 <1>  -0.2400 
 22 H       -0.0830    -3.9840     1.6570 H     1 <1>   0.4000 
 23 H        0.5140    -1.7270     1.8600 H     1 <1>   0.0800 
 24 H       -1.4130    -2.9040     0.3250 H     1 <1>   0.0800 
 25 H       -1.1020    -1.1910     0.2420 H     1 <1>   0.0800 
 26 H        3.1700    -3.4700     0.0040 H     1 <1>   0.0800 
 27 H        2.9980    -2.7420     1.5660 H     1 <1>   0.0800 
 28 H        0.9980     0.1600    -0.2860 H     1 <1>   0.0800 
 29 H        2.0460     0.0060     1.0830 H     1 <1>   0.0800 
 30 H        1.7540    -1.8030    -2.1610 H     1 <1>   0.0800 
 31 H        1.5890    -3.3900    -1.4580 H     1 <1>   0.0800 
 32 H       -0.6280    -3.1350    -1.8520 H     1 <1>   0.0800 
 33 H       -0.5260    -1.3900    -1.9200 H     1 <1>   0.0800 
 34 H        4.3840    -1.0210     1.0580 H     1 <1>   0.4500 
 35 H        3.5040     1.0680    -0.3330 H     1 <1>   0.0800 
 36 H        2.7520     0.4540    -1.7600 H     1 <1>   0.0800 
 37 H        5.1450    -0.3530    -1.1390 H     1 <1>   0.0800 
 38 H        3.9930    -1.4960    -1.7910 H     1 <1>   0.0800 
 39 H        5.5380    -3.1430     1.2000 H     1 <1>   0.0800 
 40 H        5.5840    -3.1560    -0.5490 H     1 <1>   0.0800 
 41 H        7.3140    -1.9590    -1.6810 H     1 <1>   0.1500 
 42 H        6.4710    -1.0300     2.4160 H     1 <1>   0.1500 
 43 H        9.2120    -0.4450    -1.6210 H     1 <1>   0.1500 
 44 H        8.3710     0.4800     2.4530 H     1 <1>   0.1500 
 45 H       10.1760     1.5180     1.4500 H     1 <1>   0.0800 
 46 H        9.9290     1.8650    -1.5440 H     1 <1>   0.0800 
 47 H       10.7500     2.9370    -0.4370 H     1 <1>   0.0800 
 48 H        9.0170     2.7480    -0.3440 H     1 <1>   0.0800 
 49 H       11.4480    -0.0740    -0.7850 H     1 <1>   0.0800 
 50 H       11.5320    -0.4700     0.9140 H     1 <1>   0.0800 
 51 H       12.2650     1.0000     0.3230 H     1 <1>   0.0800 
@<TRIPOS>BOND
  1   1   2  1   
  2   1  22  1   
  3   2   3  1   
  4   2   4  1   
  5   2  23  1   
  6   3   5  1   
  7   3   6  1   
  8   3   7  1   
  9   4   8  1   
 10   4  24  1   
 11   4  25  1   
 12   5   9  1   
 13   5  26  1   
 14   5  27  1   
 15   6  10  1   
 16   6  28  1   
 17   6  29  1   
 18   7   8  1   
 19   7  30  1   
 20   7  31  1   
 21   8  32  1   
 22   8  33  1   
 23   9  11  1   
 24   9  12  1   
 25   9  34  1   
 26  10  11  1   
 27  10  35  1   
 28  10  36  1   
 29  11  37  1   
 30  11  38  1   
 31  12  13  1   
 32  12  39  1   
 33  12  40  1   
 34  13  14  ar  
 35  13  15  ar  
 36  14  16  ar  
 37  14  41  1   
 38  15  17  ar  
 39  15  42  1   
 40  16  18  ar  
 41  16  43  1   
 42  17  18  ar  
 43  17  44  1   
 44  18  19  1   
 45  19  20  1   
 46  19  21  1   
 47  19  45  1   
 48  20  46  1   
 49  20  47  1   
 50  20  48  1   
 51  21  49  1   
 52  21  50  1   
 53  21  51  1   
@<TRIPOS>SUBSTRUCTURE
  1 ****   9 GROUP 4 **** **** 0

# MOE 2024.06 (io_trps.svl 2023.06)
