@<TRIPOS>MOLECULE
NONAME
56 59 1 0 0 
SMALL
USER_CHARGES


@<TRIPOS>ATOM
  1 O       -0.1230     1.6060    -1.9620 O.3   1 <1>  -0.6800 
  2 C       -0.3960     2.6410    -1.0910 C.3   1 <1>   0.2000 
  3 C       -0.8720     3.8490    -1.8960 C.3   1 <1>  -0.1600 
  4 C        0.8810     2.9600    -0.3160 C.3   1 <1>  -0.1600 
  5 C       -1.0770     5.0530    -0.9740 C.3   1 <1>   0.2090 
  6 C        0.6640     4.1680     0.5940 C.3   1 <1>   0.2090 
  7 N        0.1700     5.3180    -0.2070 N.pl3 1 <1>  -0.8380 
  8 C        0.3830     6.5860     0.2930 C.ar  1 <1>   0.4100 
  9 N       -0.6730     7.2930     0.6550 N.ar  1 <1>  -0.6200 
 10 C        1.6530     7.0930     0.4160 C.ar  1 <1>  -0.1500 
 11 C       -0.4080     8.4900     1.1390 C.ar  1 <1>   0.4700 
 12 C        1.8050     8.3570     0.9270 C.ar  1 <1>   0.4100 
 13 N        0.7630     9.0750     1.3010 N.ar  1 <1>  -0.6200 
 14 N        3.0530     8.9130     1.0600 N.pl3 1 <1>  -0.8690 
 15 C        3.2450    10.3640     1.2760 C.3   1 <1>   0.2090 
 16 C        4.7140    10.7350     1.0580 C.3   1 <1>  -0.0800 
 17 C        4.9520    12.2340     1.2280 C.3   1 <1>   0.2090 
 18 C        5.2330    10.4290    -0.3480 C.3   1 <1>  -0.1600 
 19 N        6.0450    12.5830     0.2870 N.pl3 1 <1>  -0.8380 
 20 C        6.3800    11.4080    -0.5500 C.3   1 <1>   0.2090 
 21 C        5.9310    13.8100    -0.3700 C.ar  1 <1>   0.1000 
 22 C        6.8010    14.8610    -0.0760 C.ar  1 <1>  -0.1440 
 23 C        4.9440    14.0060    -1.3320 C.ar  1 <1>  -0.1500 
 24 C        6.6730    16.0720    -0.7370 C.ar  1 <1>  -0.1500 
 25 C        7.8920    14.6830     0.9700 C.3   1 <1>  -0.0970 
 26 C        4.8200    15.2150    -1.9900 C.ar  1 <1>  -0.1500 
 27 C        5.6870    16.2520    -1.6920 C.ar  1 <1>  -0.1500 
 28 H       -0.9070     1.4070    -2.5080 H     1 <1>   0.4000 
 29 H       -1.1670     2.3140    -0.4140 H     1 <1>   0.0800 
 30 H       -1.7990     3.6250    -2.3880 H     1 <1>   0.0800 
 31 H       -0.1360     4.1100    -2.6360 H     1 <1>   0.0800 
 32 H        1.6800     3.1820    -1.0010 H     1 <1>   0.0800 
 33 H        1.1640     2.1120     0.2800 H     1 <1>   0.0800 
 34 H       -1.8820     4.8640    -0.2840 H     1 <1>   0.0800 
 35 H       -1.3310     5.9200    -1.5610 H     1 <1>   0.0800 
 36 H        1.5870     4.4250     1.0840 H     1 <1>   0.0800 
 37 H       -0.0640     3.9320     1.3530 H     1 <1>   0.0800 
 38 H        2.4960     6.5110     0.1120 H     1 <1>   0.1500 
 39 H       -1.2640     9.0690     1.4420 H     1 <1>   0.1500 
 40 H        3.8030     8.4690     0.5300 H     1 <1>   0.4000 
 41 H        2.9430    10.6120     2.2800 H     1 <1>   0.0800 
 42 H        2.6200    10.9120     0.5890 H     1 <1>   0.0800 
 43 H        5.3200    10.2240     1.7860 H     1 <1>   0.0800 
 44 H        5.2450    12.4680     2.2370 H     1 <1>   0.0800 
 45 H        4.0680    12.7960     0.9800 H     1 <1>   0.0800 
 46 H        4.4730    10.6320    -1.0810 H     1 <1>   0.0800 
 47 H        5.5630     9.4120    -0.4540 H     1 <1>   0.0800 
 48 H        6.4930    11.6800    -1.5870 H     1 <1>   0.0800 
 49 H        7.3030    10.9850    -0.1930 H     1 <1>   0.0800 
 50 H        4.2720    13.2020    -1.5620 H     1 <1>   0.1500 
 51 H        7.3410    16.8830    -0.5130 H     1 <1>   0.1500 
 52 H        8.5410    13.8770     0.6780 H     1 <1>   0.0800 
 53 H        7.4470    14.4390     1.9170 H     1 <1>   0.0800 
 54 H        8.4780    15.5770     1.0810 H     1 <1>   0.0800 
 55 H        4.0530    15.3510    -2.7310 H     1 <1>   0.1500 
 56 H        5.5950    17.1950    -2.2000 H     1 <1>   0.1500 
@<TRIPOS>BOND
  1   1   2  1   
  2   1  28  1   
  3   2   3  1   
  4   2   4  1   
  5   2  29  1   
  6   3   5  1   
  7   3  30  1   
  8   3  31  1   
  9   4   6  1   
 10   4  32  1   
 11   4  33  1   
 12   5   7  1   
 13   5  34  1   
 14   5  35  1   
 15   6   7  1   
 16   6  36  1   
 17   6  37  1   
 18   7   8  1   
 19   8   9  ar  
 20   8  10  ar  
 21   9  11  ar  
 22  10  12  ar  
 23  10  38  1   
 24  11  13  ar  
 25  11  39  1   
 26  12  13  ar  
 27  12  14  1   
 28  14  15  1   
 29  14  40  1   
 30  15  16  1   
 31  15  41  1   
 32  15  42  1   
 33  16  17  1   
 34  16  18  1   
 35  16  43  1   
 36  17  19  1   
 37  17  44  1   
 38  17  45  1   
 39  18  20  1   
 40  18  46  1   
 41  18  47  1   
 42  19  20  1   
 43  19  21  1   
 44  20  48  1   
 45  20  49  1   
 46  21  22  ar  
 47  21  23  ar  
 48  22  24  ar  
 49  22  25  1   
 50  23  26  ar  
 51  23  50  1   
 52  24  27  ar  
 53  24  51  1   
 54  25  52  1   
 55  25  53  1   
 56  25  54  1   
 57  26  27  ar  
 58  26  55  1   
 59  27  56  1   
@<TRIPOS>SUBSTRUCTURE
  1 ****  14 GROUP 4 **** **** 0

# MOE 2024.06 (io_trps.svl 2023.06)
