@<TRIPOS>MOLECULE
NONAME
50 52 1 0 0 
SMALL
USER_CHARGES


@<TRIPOS>ATOM
  1 O       -1.4540     1.4020    -1.8830 O.co2 1 <1>  -0.9000 
  2 C       -1.6660     1.3430    -0.6680 C.2   1 <1>   0.9060 
  3 O       -2.3940     0.4890    -0.1530 O.co2 1 <1>  -0.9000 
  4 C       -1.0340     2.3810     0.2340 C.3   1 <1>  -0.1060 
  5 C       -2.1640     2.9630     1.1100 C.3   1 <1>   0.2000 
  6 C       -0.5760     3.5120    -0.6920 C.3   1 <1>   0.3430 
  7 C        0.1110     1.6940     1.0520 C.3   1 <1>  -0.0170 
  8 O       -2.4580     2.0690     2.1160 O.3   1 <1>  -0.6800 
  9 C       -1.8530     4.3360     1.7310 C.3   1 <1>  -0.1600 
 10 N       -0.0940     4.7300     0.0380 N.4   1 <1>  -0.9590 
 11 C        1.5240     1.8520     0.4930 C.ar  1 <1>  -0.1440 
 12 C       -0.4130     4.7850     1.4900 C.3   1 <1>   0.3430 
 13 C        1.3500     4.9700    -0.2230 C.3   1 <1>   0.5240 
 14 C        2.5330     2.3600     1.3000 C.ar  1 <1>  -0.1500 
 15 C        1.8240     1.4810    -0.8090 C.ar  1 <1>  -0.1500 
 16 C        1.5760     6.4790    -0.2530 C.2   1 <1>   0.1080 
 17 C        3.8110     2.5380     0.7980 C.ar  1 <1>  -0.1500 
 18 C        3.1000     1.6610    -1.3130 C.ar  1 <1>  -0.1500 
 19 N        0.6060     7.3430    -0.3810 N.2   1 <1>  -0.7070 
 20 C        2.8160     7.0970    -0.1520 C.2   1 <1>  -0.1500 
 21 C        4.0930     2.1960    -0.5120 C.ar  1 <1>  -0.1500 
 22 N        1.2130     8.5480    -0.3720 N.pl3 1 <1>   0.3140 
 23 C        2.5460     8.4170    -0.2310 C.2   1 <1>  -0.3020 
 24 C        0.4650     9.8160    -0.5070 C.3   1 <1>   0.0960 
 25 C        0.4490    10.2960    -1.9640 C.3   1 <1>  -0.2400 
 26 H       -3.0600     3.0560     0.5160 H     1 <1>   0.0800 
 27 H       -1.4190     3.7860    -1.3060 H     1 <1>   0.0800 
 28 H        0.1790     3.1430    -1.3640 H     1 <1>   0.0800 
 29 H        0.1030     2.0630     2.0600 H     1 <1>   0.0800 
 30 H       -0.0980     0.6400     1.1360 H     1 <1>   0.0800 
 31 H       -2.6590     1.2050     1.6630 H     1 <1>   0.4000 
 32 H       -2.5090     5.0680     1.2960 H     1 <1>   0.0800 
 33 H       -2.0480     4.3220     2.7890 H     1 <1>   0.0800 
 34 H       -0.5150     5.5750    -0.3910 H     1 <1>   0.4500 
 35 H        0.2520     4.1340     2.0310 H     1 <1>   0.0800 
 36 H       -0.2740     5.7900     1.8570 H     1 <1>   0.0800 
 37 H        1.9550     4.5220     0.5420 H     1 <1>   0.0800 
 38 H        1.6300     4.5550    -1.1760 H     1 <1>   0.0800 
 39 H        2.3330     2.6150     2.3260 H     1 <1>   0.1500 
 40 H        1.0650     1.0430    -1.4410 H     1 <1>   0.1500 
 41 H        4.5900     2.9310     1.4290 H     1 <1>   0.1500 
 42 H        3.3180     1.3730    -2.3280 H     1 <1>   0.1500 
 43 H        3.7730     6.6170    -0.0400 H     1 <1>   0.1500 
 44 H        5.0870     2.3290    -0.9050 H     1 <1>   0.1500 
 45 H        3.2180     9.2560    -0.2000 H     1 <1>   0.1500 
 46 H       -0.5410     9.6540    -0.1630 H     1 <1>   0.0800 
 47 H        0.9270    10.5550     0.1220 H     1 <1>   0.0800 
 48 H       -0.0200     9.5590    -2.5920 H     1 <1>   0.0800 
 49 H        1.4510    10.4750    -2.3120 H     1 <1>   0.0800 
 50 H       -0.1080    11.2130    -2.0400 H     1 <1>   0.0800 
@<TRIPOS>BOND
  1   1   2  ar  
  2   2   3  ar  
  3   2   4  1   
  4   4   5  1   
  5   4   6  1   
  6   4   7  1   
  7   5   8  1   
  8   5   9  1   
  9   5  26  1   
 10   6  10  1   
 11   6  27  1   
 12   6  28  1   
 13   7  11  1   
 14   7  29  1   
 15   7  30  1   
 16   8  31  1   
 17   9  12  1   
 18   9  32  1   
 19   9  33  1   
 20  10  12  1   
 21  10  13  1   
 22  10  34  1   
 23  11  14  ar  
 24  11  15  ar  
 25  12  35  1   
 26  12  36  1   
 27  13  16  1   
 28  13  37  1   
 29  13  38  1   
 30  14  17  ar  
 31  14  39  1   
 32  15  18  ar  
 33  15  40  1   
 34  16  19  2   
 35  16  20  1   
 36  17  21  ar  
 37  17  41  1   
 38  18  21  ar  
 39  18  42  1   
 40  19  22  1   
 41  20  23  2   
 42  20  43  1   
 43  21  44  1   
 44  22  23  1   
 45  22  24  1   
 46  23  45  1   
 47  24  25  1   
 48  24  46  1   
 49  24  47  1   
 50  25  48  1   
 51  25  49  1   
 52  25  50  1   
@<TRIPOS>SUBSTRUCTURE
  1 ****  10 GROUP 4 **** **** 0

# MOE 2024.06 (io_trps.svl 2023.06)
