@<TRIPOS>MOLECULE
NONAME
41 42 1 0 0 
SMALL
USER_CHARGES


@<TRIPOS>ATOM
  1 F       -2.7150    -3.0250     2.8530 F     1 <1>  -0.3400 
  2 C       -3.4110    -3.1140     1.7290 C.3   1 <1>   1.1640 
  3 F       -4.6920    -3.1550     2.0880 F     1 <1>  -0.3400 
  4 F       -3.1380    -4.3000     1.2080 F     1 <1>  -0.3400 
  5 C       -3.1590    -1.9680     0.7270 C.ar  1 <1>  -0.1440 
  6 C       -3.8000    -1.9130    -0.5200 C.ar  1 <1>  -0.1440 
  7 C       -2.2690    -0.9500     1.0600 C.ar  1 <1>  -0.1500 
  8 C       -3.5250    -0.8680    -1.3920 C.ar  1 <1>  -0.1500 
  9 C       -4.8020    -2.9670    -0.9870 C.3   1 <1>   0.4870 
 10 C       -2.0120     0.0900     0.1880 C.ar  1 <1>  -0.1500 
 11 C       -2.6390     0.1310    -1.0400 C.ar  1 <1>  -0.1500 
 12 N       -6.1300    -2.7460    -0.3290 N.4   1 <1>  -0.9590 
 13 C       -7.0910    -3.8280    -0.7150 C.3   1 <1>   0.5240 
 14 C       -6.6760    -1.3750    -0.5920 C.3   1 <1>   0.3430 
 15 C       -6.6170    -5.1700    -0.1770 C.2   1 <1>   0.0460 
 16 C       -7.8090    -0.9900     0.3710 C.3   1 <1>   0.1200 
 17 N       -5.6350    -5.8520    -0.7990 N.2   1 <1>  -0.5650 
 18 C       -7.0470    -5.8410     0.9150 C.2   1 <1>  -0.3020 
 19 O       -8.3310     0.2150    -0.0590 O.3   1 <1>  -0.6800 
 20 C       -5.4840    -6.9150    -0.0800 C.2   1 <1>   0.0060 
 21 N       -6.3170    -6.9700     0.9810 N.pl3 1 <1>   0.0330 
 22 C       -4.4760    -8.0030    -0.3830 C.3   1 <1>  -0.0600 
 23 H       -1.7540    -0.9490     2.0080 H     1 <1>   0.1500 
 24 H       -3.9940    -0.8160    -2.3610 H     1 <1>   0.1500 
 25 H       -4.4150    -3.9410    -0.7440 H     1 <1>   0.0800 
 26 H       -4.9090    -2.9160    -2.0580 H     1 <1>   0.0800 
 27 H       -1.3190     0.8680     0.4640 H     1 <1>   0.1500 
 28 H       -2.4320     0.9400    -1.7220 H     1 <1>   0.1500 
 29 H       -5.9630    -2.8590     0.6800 H     1 <1>   0.4500 
 30 H       -7.1820    -3.8880    -1.7870 H     1 <1>   0.0800 
 31 H       -8.0630    -3.6220    -0.3020 H     1 <1>   0.0800 
 32 H       -7.0410    -1.3180    -1.6040 H     1 <1>   0.0800 
 33 H       -5.8940    -0.6420    -0.4770 H     1 <1>   0.0800 
 34 H       -7.4340    -0.8560     1.3710 H     1 <1>   0.0800 
 35 H       -8.6070    -1.7110     0.3610 H     1 <1>   0.0800 
 36 H       -7.8070    -5.5980     1.6370 H     1 <1>   0.1500 
 37 H       -9.0210     0.5550     0.5510 H     1 <1>   0.4000 
 38 H       -6.3730    -7.7190     1.6790 H     1 <1>   0.2700 
 39 H       -3.9390    -7.7650    -1.2840 H     1 <1>   0.0800 
 40 H       -4.9760    -8.9440    -0.5220 H     1 <1>   0.0800 
 41 H       -3.7710    -8.0900     0.4230 H     1 <1>   0.0800 
@<TRIPOS>BOND
  1   1   2  1   
  2   2   3  1   
  3   2   4  1   
  4   2   5  1   
  5   5   6  ar  
  6   5   7  ar  
  7   6   8  ar  
  8   6   9  1   
  9   7  10  ar  
 10   7  23  1   
 11   8  11  ar  
 12   8  24  1   
 13   9  12  1   
 14   9  25  1   
 15   9  26  1   
 16  10  11  ar  
 17  10  27  1   
 18  11  28  1   
 19  12  13  1   
 20  12  14  1   
 21  12  29  1   
 22  13  15  1   
 23  13  30  1   
 24  13  31  1   
 25  14  16  1   
 26  14  32  1   
 27  14  33  1   
 28  15  17  1   
 29  15  18  2   
 30  16  19  1   
 31  16  34  1   
 32  16  35  1   
 33  17  20  2   
 34  18  21  1   
 35  18  36  1   
 36  19  37  1   
 37  20  21  1   
 38  20  22  1   
 39  21  38  1   
 40  22  39  1   
 41  22  40  1   
 42  22  41  1   
@<TRIPOS>SUBSTRUCTURE
  1 ****   9 GROUP 4 **** **** 0

# MOE 2024.06 (io_trps.svl 2023.06)
