@<TRIPOS>MOLECULE
NONAME
46 49 1 0 0 
SMALL
USER_CHARGES


@<TRIPOS>ATOM
  1 S       -0.8410     1.1790     0.6150 S.o2  1 <1>   1.4470 
  2 O       -1.7210     2.3240     0.5000 O.2   1 <1>  -0.6500 
  3 O       -0.3740     0.8140     1.9370 O.2   1 <1>  -0.6500 
  4 N       -1.6710    -0.1670     0.0080 N.am  1 <1>  -0.8490 
  5 C        0.5740     1.4120    -0.4970 C.ar  1 <1>  -0.0090 
  6 C       -0.9230    -1.4240     0.2070 C.3   1 <1>   0.1960 
  7 C       -3.0440    -0.2460     0.4990 C.3   1 <1>   0.1960 
  8 C        1.7070     2.0790    -0.0660 C.ar  1 <1>  -0.1500 
  9 C        0.5450     0.9350    -1.8210 C.ar  1 <1>  -0.1500 
 10 C       -1.5860    -2.6450    -0.4630 C.3   1 <1>  -0.1060 
 11 C       -3.7890    -1.3770    -0.2100 C.3   1 <1>  -0.1600 
 12 C        2.7900     2.2550    -0.9220 C.ar  1 <1>   0.2270 
 13 C        1.6090     1.0930    -2.6780 C.ar  1 <1>  -0.1500 
 14 C       -1.5030    -2.4690    -1.9840 C.2   1 <1>   0.9060 
 15 C       -3.0760    -2.7210    -0.0400 C.3   1 <1>   0.2000 
 16 C       -0.7980    -3.9540    -0.1560 C.3   1 <1>  -0.0650 
 17 N        3.9860     2.8690    -0.6960 N.2   1 <1>  -0.5650 
 18 C        2.7380     1.7620    -2.2110 C.ar  1 <1>  -0.1520 
 19 O       -0.4430    -2.0700    -2.4860 O.co2 1 <1>  -0.9000 
 20 O       -2.4550    -2.8060    -2.7000 O.co2 1 <1>  -0.9000 
 21 O       -3.1960    -3.0600     1.3010 O.3   1 <1>  -0.6800 
 22 C       -0.3670    -4.2120     1.3010 C.3   1 <1>  -0.1950 
 23 C        4.6220     2.7390    -1.8080 C.2   1 <1>   0.0360 
 24 N        3.9300     2.0790    -2.7700 N.pl3 1 <1>   0.0330 
 25 C        0.8770    -3.6080     1.8730 C.3   1 <1>  -0.2000 
 26 C        0.8220    -5.0770     1.5720 C.3   1 <1>  -0.2000 
 27 H        0.0740    -1.3160    -0.1860 H     1 <1>   0.0800 
 28 H       -0.8330    -1.6000     1.2640 H     1 <1>   0.0800 
 29 H       -3.0450    -0.4020     1.5650 H     1 <1>   0.0800 
 30 H       -3.5560     0.6790     0.2930 H     1 <1>   0.0800 
 31 H        1.7780     2.4680     0.9330 H     1 <1>   0.1500 
 32 H       -0.3340     0.4170    -2.1730 H     1 <1>   0.1500 
 33 H       -3.8570    -1.1390    -1.2570 H     1 <1>   0.0800 
 34 H       -4.7930    -1.4520     0.1630 H     1 <1>   0.0800 
 35 H        1.5650     0.6970    -3.6790 H     1 <1>   0.1500 
 36 H       -3.5900    -3.4790    -0.6090 H     1 <1>   0.0800 
 37 H       -1.3840    -4.7900    -0.4970 H     1 <1>   0.0800 
 38 H        0.0970    -3.9490    -0.7570 H     1 <1>   0.0800 
 39 H       -2.4920    -2.6090     1.7990 H     1 <1>   0.4000 
 40 H       -1.2000    -4.3890     1.9590 H     1 <1>   0.1000 
 41 H        5.6160     3.1130    -1.9840 H     1 <1>   0.1500 
 42 H        4.2330     1.8500    -3.7190 H     1 <1>   0.2700 
 43 H        1.4930    -2.9830     1.2490 H     1 <1>   0.1000 
 44 H        0.8660    -3.2820     2.8990 H     1 <1>   0.1000 
 45 H        0.7770    -5.7740     2.3910 H     1 <1>   0.1000 
 46 H        1.3950    -5.4530     0.7420 H     1 <1>   0.1000 
@<TRIPOS>BOND
  1   1   2  2   
  2   1   3  2   
  3   1   4  am  
  4   1   5  1   
  5   4   6  1   
  6   4   7  1   
  7   5   8  ar  
  8   5   9  ar  
  9   6  10  1   
 10   6  27  1   
 11   6  28  1   
 12   7  11  1   
 13   7  29  1   
 14   7  30  1   
 15   8  12  ar  
 16   8  31  1   
 17   9  13  ar  
 18   9  32  1   
 19  10  14  1   
 20  10  15  1   
 21  10  16  1   
 22  11  15  1   
 23  11  33  1   
 24  11  34  1   
 25  12  17  1   
 26  12  18  ar  
 27  13  18  ar  
 28  13  35  1   
 29  14  19  ar  
 30  14  20  ar  
 31  15  21  1   
 32  15  36  1   
 33  16  22  1   
 34  16  37  1   
 35  16  38  1   
 36  17  23  2   
 37  18  24  1   
 38  21  39  1   
 39  22  25  1   
 40  22  26  1   
 41  22  40  1   
 42  23  24  1   
 43  23  41  1   
 44  24  42  1   
 45  25  26  1   
 46  25  43  1   
 47  25  44  1   
 48  26  45  1   
 49  26  46  1   
@<TRIPOS>SUBSTRUCTURE
  1 ****   6 GROUP 4 **** **** 0

# MOE 2024.06 (io_trps.svl 2023.06)
