@<TRIPOS>MOLECULE
NONAME
44 46 1 0 0 
SMALL
USER_CHARGES


@<TRIPOS>ATOM
  1 O       -1.9720     1.2690     2.7790 O.2   1 <1>  -0.5700 
  2 C       -2.2880     1.6340     1.6690 C.2   1 <1>   0.5690 
  3 N       -2.8210     0.7600     0.7600 N.am  1 <1>  -0.6600 
  4 C       -2.0640     3.0860     1.3130 C.3   1 <1>   0.1570 
  5 C       -3.0300     1.0360    -0.6890 C.3   1 <1>   0.1400 
  6 C       -2.9500    -0.6930     1.0280 C.3   1 <1>   0.1400 
  7 N       -0.8320     3.1840     0.5300 N.pl3 1 <1>   0.3140 
  8 C       -3.6910    -0.2320    -1.2270 C.3   1 <1>   0.2000 
  9 C       -3.0960    -1.3430    -0.3540 C.3   1 <1>  -0.0800 
 10 N       -0.8330     3.5380    -0.7810 N.2   1 <1>  -0.7070 
 11 C        0.4240     2.9240     0.9800 C.2   1 <1>  -0.0680 
 12 O       -5.0560    -0.1420    -0.9950 O.3   1 <1>  -0.6800 
 13 C       -3.8940    -2.6600    -0.3420 C.3   1 <1>   0.0200 
 14 C        0.4170     3.5160    -1.1190 C.2   1 <1>   0.1080 
 15 N        0.7540     2.5090     2.2790 N.pl3 1 <1>  -0.8840 
 16 C        1.2490     3.1420    -0.0680 C.2   1 <1>  -0.1500 
 17 C       -3.1960    -3.7690     0.4270 C.2   1 <1>  -0.0400 
 18 C        0.8830     3.8660    -2.5130 C.3   1 <1>  -0.0590 
 19 O       -3.8490    -4.8770     0.6590 O.3   1 <1>  -0.0190 
 20 C       -1.9720    -3.8970     0.9660 C.2   1 <1>  -0.1500 
 21 N       -3.1320    -5.7350     1.3260 N.2   1 <1>  -0.4100 
 22 C       -1.9960    -5.1720     1.5250 C.2   1 <1>   0.1080 
 23 C       -0.8480    -5.8170     2.2680 C.3   1 <1>  -0.0590 
 24 H       -1.9500     3.6690     2.2060 H     1 <1>   0.0800 
 25 H       -2.8840     3.4690     0.7390 H     1 <1>   0.0800 
 26 H       -3.6410     1.9060    -0.8570 H     1 <1>   0.0800 
 27 H       -2.0730     1.1720    -1.1640 H     1 <1>   0.0800 
 28 H       -2.0860    -1.0620     1.5530 H     1 <1>   0.0800 
 29 H       -3.8280    -0.8620     1.6290 H     1 <1>   0.0800 
 30 H       -3.5300    -0.3790    -2.2810 H     1 <1>   0.0800 
 31 H       -2.1070    -1.5470    -0.7260 H     1 <1>   0.0800 
 32 H       -5.2020     0.1490    -0.0720 H     1 <1>   0.4000 
 33 H       -4.0510    -2.9930    -1.3530 H     1 <1>   0.0800 
 34 H       -4.8620    -2.4990     0.1000 H     1 <1>   0.0800 
 35 H        0.0310     1.9440     2.7610 H     1 <1>   0.4000 
 36 H        1.6710     2.0610     2.3710 H     1 <1>   0.4000 
 37 H        2.3170     3.0500    -0.1000 H     1 <1>   0.1500 
 38 H        1.9530     3.8060    -2.5780 H     1 <1>   0.0800 
 39 H        0.5710     4.8660    -2.7530 H     1 <1>   0.0800 
 40 H        0.4460     3.1850    -3.2190 H     1 <1>   0.0800 
 41 H       -1.1430    -3.2160     0.9870 H     1 <1>   0.1500 
 42 H        0.0510    -5.7510     1.6830 H     1 <1>   0.0800 
 43 H       -1.0680    -6.8530     2.4540 H     1 <1>   0.0800 
 44 H       -0.6980    -5.3190     3.2080 H     1 <1>   0.0800 
@<TRIPOS>BOND
  1   1   2  2   
  2   2   3  am  
  3   2   4  1   
  4   3   5  1   
  5   3   6  1   
  6   4   7  1   
  7   4  24  1   
  8   4  25  1   
  9   5   8  1   
 10   5  26  1   
 11   5  27  1   
 12   6   9  1   
 13   6  28  1   
 14   6  29  1   
 15   7  10  1   
 16   7  11  1   
 17   8   9  1   
 18   8  12  1   
 19   8  30  1   
 20   9  13  1   
 21   9  31  1   
 22  10  14  2   
 23  11  15  1   
 24  11  16  2   
 25  12  32  1   
 26  13  17  1   
 27  13  33  1   
 28  13  34  1   
 29  14  16  1   
 30  14  18  1   
 31  15  35  1   
 32  15  36  1   
 33  16  37  1   
 34  17  19  1   
 35  17  20  2   
 36  18  38  1   
 37  18  39  1   
 38  18  40  1   
 39  19  21  1   
 40  20  22  1   
 41  20  41  1   
 42  21  22  2   
 43  22  23  1   
 44  23  42  1   
 45  23  43  1   
 46  23  44  1   
@<TRIPOS>SUBSTRUCTURE
  1 ****   6 GROUP 4 **** **** 0

# MOE 2024.06 (io_trps.svl 2023.06)
