@<TRIPOS>MOLECULE
NONAME
39 40 1 0 0 
SMALL
USER_CHARGES


@<TRIPOS>ATOM
  1 CL      -0.8400    -2.0510    -2.5170 Cl    1 <1>  -0.1770 
  2 C       -2.1630    -2.1650    -1.3810 C.ar  1 <1>   0.1770 
  3 C       -2.0740    -3.0000    -0.2810 C.ar  1 <1>  -0.1440 
  4 C       -3.2920    -1.4060    -1.6090 C.ar  1 <1>  -0.1500 
  5 C       -3.1490    -3.0490     0.5920 C.ar  1 <1>  -0.1500 
  6 C       -0.8370    -3.8500    -0.0310 C.3   1 <1>  -0.0960 
  7 C       -4.3630    -1.4650    -0.7300 C.ar  1 <1>  -0.1430 
  8 C       -4.3030    -2.2920     0.3980 C.ar  1 <1>  -0.0090 
  9 C       -5.5900    -0.6130    -1.0360 C.3   1 <1>  -0.0960 
 10 S       -5.6650    -2.4390     1.6050 S.o2  1 <1>   1.4470 
 11 O       -5.3110    -3.3790     2.6490 O.2   1 <1>  -0.6500 
 12 O       -6.1100    -1.1200     2.0050 O.2   1 <1>  -0.6500 
 13 N       -6.9280    -3.1420     0.7220 N.am  1 <1>  -0.8490 
 14 C       -6.5650    -4.4690     0.1710 C.3   1 <1>   0.1960 
 15 C       -8.1760    -3.1870     1.4770 C.3   1 <1>   0.1960 
 16 C       -7.7820    -5.3200    -0.2280 C.3   1 <1>  -0.1860 
 17 C       -9.3420    -3.4660     0.5200 C.3   1 <1>  -0.1600 
 18 C       -7.3930    -6.3000    -1.3160 C.2   1 <1>   0.9060 
 19 C       -8.9510    -4.4140    -0.6200 C.3   1 <1>   0.2000 
 20 O       -6.2140    -6.6540    -1.4030 O.co2 1 <1>  -0.9000 
 21 O       -8.2690    -6.7400    -2.0730 O.co2 1 <1>  -0.9000 
 22 O      -10.0390    -5.1950    -0.9340 O.3   1 <1>  -0.6800 
 23 H       -3.3220    -0.7750    -2.4780 H     1 <1>   0.1500 
 24 H       -3.0950    -3.6980     1.4510 H     1 <1>   0.1500 
 25 H       -0.9440    -4.4360     0.8640 H     1 <1>   0.0800 
 26 H        0.0280    -3.2200     0.0730 H     1 <1>   0.0800 
 27 H       -0.6820    -4.5200    -0.8580 H     1 <1>   0.0800 
 28 H       -5.4740    -0.0870    -1.9670 H     1 <1>   0.0800 
 29 H       -5.7430     0.1160    -0.2600 H     1 <1>   0.0800 
 30 H       -6.4670    -1.2300    -1.1150 H     1 <1>   0.0800 
 31 H       -5.9460    -4.3060    -0.6970 H     1 <1>   0.0800 
 32 H       -5.9820    -5.0350     0.8790 H     1 <1>   0.0800 
 33 H       -8.1130    -3.9590     2.2270 H     1 <1>   0.0800 
 34 H       -8.3510    -2.2480     1.9750 H     1 <1>   0.0800 
 35 H       -8.0720    -5.9080     0.6210 H     1 <1>   0.0800 
 36 H       -9.6760    -2.5380     0.0940 H     1 <1>   0.0800 
 37 H      -10.1530    -3.8820     1.0910 H     1 <1>   0.0800 
 38 H       -8.6830    -3.8530    -1.5000 H     1 <1>   0.0800 
 39 H       -9.6730    -5.9320    -1.5090 H     1 <1>   0.4000 
@<TRIPOS>BOND
  1   1   2  1   
  2   2   3  ar  
  3   2   4  ar  
  4   3   5  ar  
  5   3   6  1   
  6   4   7  ar  
  7   4  23  1   
  8   5   8  ar  
  9   5  24  1   
 10   6  25  1   
 11   6  26  1   
 12   6  27  1   
 13   7   8  ar  
 14   7   9  1   
 15   8  10  1   
 16   9  28  1   
 17   9  29  1   
 18   9  30  1   
 19  10  11  2   
 20  10  12  2   
 21  10  13  am  
 22  13  14  1   
 23  13  15  1   
 24  14  16  1   
 25  14  31  1   
 26  14  32  1   
 27  15  17  1   
 28  15  33  1   
 29  15  34  1   
 30  16  18  1   
 31  16  19  1   
 32  16  35  1   
 33  17  19  1   
 34  17  36  1   
 35  17  37  1   
 36  18  20  ar  
 37  18  21  ar  
 38  19  22  1   
 39  19  38  1   
 40  22  39  1   
@<TRIPOS>SUBSTRUCTURE
  1 ****  14 GROUP 4 **** **** 0

# MOE 2024.06 (io_trps.svl 2023.06)
