@<TRIPOS>MOLECULE
NONAME
49 51 1 0 0 
SMALL
USER_CHARGES


@<TRIPOS>ATOM
  1 O        0.1710    -2.8760    -2.1790 O.3   1 <1>  -0.6800 
  2 C        1.3560    -2.5680    -1.5260 C.3   1 <1>   0.1200 
  3 C        1.0700    -1.9360    -0.1320 C.3   1 <1>   0.0000 
  4 C        2.3930    -1.5280     0.5670 C.3   1 <1>   0.4230 
  5 C        0.2300    -0.6410    -0.2980 C.3   1 <1>  -0.1600 
  6 C        0.2940    -2.9260     0.7860 C.3   1 <1>  -0.1600 
  7 N        3.3050    -2.6990     0.9120 N.4   1 <1>  -0.9590 
  8 C        3.1110    -0.3780    -0.1720 C.3   1 <1>   0.1100 
  9 C        0.9820     0.4820    -1.0230 C.3   1 <1>   0.1100 
 10 C        1.1910    -3.7020     1.7690 C.3   1 <1>  -0.1600 
 11 C        2.5740    -3.9790     1.1840 C.3   1 <1>   0.3430 
 12 C        4.4300    -2.9380    -0.0500 C.3   1 <1>   0.2630 
 13 N        2.2320     0.7970    -0.3120 N.3   1 <1>  -0.8100 
 14 C        2.9390     1.9120    -0.9980 C.3   1 <1>   0.2530 
 15 C        4.2530     2.3040    -0.3210 C.ar  1 <1>   0.1670 
 16 N        5.3690     1.7780    -0.8170 N.ar  1 <1>  -0.6200 
 17 C        4.2200     3.1710     0.7590 C.ar  1 <1>  -0.1500 
 18 C        6.4940     2.1500    -0.2290 C.ar  1 <1>   0.1670 
 19 C        5.3960     3.5420     1.3710 C.ar  1 <1>  -0.1500 
 20 C        6.5580     3.0140     0.8530 C.ar  1 <1>  -0.1500 
 21 C        7.7670     1.5750    -0.8140 C.3   1 <1>  -0.0970 
 22 H        0.3290    -3.2170    -3.0830 H     1 <1>   0.4000 
 23 H        1.9120    -3.4820    -1.4330 H     1 <1>   0.0800 
 24 H        1.9040    -1.8940    -2.1600 H     1 <1>   0.0800 
 25 H        2.0870    -1.0990     1.5070 H     1 <1>   0.0800 
 26 H       -0.0600    -0.2620     0.6670 H     1 <1>   0.0800 
 27 H       -0.6790    -0.8540    -0.8340 H     1 <1>   0.0800 
 28 H       -0.4440    -2.4010     1.3700 H     1 <1>   0.0800 
 29 H       -0.2570    -3.6300     0.1850 H     1 <1>   0.0800 
 30 H        3.7370    -2.4220     1.8050 H     1 <1>   0.4500 
 31 H        3.4430    -0.6870    -1.1460 H     1 <1>   0.0800 
 32 H        3.9690    -0.1020     0.4150 H     1 <1>   0.0800 
 33 H        0.3560     1.3590    -1.0460 H     1 <1>   0.0800 
 34 H        1.1900     0.1980    -2.0410 H     1 <1>   0.0800 
 35 H        0.7160    -4.6350     2.0170 H     1 <1>   0.0800 
 36 H        1.3000    -3.1490     2.6870 H     1 <1>   0.0800 
 37 H        2.4510    -4.5320     0.2680 H     1 <1>   0.0800 
 38 H        3.1440    -4.5890     1.8670 H     1 <1>   0.0800 
 39 H        4.0460    -3.1840    -1.0250 H     1 <1>   0.0800 
 40 H        5.0480    -3.7520     0.2930 H     1 <1>   0.0800 
 41 H        5.0480    -2.0580    -0.1340 H     1 <1>   0.0800 
 42 H        3.1480     1.6390    -2.0190 H     1 <1>   0.0800 
 43 H        2.2960     2.7740    -1.0170 H     1 <1>   0.0800 
 44 H        3.2800     3.5510     1.1180 H     1 <1>   0.1500 
 45 H        5.4080     4.2150     2.2110 H     1 <1>   0.1500 
 46 H        7.5060     3.2770     1.2870 H     1 <1>   0.1500 
 47 H        8.6330     1.9340    -0.2880 H     1 <1>   0.0800 
 48 H        7.8470     1.8620    -1.8470 H     1 <1>   0.0800 
 49 H        7.7420     0.5030    -0.7530 H     1 <1>   0.0800 
@<TRIPOS>BOND
  1   1   2  1   
  2   1  22  1   
  3   2   3  1   
  4   2  23  1   
  5   2  24  1   
  6   3   4  1   
  7   3   5  1   
  8   3   6  1   
  9   4   7  1   
 10   4   8  1   
 11   4  25  1   
 12   5   9  1   
 13   5  26  1   
 14   5  27  1   
 15   6  10  1   
 16   6  28  1   
 17   6  29  1   
 18   7  11  1   
 19   7  12  1   
 20   7  30  1   
 21   8  13  1   
 22   8  31  1   
 23   8  32  1   
 24   9  13  1   
 25   9  33  1   
 26   9  34  1   
 27  10  11  1   
 28  10  35  1   
 29  10  36  1   
 30  11  37  1   
 31  11  38  1   
 32  12  39  1   
 33  12  40  1   
 34  12  41  1   
 35  13  14  1   
 36  14  15  1   
 37  14  42  1   
 38  14  43  1   
 39  15  16  ar  
 40  15  17  ar  
 41  16  18  ar  
 42  17  19  ar  
 43  17  44  1   
 44  18  20  ar  
 45  18  21  1   
 46  19  20  ar  
 47  19  45  1   
 48  20  46  1   
 49  21  47  1   
 50  21  48  1   
 51  21  49  1   
@<TRIPOS>SUBSTRUCTURE
  1 ****   8 GROUP 4 **** **** 0

# MOE 2024.06 (io_trps.svl 2023.06)
