@<TRIPOS>MOLECULE
NONAME
55 58 1 0 0 
SMALL
USER_CHARGES


@<TRIPOS>ATOM
  1 O       -0.9990     1.0580     1.5140 O.2   1 <1>  -0.5700 
  2 C       -1.8760     1.2850     0.7140 C.2   1 <1>   0.5690 
  3 N       -3.1040     0.6700     0.8160 N.am  1 <1>  -0.6600 
  4 C       -1.6010     2.2550    -0.4350 C.3   1 <1>   0.0440 
  5 C       -4.2260     0.7910    -0.1570 C.3   1 <1>   0.1400 
  6 C       -3.4170    -0.2470     1.9490 C.3   1 <1>   0.1400 
  7 C       -0.2450     2.9590    -0.4010 C.ar  1 <1>  -0.1440 
  8 C       -4.5250    -0.5910    -0.7430 C.3   1 <1>  -0.1600 
  9 C       -3.7190    -1.6430     1.3990 C.3   1 <1>  -0.1600 
 10 C       -0.1550     4.3060    -0.0860 C.ar  1 <1>  -0.1500 
 11 C        0.9130     2.2570    -0.6970 C.ar  1 <1>  -0.1500 
 12 C       -4.8460    -1.6190     0.3560 C.3   1 <1>   0.4240 
 13 C        1.0750     4.9410    -0.0710 C.ar  1 <1>  -0.1500 
 14 C        2.1430     2.8910    -0.6820 C.ar  1 <1>  -0.1500 
 15 O       -5.9850    -1.1670     1.0510 O.3   1 <1>  -0.5600 
 16 C       -5.0570    -3.0280    -0.2410 C.ar  1 <1>  -0.1430 
 17 C        2.2320     4.2380    -0.3680 C.ar  1 <1>  -0.1430 
 18 C       -7.2350    -1.4740     0.5150 C.3   1 <1>   0.1200 
 19 C       -6.2840    -3.6770    -0.1400 C.ar  1 <1>  -0.1430 
 20 C       -4.0180    -3.6770    -0.9000 C.ar  1 <1>  -0.1500 
 21 C        3.5780     4.9380    -0.3460 C.3   1 <1>   0.2630 
 22 C       -7.4340    -2.9860     0.5640 C.3   1 <1>  -0.0170 
 23 C       -6.4630    -4.9420    -0.6760 C.ar  1 <1>  -0.1500 
 24 C       -4.1960    -4.9380    -1.4380 C.ar  1 <1>  -0.1500 
 25 O        3.6630     5.7060    -1.4880 O.3   1 <1>  -0.6800 
 26 C       -5.4160    -5.5820    -1.3300 C.ar  1 <1>   0.0830 
 27 O       -5.5070    -6.8170    -1.8820 O.3   1 <1>  -0.3620 
 28 C       -6.6990    -7.5660    -1.8100 C.3   1 <1>   0.0400 
 29 H       -2.3740     2.9990    -0.4330 H     1 <1>   0.0800 
 30 H       -1.6720     1.7090    -1.3560 H     1 <1>   0.0800 
 31 H       -3.9900     1.4730    -0.9530 H     1 <1>   0.0800 
 32 H       -5.0960     1.1670     0.3560 H     1 <1>   0.0800 
 33 H       -4.2720     0.1310     2.4840 H     1 <1>   0.0800 
 34 H       -2.5940    -0.3030     2.6400 H     1 <1>   0.0800 
 35 H       -3.6630    -0.9150    -1.2970 H     1 <1>   0.0800 
 36 H       -5.3400    -0.5300    -1.4390 H     1 <1>   0.0800 
 37 H       -3.9970    -2.2990     2.2020 H     1 <1>   0.0800 
 38 H       -2.8160    -2.0290     0.9650 H     1 <1>   0.0800 
 39 H       -1.0390     4.8700     0.1530 H     1 <1>   0.1500 
 40 H        0.8600     1.2080    -0.9310 H     1 <1>   0.1500 
 41 H        1.1310     5.9880     0.1730 H     1 <1>   0.1500 
 42 H        3.0290     2.3260    -0.9120 H     1 <1>   0.1500 
 43 H       -7.2890    -1.1090    -0.4950 H     1 <1>   0.0800 
 44 H       -7.9800    -0.9770     1.1110 H     1 <1>   0.0800 
 45 H       -3.0560    -3.2070    -1.0020 H     1 <1>   0.1500 
 46 H        4.3870     4.2280    -0.3540 H     1 <1>   0.0800 
 47 H        3.6740     5.5840     0.5090 H     1 <1>   0.0800 
 48 H       -8.3660    -3.2350     0.0900 H     1 <1>   0.0800 
 49 H       -7.4780    -3.3080     1.5890 H     1 <1>   0.0800 
 50 H       -7.4200    -5.4180    -0.5780 H     1 <1>   0.1500 
 51 H       -3.3880    -5.4340    -1.9450 H     1 <1>   0.1500 
 52 H        3.0950     5.2960    -2.1690 H     1 <1>   0.4000 
 53 H       -6.5330    -8.5070    -2.3040 H     1 <1>   0.0800 
 54 H       -7.4830    -7.0250    -2.3090 H     1 <1>   0.0800 
 55 H       -6.9430    -7.7350    -0.7760 H     1 <1>   0.0800 
@<TRIPOS>BOND
  1   1   2  2   
  2   2   3  am  
  3   2   4  1   
  4   3   5  1   
  5   3   6  1   
  6   4   7  1   
  7   4  29  1   
  8   4  30  1   
  9   5   8  1   
 10   5  31  1   
 11   5  32  1   
 12   6   9  1   
 13   6  33  1   
 14   6  34  1   
 15   7  10  ar  
 16   7  11  ar  
 17   8  12  1   
 18   8  35  1   
 19   8  36  1   
 20   9  12  1   
 21   9  37  1   
 22   9  38  1   
 23  10  13  ar  
 24  10  39  1   
 25  11  14  ar  
 26  11  40  1   
 27  12  15  1   
 28  12  16  1   
 29  13  17  ar  
 30  13  41  1   
 31  14  17  ar  
 32  14  42  1   
 33  15  18  1   
 34  16  19  ar  
 35  16  20  ar  
 36  17  21  1   
 37  18  22  1   
 38  18  43  1   
 39  18  44  1   
 40  19  22  1   
 41  19  23  ar  
 42  20  24  ar  
 43  20  45  1   
 44  21  25  1   
 45  21  46  1   
 46  21  47  1   
 47  22  48  1   
 48  22  49  1   
 49  23  26  ar  
 50  23  50  1   
 51  24  26  ar  
 52  24  51  1   
 53  25  52  1   
 54  26  27  1   
 55  27  28  1   
 56  28  53  1   
 57  28  54  1   
 58  28  55  1   
@<TRIPOS>SUBSTRUCTURE
  1 ****   3 GROUP 4 **** **** 0

# MOE 2024.06 (io_trps.svl 2023.06)
