@<TRIPOS>MOLECULE
NONAME
48 51 1 0 0 
SMALL
USER_CHARGES


@<TRIPOS>ATOM
  1 O       -0.1520    -0.2130    -0.3620 O.2   1 <1>  -0.5700 
  2 C       -0.6540     0.5690     0.4220 C.2   1 <1>   0.6900 
  3 N       -2.0180     0.7180     0.4790 N.am  1 <1>  -0.6600 
  4 N        0.1140     1.3110     1.2730 N.am  1 <1>  -0.5470 
  5 C       -2.6830     1.9960     0.8890 C.3   1 <1>   0.1400 
  6 C       -2.9270    -0.2290    -0.2260 C.3   1 <1>   0.1400 
  7 C        1.4530     1.7150     1.2250 C.ar  1 <1>   0.1170 
  8 C       -3.2720     2.7240    -0.3350 C.3   1 <1>   0.1430 
  9 C       -3.5450     0.4520    -1.4550 C.3   1 <1>  -0.1600 
 10 C        2.2510     1.5940     0.0920 C.ar  1 <1>  -0.1500 
 11 C        2.0160     2.2980     2.3550 C.ar  1 <1>  -0.1500 
 12 C       -3.9520     3.9890     0.1550 C.ar  1 <1>   0.1670 
 13 C       -4.2330     1.7800    -1.0890 C.3   1 <1>  -0.1600 
 14 C       -2.1620     3.2880    -1.2640 C.3   1 <1>  -0.1600 
 15 C        3.5570     2.0480     0.0910 C.ar  1 <1>  -0.1500 
 16 C        3.3210     2.7500     2.3500 C.ar  1 <1>  -0.1500 
 17 N       -5.0970     4.0420     0.8000 N.ar  1 <1>  -0.6200 
 18 C       -3.2140     5.0990    -0.1330 C.ar  1 <1>  -0.1440 
 19 C       -1.9370     4.7540    -0.8580 C.3   1 <1>  -0.0170 
 20 C        4.1310     2.6430     1.2170 C.ar  1 <1>  -0.1790 
 21 C       -5.4820     5.2660     1.1330 C.ar  1 <1>   0.4770 
 22 C       -3.7070     6.3170     0.2630 C.ar  1 <1>   0.1600 
 23 C        5.5050     3.1310     1.2140 C.2   1 <1>   0.9790 
 24 N       -4.8540     6.4110     0.9040 N.ar  1 <1>  -0.6200 
 25 C       -6.7980     5.3780     1.8640 C.3   1 <1>  -0.0970 
 26 O        6.2120     3.0450     0.1930 O.co2 1 <1>  -0.9000 
 27 O        5.9960     3.6500     2.2340 O.co2 1 <1>  -0.9000 
 28 H       -0.3970     1.6040     2.0970 H     1 <1>   0.3700 
 29 H       -1.9940     2.6520     1.3890 H     1 <1>   0.0800 
 30 H       -3.4770     1.7670     1.5790 H     1 <1>   0.0800 
 31 H       -3.7060    -0.5330     0.4520 H     1 <1>   0.0800 
 32 H       -2.3910    -1.1130    -0.5290 H     1 <1>   0.0800 
 33 H       -4.2610    -0.2140    -1.9020 H     1 <1>   0.0800 
 34 H       -2.7670     0.6230    -2.1790 H     1 <1>   0.0800 
 35 H        1.8540     1.1450    -0.7990 H     1 <1>   0.1500 
 36 H        1.4330     2.4010     3.2500 H     1 <1>   0.1500 
 37 H       -4.6070     2.2610    -1.9750 H     1 <1>   0.0800 
 38 H       -5.0790     1.5680    -0.4580 H     1 <1>   0.0800 
 39 H       -2.5100     3.2770    -2.2820 H     1 <1>   0.0800 
 40 H       -1.2480     2.7220    -1.2210 H     1 <1>   0.0800 
 41 H        4.1620     1.9470    -0.7950 H     1 <1>   0.1500 
 42 H        3.7430     3.1990     3.2340 H     1 <1>   0.1500 
 43 H       -1.7790     5.3830    -1.7170 H     1 <1>   0.0800 
 44 H       -1.1010     4.8360    -0.1840 H     1 <1>   0.0800 
 45 H       -3.1610     7.2210     0.0570 H     1 <1>   0.1500 
 46 H       -7.1750     4.4040     2.1160 H     1 <1>   0.0800 
 47 H       -7.5100     5.8800     1.2370 H     1 <1>   0.0800 
 48 H       -6.6610     5.9440     2.7660 H     1 <1>   0.0800 
@<TRIPOS>BOND
  1   1   2  2   
  2   2   3  am  
  3   2   4  am  
  4   3   5  1   
  5   3   6  1   
  6   4   7  1   
  7   4  28  1   
  8   5   8  1   
  9   5  29  1   
 10   5  30  1   
 11   6   9  1   
 12   6  31  1   
 13   6  32  1   
 14   7  10  ar  
 15   7  11  ar  
 16   8  12  1   
 17   8  13  1   
 18   8  14  1   
 19   9  13  1   
 20   9  33  1   
 21   9  34  1   
 22  10  15  ar  
 23  10  35  1   
 24  11  16  ar  
 25  11  36  1   
 26  12  17  ar  
 27  12  18  ar  
 28  13  37  1   
 29  13  38  1   
 30  14  19  1   
 31  14  39  1   
 32  14  40  1   
 33  15  20  ar  
 34  15  41  1   
 35  16  20  ar  
 36  16  42  1   
 37  17  21  ar  
 38  18  19  1   
 39  18  22  ar  
 40  19  43  1   
 41  19  44  1   
 42  20  23  1   
 43  21  24  ar  
 44  21  25  1   
 45  22  24  ar  
 46  22  45  1   
 47  23  26  ar  
 48  23  27  ar  
 49  25  46  1   
 50  25  47  1   
 51  25  48  1   
@<TRIPOS>SUBSTRUCTURE
  1 ****   4 GROUP 4 **** **** 0

# MOE 2024.06 (io_trps.svl 2023.06)
