@<TRIPOS>MOLECULE
NONAME
52 54 1 0 0 
SMALL
USER_CHARGES


@<TRIPOS>ATOM
  1 O       -0.7530     0.3610    -0.9740 O.2   1 <1>  -0.5700 
  2 C       -1.7020     1.0740    -0.7530 C.2   1 <1>   0.5690 
  3 N       -2.9810     0.5840    -0.8350 N.am  1 <1>  -0.6600 
  4 C       -1.4470     2.5180    -0.3590 C.3   1 <1>  -0.0990 
  5 C       -3.2330    -0.7930    -1.3510 C.3   1 <1>   0.1400 
  6 C       -4.1910     1.2510    -0.2760 C.3   1 <1>   0.1400 
  7 C       -0.0070     2.9600    -0.6500 C.3   1 <1>   0.0960 
  8 C       -3.7860    -1.6830    -0.2160 C.3   1 <1>   0.4230 
  9 C       -4.7320     0.3860     0.8690 C.3   1 <1>  -0.1600 
 10 N        0.1760     4.3660    -0.2420 N.pl3 1 <1>   0.0480 
 11 N       -3.9260    -3.1520    -0.5960 N.4   1 <1>  -0.9590 
 12 C       -5.0630    -1.0740     0.4400 C.3   1 <1>   0.0000 
 13 C        0.6380     4.8620     0.9330 C.2   1 <1>   0.0060 
 14 C       -0.1350     5.4520    -0.9730 C.2   1 <1>  -0.3020 
 15 C       -4.8240    -3.9370     0.3140 C.3   1 <1>   0.3430 
 16 C       -4.2910    -3.4200    -2.0260 C.3   1 <1>   0.2630 
 17 C       -5.4270    -1.8950     1.7120 C.3   1 <1>  -0.1600 
 18 C       -6.2460    -1.0880    -0.5710 C.3   1 <1>   0.1200 
 19 N        0.6360     6.1530     0.9880 N.2   1 <1>  -0.5650 
 20 C        1.1150     3.9970     2.0820 C.3   1 <1>  -0.0600 
 21 C        0.1520     6.5280    -0.2100 C.2   1 <1>   0.0770 
 22 C       -4.8570    -3.3270     1.7140 C.3   1 <1>  -0.1600 
 23 O       -7.3210    -0.3490    -0.1080 O.3   1 <1>  -0.6800 
 24 H       -2.1170     3.1500    -0.9120 H     1 <1>   0.0800 
 25 H       -1.6460     2.6250     0.6910 H     1 <1>   0.0800 
 26 H       -3.9270    -0.7240    -2.1680 H     1 <1>   0.0800 
 27 H       -2.3200    -1.2220    -1.7250 H     1 <1>   0.0800 
 28 H       -3.9600     2.2320     0.1010 H     1 <1>   0.0800 
 29 H       -4.9330     1.3660    -1.0490 H     1 <1>   0.0800 
 30 H        0.2040     2.8730    -1.7010 H     1 <1>   0.0800 
 31 H        0.6920     2.3430    -0.1140 H     1 <1>   0.0800 
 32 H       -3.0320    -1.6440     0.5540 H     1 <1>   0.0800 
 33 H       -3.9880     0.3810     1.6470 H     1 <1>   0.0800 
 34 H       -5.6020     0.8660     1.2820 H     1 <1>   0.0800 
 35 H       -2.9800    -3.5410    -0.4580 H     1 <1>   0.4500 
 36 H       -0.5320     5.4070    -1.9700 H     1 <1>   0.1500 
 37 H       -5.8280    -3.9410    -0.0800 H     1 <1>   0.0800 
 38 H       -4.4860    -4.9600     0.3680 H     1 <1>   0.0800 
 39 H       -5.2570    -3.0020    -2.2560 H     1 <1>   0.0800 
 40 H       -4.3260    -4.4820    -2.2090 H     1 <1>   0.0800 
 41 H       -3.5600    -2.9890    -2.6920 H     1 <1>   0.0800 
 42 H       -5.0610    -1.4050     2.5990 H     1 <1>   0.0800 
 43 H       -6.4970    -1.9460     1.8240 H     1 <1>   0.0800 
 44 H       -6.5980    -2.0860    -0.7570 H     1 <1>   0.0800 
 45 H       -5.9640    -0.6480    -1.5110 H     1 <1>   0.0800 
 46 H        1.4030     4.6210     2.9090 H     1 <1>   0.0800 
 47 H        1.9660     3.4170     1.7780 H     1 <1>   0.0800 
 48 H        0.3280     3.3410     2.4050 H     1 <1>   0.0800 
 49 H        0.0340     7.5690    -0.4620 H     1 <1>   0.1500 
 50 H       -5.4610    -3.9460     2.3550 H     1 <1>   0.0800 
 51 H       -3.8610    -3.3300     2.1230 H     1 <1>   0.0800 
 52 H       -7.7240    -0.7390     0.6930 H     1 <1>   0.4000 
@<TRIPOS>BOND
  1   1   2  2   
  2   2   3  am  
  3   2   4  1   
  4   3   5  1   
  5   3   6  1   
  6   4   7  1   
  7   4  24  1   
  8   4  25  1   
  9   5   8  1   
 10   5  26  1   
 11   5  27  1   
 12   6   9  1   
 13   6  28  1   
 14   6  29  1   
 15   7  10  1   
 16   7  30  1   
 17   7  31  1   
 18   8  11  1   
 19   8  12  1   
 20   8  32  1   
 21   9  12  1   
 22   9  33  1   
 23   9  34  1   
 24  10  13  1   
 25  10  14  1   
 26  11  15  1   
 27  11  16  1   
 28  11  35  1   
 29  12  17  1   
 30  12  18  1   
 31  13  19  2   
 32  13  20  1   
 33  14  21  2   
 34  14  36  1   
 35  15  22  1   
 36  15  37  1   
 37  15  38  1   
 38  16  39  1   
 39  16  40  1   
 40  16  41  1   
 41  17  22  1   
 42  17  42  1   
 43  17  43  1   
 44  18  23  1   
 45  18  44  1   
 46  18  45  1   
 47  19  21  1   
 48  20  46  1   
 49  20  47  1   
 50  20  48  1   
 51  21  49  1   
 52  22  50  1   
 53  22  51  1   
 54  23  52  1   
@<TRIPOS>SUBSTRUCTURE
  1 ****   3 GROUP 4 **** **** 0

# MOE 2024.06 (io_trps.svl 2023.06)
