@<TRIPOS>MOLECULE
NONAME
50 53 1 0 0 
SMALL
USER_CHARGES


@<TRIPOS>ATOM
  1 O       -0.6830     0.7860    -1.2750 O.2   1 <1>  -0.5700 
  2 C       -0.4550     1.7810    -0.6260 C.2   1 <1>   0.5690 
  3 N       -1.3910     2.7620    -0.4140 N.am  1 <1>  -0.5090 
  4 C        0.9620     1.9410    -0.0620 C.3   1 <1>   0.1810 
  5 C       -1.0300     4.0300     0.2940 C.3   1 <1>   0.3640 
  6 C       -2.8110     2.6160    -0.8180 C.3   1 <1>   0.0490 
  7 O        1.0940     2.9910     0.8680 O.3   1 <1>  -0.5600 
  8 C       -1.5910     5.2480    -0.4400 C.ar  1 <1>  -0.1440 
  9 C        0.4960     4.1980     0.4470 C.3   1 <1>   0.2610 
 10 C       -3.8740     2.7310     0.2320 C.3   1 <1>  -0.2000 
 11 C       -3.5800     1.4050    -0.3920 C.3   1 <1>  -0.2000 
 12 C       -2.3360     6.1860     0.2620 C.ar  1 <1>   0.1600 
 13 C       -1.3550     5.4630    -1.7860 C.ar  1 <1>  -0.1500 
 14 C        0.8170     5.3660     1.3930 C.2   1 <1>   0.5690 
 15 N       -2.8450     7.2920    -0.2560 N.ar  1 <1>  -0.6200 
 16 C       -1.8720     6.6150    -2.3380 C.ar  1 <1>  -0.1500 
 17 O        0.0540     5.6050     2.3040 O.2   1 <1>  -0.5700 
 18 N        1.9120     6.1590     1.1620 N.am  1 <1>  -0.6600 
 19 C       -2.5970     7.4840    -1.5410 C.ar  1 <1>   0.1600 
 20 C        1.9570     7.5500     1.6860 C.3   1 <1>   0.3210 
 21 C        3.0560     5.7760     0.2870 C.3   1 <1>   0.0600 
 22 C        1.8700     8.5110     0.5160 C.2   1 <1>  -0.1810 
 23 C        0.7630     8.6840    -0.3080 C.2   1 <1>   0.1390 
 24 C        2.7960     9.3610     0.0220 C.2   1 <1>  -0.3020 
 25 N        0.9810     9.5570    -1.2440 N.2   1 <1>  -0.7070 
 26 N        2.2370     9.9820    -1.0350 N.pl3 1 <1>   0.3140 
 27 C        2.8510    11.0010    -1.8920 C.3   1 <1>   0.0160 
 28 H        1.6460     2.1190    -0.8710 H     1 <1>   0.0800 
 29 H        1.2470     1.0310     0.4340 H     1 <1>   0.0800 
 30 H       -1.4650     3.9810     1.2770 H     1 <1>   0.0800 
 31 H       -3.0080     3.0230    -1.7960 H     1 <1>   0.1000 
 32 H        0.9040     4.4390    -0.5160 H     1 <1>   0.0800 
 33 H       -3.6020     2.8680     1.2640 H     1 <1>   0.1000 
 34 H       -4.7970     3.2210    -0.0220 H     1 <1>   0.1000 
 35 H       -4.2970     0.9870    -1.0770 H     1 <1>   0.1000 
 36 H       -3.0720     0.6510     0.1830 H     1 <1>   0.1000 
 37 H       -2.5180     6.0270     1.3120 H     1 <1>   0.1500 
 38 H       -0.7930     4.7680    -2.3860 H     1 <1>   0.1500 
 39 H       -1.7150     6.8450    -3.3760 H     1 <1>   0.1500 
 40 H       -2.9900     8.3840    -1.9830 H     1 <1>   0.1500 
 41 H        1.1390     7.7370     2.3620 H     1 <1>   0.0800 
 42 H        2.8760     7.7010     2.2240 H     1 <1>   0.0800 
 43 H        3.9740     6.1540     0.7020 H     1 <1>   0.0800 
 44 H        2.9190     6.1960    -0.6960 H     1 <1>   0.0800 
 45 H        3.1360     4.7060     0.2120 H     1 <1>   0.0800 
 46 H       -0.1700     8.1570    -0.1910 H     1 <1>   0.1500 
 47 H        3.7990     9.5550     0.3540 H     1 <1>   0.1500 
 48 H        3.8840    11.1210    -1.6280 H     1 <1>   0.0800 
 49 H        2.3270    11.9280    -1.7570 H     1 <1>   0.0800 
 50 H        2.7690    10.6880    -2.9160 H     1 <1>   0.0800 
@<TRIPOS>BOND
  1   1   2  2   
  2   2   3  am  
  3   2   4  1   
  4   3   5  1   
  5   3   6  1   
  6   4   7  1   
  7   4  28  1   
  8   4  29  1   
  9   5   8  1   
 10   5   9  1   
 11   5  30  1   
 12   6  10  1   
 13   6  11  1   
 14   6  31  1   
 15   7   9  1   
 16   8  12  ar  
 17   8  13  ar  
 18   9  14  1   
 19   9  32  1   
 20  10  11  1   
 21  10  33  1   
 22  10  34  1   
 23  11  35  1   
 24  11  36  1   
 25  12  15  ar  
 26  12  37  1   
 27  13  16  ar  
 28  13  38  1   
 29  14  17  2   
 30  14  18  am  
 31  15  19  ar  
 32  16  19  ar  
 33  16  39  1   
 34  18  20  1   
 35  18  21  1   
 36  19  40  1   
 37  20  22  1   
 38  20  41  1   
 39  20  42  1   
 40  21  43  1   
 41  21  44  1   
 42  21  45  1   
 43  22  23  1   
 44  22  24  2   
 45  23  25  2   
 46  23  46  1   
 47  24  26  1   
 48  24  47  1   
 49  25  26  1   
 50  26  27  1   
 51  27  48  1   
 52  27  49  1   
 53  27  50  1   
@<TRIPOS>SUBSTRUCTURE
  1 ****   8 GROUP 4 **** **** 0

# MOE 2024.06 (io_trps.svl 2023.06)
