@<TRIPOS>MOLECULE
NONAME
53 55 1 0 0 
SMALL
USER_CHARGES


@<TRIPOS>ATOM
  1 O        0.4650    -1.0510    -0.1360 O.3   1 <1>  -0.5600 
  2 C       -0.2480    -2.1910     0.2960 C.3   1 <1>   0.2800 
  3 C        0.1800     0.1700     0.4980 C.3   1 <1>   0.1200 
  4 C       -1.7260    -1.8380     0.5940 C.3   1 <1>  -0.1600 
  5 C        0.4660    -2.7810     1.5300 C.3   1 <1>  -0.1600 
  6 C       -0.1370    -3.2260    -0.8390 C.3   1 <1>  -0.1600 
  7 C       -1.2730     0.6010     0.2450 C.3   1 <1>  -0.1600 
  8 C       -2.1940    -0.5670    -0.1190 C.3   1 <1>   0.2800 
  9 C        1.8100    -3.4570     1.2200 C.3   1 <1>   0.3430 
 10 C        1.3070    -3.6160    -1.1830 C.3   1 <1>   0.3430 
 11 O       -2.0760    -0.7680    -1.4690 O.3   1 <1>  -0.6800 
 12 C       -3.6640    -0.2550     0.1470 C.3   1 <1>  -0.2400 
 13 N        2.2590    -3.1090    -0.1540 N.4   1 <1>  -0.9590 
 14 C        3.6670    -3.5110    -0.4640 C.3   1 <1>   0.3430 
 15 C        4.7050    -2.7130     0.3340 C.3   1 <1>   0.1200 
 16 O        5.9490    -3.2130    -0.0140 O.3   1 <1>  -0.5600 
 17 C        7.0350    -2.5920     0.6050 C.3   1 <1>   0.2630 
 18 C        8.3030    -3.3060     0.1700 C.ar  1 <1>  -0.1440 
 19 C        8.9770    -4.1450     1.0460 C.ar  1 <1>  -0.1500 
 20 C        8.7990    -3.1240    -1.1120 C.ar  1 <1>  -0.1500 
 21 C       10.1350    -4.7890     0.6460 C.ar  1 <1>  -0.1500 
 22 C        9.9570    -3.7670    -1.5130 C.ar  1 <1>  -0.1500 
 23 C       10.6270    -4.5990    -0.6340 C.ar  1 <1>  -0.1500 
 24 H        0.8580     0.9130     0.1120 H     1 <1>   0.0800 
 25 H        0.3600     0.0610     1.5530 H     1 <1>   0.0800 
 26 H       -1.8450    -1.6810     1.6510 H     1 <1>   0.0800 
 27 H       -2.3740    -2.6590     0.3400 H     1 <1>   0.0800 
 28 H       -0.1690    -3.5270     1.9750 H     1 <1>   0.0800 
 29 H        0.6080    -2.0250     2.2790 H     1 <1>   0.0800 
 30 H       -0.6230    -2.8710    -1.7280 H     1 <1>   0.0800 
 31 H       -0.6620    -4.1190    -0.5490 H     1 <1>   0.0800 
 32 H       -1.3120     1.3560    -0.5220 H     1 <1>   0.0800 
 33 H       -1.6290     1.0670     1.1460 H     1 <1>   0.0800 
 34 H        1.7030    -4.5270     1.3000 H     1 <1>   0.0800 
 35 H        2.5400    -3.1390     1.9460 H     1 <1>   0.0800 
 36 H        1.5630    -3.1910    -2.1400 H     1 <1>   0.0800 
 37 H        1.3810    -4.6890    -1.2630 H     1 <1>   0.0800 
 38 H       -1.1250    -0.7240    -1.6890 H     1 <1>   0.4000 
 39 H       -3.8300    -0.0950     1.1960 H     1 <1>   0.0800 
 40 H       -4.2840    -1.0730    -0.1750 H     1 <1>   0.0800 
 41 H       -3.9570     0.6340    -0.3830 H     1 <1>   0.0800 
 42 H        2.1560    -2.0770    -0.2240 H     1 <1>   0.4500 
 43 H        3.8620    -3.3500    -1.5120 H     1 <1>   0.0800 
 44 H        3.7980    -4.5600    -0.2550 H     1 <1>   0.0800 
 45 H        4.5730    -2.8490     1.3930 H     1 <1>   0.0800 
 46 H        4.6690    -1.6700     0.0730 H     1 <1>   0.0800 
 47 H        6.9150    -2.6540     1.6730 H     1 <1>   0.0800 
 48 H        7.0680    -1.5600     0.3020 H     1 <1>   0.0800 
 49 H        8.6050    -4.3040     2.0420 H     1 <1>   0.1500 
 50 H        8.2820    -2.4820    -1.8040 H     1 <1>   0.1500 
 51 H       10.6530    -5.4380     1.3290 H     1 <1>   0.1500 
 52 H       10.3360    -3.6210    -2.5090 H     1 <1>   0.1500 
 53 H       11.5270    -5.1000    -0.9450 H     1 <1>   0.1500 
@<TRIPOS>BOND
  1   1   2  1   
  2   1   3  1   
  3   2   4  1   
  4   2   5  1   
  5   2   6  1   
  6   3   7  1   
  7   3  24  1   
  8   3  25  1   
  9   4   8  1   
 10   4  26  1   
 11   4  27  1   
 12   5   9  1   
 13   5  28  1   
 14   5  29  1   
 15   6  10  1   
 16   6  30  1   
 17   6  31  1   
 18   7   8  1   
 19   7  32  1   
 20   7  33  1   
 21   8  11  1   
 22   8  12  1   
 23   9  13  1   
 24   9  34  1   
 25   9  35  1   
 26  10  13  1   
 27  10  36  1   
 28  10  37  1   
 29  11  38  1   
 30  12  39  1   
 31  12  40  1   
 32  12  41  1   
 33  13  14  1   
 34  13  42  1   
 35  14  15  1   
 36  14  43  1   
 37  14  44  1   
 38  15  16  1   
 39  15  45  1   
 40  15  46  1   
 41  16  17  1   
 42  17  18  1   
 43  17  47  1   
 44  17  48  1   
 45  18  19  ar  
 46  18  20  ar  
 47  19  21  ar  
 48  19  49  1   
 49  20  22  ar  
 50  20  50  1   
 51  21  23  ar  
 52  21  51  1   
 53  22  23  ar  
 54  22  52  1   
 55  23  53  1   
@<TRIPOS>SUBSTRUCTURE
  1 ****  13 GROUP 4 **** **** 0

# MOE 2024.06 (io_trps.svl 2023.06)
