@<TRIPOS>MOLECULE
NONAME
31 30 1 0 0 
SMALL
USER_CHARGES


@<TRIPOS>ATOM
  1 O       -0.3910     0.3310    -0.2860 O.3   1 <1>  -0.5600 
  2 C       -1.4860    -0.3940     0.1870 C.3   1 <1>   0.2800 
  3 C       -0.0680     1.5580     0.2990 C.3   1 <1>   0.1200 
  4 C       -1.2630    -0.8000     1.6470 C.3   1 <1>  -0.2400 
  5 C       -2.7770     0.4110     0.0080 C.3   1 <1>  -0.2400 
  6 C       -1.5360    -1.6430    -0.6890 C.3   1 <1>  -0.2400 
  7 C        1.1790     2.0860    -0.4130 C.3   1 <1>  -0.1600 
  8 C        1.7070     3.4160     0.1460 C.3   1 <1>   0.2800 
  9 O        1.9540     3.2570     1.4850 O.3   1 <1>  -0.6800 
 10 C        3.0370     3.7910    -0.5040 C.3   1 <1>  -0.2400 
 11 C        0.7040     4.5610     0.0170 C.3   1 <1>  -0.2400 
 12 H        0.1330     1.4130     1.3450 H     1 <1>   0.0800 
 13 H       -0.8900     2.2380     0.1700 H     1 <1>   0.0800 
 14 H       -1.3210     0.0510     2.3010 H     1 <1>   0.0800 
 15 H       -0.3050    -1.2740     1.7580 H     1 <1>   0.0800 
 16 H       -2.0240    -1.4950     1.9520 H     1 <1>   0.0800 
 17 H       -2.8130     1.2450     0.6840 H     1 <1>   0.0800 
 18 H       -3.6270    -0.2130     0.2160 H     1 <1>   0.0800 
 19 H       -2.8560     0.7650    -1.0050 H     1 <1>   0.0800 
 20 H       -0.6230    -2.2020    -0.5890 H     1 <1>   0.0800 
 21 H       -1.6660    -1.3670    -1.7200 H     1 <1>   0.0800 
 22 H       -2.3560    -2.2740    -0.3990 H     1 <1>   0.0800 
 23 H        0.9430     2.2190    -1.4530 H     1 <1>   0.0800 
 24 H        1.9520     1.3420    -0.3460 H     1 <1>   0.0800 
 25 H        2.6330     2.5690     1.6060 H     1 <1>   0.4000 
 26 H        3.7580     3.0030    -0.3850 H     1 <1>   0.0800 
 27 H        3.4260     4.6950    -0.0680 H     1 <1>   0.0800 
 28 H        2.8940     3.9600    -1.5560 H     1 <1>   0.0800 
 29 H       -0.1890     4.3560     0.5780 H     1 <1>   0.0800 
 30 H        0.4360     4.7040    -1.0140 H     1 <1>   0.0800 
 31 H        1.1340     5.4750     0.3840 H     1 <1>   0.0800 
@<TRIPOS>BOND
  1   1   2  1   
  2   1   3  1   
  3   2   4  1   
  4   2   5  1   
  5   2   6  1   
  6   3   7  1   
  7   3  12  1   
  8   3  13  1   
  9   4  14  1   
 10   4  15  1   
 11   4  16  1   
 12   5  17  1   
 13   5  18  1   
 14   5  19  1   
 15   6  20  1   
 16   6  21  1   
 17   6  22  1   
 18   7   8  1   
 19   7  23  1   
 20   7  24  1   
 21   8   9  1   
 22   8  10  1   
 23   8  11  1   
 24   9  25  1   
 25  10  26  1   
 26  10  27  1   
 27  10  28  1   
 28  11  29  1   
 29  11  30  1   
 30  11  31  1   
@<TRIPOS>SUBSTRUCTURE
  1 ****   3 GROUP 4 **** **** 0

# MOE 2024.06 (io_trps.svl 2023.06)
