@<TRIPOS>MOLECULE
NONAME
50 53 1 0 0 
SMALL
USER_CHARGES


@<TRIPOS>ATOM
  1 O       -1.0290     0.2090    -2.3070 O.2   1 <1>  -0.5700 
  2 C       -1.5780     0.8020    -1.3990 C.2   1 <1>   0.5440 
  3 N       -2.4300     0.1080    -0.5740 N.am  1 <1>  -0.6600 
  4 C       -1.3500     2.2110    -1.2050 C.ar  1 <1>   0.0860 
  5 C       -3.3900     0.7270     0.3750 C.3   1 <1>   0.1400 
  6 C       -2.6530    -1.3500    -0.6830 C.3   1 <1>   0.1400 
  7 C       -0.6770     2.7080    -0.0790 C.ar  1 <1>   0.0000 
  8 C       -1.8020     3.1690    -2.0890 C.ar  1 <1>  -0.1500 
  9 C       -4.3240    -0.4140     0.7810 C.3   1 <1>   0.2000 
 10 C       -3.5470    -1.7010     0.5070 C.3   1 <1>  -0.0800 
 11 C       -0.5850     4.0730     0.0910 C.ar  1 <1>   0.1050 
 12 C       -0.0010     2.1800     1.0370 C.2   1 <1>   0.1080 
 13 C       -1.6320     4.5330    -1.8280 C.ar  1 <1>   0.1660 
 14 O       -4.6690    -0.3390     2.1210 O.3   1 <1>  -0.6800 
 15 C       -4.4590    -2.9120     0.2580 C.3   1 <1>  -0.0160 
 16 N       -1.0510     5.0080    -0.7560 N.ar  1 <1>  -0.5670 
 17 N        0.0740     4.2620     1.2690 N.pl3 1 <1>   0.3140 
 18 N        0.4280     3.0910     1.8440 N.2   1 <1>  -0.7070 
 19 C        0.2510     0.7090     1.2970 C.3   1 <1>  -0.0590 
 20 C       -2.1470     5.5530    -2.8220 C.3   1 <1>  -0.0970 
 21 C       -3.6400    -4.1670     0.0010 C.ar  1 <1>  -0.1430 
 22 C        0.4110     5.5610     1.8640 C.3   1 <1>   0.0160 
 23 C       -3.3630    -4.6170    -1.2750 C.ar  1 <1>  -0.1500 
 24 C       -3.1260    -4.9200     1.0370 C.ar  1 <1>  -0.1500 
 25 C       -2.6040    -5.7620    -1.4470 C.ar  1 <1>   0.1600 
 26 C       -2.3790    -6.0520     0.7560 C.ar  1 <1>   0.1600 
 27 N       -2.1030    -6.4890    -0.4610 N.ar  1 <1>  -0.6200 
 28 H       -2.8570     1.1130     1.2260 H     1 <1>   0.0800 
 29 H       -3.9400     1.5170    -0.1070 H     1 <1>   0.0800 
 30 H       -3.1490    -1.5560    -1.6160 H     1 <1>   0.0800 
 31 H       -1.7180    -1.8850    -0.6510 H     1 <1>   0.0800 
 32 H       -2.2970     2.8560    -2.9890 H     1 <1>   0.1500 
 33 H       -5.2280    -0.3700     0.1960 H     1 <1>   0.0800 
 34 H       -2.8980    -1.9090     1.3400 H     1 <1>   0.0800 
 35 H       -3.8710    -0.3720     2.6840 H     1 <1>   0.4000 
 36 H       -5.1050    -2.7210    -0.5810 H     1 <1>   0.0800 
 37 H       -5.0860    -3.0680     1.1200 H     1 <1>   0.0800 
 38 H        0.5470     0.2170     0.3880 H     1 <1>   0.0800 
 39 H       -0.6350     0.2440     1.6820 H     1 <1>   0.0800 
 40 H        1.0410     0.5980     2.0180 H     1 <1>   0.0800 
 41 H       -2.5970     5.0770    -3.6740 H     1 <1>   0.0800 
 42 H       -1.3320     6.1680    -3.1590 H     1 <1>   0.0800 
 43 H       -2.8790     6.1810    -2.3470 H     1 <1>   0.0800 
 44 H       -0.4900     6.1280     2.0000 H     1 <1>   0.0800 
 45 H        1.0740     6.0860     1.2020 H     1 <1>   0.0800 
 46 H        0.8920     5.4020     2.8110 H     1 <1>   0.0800 
 47 H       -3.7290    -4.0910    -2.1380 H     1 <1>   0.1500 
 48 H       -3.3000    -4.6380     2.0590 H     1 <1>   0.1500 
 49 H       -2.3960    -6.0970    -2.4490 H     1 <1>   0.1500 
 50 H       -1.9870    -6.6280     1.5770 H     1 <1>   0.1500 
@<TRIPOS>BOND
  1   1   2  2   
  2   2   3  am  
  3   2   4  1   
  4   3   5  1   
  5   3   6  1   
  6   4   7  ar  
  7   4   8  ar  
  8   5   9  1   
  9   5  28  1   
 10   5  29  1   
 11   6  10  1   
 12   6  30  1   
 13   6  31  1   
 14   7  11  ar  
 15   7  12  1   
 16   8  13  ar  
 17   8  32  1   
 18   9  10  1   
 19   9  14  1   
 20   9  33  1   
 21  10  15  1   
 22  10  34  1   
 23  11  16  ar  
 24  11  17  1   
 25  12  18  2   
 26  12  19  1   
 27  13  16  ar  
 28  13  20  1   
 29  14  35  1   
 30  15  21  1   
 31  15  36  1   
 32  15  37  1   
 33  17  18  1   
 34  17  22  1   
 35  19  38  1   
 36  19  39  1   
 37  19  40  1   
 38  20  41  1   
 39  20  42  1   
 40  20  43  1   
 41  21  23  ar  
 42  21  24  ar  
 43  22  44  1   
 44  22  45  1   
 45  22  46  1   
 46  23  25  ar  
 47  23  47  1   
 48  24  26  ar  
 49  24  48  1   
 50  25  27  ar  
 51  25  49  1   
 52  26  27  ar  
 53  26  50  1   
@<TRIPOS>SUBSTRUCTURE
  1 ****   3 GROUP 4 **** **** 0

# MOE 2024.06 (io_trps.svl 2023.06)
