@<TRIPOS>MOLECULE
NONAME
46 48 1 0 0 
SMALL
USER_CHARGES


@<TRIPOS>ATOM
  1 O        2.8900    -0.6370     1.2400 O.2   1 <1>  -0.5700 
  2 C        2.1170    -1.0360     0.4060 C.2   1 <1>   0.5690 
  3 N        1.4180    -0.2070    -0.4120 N.am  1 <1>  -0.7300 
  4 C        1.8950    -2.5230     0.2750 C.3   1 <1>  -0.0990 
  5 C        1.4150     1.2760    -0.4070 C.3   1 <1>   0.2200 
  6 C        0.8340    -2.9960     1.2720 C.3   1 <1>   0.0200 
  7 C        2.8450     1.8400    -0.4290 C.3   1 <1>   0.0960 
  8 C        0.5990     1.7450     0.8000 C.3   1 <1>  -0.2400 
  9 C        0.5270    -4.4620     1.0490 C.2   1 <1>   0.0060 
 10 N        2.8210     3.2990    -0.6180 N.pl3 1 <1>   0.3140 
 11 N       -0.3230    -4.8810     0.1800 N.2   1 <1>  -0.5650 
 12 N        1.1360    -5.4540     1.7440 N.pl3 1 <1>   0.0330 
 13 N        2.3520     3.8780    -1.7150 N.2   1 <1>  -0.7070 
 14 C        3.2270     4.2510     0.2270 C.2   1 <1>   0.0360 
 15 C       -0.2910    -6.2440     0.2950 C.ar  1 <1>   0.2270 
 16 C        0.6200    -6.6130     1.2670 C.ar  1 <1>  -0.1520 
 17 C        2.5110     5.1350    -1.4540 C.2   1 <1>   0.3660 
 18 N        3.0480     5.4240    -0.2620 N.2   1 <1>  -0.5650 
 19 C       -1.0130    -7.2210    -0.4040 C.ar  1 <1>  -0.1430 
 20 C        0.8470    -7.9520     1.5780 C.ar  1 <1>  -0.1500 
 21 C       -0.7850    -8.5560    -0.1080 C.ar  1 <1>  -0.1430 
 22 C       -2.0130    -6.7640    -1.4610 C.3   1 <1>  -0.0970 
 23 C        0.1420    -8.9080     0.8860 C.ar  1 <1>  -0.1500 
 24 C       -1.5130    -9.6780    -0.8330 C.3   1 <1>  -0.0970 
 25 H        0.7430    -0.6250    -1.0560 H     1 <1>   0.3700 
 26 H        2.8220    -3.0330     0.4580 H     1 <1>   0.0800 
 27 H        1.5790    -2.7550    -0.7260 H     1 <1>   0.0800 
 28 H        0.9180     1.6000    -1.3080 H     1 <1>   0.0800 
 29 H       -0.0710    -2.4320     1.1280 H     1 <1>   0.0800 
 30 H        1.1710    -2.8320     2.2800 H     1 <1>   0.0800 
 31 H        3.3930     1.4090    -1.2450 H     1 <1>   0.0800 
 32 H        3.3530     1.6270     0.4920 H     1 <1>   0.0800 
 33 H        1.0870     1.4680     1.7180 H     1 <1>   0.0800 
 34 H       -0.3830     1.3090     0.7770 H     1 <1>   0.0800 
 35 H        0.4870     2.8150     0.7830 H     1 <1>   0.0800 
 36 H        1.8410    -5.3610     2.4780 H     1 <1>   0.2700 
 37 H        3.6490     4.0380     1.1930 H     1 <1>   0.1500 
 38 H        2.2350     5.9210    -2.1380 H     1 <1>   0.1500 
 39 H        1.5570    -8.2230     2.3390 H     1 <1>   0.1500 
 40 H       -2.4200    -5.8040    -1.1980 H     1 <1>   0.0800 
 41 H       -2.8320    -7.4510    -1.5520 H     1 <1>   0.0800 
 42 H       -1.5170    -6.6750    -2.4100 H     1 <1>   0.0800 
 43 H        0.3040    -9.9480     1.1100 H     1 <1>   0.1500 
 44 H       -1.5040    -9.5040    -1.8940 H     1 <1>   0.0800 
 45 H       -2.5310    -9.7300    -0.4940 H     1 <1>   0.0800 
 46 H       -1.0420   -10.6270    -0.6490 H     1 <1>   0.0800 
@<TRIPOS>BOND
  1   1   2  2   
  2   2   3  am  
  3   2   4  1   
  4   3   5  1   
  5   3  25  1   
  6   4   6  1   
  7   4  26  1   
  8   4  27  1   
  9   5   7  1   
 10   5   8  1   
 11   5  28  1   
 12   6   9  1   
 13   6  29  1   
 14   6  30  1   
 15   7  10  1   
 16   7  31  1   
 17   7  32  1   
 18   8  33  1   
 19   8  34  1   
 20   8  35  1   
 21   9  11  2   
 22   9  12  1   
 23  10  13  1   
 24  10  14  1   
 25  11  15  1   
 26  12  16  1   
 27  12  36  1   
 28  13  17  2   
 29  14  18  2   
 30  14  37  1   
 31  15  16  ar  
 32  15  19  ar  
 33  16  20  ar  
 34  17  18  1   
 35  17  38  1   
 36  19  21  ar  
 37  19  22  1   
 38  20  23  ar  
 39  20  39  1   
 40  21  23  ar  
 41  21  24  1   
 42  22  40  1   
 43  22  41  1   
 44  22  42  1   
 45  23  43  1   
 46  24  44  1   
 47  24  45  1   
 48  24  46  1   
@<TRIPOS>SUBSTRUCTURE
  1 ****   4 GROUP 4 **** **** 0

# MOE 2024.06 (io_trps.svl 2023.06)
