@<TRIPOS>MOLECULE
NONAME
53 55 1 0 0 
SMALL
USER_CHARGES


@<TRIPOS>ATOM
  1 O        1.6370    -0.0610     1.8490 O.2   1 <1>  -0.5700 
  2 C        2.3560    -0.8300     1.2380 C.2   1 <1>   0.7160 
  3 N        3.7010    -0.5440     1.1340 N.am  1 <1>  -0.6600 
  4 C        1.7790    -1.9970     0.6130 C.2   1 <1>  -0.0860 
  5 C        4.6150    -1.1820     0.1300 C.3   1 <1>   0.1400 
  6 C        4.3110     0.5840     1.8900 C.3   1 <1>   0.1400 
  7 C        0.7380    -2.0810    -0.2600 C.2   1 <1>  -0.0400 
  8 C        2.1830    -3.3370     0.7940 C.2   1 <1>  -0.1500 
  9 C        4.7740    -0.3280    -1.1380 C.3   1 <1>   0.1400 
 10 C        4.0460     1.9390     1.2130 C.3   1 <1>  -0.1600 
 11 O        0.5160    -3.3230    -0.6140 O.3   1 <1>  -0.2800 
 12 C       -0.1470    -0.9990    -0.8420 C.3   1 <1>  -0.0600 
 13 C        1.3780    -4.0880     0.0180 C.2   1 <1>  -0.0400 
 14 N        5.2090     1.0680    -0.8180 N.am  1 <1>  -0.6600 
 15 C        4.0990     1.9270    -0.3200 C.3   1 <1>   0.1400 
 16 C        1.3220    -5.5820    -0.2090 C.3   1 <1>  -0.0600 
 17 C        6.5420     1.4020    -0.8570 C.2   1 <1>   0.5690 
 18 O        7.3750     0.5770    -1.1570 O.2   1 <1>  -0.5700 
 19 C        7.0440     2.8100    -0.5020 C.3   1 <1>  -0.0190 
 20 C        7.8380     3.4330    -1.6690 C.3   1 <1>  -0.1600 
 21 C        7.9020     2.7800     0.7800 C.3   1 <1>  -0.1600 
 22 C        8.3700     4.8300    -1.3130 C.3   1 <1>  -0.1600 
 23 C        8.4330     4.1770     1.1400 C.3   1 <1>  -0.1600 
 24 C        9.2080     4.7840    -0.0330 C.3   1 <1>   0.2000 
 25 O        9.5600     6.0720     0.3020 O.3   1 <1>  -0.6800 
 26 H        4.2500    -2.1490    -0.1580 H     1 <1>   0.0800 
 27 H        5.5850    -1.3300     0.5720 H     1 <1>   0.0800 
 28 H        5.3740     0.4260     1.9620 H     1 <1>   0.0800 
 29 H        3.9170     0.6000     2.8920 H     1 <1>   0.0800 
 30 H        2.9810    -3.6540     1.4410 H     1 <1>   0.1500 
 31 H        3.8410    -0.3060    -1.6730 H     1 <1>   0.0800 
 32 H        5.4950    -0.7980    -1.7840 H     1 <1>   0.0800 
 33 H        4.7520     2.6540     1.5920 H     1 <1>   0.0800 
 34 H        3.0710     2.2830     1.5120 H     1 <1>   0.0800 
 35 H        0.1400    -0.0330    -0.4680 H     1 <1>   0.0800 
 36 H       -1.1690    -1.1860    -0.5680 H     1 <1>   0.0800 
 37 H       -0.0660    -1.0000    -1.9130 H     1 <1>   0.0800 
 38 H        4.1910     2.9280    -0.7040 H     1 <1>   0.0800 
 39 H        3.1640     1.5410    -0.6900 H     1 <1>   0.0800 
 40 H        2.0790    -6.0760     0.3730 H     1 <1>   0.0800 
 41 H        1.4810    -5.7970    -1.2500 H     1 <1>   0.0800 
 42 H        0.3570    -5.9550     0.0810 H     1 <1>   0.0800 
 43 H        6.2100     3.4550    -0.3130 H     1 <1>   0.0800 
 44 H        7.2080     3.4970    -2.5390 H     1 <1>   0.0800 
 45 H        8.6680     2.7920    -1.9160 H     1 <1>   0.0800 
 46 H        8.7360     2.1140     0.6310 H     1 <1>   0.0800 
 47 H        7.3200     2.3940     1.5970 H     1 <1>   0.0800 
 48 H        7.5370     5.4980    -1.1800 H     1 <1>   0.0800 
 49 H        8.9780     5.1950    -2.1220 H     1 <1>   0.0800 
 50 H        9.0840     4.1000     1.9930 H     1 <1>   0.0800 
 51 H        7.6030     4.8120     1.3960 H     1 <1>   0.0800 
 52 H       10.1160     4.2280    -0.2040 H     1 <1>   0.0800 
 53 H        8.7600     6.6070     0.4520 H     1 <1>   0.4000 
@<TRIPOS>BOND
  1   1   2  2   
  2   2   3  am  
  3   2   4  1   
  4   3   5  1   
  5   3   6  1   
  6   4   7  2   
  7   4   8  1   
  8   5   9  1   
  9   5  26  1   
 10   5  27  1   
 11   6  10  1   
 12   6  28  1   
 13   6  29  1   
 14   7  11  1   
 15   7  12  1   
 16   8  13  2   
 17   8  30  1   
 18   9  14  1   
 19   9  31  1   
 20   9  32  1   
 21  10  15  1   
 22  10  33  1   
 23  10  34  1   
 24  11  13  1   
 25  12  35  1   
 26  12  36  1   
 27  12  37  1   
 28  13  16  1   
 29  14  15  1   
 30  14  17  am  
 31  15  38  1   
 32  15  39  1   
 33  16  40  1   
 34  16  41  1   
 35  16  42  1   
 36  17  18  2   
 37  17  19  1   
 38  19  20  1   
 39  19  21  1   
 40  19  43  1   
 41  20  22  1   
 42  20  44  1   
 43  20  45  1   
 44  21  23  1   
 45  21  46  1   
 46  21  47  1   
 47  22  24  1   
 48  22  48  1   
 49  22  49  1   
 50  23  24  1   
 51  23  50  1   
 52  23  51  1   
 53  24  25  1   
 54  24  52  1   
 55  25  53  1   
@<TRIPOS>SUBSTRUCTURE
  1 ****  14 GROUP 4 **** **** 0

# MOE 2024.06 (io_trps.svl 2023.06)
