@<TRIPOS>MOLECULE
NONAME
60 62 1 0 0 
SMALL
USER_CHARGES


@<TRIPOS>ATOM
  1 O        2.0670     0.0030    -2.3620 O.2   1 <1>  -0.5700 
  2 C        2.2630    -0.5510    -1.3090 C.2   1 <1>   0.5690 
  3 N        2.6680     0.1000    -0.1810 N.am  1 <1>  -0.4940 
  4 C        2.0070    -2.0430    -1.2150 C.3   1 <1>  -0.0990 
  5 C        2.5600     1.4810     0.0730 C.2   1 <1>  -0.0880 
  6 C        0.5830    -2.3180    -0.6950 C.3   1 <1>  -0.1600 
  7 N        3.5370     2.4300    -0.0270 N.pl3 1 <1>   0.3140 
  8 C        1.4280     2.1010     0.5060 C.2   1 <1>  -0.0540 
  9 C        0.1820    -3.8040    -0.7150 C.3   1 <1>  -0.0800 
 10 N        3.0500     3.6420     0.3680 N.2   1 <1>  -0.7070 
 11 C        4.9780     2.2550    -0.4780 C.3   1 <1>   0.2560 
 12 C        0.1250     1.5360     0.7410 C.ar  1 <1>   0.0540 
 13 C        1.8100     3.4310     0.6680 C.2   1 <1>   0.1390 
 14 C       -1.3060    -3.9410    -0.3520 C.3   1 <1>  -0.1600 
 15 C        1.0300    -4.6570     0.2460 C.3   1 <1>  -0.1600 
 16 C        5.6990     1.2310     0.4180 C.3   1 <1>  -0.2400 
 17 C        5.0220     1.7870    -1.9430 C.3   1 <1>  -0.2400 
 18 C        5.7550     3.5850    -0.3880 C.3   1 <1>  -0.2400 
 19 C       -0.4100     1.4650     2.0230 C.ar  1 <1>  -0.1500 
 20 C       -0.6330     1.0400    -0.3150 C.ar  1 <1>  -0.1500 
 21 C       -1.7490    -5.4020    -0.2830 C.3   1 <1>   0.3430 
 22 C        0.5380    -6.1050     0.3100 C.3   1 <1>   0.3430 
 23 C       -1.6590     0.9120     2.2450 C.ar  1 <1>  -0.1500 
 24 C       -1.8830     0.4880    -0.1010 C.ar  1 <1>  -0.1500 
 25 N       -0.9010    -6.1370     0.6990 N.4   1 <1>  -0.9590 
 26 C       -2.3980     0.4220     1.1820 C.ar  1 <1>  -0.1500 
 27 C       -1.3790    -7.5420     0.8730 C.3   1 <1>   0.2630 
 28 H        2.7520    -0.4790     0.6530 H     1 <1>   0.3700 
 29 H        2.7460    -2.4840    -0.5720 H     1 <1>   0.0800 
 30 H        2.1230    -2.4640    -2.1980 H     1 <1>   0.0800 
 31 H       -0.1010    -1.7710    -1.3230 H     1 <1>   0.0800 
 32 H        0.4820    -1.9210     0.3020 H     1 <1>   0.0800 
 33 H        0.3180    -4.1770    -1.7180 H     1 <1>   0.0800 
 34 H        1.1420     4.2040     1.0060 H     1 <1>   0.1500 
 35 H       -1.9010    -3.4370    -1.0950 H     1 <1>   0.0800 
 36 H       -1.5060    -3.4640     0.5930 H     1 <1>   0.0800 
 37 H        1.0120    -4.2330     1.2350 H     1 <1>   0.0800 
 38 H        2.0540    -4.6670    -0.0830 H     1 <1>   0.0800 
 39 H        5.2710     0.2530     0.3120 H     1 <1>   0.0800 
 40 H        5.6380     1.5350     1.4480 H     1 <1>   0.0800 
 41 H        6.7370     1.1650     0.1460 H     1 <1>   0.0800 
 42 H        4.6030     0.8060    -2.0490 H     1 <1>   0.0800 
 43 H        6.0360     1.7520    -2.2970 H     1 <1>   0.0800 
 44 H        4.4670     2.4680    -2.5650 H     1 <1>   0.0800 
 45 H        5.7610     3.9480     0.6250 H     1 <1>   0.0800 
 46 H        5.2980     4.3280    -1.0180 H     1 <1>   0.0800 
 47 H        6.7730     3.4560    -0.7060 H     1 <1>   0.0800 
 48 H        0.1610     1.8470     2.8500 H     1 <1>   0.1500 
 49 H       -0.2310     1.0970    -1.3130 H     1 <1>   0.1500 
 50 H       -1.6540    -5.8530    -1.2580 H     1 <1>   0.0800 
 51 H       -2.7850    -5.4490     0.0130 H     1 <1>   0.0800 
 52 H        1.1280    -6.6530     1.0280 H     1 <1>   0.0800 
 53 H        0.6650    -6.5690    -0.6560 H     1 <1>   0.0800 
 54 H       -2.0590     0.8680     3.2430 H     1 <1>   0.1500 
 55 H       -2.4550     0.1180    -0.9340 H     1 <1>   0.1500 
 56 H       -0.9850    -5.6450     1.6000 H     1 <1>   0.4500 
 57 H       -3.3730     0.0000     1.3520 H     1 <1>   0.1500 
 58 H       -1.3040    -8.0820    -0.0570 H     1 <1>   0.0800 
 59 H       -2.4080    -7.5500     1.1940 H     1 <1>   0.0800 
 60 H       -0.7860    -8.0500     1.6150 H     1 <1>   0.0800 
@<TRIPOS>BOND
  1   1   2  2   
  2   2   3  am  
  3   2   4  1   
  4   3   5  1   
  5   3  28  1   
  6   4   6  1   
  7   4  29  1   
  8   4  30  1   
  9   5   7  1   
 10   5   8  2   
 11   6   9  1   
 12   6  31  1   
 13   6  32  1   
 14   7  10  1   
 15   7  11  1   
 16   8  12  1   
 17   8  13  1   
 18   9  14  1   
 19   9  15  1   
 20   9  33  1   
 21  10  13  2   
 22  11  16  1   
 23  11  17  1   
 24  11  18  1   
 25  12  19  ar  
 26  12  20  ar  
 27  13  34  1   
 28  14  21  1   
 29  14  35  1   
 30  14  36  1   
 31  15  22  1   
 32  15  37  1   
 33  15  38  1   
 34  16  39  1   
 35  16  40  1   
 36  16  41  1   
 37  17  42  1   
 38  17  43  1   
 39  17  44  1   
 40  18  45  1   
 41  18  46  1   
 42  18  47  1   
 43  19  23  ar  
 44  19  48  1   
 45  20  24  ar  
 46  20  49  1   
 47  21  25  1   
 48  21  50  1   
 49  21  51  1   
 50  22  25  1   
 51  22  52  1   
 52  22  53  1   
 53  23  26  ar  
 54  23  54  1   
 55  24  26  ar  
 56  24  55  1   
 57  25  27  1   
 58  25  56  1   
 59  26  57  1   
 60  27  58  1   
 61  27  59  1   
 62  27  60  1   
@<TRIPOS>SUBSTRUCTURE
  1 ****   3 GROUP 4 **** **** 0

# MOE 2024.06 (io_trps.svl 2023.06)
