@<TRIPOS>MOLECULE
NONAME
47 49 1 0 0 
SMALL
USER_CHARGES


@<TRIPOS>ATOM
  1 S        0.2880     0.0960    -0.9690 S.o2  1 <1>   1.3330 
  2 O       -1.0470    -0.1560    -1.4640 O.2   1 <1>  -0.6500 
  3 O        1.3370     0.4430    -1.9010 O.2   1 <1>  -0.6500 
  4 N        0.7990    -1.2730    -0.1060 N.am  1 <1>  -0.8490 
  5 C        0.1670     1.3580     0.2940 C.3   1 <1>  -0.0550 
  6 C        2.2360    -1.2700     0.1880 C.3   1 <1>   0.1160 
  7 C        0.4330    -2.5180    -0.7860 C.3   1 <1>   0.1160 
  8 C       -0.3440     2.7110    -0.2410 C.3   1 <1>  -0.0800 
  9 C       -0.6280     3.7470     0.8500 C.3   1 <1>   0.2000 
 10 C        0.6320     3.4030    -1.2010 C.3   1 <1>   0.1400 
 11 O        0.3430     3.6710     1.8390 O.3   1 <1>  -0.6800 
 12 C       -0.5080     5.0900     0.1330 C.3   1 <1>   0.1400 
 13 N        0.4880     4.8580    -0.9480 N.am  1 <1>  -0.6600 
 14 C        1.4040     5.7510    -1.4430 C.2   1 <1>   0.5690 
 15 O        2.1810     5.4320    -2.3110 O.2   1 <1>  -0.5700 
 16 C        1.4840     7.1870    -0.9250 C.3   1 <1>   0.2010 
 17 N        2.5810     7.3880     0.0660 N.am  1 <1>  -0.4770 
 18 C        2.9440     6.5240     1.0640 C.2   1 <1>   0.7800 
 19 C        3.6080     8.3070    -0.0320 C.ar  1 <1>   0.1170 
 20 O        2.3140     5.5590     1.4590 O.2   1 <1>  -0.5700 
 21 O        4.1150     6.8750     1.5960 O.3   1 <1>  -0.2330 
 22 C        4.5360     7.9660     0.9280 C.ar  1 <1>   0.0820 
 23 C        3.8310     9.4000    -0.8570 C.ar  1 <1>  -0.1500 
 24 C        5.7020     8.6850     1.1120 C.ar  1 <1>  -0.1500 
 25 C        4.9970    10.1330    -0.6860 C.ar  1 <1>  -0.1500 
 26 C        5.9250     9.7790     0.2910 C.ar  1 <1>  -0.1500 
 27 H       -0.5060     1.0160     1.0560 H     1 <1>   0.0800 
 28 H        1.1270     1.4980     0.7510 H     1 <1>   0.0800 
 29 H        2.4900    -2.1190     0.7980 H     1 <1>   0.0800 
 30 H        2.5050    -0.3760     0.7240 H     1 <1>   0.0800 
 31 H        2.8080    -1.3100    -0.7250 H     1 <1>   0.0800 
 32 H        0.7530    -3.3670    -0.2070 H     1 <1>   0.0800 
 33 H        0.8880    -2.5590    -1.7620 H     1 <1>   0.0800 
 34 H       -0.6370    -2.5730    -0.9010 H     1 <1>   0.0800 
 35 H       -1.2610     2.5440    -0.7790 H     1 <1>   0.0800 
 36 H       -1.5880     3.6060     1.3160 H     1 <1>   0.0800 
 37 H        0.4070     3.1740    -2.2300 H     1 <1>   0.0800 
 38 H        1.6490     3.1130    -0.9930 H     1 <1>   0.0800 
 39 H        1.1210     4.2430     1.6020 H     1 <1>   0.4000 
 40 H       -0.2130     5.8670     0.8150 H     1 <1>   0.0800 
 41 H       -1.4520     5.3430    -0.3170 H     1 <1>   0.0800 
 42 H        0.5510     7.4760    -0.4810 H     1 <1>   0.0800 
 43 H        1.6560     7.8250    -1.7700 H     1 <1>   0.0800 
 44 H        3.1170     9.6730    -1.6120 H     1 <1>   0.1500 
 45 H        6.4070     8.3950     1.8710 H     1 <1>   0.1500 
 46 H        5.1900    10.9850    -1.3160 H     1 <1>   0.1500 
 47 H        6.8240    10.3610     0.4070 H     1 <1>   0.1500 
@<TRIPOS>BOND
  1   1   2  2   
  2   1   3  2   
  3   1   4  am  
  4   1   5  1   
  5   4   6  1   
  6   4   7  1   
  7   5   8  1   
  8   5  27  1   
  9   5  28  1   
 10   6  29  1   
 11   6  30  1   
 12   6  31  1   
 13   7  32  1   
 14   7  33  1   
 15   7  34  1   
 16   8   9  1   
 17   8  10  1   
 18   8  35  1   
 19   9  11  1   
 20   9  12  1   
 21   9  36  1   
 22  10  13  1   
 23  10  37  1   
 24  10  38  1   
 25  11  39  1   
 26  12  13  1   
 27  12  40  1   
 28  12  41  1   
 29  13  14  am  
 30  14  15  2   
 31  14  16  1   
 32  16  17  1   
 33  16  42  1   
 34  16  43  1   
 35  17  18  am  
 36  17  19  1   
 37  18  20  2   
 38  18  21  1   
 39  19  22  ar  
 40  19  23  ar  
 41  21  22  1   
 42  22  24  ar  
 43  23  25  ar  
 44  23  44  1   
 45  24  26  ar  
 46  24  45  1   
 47  25  26  ar  
 48  25  46  1   
 49  26  47  1   
@<TRIPOS>SUBSTRUCTURE
  1 ****  13 GROUP 4 **** **** 0

# MOE 2024.06 (io_trps.svl 2023.06)
