@<TRIPOS>MOLECULE
NONAME
47 50 1 0 0 
SMALL
USER_CHARGES


@<TRIPOS>ATOM
  1 O       -0.0820    -0.0870    -0.6900 O.2   1 <1>  -0.5700 
  2 C        0.8210    -0.6380    -0.0830 C.2   1 <1>   0.7150 
  3 N        1.8440     0.0870     0.4600 N.am  1 <1>  -0.4930 
  4 C        0.8180    -2.0720     0.0490 C.2   1 <1>   0.0550 
  5 C        2.1750     1.4590     0.3320 C.2   1 <1>   0.0630 
  6 O        1.7950    -2.6840     0.6990 O.3   1 <1>  -0.0190 
  7 C       -0.0640    -2.9830    -0.4040 C.2   1 <1>  -0.1500 
  8 C        3.4960     1.8980     0.1890 C.2   1 <1>   0.3720 
  9 C        1.4300     2.5870     0.3260 C.2   1 <1>  -0.3320 
 10 N        1.5440    -3.9690     0.6640 N.2   1 <1>  -0.4100 
 11 C        0.4430    -4.1950     0.0190 C.2   1 <1>   0.2350 
 12 N        3.5830     3.1860     0.0730 N.2   1 <1>  -0.7070 
 13 N        4.6090     1.0360     0.1730 N.pl3 1 <1>  -0.8210 
 14 N        2.3020     3.6120     0.1500 N.pl3 1 <1>   0.3140 
 15 C       -0.0720     2.7680     0.4900 C.3   1 <1>  -0.0600 
 16 C       -0.1420    -5.5040    -0.2130 C.ar  1 <1>   0.0540 
 17 C        5.5790     1.3410     1.2600 C.3   1 <1>   0.2090 
 18 C        5.3350     1.1050    -1.1250 C.3   1 <1>   0.2090 
 19 C        1.9820     5.0410     0.0480 C.3   1 <1>   0.0160 
 20 C       -1.4790    -5.6580    -0.5820 C.ar  1 <1>  -0.1500 
 21 C        0.6200    -6.6640    -0.0710 C.ar  1 <1>  -0.1500 
 22 C        6.9600     1.2280     0.6330 C.3   1 <1>  -0.1600 
 23 C        6.7310     1.6270    -0.8140 C.3   1 <1>  -0.1600 
 24 C       -2.0260    -6.9090    -0.8070 C.ar  1 <1>  -0.1500 
 25 C        0.0790    -7.9170    -0.2930 C.ar  1 <1>  -0.1500 
 26 C       -1.2470    -8.0420    -0.6640 C.ar  1 <1>  -0.1500 
 27 H        2.6650    -0.4600     0.7280 H     1 <1>   0.3700 
 28 H       -0.9580    -2.8090    -0.9730 H     1 <1>   0.1500 
 29 H       -0.5170     1.8730     0.8840 H     1 <1>   0.0800 
 30 H       -0.5230     2.9820    -0.4630 H     1 <1>   0.0800 
 31 H       -0.2840     3.5700     1.1720 H     1 <1>   0.0800 
 32 H        5.4620     0.6450     2.0720 H     1 <1>   0.0800 
 33 H        5.4280     2.3420     1.6310 H     1 <1>   0.0800 
 34 H        4.8330     1.7450    -1.8330 H     1 <1>   0.0800 
 35 H        5.3950     0.1120    -1.5360 H     1 <1>   0.0800 
 36 H        1.2140     5.1790    -0.6900 H     1 <1>   0.0800 
 37 H        2.8640     5.5800    -0.2450 H     1 <1>   0.0800 
 38 H        1.6440     5.3940     1.0030 H     1 <1>   0.0800 
 39 H       -2.1070    -4.7940    -0.6940 H     1 <1>   0.1500 
 40 H        1.6540    -6.5820     0.2170 H     1 <1>   0.1500 
 41 H        7.2890     0.2050     0.6880 H     1 <1>   0.0800 
 42 H        7.6760     1.8600     1.1270 H     1 <1>   0.0800 
 43 H        6.7220     2.7000    -0.9010 H     1 <1>   0.0800 
 44 H        7.4700     1.2220    -1.4810 H     1 <1>   0.0800 
 45 H       -3.0600    -7.0020    -1.0920 H     1 <1>   0.1500 
 46 H        0.6900    -8.7960    -0.1780 H     1 <1>   0.1500 
 47 H       -1.6710    -9.0170    -0.8370 H     1 <1>   0.1500 
@<TRIPOS>BOND
  1   1   2  2   
  2   2   3  am  
  3   2   4  1   
  4   3   5  1   
  5   3  27  1   
  6   4   6  1   
  7   4   7  2   
  8   5   8  1   
  9   5   9  2   
 10   6  10  1   
 11   7  11  1   
 12   7  28  1   
 13   8  12  2   
 14   8  13  1   
 15   9  14  1   
 16   9  15  1   
 17  10  11  2   
 18  11  16  1   
 19  12  14  1   
 20  13  17  1   
 21  13  18  1   
 22  14  19  1   
 23  15  29  1   
 24  15  30  1   
 25  15  31  1   
 26  16  20  ar  
 27  16  21  ar  
 28  17  22  1   
 29  17  32  1   
 30  17  33  1   
 31  18  23  1   
 32  18  34  1   
 33  18  35  1   
 34  19  36  1   
 35  19  37  1   
 36  19  38  1   
 37  20  24  ar  
 38  20  39  1   
 39  21  25  ar  
 40  21  40  1   
 41  22  23  1   
 42  22  41  1   
 43  22  42  1   
 44  23  43  1   
 45  23  44  1   
 46  24  26  ar  
 47  24  45  1   
 48  25  26  ar  
 49  25  46  1   
 50  26  47  1   
@<TRIPOS>SUBSTRUCTURE
  1 ****   2 GROUP 4 **** **** 0

# MOE 2024.06 (io_trps.svl 2023.06)
