@<TRIPOS>MOLECULE
NONAME
50 53 1 0 0 
SMALL
USER_CHARGES


@<TRIPOS>ATOM
  1 O       -1.9840     0.8380     3.3020 O.2   1 <1>  -0.5700 
  2 C       -2.4120     1.5200     2.3880 C.2   1 <1>   0.5440 
  3 N       -3.5080     1.0620     1.6830 N.am  1 <1>  -0.6600 
  4 C       -1.7680     2.7780     2.0930 C.ar  1 <1>   0.0860 
  5 C       -4.1420    -0.2520     1.9920 C.3   1 <1>   0.1400 
  6 C       -4.0200     1.6730     0.4220 C.3   1 <1>   0.1400 
  7 C       -0.9630     2.9380     0.9620 C.ar  1 <1>   0.1400 
  8 C       -1.9050     3.8890     2.9190 C.ar  1 <1>  -0.1500 
  9 C       -3.8000    -1.2390     0.8530 C.3   1 <1>   0.4230 
 10 C       -3.7560     0.7040    -0.7410 C.3   1 <1>  -0.1600 
 11 O       -0.6750     2.0260     0.0320 O.3   1 <1>  -0.2800 
 12 C       -0.3400     4.1360     0.6570 C.ar  1 <1>   0.0000 
 13 C       -1.2810     5.1020     2.6270 C.ar  1 <1>  -0.1500 
 14 N       -4.2620    -2.6500     1.0910 N.4   1 <1>  -0.9590 
 15 C       -4.3570    -0.7090    -0.4870 C.3   1 <1>  -0.1060 
 16 C        0.1110     2.6040    -0.8660 C.2   1 <1>  -0.0400 
 17 C       -0.4980     5.2350     1.4980 C.ar  1 <1>  -0.1500 
 18 C        0.3550     3.8880    -0.5450 C.2   1 <1>  -0.1500 
 19 C       -3.7920    -3.5730     0.0280 C.3   1 <1>   0.3430 
 20 C       -4.0050    -3.1750     2.4580 C.3   1 <1>   0.2630 
 21 C       -5.8940    -0.6430    -0.3910 C.2   1 <1>   0.9060 
 22 C       -3.9190    -1.6480    -1.6370 C.3   1 <1>  -0.1600 
 23 C        0.5800     1.7720    -2.0390 C.3   1 <1>  -0.0600 
 24 C       -4.2900    -3.1100    -1.3430 C.3   1 <1>  -0.1600 
 25 O       -6.4900    -1.4860     0.3010 O.co2 1 <1>  -0.9000 
 26 O       -6.5030     0.2410    -0.9910 O.co2 1 <1>  -0.9000 
 27 H       -3.7750    -0.6200     2.9310 H     1 <1>   0.0800 
 28 H       -5.2070    -0.1180     2.0790 H     1 <1>   0.0800 
 29 H       -5.0790     1.8520     0.5180 H     1 <1>   0.0800 
 30 H       -3.5470     2.6180     0.2240 H     1 <1>   0.0800 
 31 H       -2.5070     3.8030     3.8070 H     1 <1>   0.1500 
 32 H       -2.7260    -1.2540     0.7800 H     1 <1>   0.0800 
 33 H       -4.1830     1.1220    -1.6370 H     1 <1>   0.0800 
 34 H       -2.6950     0.6360    -0.8960 H     1 <1>   0.0800 
 35 H       -1.4130     5.9380     3.2930 H     1 <1>   0.1500 
 36 H       -5.3030    -2.5380     0.9470 H     1 <1>   0.4500 
 37 H       -0.0110     6.1650     1.2610 H     1 <1>   0.1500 
 38 H        0.9500     4.6170    -1.0630 H     1 <1>   0.1500 
 39 H       -2.7150    -3.6040     0.0280 H     1 <1>   0.0800 
 40 H       -4.1640    -4.5670     0.2200 H     1 <1>   0.0800 
 41 H       -2.9480    -3.1740     2.6670 H     1 <1>   0.0800 
 42 H       -4.3810    -4.1810     2.5440 H     1 <1>   0.0800 
 43 H       -4.5060    -2.5640     3.1910 H     1 <1>   0.0800 
 44 H       -4.3950    -1.3350    -2.5520 H     1 <1>   0.0800 
 45 H       -2.8540    -1.5790    -1.7780 H     1 <1>   0.0800 
 46 H        1.2080     2.3580    -2.6840 H     1 <1>   0.0800 
 47 H       -0.2690     1.4240    -2.5990 H     1 <1>   0.0800 
 48 H        1.1370     0.9250    -1.6830 H     1 <1>   0.0800 
 49 H       -3.8720    -3.7450    -2.1040 H     1 <1>   0.0800 
 50 H       -5.3600    -3.2290    -1.3850 H     1 <1>   0.0800 
@<TRIPOS>BOND
  1   1   2  2   
  2   2   3  am  
  3   2   4  1   
  4   3   5  1   
  5   3   6  1   
  6   4   7  ar  
  7   4   8  ar  
  8   5   9  1   
  9   5  27  1   
 10   5  28  1   
 11   6  10  1   
 12   6  29  1   
 13   6  30  1   
 14   7  11  1   
 15   7  12  ar  
 16   8  13  ar  
 17   8  31  1   
 18   9  14  1   
 19   9  15  1   
 20   9  32  1   
 21  10  15  1   
 22  10  33  1   
 23  10  34  1   
 24  11  16  1   
 25  12  17  ar  
 26  12  18  1   
 27  13  17  ar  
 28  13  35  1   
 29  14  19  1   
 30  14  20  1   
 31  14  36  1   
 32  15  21  1   
 33  15  22  1   
 34  16  18  2   
 35  16  23  1   
 36  17  37  1   
 37  18  38  1   
 38  19  24  1   
 39  19  39  1   
 40  19  40  1   
 41  20  41  1   
 42  20  42  1   
 43  20  43  1   
 44  21  25  ar  
 45  21  26  ar  
 46  22  24  1   
 47  22  44  1   
 48  22  45  1   
 49  23  46  1   
 50  23  47  1   
 51  23  48  1   
 52  24  49  1   
 53  24  50  1   
@<TRIPOS>SUBSTRUCTURE
  1 ****   3 GROUP 4 **** **** 0

# MOE 2024.06 (io_trps.svl 2023.06)
