@<TRIPOS>MOLECULE
NONAME
56 57 1 0 0 
SMALL
USER_CHARGES


@<TRIPOS>ATOM
  1 S        0.7460     0.0880    -0.5810 S.o2  1 <1>   1.3330 
  2 O        0.4190    -0.0450    -1.9810 O.2   1 <1>  -0.6500 
  3 O        2.1050     0.3950    -0.1950 O.2   1 <1>  -0.6500 
  4 N        0.2020    -1.2710     0.2700 N.am  1 <1>  -0.8490 
  5 C       -0.2540     1.4220     0.0760 C.3   1 <1>  -0.0550 
  6 C        1.2690    -2.2500     0.5090 C.3   1 <1>   0.1160 
  7 C       -0.9450    -1.9360    -0.3610 C.3   1 <1>   0.1160 
  8 C        0.0330     2.7660    -0.6320 C.3   1 <1>  -0.0800 
  9 C       -0.7320     3.9740    -0.0920 C.3   1 <1>   0.2000 
 10 C        1.5100     3.1890    -0.5640 C.3   1 <1>   0.3430 
 11 O       -0.6940     3.9630     1.3000 O.3   1 <1>  -0.6800 
 12 C        0.1200     5.1450    -0.5880 C.3   1 <1>   0.3430 
 13 N        1.5400     4.6790    -0.4830 N.4   1 <1>  -0.9590 
 14 C        2.1580     5.1140     0.7990 C.3   1 <1>   0.5240 
 15 C        2.3760     6.6080     0.7240 C.2   1 <1>  -0.1810 
 16 C        3.3850     7.3470     0.1930 C.2   1 <1>  -0.0400 
 17 C        1.4610     7.5290     1.2420 C.2   1 <1>  -0.1500 
 18 O        3.1070     8.6260     0.3440 O.3   1 <1>  -0.2800 
 19 C        4.7090     7.0080    -0.5150 C.3   1 <1>   0.1800 
 20 C        1.9490     8.7680     0.9760 C.2   1 <1>   0.0550 
 21 C        5.8610     7.7360     0.1920 C.3   1 <1>  -0.2400 
 22 C        4.6310     7.4840    -1.9710 C.3   1 <1>  -0.2400 
 23 C        5.0290     5.5060    -0.5100 C.3   1 <1>  -0.2400 
 24 C        1.3990    10.0690     1.2730 C.2   1 <1>   0.7150 
 25 O        0.3050    10.1920     1.7850 O.2   1 <1>  -0.5700 
 26 N        2.0740    11.2030     0.9870 N.am  1 <1>  -0.8000 
 27 H       -1.2910     1.1750    -0.0440 H     1 <1>   0.0800 
 28 H       -0.0550     1.5070     1.1270 H     1 <1>   0.0800 
 29 H        0.8910    -3.0860     1.0730 H     1 <1>   0.0800 
 30 H        2.0660    -1.7980     1.0760 H     1 <1>   0.0800 
 31 H        1.6690    -2.6060    -0.4260 H     1 <1>   0.0800 
 32 H       -1.2990    -2.7380     0.2650 H     1 <1>   0.0800 
 33 H       -0.6650    -2.3400    -1.3210 H     1 <1>   0.0800 
 34 H       -1.7500    -1.2370    -0.5040 H     1 <1>   0.0800 
 35 H       -0.2150     2.6520    -1.6740 H     1 <1>   0.0800 
 36 H       -1.7560     4.0360    -0.4220 H     1 <1>   0.0800 
 37 H        2.0450     2.8330    -1.4310 H     1 <1>   0.0800 
 38 H        1.9680     2.7630     0.3160 H     1 <1>   0.0800 
 39 H       -1.4940     3.5370     1.6760 H     1 <1>   0.4000 
 40 H       -0.0690     6.0370    -0.0160 H     1 <1>   0.0800 
 41 H       -0.1160     5.3360    -1.6220 H     1 <1>   0.0800 
 42 H        2.1010     5.0940    -1.2370 H     1 <1>   0.4500 
 43 H        1.5150     4.8740     1.6310 H     1 <1>   0.0800 
 44 H        3.1010     4.6170     0.9450 H     1 <1>   0.0800 
 45 H        0.5420     7.3080     1.7590 H     1 <1>   0.1500 
 46 H        6.8020     7.5100    -0.2750 H     1 <1>   0.0800 
 47 H        5.9110     7.4410     1.2250 H     1 <1>   0.0800 
 48 H        5.7160     8.8010     0.1550 H     1 <1>   0.0800 
 49 H        5.5510     7.2770    -2.4900 H     1 <1>   0.0800 
 50 H        4.4580     8.5460    -2.0080 H     1 <1>   0.0800 
 51 H        3.8260     6.9950    -2.4880 H     1 <1>   0.0800 
 52 H        5.9790     5.3300    -0.9820 H     1 <1>   0.0800 
 53 H        4.2900     4.9490    -1.0530 H     1 <1>   0.0800 
 54 H        5.0940     5.1390     0.4990 H     1 <1>   0.0800 
 55 H        1.6660    12.1070     1.2190 H     1 <1>   0.3700 
 56 H        3.0040    11.1860     0.5710 H     1 <1>   0.3700 
@<TRIPOS>BOND
  1   1   2  2   
  2   1   3  2   
  3   1   4  am  
  4   1   5  1   
  5   4   6  1   
  6   4   7  1   
  7   5   8  1   
  8   5  27  1   
  9   5  28  1   
 10   6  29  1   
 11   6  30  1   
 12   6  31  1   
 13   7  32  1   
 14   7  33  1   
 15   7  34  1   
 16   8   9  1   
 17   8  10  1   
 18   8  35  1   
 19   9  11  1   
 20   9  12  1   
 21   9  36  1   
 22  10  13  1   
 23  10  37  1   
 24  10  38  1   
 25  11  39  1   
 26  12  13  1   
 27  12  40  1   
 28  12  41  1   
 29  13  14  1   
 30  13  42  1   
 31  14  15  1   
 32  14  43  1   
 33  14  44  1   
 34  15  16  2   
 35  15  17  1   
 36  16  18  1   
 37  16  19  1   
 38  17  20  2   
 39  17  45  1   
 40  18  20  1   
 41  19  21  1   
 42  19  22  1   
 43  19  23  1   
 44  20  24  1   
 45  21  46  1   
 46  21  47  1   
 47  21  48  1   
 48  22  49  1   
 49  22  50  1   
 50  22  51  1   
 51  23  52  1   
 52  23  53  1   
 53  23  54  1   
 54  24  25  2   
 55  24  26  am  
 56  26  55  1   
 57  26  56  1   
@<TRIPOS>SUBSTRUCTURE
  1 ****  13 GROUP 4 **** **** 0

# MOE 2024.06 (io_trps.svl 2023.06)
