@<TRIPOS>MOLECULE
NONAME
54 57 1 0 0 
SMALL
USER_CHARGES


@<TRIPOS>ATOM
  1 O        2.4190    -0.2470    -2.2900 O.2   1 <1>  -0.5700 
  2 C        2.1130    -0.6350    -1.1740 C.2   1 <1>   0.5440 
  3 N        2.0250     0.3000    -0.1640 N.am  1 <1>  -0.6600 
  4 C        1.8850    -2.0460    -0.9380 C.ar  1 <1>   0.0860 
  5 C        1.9500     1.7570    -0.4750 C.3   1 <1>   0.3200 
  6 C        2.3240    -0.0100     1.2640 C.3   1 <1>   0.0600 
  7 C        0.8420    -2.4990    -0.1270 C.ar  1 <1>  -0.1500 
  8 C        2.7040    -3.0130    -1.5210 C.ar  1 <1>  -0.1500 
  9 C        3.3460     2.3410    -0.6090 C.2   1 <1>   0.0060 
 10 C        0.6300    -3.8440     0.1140 C.ar  1 <1>  -0.1430 
 11 C        2.5020    -4.3570    -1.2890 C.ar  1 <1>  -0.1500 
 12 N        4.1890     1.8810    -1.5630 N.pl3 1 <1>   0.0330 
 13 N        3.8450     3.2740     0.1280 N.2   1 <1>  -0.5650 
 14 C        1.4690    -4.7950    -0.4680 C.ar  1 <1>   0.1000 
 15 C       -0.5190    -4.2830     1.0100 C.3   1 <1>  -0.0970 
 16 C        5.3380     2.5850    -1.4190 C.ar  1 <1>  -0.1520 
 17 C        5.1090     3.4500    -0.3640 C.ar  1 <1>   0.2270 
 18 N        1.2790    -6.1490    -0.2450 N.pl3 1 <1>  -0.8380 
 19 C        6.5600     2.5640    -2.0940 C.ar  1 <1>  -0.1500 
 20 C        6.1140     4.3320     0.0480 C.ar  1 <1>  -0.1430 
 21 C        0.7030    -6.9490    -1.3630 C.3   1 <1>   0.2090 
 22 C        2.3380    -6.8920     0.4950 C.3   1 <1>   0.2090 
 23 C        7.5450     3.4330    -1.6840 C.ar  1 <1>  -0.1500 
 24 C        7.3230     4.3140    -0.6170 C.ar  1 <1>  -0.1500 
 25 C        5.8530     5.2790     1.2070 C.3   1 <1>  -0.0970 
 26 C        0.2980    -8.3520    -0.8770 C.3   1 <1>   0.1200 
 27 C        1.8450    -8.2980     0.8830 C.3   1 <1>   0.1200 
 28 O        1.3700    -8.9930    -0.2380 O.3   1 <1>  -0.5600 
 29 H        1.4200     2.2680     0.3090 H     1 <1>   0.0800 
 30 H        1.4110     1.9060    -1.3940 H     1 <1>   0.0800 
 31 H        2.6670    -1.0240     1.3740 H     1 <1>   0.0800 
 32 H        1.4390     0.1300     1.8600 H     1 <1>   0.0800 
 33 H        3.0960     0.6480     1.6250 H     1 <1>   0.0800 
 34 H        0.1870    -1.7700     0.3150 H     1 <1>   0.1500 
 35 H        3.5060    -2.6940    -2.1630 H     1 <1>   0.1500 
 36 H        3.1450    -5.0850    -1.7490 H     1 <1>   0.1500 
 37 H        3.9730     1.1140    -2.2130 H     1 <1>   0.2700 
 38 H       -1.0590    -3.4400     1.3990 H     1 <1>   0.0800 
 39 H       -0.1350    -4.8580     1.8340 H     1 <1>   0.0800 
 40 H       -1.1970    -4.9010     0.4500 H     1 <1>   0.0800 
 41 H        6.7160     1.8830    -2.9110 H     1 <1>   0.1500 
 42 H        1.4280    -7.0420    -2.1530 H     1 <1>   0.0800 
 43 H       -0.1600    -6.4400    -1.7570 H     1 <1>   0.0800 
 44 H        2.6030    -6.3440     1.3810 H     1 <1>   0.0800 
 45 H        3.2150    -6.9830    -0.1220 H     1 <1>   0.0800 
 46 H        8.4990     3.4450    -2.1810 H     1 <1>   0.1500 
 47 H        8.1150     4.9800    -0.3240 H     1 <1>   0.1500 
 48 H        5.0170     5.9130     0.9730 H     1 <1>   0.0800 
 49 H        6.7110     5.8930     1.4070 H     1 <1>   0.0800 
 50 H        5.6160     4.7120     2.0900 H     1 <1>   0.0800 
 51 H        0.0010    -8.9620    -1.7110 H     1 <1>   0.0800 
 52 H       -0.5230    -8.2840    -0.1860 H     1 <1>   0.0800 
 53 H        1.0510    -8.2270     1.6060 H     1 <1>   0.0800 
 54 H        2.6510    -8.8700     1.3070 H     1 <1>   0.0800 
@<TRIPOS>BOND
  1   1   2  2   
  2   2   3  am  
  3   2   4  1   
  4   3   5  1   
  5   3   6  1   
  6   4   7  ar  
  7   4   8  ar  
  8   5   9  1   
  9   5  29  1   
 10   5  30  1   
 11   6  31  1   
 12   6  32  1   
 13   6  33  1   
 14   7  10  ar  
 15   7  34  1   
 16   8  11  ar  
 17   8  35  1   
 18   9  12  1   
 19   9  13  2   
 20  10  14  ar  
 21  10  15  1   
 22  11  14  ar  
 23  11  36  1   
 24  12  16  1   
 25  12  37  1   
 26  13  17  1   
 27  14  18  1   
 28  15  38  1   
 29  15  39  1   
 30  15  40  1   
 31  16  17  ar  
 32  16  19  ar  
 33  17  20  ar  
 34  18  21  1   
 35  18  22  1   
 36  19  23  ar  
 37  19  41  1   
 38  20  24  ar  
 39  20  25  1   
 40  21  26  1   
 41  21  42  1   
 42  21  43  1   
 43  22  27  1   
 44  22  44  1   
 45  22  45  1   
 46  23  24  ar  
 47  23  46  1   
 48  24  47  1   
 49  25  48  1   
 50  25  49  1   
 51  25  50  1   
 52  26  28  1   
 53  26  51  1   
 54  26  52  1   
 55  27  28  1   
 56  27  53  1   
 57  27  54  1   
@<TRIPOS>SUBSTRUCTURE
  1 ****   2 GROUP 4 **** **** 0

# MOE 2024.06 (io_trps.svl 2023.06)
