@<TRIPOS>MOLECULE
NONAME
41 41 1 0 0 
SMALL
USER_CHARGES


@<TRIPOS>ATOM
  1 O        0.2110     0.3710    -0.1280 O.3   1 <1>  -0.5600 
  2 C        1.5420     0.8010    -0.0930 C.3   1 <1>   0.1200 
  3 C        0.0530    -0.9500    -0.5220 C.3   1 <1>   0.1200 
  4 C        1.5870     2.2750     0.3290 C.3   1 <1>   0.2000 
  5 C       -1.4400    -1.2550    -0.5110 C.3   1 <1>  -0.2400 
  6 O        0.6340     2.9680    -0.4160 O.3   1 <1>  -0.6800 
  7 C        2.9810     2.8980     0.1380 C.3   1 <1>   0.2090 
  8 N        2.9240     4.3650     0.3320 N.pl3 1 <1>  -0.8690 
  9 C        4.0040     5.1890     0.1460 C.ar  1 <1>   0.4100 
 10 N        5.1930     4.6220     0.1460 N.ar  1 <1>  -0.6200 
 11 C        3.8480     6.5580    -0.0340 C.ar  1 <1>  -0.1430 
 12 C        6.2170     5.4300    -0.0320 C.ar  1 <1>   0.4770 
 13 C        5.0010     7.2840    -0.2130 C.ar  1 <1>   0.1600 
 14 C        2.4460     7.1780    -0.0250 C.3   1 <1>  -0.0170 
 15 N        6.1990     6.7360    -0.2160 N.ar  1 <1>  -0.6200 
 16 C        7.5770     4.7770    -0.0300 C.3   1 <1>  -0.0970 
 17 C        2.4010     8.7060    -0.1840 C.3   1 <1>  -0.1600 
 18 C        0.9600     9.2260    -0.1470 C.3   1 <1>  -0.2400 
 19 H        1.9680     0.6850    -1.0750 H     1 <1>   0.0800 
 20 H        2.0880     0.1950     0.6100 H     1 <1>   0.0800 
 21 H        0.5750    -1.5870     0.1730 H     1 <1>   0.0800 
 22 H        0.4570    -1.0710    -1.5130 H     1 <1>   0.0800 
 23 H        1.3070     2.3510     1.3650 H     1 <1>   0.0800 
 24 H       -1.8380    -1.1170     0.4780 H     1 <1>   0.0800 
 25 H       -1.6060    -2.2740    -0.8090 H     1 <1>   0.0800 
 26 H       -1.9540    -0.6070    -1.1980 H     1 <1>   0.0800 
 27 H       -0.1360     2.3630    -0.5050 H     1 <1>   0.4000 
 28 H        3.3400     2.6900    -0.8550 H     1 <1>   0.0800 
 29 H        3.6720     2.4720     0.8440 H     1 <1>   0.0800 
 30 H        2.0040     4.7210     0.0500 H     1 <1>   0.4000 
 31 H        4.9670     8.3490    -0.3600 H     1 <1>   0.1500 
 32 H        1.9700     6.9160     0.9050 H     1 <1>   0.0800 
 33 H        1.8750     6.7320    -0.8210 H     1 <1>   0.0800 
 34 H        7.6170     4.0210     0.7320 H     1 <1>   0.0800 
 35 H        8.3420     5.5060     0.1630 H     1 <1>   0.0800 
 36 H        7.7530     4.3250    -0.9870 H     1 <1>   0.0800 
 37 H        2.8480     8.9850    -1.1230 H     1 <1>   0.0800 
 38 H        2.9590     9.1690     0.6130 H     1 <1>   0.0800 
 39 H        0.3820     8.7940    -0.9460 H     1 <1>   0.0800 
 40 H        0.9520    10.2960    -0.2610 H     1 <1>   0.0800 
 41 H        0.4940     8.9800     0.7910 H     1 <1>   0.0800 
@<TRIPOS>BOND
  1   1   2  1   
  2   1   3  1   
  3   2   4  1   
  4   2  19  1   
  5   2  20  1   
  6   3   5  1   
  7   3  21  1   
  8   3  22  1   
  9   4   6  1   
 10   4   7  1   
 11   4  23  1   
 12   5  24  1   
 13   5  25  1   
 14   5  26  1   
 15   6  27  1   
 16   7   8  1   
 17   7  28  1   
 18   7  29  1   
 19   8   9  1   
 20   8  30  1   
 21   9  10  ar  
 22   9  11  ar  
 23  10  12  ar  
 24  11  13  ar  
 25  11  14  1   
 26  12  15  ar  
 27  12  16  1   
 28  13  15  ar  
 29  13  31  1   
 30  14  17  1   
 31  14  32  1   
 32  14  33  1   
 33  16  34  1   
 34  16  35  1   
 35  16  36  1   
 36  17  18  1   
 37  17  37  1   
 38  17  38  1   
 39  18  39  1   
 40  18  40  1   
 41  18  41  1   
@<TRIPOS>SUBSTRUCTURE
  1 ****   8 GROUP 4 **** **** 0

# MOE 2024.06 (io_trps.svl 2023.06)
