@<TRIPOS>MOLECULE
NONAME
30 31 1 0 0 
SMALL
USER_CHARGES


@<TRIPOS>ATOM
  1 CL      -0.4920    -0.7350     1.6240 Cl    1 <1>  -0.1770 
  2 C        1.0630    -1.2730     1.0130 C.ar  1 <1>   0.1770 
  3 C        1.1940    -2.4880     0.3520 C.ar  1 <1>   0.4100 
  4 C        2.1800    -0.5030     1.1810 C.ar  1 <1>   0.1600 
  5 N        2.3730    -2.8830    -0.0950 N.ar  1 <1>  -0.6200 
  6 N        0.1260    -3.3240     0.1330 N.pl3 1 <1>  -0.8690 
  7 N        3.3650    -0.8880     0.7350 N.ar  1 <1>  -0.6200 
  8 C        3.3850    -2.0600     0.1210 C.ar  1 <1>   0.4770 
  9 C        0.2780    -4.7380    -0.3020 C.3   1 <1>   0.3890 
 10 C        4.7340    -2.5050    -0.3910 C.3   1 <1>  -0.0960 
 11 C       -1.0760    -5.4150    -0.4570 C.2   1 <1>   0.1980 
 12 S       -2.0720    -4.9100    -1.8050 S.3   1 <1>  -0.0800 
 13 N       -1.6040    -6.3190     0.2720 N.2   1 <1>  -0.5650 
 14 C       -3.2880    -6.0440    -1.2940 C.2   1 <1>  -0.1100 
 15 C       -2.8580    -6.6830    -0.1940 C.2   1 <1>   0.0460 
 16 C       -3.5820    -7.7570     0.6020 C.3   1 <1>   0.0210 
 17 C       -4.9620    -8.1150     0.0360 C.3   1 <1>  -0.2400 
 18 H        2.1090     0.4430     1.6890 H     1 <1>   0.1500 
 19 H       -0.7450    -3.1360     0.6390 H     1 <1>   0.4000 
 20 H        0.8560    -5.2720     0.4320 H     1 <1>   0.0800 
 21 H        0.8050    -4.7720    -1.2390 H     1 <1>   0.0800 
 22 H        4.6600    -3.4650    -0.8690 H     1 <1>   0.0800 
 23 H        5.4230    -2.5740     0.4280 H     1 <1>   0.0800 
 24 H        5.1000    -1.7890    -1.1020 H     1 <1>   0.0800 
 25 H       -4.1900    -6.1080    -1.8730 H     1 <1>   0.1500 
 26 H       -3.6920    -7.4130     1.6150 H     1 <1>   0.0800 
 27 H       -2.9660    -8.6390     0.6210 H     1 <1>   0.0800 
 28 H       -5.6000    -7.2490     0.0330 H     1 <1>   0.0800 
 29 H       -5.4190    -8.8760     0.6410 H     1 <1>   0.0800 
 30 H       -4.8680    -8.4860    -0.9690 H     1 <1>   0.0800 
@<TRIPOS>BOND
  1   1   2  1   
  2   2   3  ar  
  3   2   4  ar  
  4   3   5  ar  
  5   3   6  1   
  6   4   7  ar  
  7   4  18  1   
  8   5   8  ar  
  9   6   9  1   
 10   6  19  1   
 11   7   8  ar  
 12   8  10  1   
 13   9  11  1   
 14   9  20  1   
 15   9  21  1   
 16  10  22  1   
 17  10  23  1   
 18  10  24  1   
 19  11  12  1   
 20  11  13  2   
 21  12  14  1   
 22  13  15  1   
 23  14  15  2   
 24  14  25  1   
 25  15  16  1   
 26  16  17  1   
 27  16  26  1   
 28  16  27  1   
 29  17  28  1   
 30  17  29  1   
 31  17  30  1   
@<TRIPOS>SUBSTRUCTURE
  1 ****   6 GROUP 4 **** **** 0

# MOE 2024.06 (io_trps.svl 2023.06)
