@<TRIPOS>MOLECULE
NONAME
39 41 1 0 0 
SMALL
USER_CHARGES


@<TRIPOS>ATOM
  1 O        0.9610    -0.4370    -1.8930 O.3   1 <1>  -0.6800 
  2 C        2.2220    -0.3580    -1.3130 C.3   1 <1>   0.2000 
  3 C        2.4260    -1.4920    -0.3160 C.3   1 <1>  -0.0800 
  4 C        2.3770     0.9020    -0.4700 C.3   1 <1>   0.2090 
  5 C        3.4780    -0.9370     0.6500 C.3   1 <1>   0.2090 
  6 C        2.8310    -2.8220    -0.9740 C.3   1 <1>  -0.0170 
  7 N        3.3870     0.5470     0.5690 N.pl3 1 <1>  -0.8380 
  8 C        3.0160    -3.9250     0.0560 C.ar  1 <1>   0.1660 
  9 C        4.5910     1.2250     0.5350 C.ar  1 <1>   0.4100 
 10 N        4.2080    -4.0120     0.6230 N.ar  1 <1>  -0.6200 
 11 C        1.9560    -4.7780     0.3600 C.ar  1 <1>   0.1600 
 12 N        5.2340     1.1860    -0.6300 N.ar  1 <1>  -0.6200 
 13 C        5.0790     1.8830     1.6720 C.ar  1 <1>   0.0730 
 14 C        4.2710    -4.9980     1.5020 C.ar  1 <1>   0.1600 
 15 N        2.0160    -5.7650     1.2390 N.ar  1 <1>  -0.6200 
 16 C        6.3910     1.8140    -0.6900 C.ar  1 <1>   0.1670 
 17 C        4.3430     1.8820     2.8980 C.1   1 <1>   0.4840 
 18 C        6.2950     2.5350     1.5810 C.ar  1 <1>  -0.1500 
 19 C        3.2100    -5.8460     1.8000 C.ar  1 <1>   0.1600 
 20 C        6.9580     2.4950     0.3740 C.ar  1 <1>  -0.1500 
 21 C        7.1040     1.7550    -2.0240 C.3   1 <1>  -0.0970 
 22 N        3.8110     1.9160     3.9080 N.1   1 <1>  -0.5570 
 23 H        0.9290    -1.1580    -2.5500 H     1 <1>   0.4000 
 24 H        2.9720    -0.3630    -2.0860 H     1 <1>   0.0800 
 25 H        1.5190    -1.6270     0.2480 H     1 <1>   0.0800 
 26 H        1.4480     1.1430     0.0160 H     1 <1>   0.0800 
 27 H        2.7010     1.7320    -1.0730 H     1 <1>   0.0800 
 28 H        4.4650    -1.2570     0.3560 H     1 <1>   0.0800 
 29 H        3.2910    -1.2710     1.6560 H     1 <1>   0.0800 
 30 H        3.7490    -2.6950    -1.5210 H     1 <1>   0.0800 
 31 H        2.0730    -3.1170    -1.6770 H     1 <1>   0.0800 
 32 H        1.0160    -4.6380    -0.1430 H     1 <1>   0.1500 
 33 H        5.2060    -5.1440     2.0120 H     1 <1>   0.1500 
 34 H        6.7120     3.0560     2.4260 H     1 <1>   0.1500 
 35 H        3.3580    -6.6210     2.5310 H     1 <1>   0.1500 
 36 H        7.9070     2.9890     0.2630 H     1 <1>   0.1500 
 37 H        8.0370     2.2860    -1.9920 H     1 <1>   0.0800 
 38 H        6.4810     2.1930    -2.7830 H     1 <1>   0.0800 
 39 H        7.2960     0.7300    -2.2840 H     1 <1>   0.0800 
@<TRIPOS>BOND
  1   1   2  1   
  2   1  23  1   
  3   2   3  1   
  4   2   4  1   
  5   2  24  1   
  6   3   5  1   
  7   3   6  1   
  8   3  25  1   
  9   4   7  1   
 10   4  26  1   
 11   4  27  1   
 12   5   7  1   
 13   5  28  1   
 14   5  29  1   
 15   6   8  1   
 16   6  30  1   
 17   6  31  1   
 18   7   9  1   
 19   8  10  ar  
 20   8  11  ar  
 21   9  12  ar  
 22   9  13  ar  
 23  10  14  ar  
 24  11  15  ar  
 25  11  32  1   
 26  12  16  ar  
 27  13  17  1   
 28  13  18  ar  
 29  14  19  ar  
 30  14  33  1   
 31  15  19  ar  
 32  16  20  ar  
 33  16  21  1   
 34  17  22  3   
 35  18  20  ar  
 36  18  34  1   
 37  19  35  1   
 38  20  36  1   
 39  21  37  1   
 40  21  38  1   
 41  21  39  1   
@<TRIPOS>SUBSTRUCTURE
  1 ****   5 GROUP 4 **** **** 0

# MOE 2024.06 (io_trps.svl 2023.06)
