@<TRIPOS>MOLECULE
NONAME
48 51 1 0 0 
SMALL
USER_CHARGES


@<TRIPOS>ATOM
  1 O       -0.3150     0.2940     0.2150 O.2   1 <1>  -0.5700 
  2 C       -1.3880     0.8680     0.2400 C.2   1 <1>   0.7150 
  3 N       -2.5370     0.1160     0.1970 N.am  1 <1>  -0.6600 
  4 C       -1.4430     2.3100     0.2910 C.2   1 <1>  -0.2370 
  5 C       -3.8750     0.6420    -0.1690 C.3   1 <1>   0.1400 
  6 C       -2.5120    -1.3640     0.1040 C.3   1 <1>   0.1400 
  7 N       -0.5880     3.1300    -0.4180 N.pl3 1 <1>   0.0480 
  8 C       -2.2860     3.1110     1.0070 C.2   1 <1>  -0.1500 
  9 C       -4.6580    -0.5790    -0.6530 C.3   1 <1>   0.2000 
 10 C       -3.9790    -1.7840    -0.0040 C.3   1 <1>  -0.0800 
 11 C       -0.9100     4.4390    -0.1500 C.ar  1 <1>  -0.1520 
 12 C        0.5060     2.6870    -1.3080 C.3   1 <1>   0.0160 
 13 C       -1.9750     4.4530     0.7410 C.ar  1 <1>   0.0000 
 14 O       -5.9880    -0.5220    -0.2680 O.3   1 <1>  -0.6800 
 15 C       -4.2080    -3.0860    -0.7910 C.3   1 <1>  -0.0170 
 16 C       -0.3620     5.6430    -0.6060 C.ar  1 <1>  -0.1500 
 17 C       -2.5060     5.6710     1.1820 C.ar  1 <1>  -0.1500 
 18 C       -3.5690    -4.2820    -0.1040 C.ar  1 <1>   0.1670 
 19 C       -0.8920     6.8330    -0.1660 C.ar  1 <1>  -0.1500 
 20 C       -1.9690     6.8540     0.7310 C.ar  1 <1>  -0.1440 
 21 N       -2.2760    -4.4650    -0.3180 N.ar  1 <1>  -0.6200 
 22 C       -4.3410    -5.1150     0.7030 C.ar  1 <1>   0.1600 
 23 C       -2.5200     8.1920     1.1890 C.3   1 <1>  -0.0970 
 24 C       -1.8110    -5.5240     0.3230 C.ar  1 <1>   0.1600 
 25 N       -3.8780    -6.1740     1.3470 N.ar  1 <1>  -0.6200 
 26 C       -2.5850    -6.3500     1.1290 C.ar  1 <1>   0.1600 
 27 H       -4.3360     1.0690     0.7030 H     1 <1>   0.0800 
 28 H       -3.7930     1.3800    -0.9480 H     1 <1>   0.0800 
 29 H       -1.9620    -1.6520    -0.7770 H     1 <1>   0.0800 
 30 H       -2.0370    -1.7940     0.9700 H     1 <1>   0.0800 
 31 H       -3.0630     2.8060     1.6840 H     1 <1>   0.1500 
 32 H       -4.6150    -0.6360    -1.7280 H     1 <1>   0.0800 
 33 H       -4.3480    -1.9040     1.0000 H     1 <1>   0.0800 
 34 H        0.1650     1.8690    -1.9150 H     1 <1>   0.0800 
 35 H        1.3350     2.3600    -0.7070 H     1 <1>   0.0800 
 36 H        0.8160     3.4930    -1.9440 H     1 <1>   0.0800 
 37 H       -6.0590    -0.4410     0.7030 H     1 <1>   0.4000 
 38 H       -3.8010    -2.9930    -1.7830 H     1 <1>   0.0800 
 39 H       -5.2660    -3.2540    -0.8930 H     1 <1>   0.0800 
 40 H        0.4660     5.6360    -1.2910 H     1 <1>   0.1500 
 41 H       -3.3300     5.6530     1.8720 H     1 <1>   0.1500 
 42 H       -0.4790     7.7650    -0.5100 H     1 <1>   0.1500 
 43 H       -5.3870    -4.8970     0.8240 H     1 <1>   0.1500 
 44 H       -1.7480     8.7550     1.6820 H     1 <1>   0.0800 
 45 H       -3.3370     8.0560     1.8740 H     1 <1>   0.0800 
 46 H       -2.8720     8.7510     0.3410 H     1 <1>   0.0800 
 47 H       -0.7660    -5.7490     0.2070 H     1 <1>   0.1500 
 48 H       -2.1160    -7.1890     1.6110 H     1 <1>   0.1500 
@<TRIPOS>BOND
  1   1   2  2   
  2   2   3  am  
  3   2   4  1   
  4   3   5  1   
  5   3   6  1   
  6   4   7  1   
  7   4   8  2   
  8   5   9  1   
  9   5  27  1   
 10   5  28  1   
 11   6  10  1   
 12   6  29  1   
 13   6  30  1   
 14   7  11  1   
 15   7  12  1   
 16   8  13  1   
 17   8  31  1   
 18   9  10  1   
 19   9  14  1   
 20   9  32  1   
 21  10  15  1   
 22  10  33  1   
 23  11  13  ar  
 24  11  16  ar  
 25  12  34  1   
 26  12  35  1   
 27  12  36  1   
 28  13  17  ar  
 29  14  37  1   
 30  15  18  1   
 31  15  38  1   
 32  15  39  1   
 33  16  19  ar  
 34  16  40  1   
 35  17  20  ar  
 36  17  41  1   
 37  18  21  ar  
 38  18  22  ar  
 39  19  20  ar  
 40  19  42  1   
 41  20  23  1   
 42  21  24  ar  
 43  22  25  ar  
 44  22  43  1   
 45  23  44  1   
 46  23  45  1   
 47  23  46  1   
 48  24  26  ar  
 49  24  47  1   
 50  25  26  ar  
 51  26  48  1   
@<TRIPOS>SUBSTRUCTURE
  1 ****   3 GROUP 4 **** **** 0

# MOE 2024.06 (io_trps.svl 2023.06)
