@<TRIPOS>MOLECULE
NONAME
41 42 1 0 0 
SMALL
USER_CHARGES


@<TRIPOS>ATOM
  1 N        0.5320     0.1690    -0.4810 N.ar  1 <1>  -0.6200 
  2 C        1.4200    -0.6890    -0.0090 C.ar  1 <1>   0.4100 
  3 C       -0.5540    -0.3620    -1.0040 C.ar  1 <1>   0.4700 
  4 N        2.5850    -0.1650     0.5320 N.pl3 1 <1>  -0.8380 
  5 C        1.1730    -2.0420    -0.0610 C.ar  1 <1>  -0.1500 
  6 N       -0.8820    -1.6320    -1.1120 N.ar  1 <1>  -0.6200 
  7 C        2.5870     1.1690     1.2320 C.3   1 <1>   0.3530 
  8 C        3.8570    -0.9360     0.6250 C.3   1 <1>   0.1290 
  9 C       -0.0010    -2.4860    -0.6220 C.ar  1 <1>   0.4100 
 10 C        3.7880     2.0560     0.8710 C.ar  1 <1>   0.1660 
 11 N       -0.3040    -3.8370    -0.6860 N.pl3 1 <1>  -0.8380 
 12 N        4.7000     2.2000     1.8300 N.ar  1 <1>  -0.6200 
 13 C        3.8840     2.6590    -0.3840 C.ar  1 <1>  -0.1430 
 14 C       -0.2230    -4.6560     0.5460 C.3   1 <1>   0.2090 
 15 C       -1.2750    -4.3270    -1.7060 C.3   1 <1>   0.1290 
 16 C        5.7370     2.9660     1.5370 C.ar  1 <1>   0.1600 
 17 C        4.9780     3.4540    -0.6630 C.ar  1 <1>  -0.1500 
 18 C        2.8260     2.4640    -1.4630 C.3   1 <1>  -0.0970 
 19 C        0.8450    -5.7280     0.3580 C.3   1 <1>  -0.2400 
 20 C        5.9220     3.6060     0.3270 C.ar  1 <1>  -0.1500 
 21 H       -1.2720     0.3370    -1.3970 H     1 <1>   0.1500 
 22 H        1.8730    -2.7480     0.3260 H     1 <1>   0.1500 
 23 H        2.6020     0.9910     2.2920 H     1 <1>   0.0800 
 24 H        1.6860     1.7140     1.0230 H     1 <1>   0.0800 
 25 H        3.8380    -1.7850    -0.0350 H     1 <1>   0.0800 
 26 H        4.0070    -1.2720     1.6370 H     1 <1>   0.0800 
 27 H        4.6890    -0.3170     0.3380 H     1 <1>   0.0800 
 28 H       -1.1780    -5.1130     0.7430 H     1 <1>   0.0800 
 29 H        0.0260    -4.0330     1.3880 H     1 <1>   0.0800 
 30 H       -1.1510    -3.7770    -2.6240 H     1 <1>   0.0800 
 31 H       -2.2800    -4.1850    -1.3490 H     1 <1>   0.0800 
 32 H       -1.1080    -5.3700    -1.9070 H     1 <1>   0.0800 
 33 H        6.4800     3.0920     2.3060 H     1 <1>   0.1500 
 34 H        5.0970     3.9390    -1.6160 H     1 <1>   0.1500 
 35 H        1.8550     2.7370    -1.0910 H     1 <1>   0.0800 
 36 H        2.8000     1.4330    -1.7670 H     1 <1>   0.0800 
 37 H        3.0360     3.0660    -2.3280 H     1 <1>   0.0800 
 38 H        0.5820    -6.3780    -0.4560 H     1 <1>   0.0800 
 39 H        0.9290    -6.3160     1.2530 H     1 <1>   0.0800 
 40 H        1.7960    -5.2710     0.1550 H     1 <1>   0.0800 
 41 H        6.7930     4.2140     0.1640 H     1 <1>   0.1500 
@<TRIPOS>BOND
  1   1   2  ar  
  2   1   3  ar  
  3   2   4  1   
  4   2   5  ar  
  5   3   6  ar  
  6   3  21  1   
  7   4   7  1   
  8   4   8  1   
  9   5   9  ar  
 10   5  22  1   
 11   6   9  ar  
 12   7  10  1   
 13   7  23  1   
 14   7  24  1   
 15   8  25  1   
 16   8  26  1   
 17   8  27  1   
 18   9  11  1   
 19  10  12  ar  
 20  10  13  ar  
 21  11  14  1   
 22  11  15  1   
 23  12  16  ar  
 24  13  17  ar  
 25  13  18  1   
 26  14  19  1   
 27  14  28  1   
 28  14  29  1   
 29  15  30  1   
 30  15  31  1   
 31  15  32  1   
 32  16  20  ar  
 33  16  33  1   
 34  17  20  ar  
 35  17  34  1   
 36  18  35  1   
 37  18  36  1   
 38  18  37  1   
 39  19  38  1   
 40  19  39  1   
 41  19  40  1   
 42  20  41  1   
@<TRIPOS>SUBSTRUCTURE
  1 ****   4 GROUP 4 **** **** 0

# MOE 2024.06 (io_trps.svl 2023.06)
