@<TRIPOS>MOLECULE
NONAME
53 57 1 0 0 
SMALL
USER_CHARGES


@<TRIPOS>ATOM
  1 O       -0.2200     0.1350     1.2320 O.2   1 <1>  -0.5700 
  2 C       -1.2350     0.7950     1.0910 C.2   1 <1>   0.5440 
  3 N       -2.3880     0.1420     0.7120 N.am  1 <1>  -0.6600 
  4 C       -1.1970     2.2340     1.2820 C.ar  1 <1>   0.0860 
  5 C       -3.5030     0.7840    -0.0290 C.3   1 <1>   0.1400 
  6 C       -2.4300    -1.3320     0.5310 C.3   1 <1>   0.1400 
  7 C       -0.1020     2.9860     0.8200 C.ar  1 <1>  -0.1520 
  8 C       -2.2100     2.9490     1.9080 C.ar  1 <1>  -0.1500 
  9 C       -4.1680    -0.3500    -0.8100 C.3   1 <1>   0.2000 
 10 C       -3.8120    -1.6270    -0.0550 C.3   1 <1>  -0.0800 
 11 N        1.0510     2.5520     0.2190 N.pl3 1 <1>   0.0330 
 12 C       -0.0480     4.3730     0.9300 C.ar  1 <1>   0.0000 
 13 C       -2.1680     4.3400     2.0340 C.ar  1 <1>  -0.1500 
 14 O       -5.5450    -0.1960    -0.8620 O.3   1 <1>  -0.6800 
 15 C       -3.8630    -2.8780    -0.9480 C.3   1 <1>  -0.0170 
 16 C        1.8140     3.6480    -0.0700 C.2   1 <1>  -0.3320 
 17 C        1.1790     4.7630     0.3500 C.2   1 <1>  -0.1810 
 18 C       -1.1000     5.0550     1.5430 C.ar  1 <1>  -0.1500 
 19 C       -3.5520    -4.1420    -0.1630 C.ar  1 <1>   0.1670 
 20 C        3.1730     3.6180    -0.7410 C.3   1 <1>   0.0200 
 21 C        1.7390     6.1630     0.2020 C.3   1 <1>   0.0210 
 22 N       -2.2710    -4.4320     0.0020 N.ar  1 <1>  -0.6200 
 23 C       -4.5920    -4.9120     0.3360 C.ar  1 <1>  -0.1500 
 24 C        3.5600     5.0370    -1.1970 C.3   1 <1>  -0.1600 
 25 C        3.2440     6.1010    -0.1250 C.3   1 <1>  -0.1600 
 26 C       -2.0150    -5.5310     0.6920 C.ar  1 <1>   0.1600 
 27 C       -4.3110    -6.0550     1.0540 C.ar  1 <1>  -0.1500 
 28 C       -2.9800    -6.3640     1.2320 C.ar  1 <1>  -0.1500 
 29 H       -4.1940     1.2150     0.6730 H     1 <1>   0.0800 
 30 H       -3.1290     1.5410    -0.6980 H     1 <1>   0.0800 
 31 H       -1.6520    -1.6270    -0.1530 H     1 <1>   0.0800 
 32 H       -2.2800    -1.8390     1.4700 H     1 <1>   0.0800 
 33 H       -3.0520     2.4200     2.3150 H     1 <1>   0.1500 
 34 H       -3.7870    -0.3700    -1.8180 H     1 <1>   0.0800 
 35 H       -4.4860    -1.7540     0.7740 H     1 <1>   0.0800 
 36 H        1.2850     1.5600     0.0870 H     1 <1>   0.2700 
 37 H       -2.9810     4.8510     2.5210 H     1 <1>   0.1500 
 38 H       -5.9210    -0.2070     0.0390 H     1 <1>   0.4000 
 39 H       -3.1570    -2.7850    -1.7550 H     1 <1>   0.0800 
 40 H       -4.8420    -2.9620    -1.3860 H     1 <1>   0.0800 
 41 H       -1.0530     6.1250     1.6280 H     1 <1>   0.1500 
 42 H        3.9000     3.2510    -0.0380 H     1 <1>   0.0800 
 43 H        3.1550     2.9580    -1.5900 H     1 <1>   0.0800 
 44 H        1.2130     6.6610    -0.5930 H     1 <1>   0.0800 
 45 H        1.5870     6.7160     1.1110 H     1 <1>   0.0800 
 46 H       -5.6130    -4.6230     0.1670 H     1 <1>   0.1500 
 47 H        4.6080     5.0600    -1.4400 H     1 <1>   0.0800 
 48 H        3.0080     5.2750    -2.0910 H     1 <1>   0.0800 
 49 H        3.5780     7.0680    -0.4560 H     1 <1>   0.0800 
 50 H        3.7820     5.8530     0.7740 H     1 <1>   0.0800 
 51 H       -0.9780    -5.7820     0.8370 H     1 <1>   0.1500 
 52 H       -5.0930    -6.6760     1.4550 H     1 <1>   0.1500 
 53 H       -2.6900    -7.2410     1.7810 H     1 <1>   0.1500 
@<TRIPOS>BOND
  1   1   2  2   
  2   2   3  am  
  3   2   4  1   
  4   3   5  1   
  5   3   6  1   
  6   4   7  ar  
  7   4   8  ar  
  8   5   9  1   
  9   5  29  1   
 10   5  30  1   
 11   6  10  1   
 12   6  31  1   
 13   6  32  1   
 14   7  11  1   
 15   7  12  ar  
 16   8  13  ar  
 17   8  33  1   
 18   9  10  1   
 19   9  14  1   
 20   9  34  1   
 21  10  15  1   
 22  10  35  1   
 23  11  16  1   
 24  11  36  1   
 25  12  17  1   
 26  12  18  ar  
 27  13  18  ar  
 28  13  37  1   
 29  14  38  1   
 30  15  19  1   
 31  15  39  1   
 32  15  40  1   
 33  16  17  2   
 34  16  20  1   
 35  17  21  1   
 36  18  41  1   
 37  19  22  ar  
 38  19  23  ar  
 39  20  24  1   
 40  20  42  1   
 41  20  43  1   
 42  21  25  1   
 43  21  44  1   
 44  21  45  1   
 45  22  26  ar  
 46  23  27  ar  
 47  23  46  1   
 48  24  25  1   
 49  24  47  1   
 50  24  48  1   
 51  25  49  1   
 52  25  50  1   
 53  26  28  ar  
 54  26  51  1   
 55  27  28  ar  
 56  27  52  1   
 57  28  53  1   
@<TRIPOS>SUBSTRUCTURE
  1 ****   2 GROUP 4 **** **** 0

# MOE 2024.06 (io_trps.svl 2023.06)
