@<TRIPOS>MOLECULE
NONAME
48 50 1 0 0 
SMALL
USER_CHARGES


@<TRIPOS>ATOM
  1 S       -1.0540    -0.7700    -1.7380 S.o2  1 <1>   1.2040 
  2 O       -0.3070    -1.9060    -2.2280 O.2   1 <1>  -0.6500 
  3 O       -1.7000     0.1280    -2.6690 O.2   1 <1>  -0.6500 
  4 C       -2.2530    -1.3270    -0.5020 C.ar  1 <1>  -0.0090 
  5 C        0.0630     0.2100    -0.7540 C.3   1 <1>  -0.1350 
  6 C       -3.4240    -0.6170    -0.2630 C.ar  1 <1>  -0.1500 
  7 C       -2.0180    -2.4630     0.2620 C.ar  1 <1>  -0.1500 
  8 C       -4.3300    -1.0270     0.7000 C.ar  1 <1>  -0.1500 
  9 C       -2.9180    -2.8780     1.2280 C.ar  1 <1>  -0.1500 
 10 C       -4.0840    -2.1650     1.4510 C.ar  1 <1>  -0.1430 
 11 C       -5.0850    -2.6350     2.5040 C.3   1 <1>   0.0440 
 12 C       -5.4480    -4.1090     2.3720 C.2   1 <1>   0.5690 
 13 O       -5.1860    -4.8430     3.2960 O.2   1 <1>  -0.5700 
 14 N       -6.0580    -4.5880     1.2430 N.am  1 <1>  -0.6600 
 15 C       -6.3380    -3.8300    -0.0040 C.3   1 <1>   0.1400 
 16 C       -6.3580    -6.0270     1.0500 C.3   1 <1>   0.1400 
 17 C       -7.2150    -4.7690    -0.8290 C.3   1 <1>   0.2000 
 18 C       -6.7190    -6.1650    -0.4340 C.3   1 <1>  -0.0800 
 19 O       -8.5290    -4.6080    -0.4140 O.3   1 <1>  -0.6800 
 20 C       -7.7020    -7.3130    -0.7350 C.3   1 <1>   0.0200 
 21 C       -7.1150    -8.6870    -0.4590 C.2   1 <1>  -0.0400 
 22 O       -7.8990    -9.7300    -0.5400 O.3   1 <1>  -0.0190 
 23 C       -5.8890    -9.1260    -0.1290 C.2   1 <1>  -0.1500 
 24 N       -7.2680   -10.8370    -0.2790 N.2   1 <1>  -0.4100 
 25 C       -6.0540   -10.5040    -0.0280 C.2   1 <1>   0.1080 
 26 C       -4.9600   -11.4850     0.3300 C.3   1 <1>  -0.0590 
 27 H        0.5150    -0.3920     0.0100 H     1 <1>   0.0800 
 28 H       -0.4600     1.0240    -0.2930 H     1 <1>   0.0800 
 29 H        0.8400     0.6110    -1.3750 H     1 <1>   0.0800 
 30 H       -3.6320     0.2680    -0.8420 H     1 <1>   0.1500 
 31 H       -1.1200    -3.0360     0.0980 H     1 <1>   0.1500 
 32 H       -5.2260    -0.4510     0.8580 H     1 <1>   0.1500 
 33 H       -2.7070    -3.7650     1.8050 H     1 <1>   0.1500 
 34 H       -5.9890    -2.0610     2.4480 H     1 <1>   0.0800 
 35 H       -4.6600    -2.4730     3.4780 H     1 <1>   0.0800 
 36 H       -6.8300    -2.8930     0.1910 H     1 <1>   0.0800 
 37 H       -5.4110    -3.6510    -0.5210 H     1 <1>   0.0800 
 38 H       -5.5060    -6.6300     1.3140 H     1 <1>   0.0800 
 39 H       -7.1900    -6.2980     1.6790 H     1 <1>   0.0800 
 40 H       -7.1630    -4.5770    -1.8870 H     1 <1>   0.0800 
 41 H       -5.8080    -6.3470    -0.9770 H     1 <1>   0.0800 
 42 H       -8.5610    -4.6540     0.5630 H     1 <1>   0.4000 
 43 H       -7.9950    -7.2700    -1.7690 H     1 <1>   0.0800 
 44 H       -8.5920    -7.2000    -0.1410 H     1 <1>   0.0800 
 45 H       -4.9730    -8.5890     0.0270 H     1 <1>   0.1500 
 46 H       -4.5580   -11.2460     1.2970 H     1 <1>   0.0800 
 47 H       -4.1760   -11.4400    -0.4030 H     1 <1>   0.0800 
 48 H       -5.3570   -12.4840     0.3550 H     1 <1>   0.0800 
@<TRIPOS>BOND
  1   1   2  2   
  2   1   3  2   
  3   1   4  1   
  4   1   5  1   
  5   4   6  ar  
  6   4   7  ar  
  7   5  27  1   
  8   5  28  1   
  9   5  29  1   
 10   6   8  ar  
 11   6  30  1   
 12   7   9  ar  
 13   7  31  1   
 14   8  10  ar  
 15   8  32  1   
 16   9  10  ar  
 17   9  33  1   
 18  10  11  1   
 19  11  12  1   
 20  11  34  1   
 21  11  35  1   
 22  12  13  2   
 23  12  14  am  
 24  14  15  1   
 25  14  16  1   
 26  15  17  1   
 27  15  36  1   
 28  15  37  1   
 29  16  18  1   
 30  16  38  1   
 31  16  39  1   
 32  17  18  1   
 33  17  19  1   
 34  17  40  1   
 35  18  20  1   
 36  18  41  1   
 37  19  42  1   
 38  20  21  1   
 39  20  43  1   
 40  20  44  1   
 41  21  22  1   
 42  21  23  2   
 43  22  24  1   
 44  23  25  1   
 45  23  45  1   
 46  24  25  2   
 47  25  26  1   
 48  26  46  1   
 49  26  47  1   
 50  26  48  1   
@<TRIPOS>SUBSTRUCTURE
  1 ****  14 GROUP 4 **** **** 0

# MOE 2024.06 (io_trps.svl 2023.06)
