@<TRIPOS>MOLECULE
NONAME
45 46 1 0 0 
SMALL
USER_CHARGES


@<TRIPOS>ATOM
  1 S        0.6110     0.3490    -0.5310 S.o2  1 <1>   1.3330 
  2 O        0.7150    -1.0220    -0.9810 O.2   1 <1>  -0.6500 
  3 O       -0.5810     1.1110    -0.8260 O.2   1 <1>  -0.6500 
  4 N        0.7980     0.3570     1.1580 N.am  1 <1>  -0.8490 
  5 C        2.0510     1.2420    -1.1190 C.3   1 <1>  -0.0550 
  6 C        0.4010     1.6270     1.7770 C.3   1 <1>   0.1160 
  7 C        0.0770    -0.7500     1.7930 C.3   1 <1>   0.1160 
  8 C        3.3740     0.4480    -1.0320 C.3   1 <1>  -0.0800 
  9 C        4.6030     1.1810    -1.5520 C.3   1 <1>   0.2200 
 10 C        3.8040     0.0440     0.3830 C.3   1 <1>   0.1200 
 11 N        4.6300     2.5690    -1.0420 N.am  1 <1>  -0.7300 
 12 C        5.7050     0.3910    -0.8600 C.3   1 <1>   0.1200 
 13 O        5.2020     0.0900     0.4090 O.3   1 <1>  -0.5600 
 14 C        4.1180     3.6680    -1.6610 C.2   1 <1>   0.5440 
 15 O        3.7600     3.5530    -2.8170 O.2   1 <1>  -0.5700 
 16 C        3.9890     4.9350    -0.9630 C.ar  1 <1>   0.0860 
 17 C        3.7470     5.0380     0.4230 C.ar  1 <1>   0.0820 
 18 C        4.1070     6.1200    -1.6920 C.ar  1 <1>  -0.1500 
 19 O        3.5980     3.8940     1.1430 O.3   1 <1>  -0.3630 
 20 C        3.6500     6.2890     1.0380 C.ar  1 <1>  -0.1500 
 21 C        4.0040     7.3380    -1.0580 C.ar  1 <1>   0.1900 
 22 C        3.5740     3.8690     2.5550 C.3   1 <1>   0.0400 
 23 C        3.7800     7.4480     0.2980 C.ar  1 <1>  -0.1500 
 24 F        4.1230     8.4300    -1.7650 F     1 <1>  -0.1900 
 25 H        1.8930     1.5040    -2.1470 H     1 <1>   0.0800 
 26 H        2.1350     2.1570    -0.5690 H     1 <1>   0.0800 
 27 H        0.6120     1.6050     2.8320 H     1 <1>   0.0800 
 28 H       -0.6530     1.8020     1.6340 H     1 <1>   0.0800 
 29 H        0.9480     2.4430     1.3390 H     1 <1>   0.0800 
 30 H        0.2220    -0.7290     2.8590 H     1 <1>   0.0800 
 31 H        0.4460    -1.6920     1.4220 H     1 <1>   0.0800 
 32 H       -0.9770    -0.6830     1.5750 H     1 <1>   0.0800 
 33 H        3.2610    -0.4570    -1.6050 H     1 <1>   0.0800 
 34 H        4.6880     1.1640    -2.6260 H     1 <1>   0.0800 
 35 H        3.4770    -0.9500     0.6350 H     1 <1>   0.0800 
 36 H        3.4470     0.7430     1.1190 H     1 <1>   0.0800 
 37 H        4.7930     2.6300    -0.0310 H     1 <1>   0.3700 
 38 H        6.6210     0.9470    -0.7670 H     1 <1>   0.0800 
 39 H        5.8870    -0.5380    -1.3710 H     1 <1>   0.0800 
 40 H        4.2800     6.0840    -2.7530 H     1 <1>   0.1500 
 41 H        3.4670     6.3830     2.0920 H     1 <1>   0.1500 
 42 H        3.5500     2.8410     2.8710 H     1 <1>   0.0800 
 43 H        2.6910     4.3770     2.9010 H     1 <1>   0.0800 
 44 H        4.4640     4.3440     2.9290 H     1 <1>   0.0800 
 45 H        3.7070     8.4190     0.7550 H     1 <1>   0.1500 
@<TRIPOS>BOND
  1   1   2  2   
  2   1   3  2   
  3   1   4  am  
  4   1   5  1   
  5   4   6  1   
  6   4   7  1   
  7   5   8  1   
  8   5  25  1   
  9   5  26  1   
 10   6  27  1   
 11   6  28  1   
 12   6  29  1   
 13   7  30  1   
 14   7  31  1   
 15   7  32  1   
 16   8   9  1   
 17   8  10  1   
 18   8  33  1   
 19   9  11  1   
 20   9  12  1   
 21   9  34  1   
 22  10  13  1   
 23  10  35  1   
 24  10  36  1   
 25  11  14  am  
 26  11  37  1   
 27  12  13  1   
 28  12  38  1   
 29  12  39  1   
 30  14  15  2   
 31  14  16  1   
 32  16  17  ar  
 33  16  18  ar  
 34  17  19  1   
 35  17  20  ar  
 36  18  21  ar  
 37  18  40  1   
 38  19  22  1   
 39  20  23  ar  
 40  20  41  1   
 41  21  23  ar  
 42  21  24  1   
 43  22  42  1   
 44  22  43  1   
 45  22  44  1   
 46  23  45  1   
@<TRIPOS>SUBSTRUCTURE
  1 ****  11 GROUP 4 **** **** 0

# MOE 2024.06 (io_trps.svl 2023.06)
