@<TRIPOS>MOLECULE
NONAME
60 63 1 0 0 
SMALL
USER_CHARGES


@<TRIPOS>ATOM
  1 O        4.0800    -1.4820     0.8510 O.2   1 <1>  -0.5700 
  2 C        2.8690    -1.6060     0.8860 C.2   1 <1>   0.5440 
  3 N        2.2980    -2.3560    -0.1040 N.am  1 <1>  -0.6600 
  4 C        2.0650    -0.9710     1.9170 C.ar  1 <1>   0.0860 
  5 C        2.5730    -2.0090    -1.5480 C.3   1 <1>   0.2810 
  6 C        2.1340    -3.8030     0.1920 C.3   1 <1>   0.1400 
  7 C        2.6510    -0.4650     3.0760 C.ar  1 <1>  -0.1500 
  8 C        0.6820    -0.8230     1.7840 C.ar  1 <1>  -0.1500 
  9 C        2.6580    -0.4840    -1.8370 C.2   1 <1>   0.5690 
 10 C        1.5180    -2.6940    -2.4470 C.3   1 <1>  -0.1600 
 11 C        1.0600    -4.4270    -0.6990 C.3   1 <1>  -0.1600 
 12 C        1.9010     0.1610     4.0550 C.ar  1 <1>  -0.1500 
 13 C       -0.0750    -0.2000     2.7590 C.ar  1 <1>  -0.1500 
 14 O        1.8020     0.0460    -2.5100 O.2   1 <1>  -0.5700 
 15 N        3.7120     0.2300    -1.3250 N.am  1 <1>  -0.4940 
 16 C        1.3770    -4.1960    -2.1790 C.3   1 <1>  -0.1600 
 17 C        0.5340     0.2940     3.8970 C.ar  1 <1>  -0.1500 
 18 C        4.0250     1.6060    -1.4140 C.2   1 <1>  -0.0880 
 19 N        3.8450     2.4360    -2.4780 N.pl3 1 <1>   0.3140 
 20 C        4.5770     2.3630    -0.4220 C.2   1 <1>  -0.0540 
 21 N        4.2530     3.6920    -2.2020 N.2   1 <1>  -0.7070 
 22 C        3.3550     2.1200    -3.8260 C.3   1 <1>   0.0160 
 23 C        4.9710     1.9810     0.9130 C.ar  1 <1>   0.0540 
 24 C        4.6820     3.6380    -0.9850 C.2   1 <1>   0.1080 
 25 C        4.3660     2.4830     2.0770 C.ar  1 <1>   0.0830 
 26 C        6.0400     1.1020     1.0690 C.ar  1 <1>  -0.1500 
 27 C        5.2320     4.8520    -0.2690 C.3   1 <1>  -0.0590 
 28 O        3.2870     3.3050     2.0590 O.3   1 <1>  -0.3630 
 29 C        4.8610     2.1520     3.3270 C.ar  1 <1>  -0.1500 
 30 C        6.5160     0.7540     2.3200 C.ar  1 <1>  -0.1500 
 31 C        2.1490     2.9120     1.3170 C.3   1 <1>   0.0400 
 32 C        5.9330     1.2880     3.4540 C.ar  1 <1>  -0.1500 
 33 H        3.5330    -2.4250    -1.7980 H     1 <1>   0.0800 
 34 H        1.8620    -3.9320     1.2270 H     1 <1>   0.0800 
 35 H        3.0760    -4.3000     0.0300 H     1 <1>   0.0800 
 36 H        3.7160    -0.5580     3.2050 H     1 <1>   0.1500 
 37 H        0.1930    -1.1950     0.9000 H     1 <1>   0.1500 
 38 H        1.7820    -2.5400    -3.4790 H     1 <1>   0.0800 
 39 H        0.5650    -2.2190    -2.2870 H     1 <1>   0.0800 
 40 H        0.1050    -3.9960    -0.4550 H     1 <1>   0.0800 
 41 H        1.0040    -5.4830    -0.5020 H     1 <1>   0.0800 
 42 H        2.3820     0.5470     4.9360 H     1 <1>   0.1500 
 43 H       -1.1400    -0.0970     2.6310 H     1 <1>   0.1500 
 44 H        4.2080    -0.2700    -0.5690 H     1 <1>   0.3700 
 45 H        2.2940    -4.6990    -2.4380 H     1 <1>   0.0800 
 46 H        0.5880    -4.6030    -2.7880 H     1 <1>   0.0800 
 47 H       -0.0520     0.7820     4.6570 H     1 <1>   0.1500 
 48 H        3.6450     1.1200    -4.0870 H     1 <1>   0.0800 
 49 H        3.7790     2.8140    -4.5270 H     1 <1>   0.0800 
 50 H        2.2850     2.2050    -3.8360 H     1 <1>   0.0800 
 51 H        6.5070     0.6920     0.1910 H     1 <1>   0.1500 
 52 H        6.0890     4.5780     0.3170 H     1 <1>   0.0800 
 53 H        4.4780     5.2590     0.3770 H     1 <1>   0.0800 
 54 H        5.5210     5.5980    -0.9860 H     1 <1>   0.0800 
 55 H        4.3940     2.5700     4.2000 H     1 <1>   0.1500 
 56 H        7.3430     0.0710     2.4090 H     1 <1>   0.1500 
 57 H        1.2800     3.3320     1.7890 H     1 <1>   0.0800 
 58 H        2.0790     1.8390     1.3110 H     1 <1>   0.0800 
 59 H        2.2340     3.2900     0.3150 H     1 <1>   0.0800 
 60 H        6.3080     1.0290     4.4290 H     1 <1>   0.1500 
@<TRIPOS>BOND
  1   1   2  2   
  2   2   3  am  
  3   2   4  1   
  4   3   5  1   
  5   3   6  1   
  6   4   7  ar  
  7   4   8  ar  
  8   5   9  1   
  9   5  10  1   
 10   5  33  1   
 11   6  11  1   
 12   6  34  1   
 13   6  35  1   
 14   7  12  ar  
 15   7  36  1   
 16   8  13  ar  
 17   8  37  1   
 18   9  14  2   
 19   9  15  am  
 20  10  16  1   
 21  10  38  1   
 22  10  39  1   
 23  11  16  1   
 24  11  40  1   
 25  11  41  1   
 26  12  17  ar  
 27  12  42  1   
 28  13  17  ar  
 29  13  43  1   
 30  15  18  1   
 31  15  44  1   
 32  16  45  1   
 33  16  46  1   
 34  17  47  1   
 35  18  19  1   
 36  18  20  2   
 37  19  21  1   
 38  19  22  1   
 39  20  23  1   
 40  20  24  1   
 41  21  24  2   
 42  22  48  1   
 43  22  49  1   
 44  22  50  1   
 45  23  25  ar  
 46  23  26  ar  
 47  24  27  1   
 48  25  28  1   
 49  25  29  ar  
 50  26  30  ar  
 51  26  51  1   
 52  27  52  1   
 53  27  53  1   
 54  27  54  1   
 55  28  31  1   
 56  29  32  ar  
 57  29  55  1   
 58  30  32  ar  
 59  30  56  1   
 60  31  57  1   
 61  31  58  1   
 62  31  59  1   
 63  32  60  1   
@<TRIPOS>SUBSTRUCTURE
  1 ****  15 GROUP 4 **** **** 0

# MOE 2024.06 (io_trps.svl 2023.06)
