@<TRIPOS>MOLECULE
NONAME
17 17 1 0 0 
SMALL
USER_CHARGES


@<TRIPOS>ATOM
  1 O        0.7970     0.8410     1.8490 O.2   1 <1>  -0.5700 
  2 C        1.2700     1.6640     1.1170 C.2   1 <1>   0.6590 
  3 O        1.0120     2.9550     1.2240 O.3   1 <1>  -0.4300 
  4 C        2.2080     1.3380    -0.0050 C.3   1 <1>  -0.0380 
  5 C        1.6760     3.7290     0.2620 C.3   1 <1>   0.3410 
  6 C        2.4620     2.7040    -0.5530 C.2   1 <1>   0.4480 
  7 C        2.5800     4.7170     1.0060 C.3   1 <1>  -0.2400 
  8 C        0.6090     4.4530    -0.5650 C.3   1 <1>  -0.2400 
  9 O        3.1750     2.9310    -1.4860 O.2   1 <1>  -0.5700 
 10 H        1.7320     0.7090    -0.7320 H     1 <1>   0.0800 
 11 H        3.1110     0.8930     0.3670 H     1 <1>   0.0800 
 12 H        3.2910     4.1900     1.6170 H     1 <1>   0.0800 
 13 H        1.9920     5.3680     1.6270 H     1 <1>   0.0800 
 14 H        3.1220     5.3170     0.2980 H     1 <1>   0.0800 
 15 H       -0.0440     3.7440    -1.0410 H     1 <1>   0.0800 
 16 H        1.0810     5.0440    -1.3290 H     1 <1>   0.0800 
 17 H        0.0280     5.1060     0.0620 H     1 <1>   0.0800 
@<TRIPOS>BOND
  1   1   2  2   
  2   2   3  1   
  3   2   4  1   
  4   3   5  1   
  5   4   6  1   
  6   4  10  1   
  7   4  11  1   
  8   5   6  1   
  9   5   7  1   
 10   5   8  1   
 11   6   9  2   
 12   7  12  1   
 13   7  13  1   
 14   7  14  1   
 15   8  15  1   
 16   8  16  1   
 17   8  17  1   
@<TRIPOS>SUBSTRUCTURE
  1 ****   5 GROUP 4 **** **** 0

# MOE 2024.06 (io_trps.svl 2023.06)
