@<TRIPOS>MOLECULE
NONAME
26 27 1 0 0 
SMALL
USER_CHARGES


@<TRIPOS>ATOM
  1 F       -0.1760     0.1650     0.4710 F     1 <1>  -0.1900 
  2 C       -0.0890     1.4670     0.3700 C.ar  1 <1>   0.1900 
  3 C       -0.9960     2.1350    -0.4290 C.ar  1 <1>  -0.1500 
  4 C        0.9050     2.1230     1.0670 C.ar  1 <1>  -0.1500 
  5 C       -0.9120     3.5150    -0.5380 C.ar  1 <1>  -0.1440 
  6 C        0.9850     3.4990     0.9540 C.ar  1 <1>  -0.1500 
  7 C        0.0860     4.2070     0.1590 C.ar  1 <1>   0.1170 
  8 C       -1.9130     4.2470    -1.4230 C.3   1 <1>  -0.0960 
  9 N        0.2020     5.6040     0.0930 N.am  1 <1>  -0.4770 
 10 C        0.6010     6.3580    -0.9690 C.2   1 <1>   0.5690 
 11 C       -0.1100     6.4400     1.2650 C.3   1 <1>   0.1400 
 12 O        0.9320     5.9550    -2.0570 O.2   1 <1>  -0.5700 
 13 C        0.5870     7.8230    -0.6290 C.3   1 <1>  -0.0990 
 14 C       -0.1390     7.8750     0.7230 C.3   1 <1>  -0.1600 
 15 H       -1.7480     1.5760    -0.9550 H     1 <1>   0.1500 
 16 H        1.5950     1.5680     1.6760 H     1 <1>   0.1500 
 17 H        1.7560     4.0330     1.4790 H     1 <1>   0.1500 
 18 H       -2.7170     3.5970    -1.7180 H     1 <1>   0.0800 
 19 H       -1.4200     4.6010    -2.3110 H     1 <1>   0.0800 
 20 H       -2.3320     5.0870    -0.9000 H     1 <1>   0.0800 
 21 H        0.6680     6.3230     1.9990 H     1 <1>   0.0800 
 22 H       -1.0580     6.1560     1.6880 H     1 <1>   0.0800 
 23 H        0.0700     8.3840    -1.3860 H     1 <1>   0.0800 
 24 H        1.6000     8.1680    -0.5410 H     1 <1>   0.0800 
 25 H        0.3220     8.5660     1.4060 H     1 <1>   0.0800 
 26 H       -1.1640     8.1690     0.5730 H     1 <1>   0.0800 
@<TRIPOS>BOND
  1   1   2  1   
  2   2   3  ar  
  3   2   4  ar  
  4   3   5  ar  
  5   3  15  1   
  6   4   6  ar  
  7   4  16  1   
  8   5   7  ar  
  9   5   8  1   
 10   6   7  ar  
 11   6  17  1   
 12   7   9  1   
 13   8  18  1   
 14   8  19  1   
 15   8  20  1   
 16   9  10  am  
 17   9  11  1   
 18  10  12  2   
 19  10  13  1   
 20  11  14  1   
 21  11  21  1   
 22  11  22  1   
 23  13  14  1   
 24  13  23  1   
 25  13  24  1   
 26  14  25  1   
 27  14  26  1   
@<TRIPOS>SUBSTRUCTURE
  1 ****   7 GROUP 4 **** **** 0

# MOE 2024.06 (io_trps.svl 2023.06)
