@<TRIPOS>MOLECULE
NONAME
45 47 1 0 0 
SMALL
USER_CHARGES


@<TRIPOS>ATOM
  1 O       -1.4960     0.6170    -1.2660 O.2   1 <1>  -0.5700 
  2 C       -1.5970     0.6900    -0.0590 C.2   1 <1>   0.7150 
  3 N       -1.7180    -0.4600     0.6510 N.am  1 <1>  -0.7300 
  4 C       -1.6280     1.9360     0.6450 C.2   1 <1>  -0.2370 
  5 C       -1.6580    -1.8340     0.0990 C.3   1 <1>   0.2200 
  6 N       -0.9180     3.0680     0.3550 N.pl3 1 <1>   0.3140 
  7 C       -2.3660     2.2430     1.7490 C.2   1 <1>  -0.1500 
  8 C       -3.0400    -2.4730     0.0520 C.3   1 <1>  -0.0800 
  9 C       -0.9690    -2.7370     1.1120 C.3   1 <1>   0.1200 
 10 N       -1.1900     4.0520     1.2370 N.2   1 <1>  -0.7070 
 11 C        0.1190     3.3450    -0.6920 C.3   1 <1>   0.1760 
 12 C       -2.0570     3.5500     2.0590 C.2   1 <1>   0.1390 
 13 C       -3.2120    -3.0310     1.4700 C.3   1 <1>   0.1200 
 14 C       -4.1910    -1.5640    -0.4160 C.3   1 <1>  -0.0160 
 15 O       -1.9460    -3.0150     2.0670 O.3   1 <1>  -0.5600 
 16 C       -0.5040     3.5860    -2.0750 C.3   1 <1>  -0.2400 
 17 C        1.2380     2.2920    -0.7270 C.3   1 <1>  -0.2400 
 18 C       -5.4900    -2.3480    -0.5190 C.ar  1 <1>  -0.1430 
 19 C       -6.4450    -2.3240     0.4780 C.ar  1 <1>  -0.1500 
 20 C       -5.7790    -3.1280    -1.6200 C.ar  1 <1>  -0.1500 
 21 C       -7.6060    -3.0660     0.3320 C.ar  1 <1>   0.1600 
 22 C       -6.9710    -3.8310    -1.6680 C.ar  1 <1>   0.1600 
 23 N       -7.8910    -3.8220    -0.7170 N.ar  1 <1>  -0.6200 
 24 H       -1.7980    -0.4130     1.6670 H     1 <1>   0.3700 
 25 H       -1.1630    -1.8410    -0.8580 H     1 <1>   0.0800 
 26 H       -3.0590     1.6200     2.2850 H     1 <1>   0.1500 
 27 H       -2.9860    -3.3140    -0.6170 H     1 <1>   0.0800 
 28 H       -0.1210    -2.2700     1.5820 H     1 <1>   0.0800 
 29 H       -0.6740    -3.6670     0.6590 H     1 <1>   0.0800 
 30 H        0.5830     4.2720    -0.4010 H     1 <1>   0.0800 
 31 H       -2.4740     4.1050     2.8830 H     1 <1>   0.1500 
 32 H       -3.5810    -4.0420     1.4580 H     1 <1>   0.0800 
 33 H       -3.8600    -2.4140     2.0670 H     1 <1>   0.0800 
 34 H       -3.9480    -1.1480    -1.3790 H     1 <1>   0.0800 
 35 H       -4.3230    -0.7420     0.2650 H     1 <1>   0.0800 
 36 H       -0.9430     2.6910    -2.4730 H     1 <1>   0.0800 
 37 H        0.2530     3.9210    -2.7610 H     1 <1>   0.0800 
 38 H       -1.2590     4.3480    -2.0070 H     1 <1>   0.0800 
 39 H        0.8960     1.3620    -1.1370 H     1 <1>   0.0800 
 40 H        1.6220     2.1290     0.2650 H     1 <1>   0.0800 
 41 H        2.0430     2.6460    -1.3450 H     1 <1>   0.0800 
 42 H       -6.3000    -1.7370     1.3660 H     1 <1>   0.1500 
 43 H       -5.0900    -3.1940    -2.4420 H     1 <1>   0.1500 
 44 H       -8.3390    -3.0360     1.1190 H     1 <1>   0.1500 
 45 H       -7.1790    -4.4350    -2.5350 H     1 <1>   0.1500 
@<TRIPOS>BOND
  1   1   2  2   
  2   2   3  am  
  3   2   4  1   
  4   3   5  1   
  5   3  24  1   
  6   4   6  1   
  7   4   7  2   
  8   5   8  1   
  9   5   9  1   
 10   5  25  1   
 11   6  10  1   
 12   6  11  1   
 13   7  12  1   
 14   7  26  1   
 15   8  13  1   
 16   8  14  1   
 17   8  27  1   
 18   9  15  1   
 19   9  28  1   
 20   9  29  1   
 21  10  12  2   
 22  11  16  1   
 23  11  17  1   
 24  11  30  1   
 25  12  31  1   
 26  13  15  1   
 27  13  32  1   
 28  13  33  1   
 29  14  18  1   
 30  14  34  1   
 31  14  35  1   
 32  16  36  1   
 33  16  37  1   
 34  16  38  1   
 35  17  39  1   
 36  17  40  1   
 37  17  41  1   
 38  18  19  ar  
 39  18  20  ar  
 40  19  21  ar  
 41  19  42  1   
 42  20  22  ar  
 43  20  43  1   
 44  21  23  ar  
 45  21  44  1   
 46  22  23  ar  
 47  22  45  1   
@<TRIPOS>SUBSTRUCTURE
  1 ****   3 GROUP 4 **** **** 0

# MOE 2024.06 (io_trps.svl 2023.06)
