@<TRIPOS>MOLECULE
NONAME
43 44 1 0 0 
SMALL
USER_CHARGES


@<TRIPOS>ATOM
  1 CL      -0.2670     0.0960     0.7600 Cl    1 <1>  -0.1770 
  2 C       -1.8930     0.5800     0.3550 C.ar  1 <1>   0.1770 
  3 C       -2.9150     0.3580     1.2580 C.ar  1 <1>  -0.1500 
  4 C       -2.1400     1.1820    -0.8630 C.ar  1 <1>  -0.1500 
  5 C       -4.2030     0.7460     0.9310 C.ar  1 <1>  -0.1500 
  6 C       -3.4320     1.5640    -1.1790 C.ar  1 <1>  -0.1500 
  7 C       -4.4910     1.3510    -0.2940 C.ar  1 <1>   0.0530 
  8 C       -5.8240     1.7680    -0.6470 C.2   1 <1>   0.0870 
  9 O       -6.0040     2.9650    -1.1460 O.3   1 <1>  -0.0190 
 10 C       -7.0460     1.1680    -0.6060 C.2   1 <1>  -0.0860 
 11 N       -7.2520     3.2210    -1.4300 N.2   1 <1>  -0.4100 
 12 C       -7.8970     2.1640    -1.1030 C.2   1 <1>   0.3720 
 13 C       -7.4390    -0.1540    -0.2170 C.2   1 <1>   0.7160 
 14 N       -9.2770     2.1130    -1.2530 N.pl3 1 <1>  -0.8520 
 15 O       -6.7450    -0.8270     0.5190 O.2   1 <1>  -0.5700 
 16 N       -8.6220    -0.6570    -0.6780 N.am  1 <1>  -0.7300 
 17 C      -10.0370     2.2000     0.0260 C.3   1 <1>   0.2090 
 18 C       -9.3220    -1.9050    -0.3310 C.3   1 <1>   0.2200 
 19 C      -11.4240     1.5790    -0.1420 C.3   1 <1>   0.1200 
 20 C       -9.6960    -1.8940     1.1490 C.3   1 <1>  -0.2400 
 21 C       -8.4730    -3.1170    -0.7060 C.3   1 <1>  -0.2400 
 22 O      -12.0720     1.6040     1.0890 O.3   1 <1>  -0.5600 
 23 C      -13.3500     1.0540     1.0690 C.3   1 <1>   0.0400 
 24 H       -2.7040    -0.1130     2.2010 H     1 <1>   0.1500 
 25 H       -1.3300     1.3470    -1.5510 H     1 <1>   0.1500 
 26 H       -4.9970     0.5770     1.6370 H     1 <1>   0.1500 
 27 H       -3.6290     2.0340    -2.1270 H     1 <1>   0.1500 
 28 H       -9.5370     2.9150    -1.8400 H     1 <1>   0.4000 
 29 H       -9.1750     0.0190    -1.2180 H     1 <1>   0.3700 
 30 H      -10.1380     3.2320     0.3130 H     1 <1>   0.0800 
 31 H       -9.5110     1.6730     0.8050 H     1 <1>   0.0800 
 32 H      -10.2310    -1.9430    -0.9100 H     1 <1>   0.0800 
 33 H      -11.3370     0.5550    -0.4610 H     1 <1>   0.0800 
 34 H      -12.0050     2.1450    -0.8500 H     1 <1>   0.0800 
 35 H       -8.8140    -1.8950     1.7640 H     1 <1>   0.0800 
 36 H      -10.2710    -2.7710     1.3860 H     1 <1>   0.0800 
 37 H      -10.2890    -1.0270     1.3800 H     1 <1>   0.0800 
 38 H       -7.5820    -3.1630    -0.1060 H     1 <1>   0.0800 
 39 H       -8.1990    -3.0710    -1.7440 H     1 <1>   0.0800 
 40 H       -9.0330    -4.0190    -0.5410 H     1 <1>   0.0800 
 41 H      -13.7600     1.1250     2.0610 H     1 <1>   0.0800 
 42 H      -13.2890     0.0210     0.7760 H     1 <1>   0.0800 
 43 H      -13.9660     1.6090     0.3830 H     1 <1>   0.0800 
@<TRIPOS>BOND
  1   1   2  1   
  2   2   3  ar  
  3   2   4  ar  
  4   3   5  ar  
  5   3  24  1   
  6   4   6  ar  
  7   4  25  1   
  8   5   7  ar  
  9   5  26  1   
 10   6   7  ar  
 11   6  27  1   
 12   7   8  1   
 13   8   9  1   
 14   8  10  2   
 15   9  11  1   
 16  10  12  1   
 17  10  13  1   
 18  11  12  2   
 19  12  14  1   
 20  13  15  2   
 21  13  16  am  
 22  14  17  1   
 23  14  28  1   
 24  16  18  1   
 25  16  29  1   
 26  17  19  1   
 27  17  30  1   
 28  17  31  1   
 29  18  20  1   
 30  18  21  1   
 31  18  32  1   
 32  19  22  1   
 33  19  33  1   
 34  19  34  1   
 35  20  35  1   
 36  20  36  1   
 37  20  37  1   
 38  21  38  1   
 39  21  39  1   
 40  21  40  1   
 41  22  23  1   
 42  23  41  1   
 43  23  42  1   
 44  23  43  1   
@<TRIPOS>SUBSTRUCTURE
  1 ****  10 GROUP 4 **** **** 0

# MOE 2024.06 (io_trps.svl 2023.06)
