@<TRIPOS>MOLECULE
NONAME
57 59 1 0 0 
SMALL
USER_CHARGES


@<TRIPOS>ATOM
  1 O       -1.0590     0.7000    -2.0290 O.2   1 <1>  -0.5700 
  2 C       -1.9560     1.1440    -1.3380 C.2   1 <1>   0.5440 
  3 N       -2.9640     0.2970    -0.9160 N.am  1 <1>  -0.6600 
  4 C       -1.9300     2.5440    -0.9670 C.ar  1 <1>   0.0860 
  5 C       -3.0110    -1.1360    -1.3390 C.3   1 <1>   0.1400 
  6 C       -4.0840     0.7140    -0.0330 C.3   1 <1>   0.1400 
  7 C       -2.8310     3.4580    -1.5100 C.ar  1 <1>  -0.1500 
  8 C       -0.9980     3.0210    -0.0490 C.ar  1 <1>  -0.1500 
  9 C       -3.0430    -2.1260    -0.1480 C.3   1 <1>   0.0000 
 10 C       -4.0880    -0.1490     1.2250 C.3   1 <1>  -0.1600 
 11 C       -2.8130     4.7910    -1.1390 C.ar  1 <1>  -0.1500 
 12 C       -0.9760     4.3520     0.3250 C.ar  1 <1>  -0.1500 
 13 C       -4.1140    -1.6420     0.8730 C.3   1 <1>   0.2000 
 14 C       -3.5530    -3.4880    -0.6880 C.3   1 <1>   0.1200 
 15 C       -1.6130    -2.3640     0.4450 C.3   1 <1>  -0.1600 
 16 C       -1.8860     5.2470    -0.2150 C.ar  1 <1>  -0.1430 
 17 O       -4.0220    -2.3630     2.0480 O.3   1 <1>  -0.6800 
 18 O       -2.7050    -4.0230    -1.6540 O.3   1 <1>  -0.6800 
 19 C       -0.9550    -1.2530     1.2810 C.3   1 <1>  -0.1600 
 20 C       -1.8600     6.7100     0.2050 C.3   1 <1>   0.2630 
 21 C        0.4990    -1.6050     1.6040 C.3   1 <1>  -0.2400 
 22 O       -0.6080     7.2610    -0.1390 O.3   1 <1>  -0.3630 
 23 C       -0.3080     8.5540     0.1360 C.ar  1 <1>   0.0830 
 24 C       -1.1740     9.4340     0.7810 C.ar  1 <1>  -0.1500 
 25 C        0.9440     8.9980    -0.2600 C.ar  1 <1>  -0.1500 
 26 C       -0.7810    10.7390     1.0220 C.ar  1 <1>  -0.1500 
 27 C        1.3350    10.3030    -0.0180 C.ar  1 <1>  -0.1500 
 28 C        0.4710    11.1750     0.6230 C.ar  1 <1>  -0.1500 
 29 H       -3.8970    -1.2660    -1.9340 H     1 <1>   0.0800 
 30 H       -2.1710    -1.3680    -1.9700 H     1 <1>   0.0800 
 31 H       -3.9960     1.7480     0.2500 H     1 <1>   0.0800 
 32 H       -5.0130     0.5920    -0.5650 H     1 <1>   0.0800 
 33 H       -3.5470     3.1130    -2.2340 H     1 <1>   0.1500 
 34 H       -0.2810     2.3340     0.3670 H     1 <1>   0.1500 
 35 H       -4.9650     0.0870     1.8010 H     1 <1>   0.0800 
 36 H       -3.2330     0.1080     1.8170 H     1 <1>   0.0800 
 37 H       -3.5210     5.4720    -1.5800 H     1 <1>   0.1500 
 38 H       -0.2410     4.6970     1.0320 H     1 <1>   0.1500 
 39 H       -5.0900    -1.8480     0.4670 H     1 <1>   0.0800 
 40 H       -4.5290    -3.3860    -1.1320 H     1 <1>   0.0800 
 41 H       -3.6220    -4.2060     0.1120 H     1 <1>   0.0800 
 42 H       -1.6370    -3.2540     1.0500 H     1 <1>   0.0800 
 43 H       -0.9500    -2.5810    -0.3750 H     1 <1>   0.0800 
 44 H       -3.1080    -2.3050     2.3890 H     1 <1>   0.4000 
 45 H       -2.5650    -3.4030    -2.3940 H     1 <1>   0.4000 
 46 H       -0.9670    -0.3240     0.7440 H     1 <1>   0.0800 
 47 H       -1.4790    -1.1230     2.2100 H     1 <1>   0.0800 
 48 H       -1.9850     6.7920     1.2700 H     1 <1>   0.0800 
 49 H       -2.6240     7.2700    -0.3030 H     1 <1>   0.0800 
 50 H        1.0700    -1.7030     0.6960 H     1 <1>   0.0800 
 51 H        0.5540    -2.5300     2.1500 H     1 <1>   0.0800 
 52 H        0.9430    -0.8270     2.2000 H     1 <1>   0.0800 
 53 H       -2.1510     9.1280     1.1030 H     1 <1>   0.1500 
 54 H        1.6070     8.3150    -0.7580 H     1 <1>   0.1500 
 55 H       -1.4500    11.4200     1.5200 H     1 <1>   0.1500 
 56 H        2.3080    10.6390    -0.3290 H     1 <1>   0.1500 
 57 H        0.7740    12.1900     0.8120 H     1 <1>   0.1500 
@<TRIPOS>BOND
  1   1   2  2   
  2   2   3  am  
  3   2   4  1   
  4   3   5  1   
  5   3   6  1   
  6   4   7  ar  
  7   4   8  ar  
  8   5   9  1   
  9   5  29  1   
 10   5  30  1   
 11   6  10  1   
 12   6  31  1   
 13   6  32  1   
 14   7  11  ar  
 15   7  33  1   
 16   8  12  ar  
 17   8  34  1   
 18   9  13  1   
 19   9  14  1   
 20   9  15  1   
 21  10  13  1   
 22  10  35  1   
 23  10  36  1   
 24  11  16  ar  
 25  11  37  1   
 26  12  16  ar  
 27  12  38  1   
 28  13  17  1   
 29  13  39  1   
 30  14  18  1   
 31  14  40  1   
 32  14  41  1   
 33  15  19  1   
 34  15  42  1   
 35  15  43  1   
 36  16  20  1   
 37  17  44  1   
 38  18  45  1   
 39  19  21  1   
 40  19  46  1   
 41  19  47  1   
 42  20  22  1   
 43  20  48  1   
 44  20  49  1   
 45  21  50  1   
 46  21  51  1   
 47  21  52  1   
 48  22  23  1   
 49  23  24  ar  
 50  23  25  ar  
 51  24  26  ar  
 52  24  53  1   
 53  25  27  ar  
 54  25  54  1   
 55  26  28  ar  
 56  26  55  1   
 57  27  28  ar  
 58  27  56  1   
 59  28  57  1   
@<TRIPOS>SUBSTRUCTURE
  1 ****   8 GROUP 4 **** **** 0

# MOE 2024.06 (io_trps.svl 2023.06)
