@<TRIPOS>MOLECULE
NONAME
43 45 1 0 0 
SMALL
USER_CHARGES


@<TRIPOS>ATOM
  1 O        0.4680     1.1320     1.1940 O.co2 1 <1>  -0.9000 
  2 C        1.5700     0.5870     1.1640 C.2   1 <1>   0.9060 
  3 O        2.0380     0.0080     2.1580 O.co2 1 <1>  -0.9000 
  4 C        2.3430     0.5520    -0.1680 C.3   1 <1>  -0.1060 
  5 C        3.7110    -0.1290     0.0270 C.3   1 <1>   0.4230 
  6 C        2.5350     2.0200    -0.6670 C.3   1 <1>  -0.1600 
  7 C        1.5690    -0.2990    -1.2010 C.3   1 <1>  -0.1600 
  8 N        3.5420    -1.4980     0.6190 N.4   1 <1>  -0.9590 
  9 C        4.6710     0.8480     0.7310 C.3   1 <1>   0.2090 
 10 C        3.9360     2.3560    -1.2020 C.3   1 <1>   0.2090 
 11 C        1.4370    -1.7540    -0.7080 C.3   1 <1>  -0.1600 
 12 C        2.7750    -2.3850    -0.2970 C.3   1 <1>   0.3430 
 13 C        4.7830    -2.1350     1.1310 C.3   1 <1>   0.2630 
 14 N        5.0130     1.9420    -0.2410 N.pl3 1 <1>  -0.8380 
 15 C        6.3010     2.4110    -0.3770 C.ar  1 <1>   0.7200 
 16 N        7.1550     2.1270     0.5970 N.ar  1 <1>  -0.6200 
 17 N        6.5770     3.0940    -1.4880 N.ar  1 <1>  -0.6200 
 18 C        8.3750     2.5730     0.4510 C.ar  1 <1>   0.4100 
 19 C        7.8100     3.5290    -1.6080 C.ar  1 <1>   0.1600 
 20 N        9.2020     2.2560     1.4870 N.pl3 1 <1>  -0.9000 
 21 C        8.7760     3.3020    -0.6600 C.ar  1 <1>   0.0730 
 22 C       10.1050     3.7860    -0.8120 C.1   1 <1>   0.4840 
 23 N       11.1670     4.1840    -0.9280 N.1   1 <1>  -0.5570 
 24 H        4.1370    -0.2710    -0.9510 H     1 <1>   0.0800 
 25 H        2.3530     2.6960     0.1520 H     1 <1>   0.0800 
 26 H        1.7970     2.2590    -1.4120 H     1 <1>   0.0800 
 27 H        0.5830     0.1160    -1.3420 H     1 <1>   0.0800 
 28 H        2.0760    -0.2780    -2.1500 H     1 <1>   0.0800 
 29 H        2.9180    -1.2750     1.4430 H     1 <1>   0.4500 
 30 H        5.5640     0.3330     1.0270 H     1 <1>   0.0800 
 31 H        4.2110     1.2760     1.6060 H     1 <1>   0.0800 
 32 H        3.9980     3.4180    -1.3760 H     1 <1>   0.0800 
 33 H        4.0950     1.8570    -2.1430 H     1 <1>   0.0800 
 34 H        0.9880    -2.3520    -1.4810 H     1 <1>   0.0800 
 35 H        0.7690    -1.7850     0.1370 H     1 <1>   0.0800 
 36 H        3.3610    -2.5700    -1.1820 H     1 <1>   0.0800 
 37 H        2.5840    -3.3300     0.1860 H     1 <1>   0.0800 
 38 H        5.4970    -2.2600     0.3340 H     1 <1>   0.0800 
 39 H        4.5560    -3.0990     1.5550 H     1 <1>   0.0800 
 40 H        5.2210    -1.5220     1.9020 H     1 <1>   0.0800 
 41 H        8.0550     4.0880    -2.4960 H     1 <1>   0.1500 
 42 H        8.7480     1.8840     2.3250 H     1 <1>   0.4000 
 43 H       10.0810     2.7530     1.6580 H     1 <1>   0.4000 
@<TRIPOS>BOND
  1   1   2  ar  
  2   2   3  ar  
  3   2   4  1   
  4   4   5  1   
  5   4   6  1   
  6   4   7  1   
  7   5   8  1   
  8   5   9  1   
  9   5  24  1   
 10   6  10  1   
 11   6  25  1   
 12   6  26  1   
 13   7  11  1   
 14   7  27  1   
 15   7  28  1   
 16   8  12  1   
 17   8  13  1   
 18   8  29  1   
 19   9  14  1   
 20   9  30  1   
 21   9  31  1   
 22  10  14  1   
 23  10  32  1   
 24  10  33  1   
 25  11  12  1   
 26  11  34  1   
 27  11  35  1   
 28  12  36  1   
 29  12  37  1   
 30  13  38  1   
 31  13  39  1   
 32  13  40  1   
 33  14  15  1   
 34  15  16  ar  
 35  15  17  ar  
 36  16  18  ar  
 37  17  19  ar  
 38  18  20  1   
 39  18  21  ar  
 40  19  21  ar  
 41  19  41  1   
 42  20  42  1   
 43  20  43  1   
 44  21  22  1   
 45  22  23  3   
@<TRIPOS>SUBSTRUCTURE
  1 ****  14 GROUP 4 **** **** 0

# MOE 2024.06 (io_trps.svl 2023.06)
