@<TRIPOS>MOLECULE
NONAME
27 27 1 0 0 
SMALL
USER_CHARGES


@<TRIPOS>ATOM
  1 O       -0.6870    -0.1960     0.9500 O.2   1 <1>  -0.5700 
  2 C       -1.3990    -0.8950     0.2690 C.2   1 <1>   0.6340 
  3 O       -2.2650    -0.3140    -0.5740 O.3   1 <1>  -0.4300 
  4 C       -1.3640    -2.3440     0.3150 C.ar  1 <1>   0.0860 
  5 C       -2.2610     1.0950    -0.7600 C.3   1 <1>   0.0400 
  6 C       -2.4860    -3.1760     0.5050 C.ar  1 <1>  -0.1440 
  7 C       -0.1200    -2.9570     0.1560 C.ar  1 <1>  -0.1500 
  8 C       -2.3260    -4.5560     0.5050 C.ar  1 <1>  -0.1500 
  9 C       -3.9080    -2.6760     0.7390 C.3   1 <1>   0.5660 
 10 C        0.0250    -4.3290     0.1580 C.ar  1 <1>  -0.1500 
 11 C       -1.0830    -5.1320     0.3290 C.ar  1 <1>  -0.1500 
 12 N       -4.4100    -2.0590    -0.4860 N.4   1 <1>  -0.8530 
 13 C       -4.0580    -1.7060     1.9060 C.3   1 <1>  -0.2400 
 14 H       -3.0010     1.3540    -1.4960 H     1 <1>   0.0800 
 15 H       -1.2850     1.3980    -1.1000 H     1 <1>   0.0800 
 16 H       -2.4840     1.5760     0.1780 H     1 <1>   0.0800 
 17 H        0.7560    -2.3400     0.0290 H     1 <1>   0.1500 
 18 H       -3.1650    -5.2180     0.6500 H     1 <1>   0.1500 
 19 H       -4.5210    -3.5370     0.9610 H     1 <1>   0.0800 
 20 H        0.9990    -4.7720     0.0290 H     1 <1>   0.1500 
 21 H       -0.9720    -6.2050     0.3320 H     1 <1>   0.1500 
 22 H       -3.8140    -1.2480    -0.7110 H     1 <1>   0.4500 
 23 H       -5.3760    -1.7420    -0.3790 H     1 <1>   0.4500 
 24 H       -4.3390    -2.7190    -1.2660 H     1 <1>   0.4500 
 25 H       -3.5840    -0.7590     1.7270 H     1 <1>   0.0800 
 26 H       -3.6090    -2.1380     2.7840 H     1 <1>   0.0800 
 27 H       -5.0980    -1.5400     2.1230 H     1 <1>   0.0800 
@<TRIPOS>BOND
  1   1   2  2   
  2   2   3  1   
  3   2   4  1   
  4   3   5  1   
  5   4   6  ar  
  6   4   7  ar  
  7   5  14  1   
  8   5  15  1   
  9   5  16  1   
 10   6   8  ar  
 11   6   9  1   
 12   7  10  ar  
 13   7  17  1   
 14   8  11  ar  
 15   8  18  1   
 16   9  12  1   
 17   9  13  1   
 18   9  19  1   
 19  10  11  ar  
 20  10  20  1   
 21  11  21  1   
 22  12  22  1   
 23  12  23  1   
 24  12  24  1   
 25  13  25  1   
 26  13  26  1   
 27  13  27  1   
@<TRIPOS>SUBSTRUCTURE
  1 ****   4 GROUP 4 **** **** 0

# MOE 2024.06 (io_trps.svl 2023.06)
