@<TRIPOS>MOLECULE
NONAME
45 46 1 0 0 
SMALL
USER_CHARGES


@<TRIPOS>ATOM
  1 S        0.7030     0.0210     1.6600 S.3   1 <1>  -0.0800 
  2 C        0.9630    -1.2420     0.4880 C.2   1 <1>  -0.1400 
  3 C        1.3790     1.1700     0.5290 C.2   1 <1>   0.1980 
  4 C        1.5200    -0.7030    -0.6090 C.2   1 <1>   0.0460 
  5 C        0.5610    -2.6480     0.8620 C.3   1 <1>   0.5230 
  6 N        1.7460     0.6590    -0.5750 N.2   1 <1>  -0.5650 
  7 C        1.4600     2.6150     0.9620 C.3   1 <1>  -0.0600 
  8 C        1.9280    -1.4100    -1.8840 C.3   1 <1>  -0.0590 
  9 N       -0.7900    -2.9220     0.3340 N.4   1 <1>  -0.9590 
 10 C       -1.0760    -4.3930     0.2860 C.3   1 <1>   0.3430 
 11 C       -1.8570    -2.1810     1.0800 C.3   1 <1>   0.3430 
 12 C       -2.4040    -4.6230    -0.4610 C.3   1 <1>   0.2000 
 13 C       -3.2250    -2.4190     0.4230 C.3   1 <1>  -0.1600 
 14 O       -2.2680    -4.0610    -1.7340 O.3   1 <1>  -0.6800 
 15 C       -3.5470    -3.9400     0.3300 C.3   1 <1>  -0.1060 
 16 C       -3.4850    -4.5670     1.7380 C.2   1 <1>   0.9060 
 17 C       -4.9710    -4.2040    -0.2400 C.3   1 <1>  -0.1600 
 18 O       -3.5800    -3.8410     2.7310 O.co2 1 <1>  -0.9000 
 19 O       -3.1750    -5.7580     1.8350 O.co2 1 <1>  -0.9000 
 20 C       -5.3200    -3.6250    -1.6250 C.3   1 <1>  -0.1600 
 21 C       -6.8030    -3.8430    -1.9380 C.3   1 <1>  -0.2400 
 22 H        0.5820    -2.7750     1.9330 H     1 <1>   0.0800 
 23 H        1.2630    -3.3370     0.4220 H     1 <1>   0.0800 
 24 H        1.9000     3.2040     0.1780 H     1 <1>   0.0800 
 25 H        2.0680     2.6990     1.8440 H     1 <1>   0.0800 
 26 H        0.4760     2.9910     1.1710 H     1 <1>   0.0800 
 27 H        1.7110    -2.4610    -1.8370 H     1 <1>   0.0800 
 28 H        2.9830    -1.2780    -2.0460 H     1 <1>   0.0800 
 29 H        1.4000    -0.9820    -2.7170 H     1 <1>   0.0800 
 30 H       -0.8530    -2.6140    -0.6460 H     1 <1>   0.4500 
 31 H       -0.2950    -4.9140    -0.2390 H     1 <1>   0.0800 
 32 H       -1.1380    -4.7990     1.2840 H     1 <1>   0.0800 
 33 H       -1.8870    -2.5150     2.1060 H     1 <1>   0.0800 
 34 H       -1.6480    -1.1250     1.0780 H     1 <1>   0.0800 
 35 H       -2.5930    -5.6790    -0.5720 H     1 <1>   0.0800 
 36 H       -3.9760    -1.9340     1.0220 H     1 <1>   0.0800 
 37 H       -3.2340    -1.9510    -0.5430 H     1 <1>   0.0800 
 38 H       -3.1290    -4.1340    -2.1940 H     1 <1>   0.4000 
 39 H       -5.1330    -5.2690    -0.2610 H     1 <1>   0.0800 
 40 H       -5.6750    -3.8060     0.4730 H     1 <1>   0.0800 
 41 H       -5.1180    -2.5690    -1.6550 H     1 <1>   0.0800 
 42 H       -4.7480    -4.1100    -2.3940 H     1 <1>   0.0800 
 43 H       -7.4180    -3.3460    -1.2090 H     1 <1>   0.0800 
 44 H       -7.0390    -4.8930    -1.9310 H     1 <1>   0.0800 
 45 H       -7.0380    -3.4460    -2.9100 H     1 <1>   0.0800 
@<TRIPOS>BOND
  1   1   2  1   
  2   1   3  1   
  3   2   4  2   
  4   2   5  1   
  5   3   6  2   
  6   3   7  1   
  7   4   6  1   
  8   4   8  1   
  9   5   9  1   
 10   5  22  1   
 11   5  23  1   
 12   7  24  1   
 13   7  25  1   
 14   7  26  1   
 15   8  27  1   
 16   8  28  1   
 17   8  29  1   
 18   9  10  1   
 19   9  11  1   
 20   9  30  1   
 21  10  12  1   
 22  10  31  1   
 23  10  32  1   
 24  11  13  1   
 25  11  33  1   
 26  11  34  1   
 27  12  14  1   
 28  12  15  1   
 29  12  35  1   
 30  13  15  1   
 31  13  36  1   
 32  13  37  1   
 33  14  38  1   
 34  15  16  1   
 35  15  17  1   
 36  16  18  ar  
 37  16  19  ar  
 38  17  20  1   
 39  17  39  1   
 40  17  40  1   
 41  20  21  1   
 42  20  41  1   
 43  20  42  1   
 44  21  43  1   
 45  21  44  1   
 46  21  45  1   
@<TRIPOS>SUBSTRUCTURE
  1 ****   9 GROUP 4 **** **** 0

# MOE 2024.06 (io_trps.svl 2023.06)
