@<TRIPOS>MOLECULE
NONAME
50 52 1 0 0 
SMALL
USER_CHARGES


@<TRIPOS>ATOM
  1 O       -0.3270    -0.3910    -0.9560 O.2   1 <1>  -0.5700 
  2 C        0.6390    -1.0950    -0.7690 C.2   1 <1>   0.5690 
  3 N        0.5280    -2.3530    -0.2330 N.am  1 <1>  -0.6600 
  4 C        2.0010    -0.5210    -1.1240 C.3   1 <1>  -0.0990 
  5 C        1.6780    -3.2750    -0.0220 C.3   1 <1>   0.1400 
  6 C       -0.8070    -2.9230     0.0840 C.3   1 <1>   0.1400 
  7 C        3.1070    -1.5800    -1.2310 C.3   1 <1>  -0.1600 
  8 C        3.0180    -2.5330    -0.0370 C.3   1 <1>  -0.1600 
  9 C       -1.2170    -2.5190     1.4980 C.3   1 <1>  -0.0990 
 10 C       -2.6660    -2.8900     1.7260 C.2   1 <1>   0.5690 
 11 O       -2.8820    -3.9970     2.1600 O.2   1 <1>  -0.5700 
 12 N       -3.6750    -2.0100     1.4310 N.am  1 <1>  -0.6600 
 13 C       -5.1030    -2.3810     1.6530 C.3   1 <1>   0.1400 
 14 C       -3.4710    -0.6790     0.7720 C.3   1 <1>   0.1400 
 15 C       -5.8430    -2.5140     0.3020 C.3   1 <1>   0.0000 
 16 C       -4.7140    -0.2310    -0.0170 C.3   1 <1>  -0.1600 
 17 C       -7.3640    -2.5080     0.5430 C.3   1 <1>   0.2000 
 18 C       -5.3760    -1.4270    -0.7200 C.3   1 <1>  -0.1600 
 19 C       -5.6560    -3.9080    -0.3200 C.3   1 <1>  -0.1600 
 20 O       -7.8800    -1.2300     0.6560 O.3   1 <1>  -0.6800 
 21 C       -7.9900    -3.2410    -0.6450 C.3   1 <1>  -0.1600 
 22 C       -6.8660    -4.1030    -1.2390 C.3   1 <1>  -0.1600 
 23 H        1.9210     0.0130    -2.0520 H     1 <1>   0.0800 
 24 H        2.2590     0.1870    -0.3590 H     1 <1>   0.0800 
 25 H        1.5640    -3.7830     0.9200 H     1 <1>   0.0800 
 26 H        1.6690    -4.0130    -0.8060 H     1 <1>   0.0800 
 27 H       -1.5280    -2.5530    -0.6260 H     1 <1>   0.0800 
 28 H       -0.7880    -3.9960    -0.0020 H     1 <1>   0.0800 
 29 H        2.9820    -2.1370    -2.1440 H     1 <1>   0.0800 
 30 H        4.0700    -1.1010    -1.2570 H     1 <1>   0.0800 
 31 H        3.1280    -1.9820     0.8810 H     1 <1>   0.0800 
 32 H        3.8170    -3.2510    -0.0830 H     1 <1>   0.0800 
 33 H       -1.0790    -1.4660     1.6460 H     1 <1>   0.0800 
 34 H       -0.6090    -3.0420     2.2120 H     1 <1>   0.0800 
 35 H       -5.1810    -3.2940     2.2160 H     1 <1>   0.0800 
 36 H       -5.5640    -1.6060     2.2400 H     1 <1>   0.0800 
 37 H       -3.2280     0.0580     1.5180 H     1 <1>   0.0800 
 38 H       -2.6470    -0.7420     0.0850 H     1 <1>   0.0800 
 39 H       -5.4140     0.2370     0.6540 H     1 <1>   0.0800 
 40 H       -4.4190     0.5070    -0.7420 H     1 <1>   0.0800 
 41 H       -7.5970    -3.0410     1.4500 H     1 <1>   0.0800 
 42 H       -4.6360    -1.8460    -1.3800 H     1 <1>   0.0800 
 43 H       -6.1860    -1.0950    -1.3430 H     1 <1>   0.0800 
 44 H       -4.7200    -4.0150    -0.8410 H     1 <1>   0.0800 
 45 H       -5.6870    -4.6550     0.4550 H     1 <1>   0.0800 
 46 H       -7.5950    -0.7010    -0.1110 H     1 <1>   0.4000 
 47 H       -8.8050    -3.8560    -0.3080 H     1 <1>   0.0800 
 48 H       -8.3480    -2.5490    -1.3870 H     1 <1>   0.0800 
 49 H       -7.1470    -5.1410    -1.2950 H     1 <1>   0.0800 
 50 H       -6.6290    -3.7540    -2.2300 H     1 <1>   0.0800 
@<TRIPOS>BOND
  1   1   2  2   
  2   2   3  am  
  3   2   4  1   
  4   3   5  1   
  5   3   6  1   
  6   4   7  1   
  7   4  23  1   
  8   4  24  1   
  9   5   8  1   
 10   5  25  1   
 11   5  26  1   
 12   6   9  1   
 13   6  27  1   
 14   6  28  1   
 15   7   8  1   
 16   7  29  1   
 17   7  30  1   
 18   8  31  1   
 19   8  32  1   
 20   9  10  1   
 21   9  33  1   
 22   9  34  1   
 23  10  11  2   
 24  10  12  am  
 25  12  13  1   
 26  12  14  1   
 27  13  15  1   
 28  13  35  1   
 29  13  36  1   
 30  14  16  1   
 31  14  37  1   
 32  14  38  1   
 33  15  17  1   
 34  15  18  1   
 35  15  19  1   
 36  16  18  1   
 37  16  39  1   
 38  16  40  1   
 39  17  20  1   
 40  17  21  1   
 41  17  41  1   
 42  18  42  1   
 43  18  43  1   
 44  19  22  1   
 45  19  44  1   
 46  19  45  1   
 47  20  46  1   
 48  21  22  1   
 49  21  47  1   
 50  21  48  1   
 51  22  49  1   
 52  22  50  1   
@<TRIPOS>SUBSTRUCTURE
  1 ****  12 GROUP 4 **** **** 0

# MOE 2024.06 (io_trps.svl 2023.06)
