@<TRIPOS>MOLECULE
NONAME
46 49 1 0 0 
SMALL
USER_CHARGES


@<TRIPOS>ATOM
  1 O       -0.4460     0.1570    -0.1890 O.3   1 <1>  -0.2800 
  2 C       -0.6700     1.3950     0.2370 C.2   1 <1>   0.1410 
  3 C       -1.0960    -0.6900     0.5790 C.2   1 <1>  -0.0400 
  4 C       -0.0720     2.5250    -0.4410 C.2   1 <1>   0.2880 
  5 C       -1.4920     1.3320     1.3190 C.2   1 <1>  -0.1500 
  6 C       -1.7690    -0.0200     1.5420 C.2   1 <1>  -0.1500 
  7 C       -0.9590    -2.1620     0.2360 C.3   1 <1>   0.5230 
  8 N        0.6720     2.4440    -1.5190 N.2   1 <1>  -0.7070 
  9 C       -0.2060     3.8580    -0.0390 C.2   1 <1>  -0.1500 
 10 N       -2.1330    -2.9310     0.7280 N.4   1 <1>  -0.9590 
 11 N        1.0160     3.7090    -1.8110 N.pl3 1 <1>   0.3000 
 12 C        0.4960     4.5840    -0.9310 C.2   1 <1>  -0.3020 
 13 C       -3.4350    -2.5210     0.1350 C.3   1 <1>   0.3430 
 14 C       -2.0300    -4.4030     0.5170 C.3   1 <1>   0.3430 
 15 C       -4.3560    -3.6990     0.4540 C.3   1 <1>   0.2000 
 16 C       -3.4450    -4.9020     0.1910 C.3   1 <1>  -0.0800 
 17 O       -4.6720    -3.6310     1.8090 O.3   1 <1>  -0.6800 
 18 C       -3.7990    -6.2040     0.9350 C.3   1 <1>   0.0210 
 19 C       -2.8940    -7.3450     0.5060 C.2   1 <1>   0.1080 
 20 N       -1.5980    -7.2640     0.5030 N.2   1 <1>  -0.7070 
 21 C       -3.3440    -8.5890     0.0790 C.2   1 <1>  -0.1500 
 22 N       -1.1840    -8.4770     0.0760 N.pl3 1 <1>   0.3000 
 23 C       -2.2250    -9.2910    -0.1910 C.2   1 <1>  -0.3320 
 24 C       -2.0840   -10.7180    -0.6900 C.3   1 <1>  -0.0600 
 25 H       -1.8680     2.1510     1.9060 H     1 <1>   0.1500 
 26 H       -2.3930    -0.3900     2.3370 H     1 <1>   0.1500 
 27 H       -0.0500    -2.5420     0.6700 H     1 <1>   0.0800 
 28 H       -0.8870    -2.2600    -0.8350 H     1 <1>   0.0800 
 29 H       -0.7630     4.2030     0.8130 H     1 <1>   0.1500 
 30 H       -2.2320    -2.7830     1.7420 H     1 <1>   0.4500 
 31 H        1.6070     3.9430    -2.6190 H     1 <1>   0.2700 
 32 H        0.6540     5.6450    -0.9900 H     1 <1>   0.1500 
 33 H       -3.8070    -1.6040     0.5610 H     1 <1>   0.0800 
 34 H       -3.3390    -2.4130    -0.9330 H     1 <1>   0.0800 
 35 H       -1.3670    -4.6410    -0.3000 H     1 <1>   0.0800 
 36 H       -1.6580    -4.8840     1.4090 H     1 <1>   0.0800 
 37 H       -5.2630    -3.6930    -0.1270 H     1 <1>   0.0800 
 38 H       -3.4690    -5.1130    -0.8640 H     1 <1>   0.0800 
 39 H       -5.4100    -4.2360     2.0350 H     1 <1>   0.4000 
 40 H       -4.8200    -6.4740     0.7310 H     1 <1>   0.0800 
 41 H       -3.6930    -6.0750     1.9980 H     1 <1>   0.0800 
 42 H       -4.3690    -8.9060    -0.0080 H     1 <1>   0.1500 
 43 H       -0.1900    -8.7250    -0.0180 H     1 <1>   0.2700 
 44 H       -3.0550   -11.1600    -0.8250 H     1 <1>   0.0800 
 45 H       -1.5360   -11.3100     0.0230 H     1 <1>   0.0800 
 46 H       -1.5670   -10.7350    -1.6320 H     1 <1>   0.0800 
@<TRIPOS>BOND
  1   1   2  1   
  2   1   3  1   
  3   2   4  1   
  4   2   5  2   
  5   3   6  2   
  6   3   7  1   
  7   4   8  2   
  8   4   9  1   
  9   5   6  1   
 10   5  25  1   
 11   6  26  1   
 12   7  10  1   
 13   7  27  1   
 14   7  28  1   
 15   8  11  1   
 16   9  12  2   
 17   9  29  1   
 18  10  13  1   
 19  10  14  1   
 20  10  30  1   
 21  11  12  1   
 22  11  31  1   
 23  12  32  1   
 24  13  15  1   
 25  13  33  1   
 26  13  34  1   
 27  14  16  1   
 28  14  35  1   
 29  14  36  1   
 30  15  16  1   
 31  15  17  1   
 32  15  37  1   
 33  16  18  1   
 34  16  38  1   
 35  17  39  1   
 36  18  19  1   
 37  18  40  1   
 38  18  41  1   
 39  19  20  2   
 40  19  21  1   
 41  20  22  1   
 42  21  23  2   
 43  21  42  1   
 44  22  23  1   
 45  22  43  1   
 46  23  24  1   
 47  24  44  1   
 48  24  45  1   
 49  24  46  1   
@<TRIPOS>SUBSTRUCTURE
  1 ****  10 GROUP 4 **** **** 0

# MOE 2024.06 (io_trps.svl 2023.06)
