@<TRIPOS>MOLECULE
NONAME
52 54 1 0 0 
SMALL
USER_CHARGES


@<TRIPOS>ATOM
  1 O        1.0190    -0.6020    -2.0710 O.2   1 <1>  -0.5700 
  2 C        1.6990    -0.9650    -1.1320 C.2   1 <1>   0.7150 
  3 N        2.5890    -0.0710    -0.5750 N.am  1 <1>  -0.6600 
  4 C        1.5710    -2.2970    -0.6290 C.2   1 <1>  -0.2370 
  5 C        3.2350    -0.3280     0.7670 C.3   1 <1>   0.2200 
  6 C        2.7880     1.2570    -1.2440 C.3   1 <1>   0.1400 
  7 N        0.4050    -2.8150    -0.1690 N.pl3 1 <1>   0.3140 
  8 C        2.4930    -3.2890    -0.4770 C.2   1 <1>  -0.1500 
  9 C        2.9980     0.8110     1.7720 C.3   1 <1>   0.1200 
 10 C        4.7460    -0.6200     0.6070 C.3   1 <1>   0.3430 
 11 C        4.0050     2.0670    -0.7570 C.3   1 <1>  -0.0800 
 12 N        0.5640    -4.0590     0.3040 N.2   1 <1>  -0.7070 
 13 C       -0.9250    -2.1600    -0.1430 C.3   1 <1>   0.0960 
 14 C        1.8140    -4.3450     0.1050 C.2   1 <1>   0.1080 
 15 O        3.9710     1.8020     1.6370 O.3   1 <1>  -0.5600 
 16 N        5.2890    -0.1490    -0.7160 N.4   1 <1>  -0.9590 
 17 C        3.7600     2.7150     0.6140 C.3   1 <1>   0.1200 
 18 C        5.3670     1.3450    -0.8210 C.3   1 <1>   0.3430 
 19 C       -1.0210    -1.1260     0.9870 C.3   1 <1>  -0.2400 
 20 C        2.4130    -5.6950     0.4810 C.3   1 <1>   0.1010 
 21 C        6.6040    -0.7820    -1.0260 C.3   1 <1>   0.2630 
 22 C        3.5300    -5.5310     1.5190 C.3   1 <1>  -0.2400 
 23 C        2.9320    -6.4280    -0.7610 C.3   1 <1>  -0.2400 
 24 H        2.7830    -1.1930     1.2190 H     1 <1>   0.0800 
 25 H        2.8900     1.0910    -2.3040 H     1 <1>   0.0800 
 26 H        1.8930     1.8420    -1.1080 H     1 <1>   0.0800 
 27 H        3.5310    -3.2910    -0.7490 H     1 <1>   0.1500 
 28 H        3.0960     0.4250     2.7720 H     1 <1>   0.0800 
 29 H        2.0130     1.2360     1.6730 H     1 <1>   0.0800 
 30 H        4.8820    -1.6860     0.6860 H     1 <1>   0.0800 
 31 H        5.2900    -0.1650     1.4190 H     1 <1>   0.0800 
 32 H        4.0820     2.9000    -1.4330 H     1 <1>   0.0800 
 33 H       -1.1030    -1.6970    -1.0960 H     1 <1>   0.0800 
 34 H       -1.6670    -2.9250     0.0010 H     1 <1>   0.0800 
 35 H        4.5790    -0.4460    -1.4080 H     1 <1>   0.4500 
 36 H        2.7640     3.1200     0.6970 H     1 <1>   0.0800 
 37 H        4.4590     3.5200     0.7680 H     1 <1>   0.0800 
 38 H        6.0040     1.7290    -0.0400 H     1 <1>   0.0800 
 39 H        5.8260     1.5930    -1.7630 H     1 <1>   0.0800 
 40 H       -0.3210    -0.3260     0.8320 H     1 <1>   0.0800 
 41 H       -0.8310    -1.5980     1.9350 H     1 <1>   0.0800 
 42 H       -2.0120    -0.7090     1.0070 H     1 <1>   0.0800 
 43 H        1.6290    -6.2900     0.9200 H     1 <1>   0.0800 
 44 H        7.3430    -0.4820    -0.3000 H     1 <1>   0.0800 
 45 H        6.9410    -0.4840    -2.0050 H     1 <1>   0.0800 
 46 H        6.5170    -1.8560    -1.0070 H     1 <1>   0.0800 
 47 H        4.3490    -4.9670     1.1140 H     1 <1>   0.0800 
 48 H        3.8920    -6.4960     1.8270 H     1 <1>   0.0800 
 49 H        3.1460    -5.0200     2.3850 H     1 <1>   0.0800 
 50 H        3.7310    -5.8790    -1.2250 H     1 <1>   0.0800 
 51 H        2.1330    -6.5400    -1.4730 H     1 <1>   0.0800 
 52 H        3.2900    -7.4070    -0.4950 H     1 <1>   0.0800 
@<TRIPOS>BOND
  1   1   2  2   
  2   2   3  am  
  3   2   4  1   
  4   3   5  1   
  5   3   6  1   
  6   4   7  1   
  7   4   8  2   
  8   5   9  1   
  9   5  10  1   
 10   5  24  1   
 11   6  11  1   
 12   6  25  1   
 13   6  26  1   
 14   7  12  1   
 15   7  13  1   
 16   8  14  1   
 17   8  27  1   
 18   9  15  1   
 19   9  28  1   
 20   9  29  1   
 21  10  16  1   
 22  10  30  1   
 23  10  31  1   
 24  11  17  1   
 25  11  18  1   
 26  11  32  1   
 27  12  14  2   
 28  13  19  1   
 29  13  33  1   
 30  13  34  1   
 31  14  20  1   
 32  15  17  1   
 33  16  18  1   
 34  16  21  1   
 35  16  35  1   
 36  17  36  1   
 37  17  37  1   
 38  18  38  1   
 39  18  39  1   
 40  19  40  1   
 41  19  41  1   
 42  19  42  1   
 43  20  22  1   
 44  20  23  1   
 45  20  43  1   
 46  21  44  1   
 47  21  45  1   
 48  21  46  1   
 49  22  47  1   
 50  22  48  1   
 51  22  49  1   
 52  23  50  1   
 53  23  51  1   
 54  23  52  1   
@<TRIPOS>SUBSTRUCTURE
  1 ****   3 GROUP 4 **** **** 0

# MOE 2024.06 (io_trps.svl 2023.06)
