@<TRIPOS>MOLECULE
NONAME
41 43 1 0 0 
SMALL
USER_CHARGES


@<TRIPOS>ATOM
  1 S       -0.6670    -2.2610    -1.7630 S.3   1 <1>  -0.2820 
  2 C       -0.9350    -0.5350    -1.9170 C.2   1 <1>   0.7320 
  3 C       -1.9780    -2.3190    -0.6100 C.2   1 <1>   0.6510 
  4 S        0.1490     0.3200    -3.0520 S.3   1 <1>  -0.3710 
  5 N       -1.8680    -0.0430    -1.2160 N.2   1 <1>  -0.5120 
  6 N       -2.3550    -3.4080    -0.0310 N.2   1 <1>  -0.6210 
  7 N       -2.4850    -1.0520    -0.4530 N.am  1 <1>  -0.0580 
  8 C       -0.4170     2.0780    -2.9550 C.3   1 <1>  -0.0100 
  9 C       -3.4030    -3.2820     0.8400 C.2   1 <1>   0.0330 
 10 C       -3.5350    -0.9050     0.4400 C.2   1 <1>   0.6160 
 11 C       -3.9850    -2.0800     1.0900 C.2   1 <1>  -0.1360 
 12 C       -3.8840    -4.5630     1.5180 C.3   1 <1>   0.2480 
 13 O       -4.0510     0.1820     0.6600 O.2   1 <1>  -0.5700 
 14 N       -4.7390    -5.3510     0.6140 N.3   1 <1>  -0.8100 
 15 C       -4.8290    -6.7610     1.0500 C.3   1 <1>   0.2900 
 16 C       -6.0780    -4.7600     0.4480 C.3   1 <1>   0.0300 
 17 C       -5.4820    -7.6470    -0.0030 C.2   1 <1>   0.0060 
 18 N       -6.5520    -8.3450     0.2220 N.2   1 <1>  -0.5650 
 19 N       -4.9960    -7.7860    -1.2640 N.pl3 1 <1>   0.0480 
 20 C       -6.7800    -8.9700    -0.9460 C.2   1 <1>   0.0770 
 21 C       -5.8440    -8.6440    -1.8610 C.2   1 <1>  -0.3020 
 22 C       -3.8100    -7.1610    -1.8940 C.3   1 <1>   0.0960 
 23 C       -2.5540    -7.9980    -1.6320 C.3   1 <1>  -0.2400 
 24 H        0.1930     2.6580    -3.6240 H     1 <1>   0.0800 
 25 H       -0.2980     2.4100    -1.9390 H     1 <1>   0.0800 
 26 H       -1.4510     2.1110    -3.2500 H     1 <1>   0.0800 
 27 H       -4.8040    -1.9630     1.7730 H     1 <1>   0.1500 
 28 H       -4.4240    -4.3320     2.4200 H     1 <1>   0.0800 
 29 H       -3.0140    -5.1370     1.7890 H     1 <1>   0.0800 
 30 H       -5.3940    -6.8260     1.9640 H     1 <1>   0.0800 
 31 H       -3.8430    -7.1450     1.2390 H     1 <1>   0.0800 
 32 H       -5.9980    -3.7580     0.0640 H     1 <1>   0.0800 
 33 H       -6.6030    -4.7420     1.3870 H     1 <1>   0.0800 
 34 H       -6.6540    -5.3370    -0.2560 H     1 <1>   0.0800 
 35 H       -7.6190    -9.6340    -1.0680 H     1 <1>   0.1500 
 36 H       -5.7380    -8.9670    -2.8800 H     1 <1>   0.1500 
 37 H       -3.6790    -6.1670    -1.5080 H     1 <1>   0.0800 
 38 H       -3.9860    -7.0840    -2.9510 H     1 <1>   0.0800 
 39 H       -2.3600    -8.0590    -0.5770 H     1 <1>   0.0800 
 40 H       -1.7070    -7.5370    -2.1080 H     1 <1>   0.0800 
 41 H       -2.6760    -8.9900    -2.0310 H     1 <1>   0.0800 
@<TRIPOS>BOND
  1   1   2  1   
  2   1   3  1   
  3   2   4  1   
  4   2   5  2   
  5   3   6  2   
  6   3   7  1   
  7   4   8  1   
  8   5   7  1   
  9   6   9  1   
 10   7  10  am  
 11   8  24  1   
 12   8  25  1   
 13   8  26  1   
 14   9  11  2   
 15   9  12  1   
 16  10  11  1   
 17  10  13  2   
 18  11  27  1   
 19  12  14  1   
 20  12  28  1   
 21  12  29  1   
 22  14  15  1   
 23  14  16  1   
 24  15  17  1   
 25  15  30  1   
 26  15  31  1   
 27  16  32  1   
 28  16  33  1   
 29  16  34  1   
 30  17  18  2   
 31  17  19  1   
 32  18  20  1   
 33  19  21  1   
 34  19  22  1   
 35  20  21  2   
 36  20  35  1   
 37  21  36  1   
 38  22  23  1   
 39  22  37  1   
 40  22  38  1   
 41  23  39  1   
 42  23  40  1   
 43  23  41  1   
@<TRIPOS>SUBSTRUCTURE
  1 ****   6 GROUP 4 **** **** 0

# MOE 2024.06 (io_trps.svl 2023.06)
