@<TRIPOS>MOLECULE
NONAME
45 46 1 0 0 
SMALL
USER_CHARGES


@<TRIPOS>ATOM
  1 S       -1.6470    -0.3190    -0.6020 S.3   1 <1>  -0.4600 
  2 C       -3.0060    -1.4880    -0.9660 C.3   1 <1>   0.1310 
  3 C       -0.9330     0.0150    -2.2340 C.3   1 <1>  -0.0100 
  4 C       -3.6270    -2.0580     0.3070 C.2   1 <1>   0.5690 
  5 O       -3.4240    -3.2280     0.5430 O.2   1 <1>  -0.5700 
  6 N       -4.4300    -1.2980     1.1210 N.am  1 <1>  -0.6600 
  7 C       -5.1080    -1.9140     2.2980 C.3   1 <1>   0.1400 
  8 C       -4.8210     0.1130     0.8570 C.3   1 <1>   0.1400 
  9 C       -6.3940    -2.6590     1.8980 C.3   1 <1>   0.1400 
 10 C       -6.1810     0.1950     0.1530 C.3   1 <1>  -0.1600 
 11 N       -7.1630    -1.9990     0.7880 N.am  1 <1>  -0.6600 
 12 C       -7.3270    -0.5210     0.8830 C.3   1 <1>   0.1400 
 13 C       -7.6240    -2.6870    -0.3180 C.2   1 <1>   0.5440 
 14 O       -8.1810    -2.0720    -1.2080 O.2   1 <1>  -0.5700 
 15 C       -7.4720    -4.1200    -0.4440 C.ar  1 <1>   0.0860 
 16 C       -8.5290    -4.9990    -0.1910 C.ar  1 <1>   0.1670 
 17 C       -6.2550    -4.6760    -0.8120 C.ar  1 <1>  -0.1500 
 18 N       -8.4480    -6.3190    -0.2590 N.ar  1 <1>  -0.6200 
 19 C       -9.8930    -4.4540     0.1980 C.3   1 <1>  -0.0970 
 20 C       -6.1620    -6.0470    -0.8890 C.ar  1 <1>  -0.1500 
 21 C       -7.2750    -6.8200    -0.6050 C.ar  1 <1>   0.1670 
 22 C       -7.1970    -8.3290    -0.6810 C.3   1 <1>  -0.0970 
 23 H       -2.5850    -2.2840    -1.5520 H     1 <1>   0.0800 
 24 H       -3.7420    -0.9630    -1.5450 H     1 <1>   0.0800 
 25 H       -0.1230     0.7090    -2.1000 H     1 <1>   0.0800 
 26 H       -1.7020     0.4390    -2.8560 H     1 <1>   0.0800 
 27 H       -0.5750    -0.9150    -2.6380 H     1 <1>   0.0800 
 28 H       -5.3450    -1.1540     3.0190 H     1 <1>   0.0800 
 29 H       -4.4370    -2.6060     2.7780 H     1 <1>   0.0800 
 30 H       -4.0780     0.6030     0.2540 H     1 <1>   0.0800 
 31 H       -4.8640     0.6460     1.7920 H     1 <1>   0.0800 
 32 H       -7.0300    -2.7490     2.7600 H     1 <1>   0.0800 
 33 H       -6.1090    -3.6560     1.6140 H     1 <1>   0.0800 
 34 H       -6.0990    -0.1940    -0.8460 H     1 <1>   0.0800 
 35 H       -6.4420     1.2330     0.0630 H     1 <1>   0.0800 
 36 H       -8.2620    -0.2420     0.4260 H     1 <1>   0.0800 
 37 H       -7.3680    -0.2180     1.9140 H     1 <1>   0.0800 
 38 H       -5.4090    -4.0470    -1.0220 H     1 <1>   0.1500 
 39 H       -9.8080    -3.8210     1.0620 H     1 <1>   0.0800 
 40 H      -10.5700    -5.2570     0.4280 H     1 <1>   0.0800 
 41 H      -10.3010    -3.8850    -0.6180 H     1 <1>   0.0800 
 42 H       -5.2310    -6.5070    -1.1660 H     1 <1>   0.1500 
 43 H       -7.9050    -8.6870    -1.4050 H     1 <1>   0.0800 
 44 H       -7.4410    -8.7490     0.2780 H     1 <1>   0.0800 
 45 H       -6.2130    -8.6540    -0.9640 H     1 <1>   0.0800 
@<TRIPOS>BOND
  1   1   2  1   
  2   1   3  1   
  3   2   4  1   
  4   2  23  1   
  5   2  24  1   
  6   3  25  1   
  7   3  26  1   
  8   3  27  1   
  9   4   5  2   
 10   4   6  am  
 11   6   7  1   
 12   6   8  1   
 13   7   9  1   
 14   7  28  1   
 15   7  29  1   
 16   8  10  1   
 17   8  30  1   
 18   8  31  1   
 19   9  11  1   
 20   9  32  1   
 21   9  33  1   
 22  10  12  1   
 23  10  34  1   
 24  10  35  1   
 25  11  12  1   
 26  11  13  am  
 27  12  36  1   
 28  12  37  1   
 29  13  14  2   
 30  13  15  1   
 31  15  16  ar  
 32  15  17  ar  
 33  16  18  ar  
 34  16  19  1   
 35  17  20  ar  
 36  17  38  1   
 37  18  21  ar  
 38  19  39  1   
 39  19  40  1   
 40  19  41  1   
 41  20  21  ar  
 42  20  42  1   
 43  21  22  1   
 44  22  43  1   
 45  22  44  1   
 46  22  45  1   
@<TRIPOS>SUBSTRUCTURE
  1 ****  13 GROUP 4 **** **** 0

# MOE 2024.06 (io_trps.svl 2023.06)
