@<TRIPOS>MOLECULE
NONAME
43 45 1 0 0 
SMALL
USER_CHARGES


@<TRIPOS>ATOM
  1 O       -2.2370    -0.2590     1.1860 O.co2 1 <1>  -0.9000 
  2 C       -1.9690     0.7710     0.5530 C.2   1 <1>   0.9060 
  3 O       -1.7170     0.7070    -0.6520 O.co2 1 <1>  -0.9000 
  4 C       -2.2790     2.1190     1.1770 C.3   1 <1>   0.0140 
  5 O       -3.6030     2.1390     1.7190 O.3   1 <1>  -0.3630 
  6 C       -4.6060     2.7570     1.0630 C.ar  1 <1>   0.0830 
  7 C       -5.1970     2.2540    -0.0980 C.ar  1 <1>  -0.1440 
  8 C       -5.0910     3.9220     1.6320 C.ar  1 <1>  -0.1500 
  9 C       -6.2680     2.9400    -0.6490 C.ar  1 <1>  -0.1500 
 10 C       -4.7320     0.9930    -0.8130 C.3   1 <1>   0.4870 
 11 C       -6.1550     4.5930     1.0630 C.ar  1 <1>  -0.1500 
 12 C       -6.7780     4.1100    -0.0870 C.ar  1 <1>   0.0000 
 13 N       -4.7280    -0.1900     0.0830 N.4   1 <1>  -0.9590 
 14 C       -7.9130     4.7880    -0.6830 C.ar  1 <1>   0.3100 
 15 C       -4.3460    -1.4630    -0.5880 C.3   1 <1>   0.3430 
 16 C       -5.8770    -0.4100     0.9790 C.3   1 <1>   0.3430 
 17 N       -7.9630     4.8830    -2.0140 N.ar  1 <1>  -0.6200 
 18 C       -8.9300     5.3100     0.1280 C.ar  1 <1>   0.1600 
 19 C       -5.3240    -2.5120    -0.0500 C.3   1 <1>   0.2000 
 20 C       -5.8530    -1.9090     1.2450 C.3   1 <1>  -0.1600 
 21 C       -9.0340     5.5240    -2.4480 C.ar  1 <1>   0.1600 
 22 N      -10.0050     5.9470    -0.3030 N.ar  1 <1>  -0.6200 
 23 O       -6.3960    -2.6440    -0.9270 O.3   1 <1>  -0.6800 
 24 C      -10.0230     6.0400    -1.6210 C.ar  1 <1>   0.1600 
 25 H       -2.1830     2.8960     0.4420 H     1 <1>   0.0800 
 26 H       -1.5910     2.2920     1.9800 H     1 <1>   0.0800 
 27 H       -4.6240     4.2980     2.5250 H     1 <1>   0.1500 
 28 H       -6.7340     2.5760    -1.5490 H     1 <1>   0.1500 
 29 H       -3.7500     1.1550    -1.2210 H     1 <1>   0.0800 
 30 H       -5.3920     0.8020    -1.6420 H     1 <1>   0.0800 
 31 H       -6.4980     5.5050     1.5190 H     1 <1>   0.1500 
 32 H       -3.8990    -0.0390     0.7120 H     1 <1>   0.4500 
 33 H       -4.4030    -1.3930    -1.6610 H     1 <1>   0.0800 
 34 H       -3.3360    -1.7150    -0.3030 H     1 <1>   0.0800 
 35 H       -5.7750     0.1640     1.8870 H     1 <1>   0.0800 
 36 H       -6.7900    -0.1360     0.4780 H     1 <1>   0.0800 
 37 H       -8.8420     5.1850     1.1910 H     1 <1>   0.1500 
 38 H       -4.8660    -3.4790     0.0780 H     1 <1>   0.0800 
 39 H       -6.8150    -2.2980     1.5290 H     1 <1>   0.0800 
 40 H       -5.1530    -2.1020     2.0390 H     1 <1>   0.0800 
 41 H       -9.1360     5.6480    -3.5120 H     1 <1>   0.1500 
 42 H       -6.8530    -1.7940    -1.0620 H     1 <1>   0.4000 
 43 H      -10.8600     6.5480    -2.0680 H     1 <1>   0.1500 
@<TRIPOS>BOND
  1   1   2  ar  
  2   2   3  ar  
  3   2   4  1   
  4   4   5  1   
  5   4  25  1   
  6   4  26  1   
  7   5   6  1   
  8   6   7  ar  
  9   6   8  ar  
 10   7   9  ar  
 11   7  10  1   
 12   8  11  ar  
 13   8  27  1   
 14   9  12  ar  
 15   9  28  1   
 16  10  13  1   
 17  10  29  1   
 18  10  30  1   
 19  11  12  ar  
 20  11  31  1   
 21  12  14  1   
 22  13  15  1   
 23  13  16  1   
 24  13  32  1   
 25  14  17  ar  
 26  14  18  ar  
 27  15  19  1   
 28  15  33  1   
 29  15  34  1   
 30  16  20  1   
 31  16  35  1   
 32  16  36  1   
 33  17  21  ar  
 34  18  22  ar  
 35  18  37  1   
 36  19  20  1   
 37  19  23  1   
 38  19  38  1   
 39  20  39  1   
 40  20  40  1   
 41  21  24  ar  
 42  21  41  1   
 43  22  24  ar  
 44  23  42  1   
 45  24  43  1   
@<TRIPOS>SUBSTRUCTURE
  1 ****   7 GROUP 4 **** **** 0

# MOE 2024.06 (io_trps.svl 2023.06)
