@<TRIPOS>MOLECULE
NONAME
55 57 1 0 0 
SMALL
USER_CHARGES


@<TRIPOS>ATOM
  1 O        0.4380     0.0310     0.0030 O.2   1 <1>  -0.5700 
  2 C        1.4820    -0.5930    -0.0810 C.2   1 <1>   0.7150 
  3 N        2.6280     0.1060    -0.4310 N.am  1 <1>  -0.6600 
  4 C        1.4650    -2.0210     0.1750 C.2   1 <1>   0.0550 
  5 C        3.8590    -0.5770    -0.9410 C.3   1 <1>   0.1400 
  6 C        2.5910     1.5980    -0.5250 C.3   1 <1>   0.1400 
  7 O        2.5060    -2.6390     0.7220 O.3   1 <1>  -0.2800 
  8 C        0.4940    -2.9360    -0.0380 C.2   1 <1>   0.0460 
  9 C        4.9290    -0.7020     0.1530 C.3   1 <1>   0.1400 
 10 C        3.9230     2.2930    -0.2110 C.3   1 <1>  -0.1600 
 11 C        2.0840    -3.8830     0.7950 C.2   1 <1>   0.2980 
 12 N        0.9080    -4.1330     0.3600 N.2   1 <1>  -0.5650 
 13 C       -0.8950    -2.7870    -0.6290 C.3   1 <1>  -0.0590 
 14 N        5.6040     0.6030     0.4310 N.am  1 <1>  -0.6600 
 15 C        4.7050     1.6720     0.9510 C.3   1 <1>   0.1400 
 16 C        3.0200    -4.9110     1.3820 C.3   1 <1>  -0.0600 
 17 C        6.9440     0.7840     0.1500 C.2   1 <1>   0.5690 
 18 O        7.5860    -0.1110    -0.3550 O.2   1 <1>  -0.5700 
 19 C        7.6650     2.1210     0.4810 C.3   1 <1>   0.2610 
 20 O        7.1480     3.1860    -0.2700 O.3   1 <1>  -0.6800 
 21 C        9.2100     2.1120     0.3260 C.3   1 <1>  -0.0800 
 22 C        9.8450     3.3120     1.0590 C.3   1 <1>  -0.1600 
 23 C        9.7020     2.0770    -1.1410 C.3   1 <1>  -0.1600 
 24 C       11.3770     3.2760     0.9810 C.3   1 <1>  -0.1600 
 25 C       11.2340     2.0280    -1.2140 C.3   1 <1>  -0.1600 
 26 C       11.8600     3.2150    -0.4730 C.3   1 <1>  -0.1600 
 27 H        3.6040    -1.5620    -1.2910 H     1 <1>   0.0800 
 28 H        4.2620    -0.0400    -1.7820 H     1 <1>   0.0800 
 29 H        2.2640     1.8770    -1.5120 H     1 <1>   0.0800 
 30 H        1.8580     1.9680     0.1720 H     1 <1>   0.0800 
 31 H        5.6520    -1.4310    -0.1680 H     1 <1>   0.0800 
 32 H        4.4860    -1.0730     1.0590 H     1 <1>   0.0800 
 33 H        4.5390     2.3270    -1.0910 H     1 <1>   0.0800 
 34 H        3.6980     3.3130     0.0420 H     1 <1>   0.0800 
 35 H       -1.0670    -1.7850    -0.9730 H     1 <1>   0.0800 
 36 H       -1.6290    -3.0290     0.1180 H     1 <1>   0.0800 
 37 H       -1.0080    -3.4610    -1.4580 H     1 <1>   0.0800 
 38 H        4.0300     1.2630     1.6840 H     1 <1>   0.0800 
 39 H        5.2790     2.4390     1.4380 H     1 <1>   0.0800 
 40 H        2.5510    -5.8770     1.3780 H     1 <1>   0.0800 
 41 H        3.2620    -4.6420     2.3930 H     1 <1>   0.0800 
 42 H        3.9210    -4.9550     0.8000 H     1 <1>   0.0800 
 43 H        7.4460     2.3370     1.5100 H     1 <1>   0.0800 
 44 H        7.4150     3.0640    -1.2010 H     1 <1>   0.4000 
 45 H        9.5670     1.2190     0.8120 H     1 <1>   0.0800 
 46 H        9.4910     4.2310     0.6210 H     1 <1>   0.0800 
 47 H        9.5470     3.3070     2.0930 H     1 <1>   0.0800 
 48 H        9.3060     1.2150    -1.6490 H     1 <1>   0.0800 
 49 H        9.3650     2.9540    -1.6660 H     1 <1>   0.0800 
 50 H       11.7830     4.1520     1.4580 H     1 <1>   0.0800 
 51 H       11.7410     2.4130     1.5130 H     1 <1>   0.0800 
 52 H       11.5810     1.1080    -0.7760 H     1 <1>   0.0800 
 53 H       11.5460     2.0410    -2.2440 H     1 <1>   0.0800 
 54 H       12.9330     3.1280    -0.4930 H     1 <1>   0.0800 
 55 H       11.5930     4.1300    -0.9750 H     1 <1>   0.0800 
@<TRIPOS>BOND
  1   1   2  2   
  2   2   3  am  
  3   2   4  1   
  4   3   5  1   
  5   3   6  1   
  6   4   7  1   
  7   4   8  2   
  8   5   9  1   
  9   5  27  1   
 10   5  28  1   
 11   6  10  1   
 12   6  29  1   
 13   6  30  1   
 14   7  11  1   
 15   8  12  1   
 16   8  13  1   
 17   9  14  1   
 18   9  31  1   
 19   9  32  1   
 20  10  15  1   
 21  10  33  1   
 22  10  34  1   
 23  11  12  2   
 24  11  16  1   
 25  13  35  1   
 26  13  36  1   
 27  13  37  1   
 28  14  15  1   
 29  14  17  am  
 30  15  38  1   
 31  15  39  1   
 32  16  40  1   
 33  16  41  1   
 34  16  42  1   
 35  17  18  2   
 36  17  19  1   
 37  19  20  1   
 38  19  21  1   
 39  19  43  1   
 40  20  44  1   
 41  21  22  1   
 42  21  23  1   
 43  21  45  1   
 44  22  24  1   
 45  22  46  1   
 46  22  47  1   
 47  23  25  1   
 48  23  48  1   
 49  23  49  1   
 50  24  26  1   
 51  24  50  1   
 52  24  51  1   
 53  25  26  1   
 54  25  52  1   
 55  25  53  1   
 56  26  54  1   
 57  26  55  1   
@<TRIPOS>SUBSTRUCTURE
  1 ****  14 GROUP 4 **** **** 0

# MOE 2024.06 (io_trps.svl 2023.06)
