@<TRIPOS>MOLECULE
NONAME
51 52 1 0 0 
SMALL
USER_CHARGES


@<TRIPOS>ATOM
  1 O       -1.3540     0.9800    -2.4750 O.2   1 <1>  -0.5700 
  2 C       -1.8970     1.2180    -1.4150 C.2   1 <1>   0.5440 
  3 N       -2.5330     0.1860    -0.7520 N.am  1 <1>  -0.6600 
  4 C       -1.9280     2.5820    -0.9380 C.ar  1 <1>   0.0860 
  5 C       -2.5750    -1.1700    -1.4010 C.3   1 <1>   0.3210 
  6 C       -2.9910     0.2600     0.6760 C.3   1 <1>   0.1400 
  7 C       -1.2120     3.0240     0.1800 C.ar  1 <1>   0.0820 
  8 C       -2.7270     3.5160    -1.5980 C.ar  1 <1>  -0.1500 
  9 C       -3.7210    -2.0580    -0.9060 C.2   1 <1>   0.0460 
 10 C       -4.4870     0.6030     0.8490 C.3   1 <1>   0.3430 
 11 O       -0.3680     2.2090     0.8410 O.3   1 <1>  -0.3630 
 12 C       -1.3650     4.3150     0.6600 C.ar  1 <1>  -0.1500 
 13 C       -2.8670     4.8090    -1.1280 C.ar  1 <1>  -0.1500 
 14 N       -5.0120    -1.7650    -1.1840 N.2   1 <1>  -0.5650 
 15 C       -3.6370    -3.2030    -0.1860 C.2   1 <1>  -0.3320 
 16 N       -4.9440     1.7580     0.0020 N.4   1 <1>  -0.9590 
 17 C        0.8610     1.9060     0.2120 C.3   1 <1>   0.0400 
 18 C       -2.1960     5.2120     0.0140 C.ar  1 <1>  -0.1430 
 19 C       -5.6750    -2.7430    -0.6560 C.2   1 <1>   0.0360 
 20 N       -4.8980    -3.6490    -0.0310 N.pl3 1 <1>   0.0330 
 21 C       -2.4400    -3.9570     0.3720 C.3   1 <1>  -0.0600 
 22 C       -6.0070     2.5500     0.6820 C.3   1 <1>   0.2630 
 23 C       -5.4230     1.2550    -1.3260 C.3   1 <1>   0.2630 
 24 C       -2.3520     6.6330     0.5280 C.3   1 <1>  -0.0970 
 25 H       -1.6350    -1.6610    -1.2250 H     1 <1>   0.0800 
 26 H       -2.6840    -1.0590    -2.4660 H     1 <1>   0.0800 
 27 H       -2.4190     0.9900     1.2140 H     1 <1>   0.0800 
 28 H       -2.7950    -0.6810     1.1610 H     1 <1>   0.0800 
 29 H       -3.2350     3.2200    -2.5000 H     1 <1>   0.1500 
 30 H       -4.6500     0.8350     1.8880 H     1 <1>   0.0800 
 31 H       -5.0790    -0.2680     0.6240 H     1 <1>   0.0800 
 32 H       -0.8160     4.6100     1.5370 H     1 <1>   0.1500 
 33 H       -3.4900     5.5100    -1.6590 H     1 <1>   0.1500 
 34 H       -4.1240     2.3640    -0.1620 H     1 <1>   0.4500 
 35 H        1.4590     1.3330     0.8980 H     1 <1>   0.0800 
 36 H        1.3630     2.8260    -0.0330 H     1 <1>   0.0800 
 37 H        0.6790     1.3330    -0.6800 H     1 <1>   0.0800 
 38 H       -6.7460    -2.8500    -0.7020 H     1 <1>   0.1500 
 39 H       -5.2050    -4.5070     0.4390 H     1 <1>   0.2700 
 40 H       -1.5240    -3.4310     0.1730 H     1 <1>   0.0800 
 41 H       -2.3740    -4.9320    -0.0800 H     1 <1>   0.0800 
 42 H       -2.5370    -4.0760     1.4360 H     1 <1>   0.0800 
 43 H       -6.8720     1.9340     0.8660 H     1 <1>   0.0800 
 44 H       -6.3010     3.3840     0.0640 H     1 <1>   0.0800 
 45 H       -5.6450     2.9320     1.6220 H     1 <1>   0.0800 
 46 H       -6.2530     0.5800    -1.1940 H     1 <1>   0.0800 
 47 H       -4.6370     0.7180    -1.8320 H     1 <1>   0.0800 
 48 H       -5.7350     2.0750    -1.9510 H     1 <1>   0.0800 
 49 H       -2.0110     6.7120     1.5450 H     1 <1>   0.0800 
 50 H       -3.3830     6.9350     0.4910 H     1 <1>   0.0800 
 51 H       -1.7730     7.3050    -0.0800 H     1 <1>   0.0800 
@<TRIPOS>BOND
  1   1   2  2   
  2   2   3  am  
  3   2   4  1   
  4   3   5  1   
  5   3   6  1   
  6   4   7  ar  
  7   4   8  ar  
  8   5   9  1   
  9   5  25  1   
 10   5  26  1   
 11   6  10  1   
 12   6  27  1   
 13   6  28  1   
 14   7  11  1   
 15   7  12  ar  
 16   8  13  ar  
 17   8  29  1   
 18   9  14  1   
 19   9  15  2   
 20  10  16  1   
 21  10  30  1   
 22  10  31  1   
 23  11  17  1   
 24  12  18  ar  
 25  12  32  1   
 26  13  18  ar  
 27  13  33  1   
 28  14  19  2   
 29  15  20  1   
 30  15  21  1   
 31  16  22  1   
 32  16  23  1   
 33  16  34  1   
 34  17  35  1   
 35  17  36  1   
 36  17  37  1   
 37  18  24  1   
 38  19  20  1   
 39  19  38  1   
 40  20  39  1   
 41  21  40  1   
 42  21  41  1   
 43  21  42  1   
 44  22  43  1   
 45  22  44  1   
 46  22  45  1   
 47  23  46  1   
 48  23  47  1   
 49  23  48  1   
 50  24  49  1   
 51  24  50  1   
 52  24  51  1   
@<TRIPOS>SUBSTRUCTURE
  1 ****   3 GROUP 4 **** **** 0

# MOE 2024.06 (io_trps.svl 2023.06)
