@<TRIPOS>MOLECULE
NONAME
53 55 1 0 0 
SMALL
USER_CHARGES


@<TRIPOS>ATOM
  1 O       -1.3960     0.0200    -1.9990 O.2   1 <1>  -0.5700 
  2 C       -1.4050     0.2950    -0.8150 C.2   1 <1>   0.5440 
  3 N       -1.6890    -0.7060     0.0690 N.am  1 <1>  -0.7300 
  4 C       -1.1300     1.6470    -0.3590 C.ar  1 <1>   0.0860 
  5 C       -1.9620    -2.1190    -0.2900 C.3   1 <1>   0.2200 
  6 C       -0.4460     2.5470    -1.1790 C.ar  1 <1>  -0.1500 
  7 C       -1.5330     2.1040     0.9000 C.ar  1 <1>  -0.1500 
  8 C       -3.4500    -2.4330    -0.2040 C.3   1 <1>  -0.0800 
  9 C       -1.4260    -3.0150     0.8170 C.3   1 <1>   0.1200 
 10 C       -0.1640     3.8460    -0.7730 C.ar  1 <1>   0.0830 
 11 C       -1.2600     3.3910     1.3220 C.ar  1 <1>  -0.1500 
 12 C       -3.6520    -2.7500     1.2830 C.3   1 <1>   0.1200 
 13 C       -4.3990    -1.3550    -0.7580 C.3   1 <1>  -0.0160 
 14 O       -2.3790    -2.9430     1.8320 O.3   1 <1>  -0.5600 
 15 O        0.5000     4.7410    -1.5590 O.3   1 <1>  -0.3630 
 16 C       -0.5820     4.2670     0.4900 C.ar  1 <1>   0.0830 
 17 C       -5.8450    -1.8230    -0.7020 C.ar  1 <1>  -0.1430 
 18 C        0.9720     4.3910    -2.8410 C.3   1 <1>   0.0400 
 19 O       -0.3130     5.5200     0.9230 O.3   1 <1>  -0.3630 
 20 C       -6.3730    -2.6580    -1.6640 C.ar  1 <1>  -0.1500 
 21 C       -6.7020    -1.4400     0.3100 C.ar  1 <1>  -0.1500 
 22 C       -1.3850     6.4230     1.0630 C.3   1 <1>   0.2000 
 23 C       -7.6940    -3.0650    -1.5680 C.ar  1 <1>   0.1600 
 24 C       -8.0070    -1.9050     0.3140 C.ar  1 <1>   0.1600 
 25 C       -1.7340     6.9890    -0.3140 C.3   1 <1>  -0.2400 
 26 C       -0.9310     7.5220     2.0200 C.3   1 <1>  -0.2400 
 27 N       -8.5230    -2.7100    -0.6000 N.ar  1 <1>  -0.6200 
 28 H       -1.6720    -0.5370     1.0760 H     1 <1>   0.3700 
 29 H       -1.5400    -2.3590    -1.2520 H     1 <1>   0.0800 
 30 H       -0.1400     2.1980    -2.1470 H     1 <1>   0.1500 
 31 H       -2.0700     1.4490     1.5610 H     1 <1>   0.1500 
 32 H       -3.6230    -3.3430    -0.7510 H     1 <1>   0.0800 
 33 H       -0.4690    -2.6950     1.1890 H     1 <1>   0.0800 
 34 H       -1.3690    -4.0390     0.4870 H     1 <1>   0.0800 
 35 H       -1.5650     3.7210     2.2980 H     1 <1>   0.1500 
 36 H       -4.2340    -3.6450     1.4230 H     1 <1>   0.0800 
 37 H       -4.1110    -1.9310     1.8070 H     1 <1>   0.0800 
 38 H       -4.1340    -1.1370    -1.7790 H     1 <1>   0.0800 
 39 H       -4.2990    -0.4410    -0.2000 H     1 <1>   0.0800 
 40 H        1.4660     5.2500    -3.2590 H     1 <1>   0.0800 
 41 H        0.1350     4.1150    -3.4590 H     1 <1>   0.0800 
 42 H        1.6690     3.5780    -2.7480 H     1 <1>   0.0800 
 43 H       -5.7710    -2.9960    -2.4880 H     1 <1>   0.1500 
 44 H       -6.3700    -0.7870     1.0960 H     1 <1>   0.1500 
 45 H       -2.2290     5.9000     1.4800 H     1 <1>   0.0800 
 46 H       -8.0890    -3.7170    -2.3290 H     1 <1>   0.1500 
 47 H       -8.6620    -1.5970     1.1110 H     1 <1>   0.1500 
 48 H       -0.8700     7.4560    -0.7530 H     1 <1>   0.0800 
 49 H       -2.5170     7.7190    -0.2270 H     1 <1>   0.0800 
 50 H       -2.0760     6.2020    -0.9630 H     1 <1>   0.0800 
 51 H       -0.0730     8.0320     1.6210 H     1 <1>   0.0800 
 52 H       -0.6800     7.0950     2.9740 H     1 <1>   0.0800 
 53 H       -1.7210     8.2370     2.1630 H     1 <1>   0.0800 
@<TRIPOS>BOND
  1   1   2  2   
  2   2   3  am  
  3   2   4  1   
  4   3   5  1   
  5   3  28  1   
  6   4   6  ar  
  7   4   7  ar  
  8   5   8  1   
  9   5   9  1   
 10   5  29  1   
 11   6  10  ar  
 12   6  30  1   
 13   7  11  ar  
 14   7  31  1   
 15   8  12  1   
 16   8  13  1   
 17   8  32  1   
 18   9  14  1   
 19   9  33  1   
 20   9  34  1   
 21  10  15  1   
 22  10  16  ar  
 23  11  16  ar  
 24  11  35  1   
 25  12  14  1   
 26  12  36  1   
 27  12  37  1   
 28  13  17  1   
 29  13  38  1   
 30  13  39  1   
 31  15  18  1   
 32  16  19  1   
 33  17  20  ar  
 34  17  21  ar  
 35  18  40  1   
 36  18  41  1   
 37  18  42  1   
 38  19  22  1   
 39  20  23  ar  
 40  20  43  1   
 41  21  24  ar  
 42  21  44  1   
 43  22  25  1   
 44  22  26  1   
 45  22  45  1   
 46  23  27  ar  
 47  23  46  1   
 48  24  27  ar  
 49  24  47  1   
 50  25  48  1   
 51  25  49  1   
 52  25  50  1   
 53  26  51  1   
 54  26  52  1   
 55  26  53  1   
@<TRIPOS>SUBSTRUCTURE
  1 ****   2 GROUP 4 **** **** 0

# MOE 2024.06 (io_trps.svl 2023.06)
