@<TRIPOS>MOLECULE
NONAME
54 56 1 0 0 
SMALL
USER_CHARGES


@<TRIPOS>ATOM
  1 O       -0.5930     0.8400    -1.7230 O.2   1 <1>  -0.5700 
  2 C       -0.3670     1.7970    -1.0270 C.2   1 <1>   0.5690 
  3 N       -1.3720     2.5840    -0.5880 N.am  1 <1>  -0.7300 
  4 C        1.0780     2.1560    -0.6660 C.3   1 <1>   0.1810 
  5 C       -1.1680     3.7820     0.2610 C.3   1 <1>   0.3640 
  6 O        1.1750     3.0560     0.4170 O.3   1 <1>  -0.5600 
  7 C       -2.0090     4.9280    -0.3000 C.ar  1 <1>  -0.1440 
  8 C        0.3260     4.1920     0.3300 C.3   1 <1>   0.2610 
  9 C       -2.7380     5.7330     0.5650 C.ar  1 <1>  -0.1500 
 10 C       -2.0510     5.1960    -1.6630 C.ar  1 <1>  -0.1500 
 11 C        0.5980     5.1710     1.4860 C.2   1 <1>   0.5690 
 12 C       -3.4950     6.7840     0.0790 C.ar  1 <1>  -0.1500 
 13 C       -2.8080     6.2470    -2.1500 C.ar  1 <1>  -0.1500 
 14 O       -0.1770     5.1990     2.4180 O.2   1 <1>  -0.5700 
 15 N        1.6910     6.0110     1.4560 N.am  1 <1>  -0.6600 
 16 C       -3.5310     7.0420    -1.2800 C.ar  1 <1>  -0.1500 
 17 C        2.8220     5.8990     0.4970 C.3   1 <1>   0.1400 
 18 C        1.8510     7.1040     2.4520 C.3   1 <1>   0.1400 
 19 C        2.9680     7.2210    -0.2630 C.3   1 <1>  -0.1600 
 20 C        2.0510     8.4390     1.7200 C.3   1 <1>  -0.1600 
 21 C        3.1990     8.4300     0.6790 C.3   1 <1>   0.0000 
 22 C        4.5480     8.3320     1.4480 C.3   1 <1>   0.1200 
 23 C        3.0930     9.7650    -0.1120 C.3   1 <1>  -0.1600 
 24 O        5.6170     8.0360     0.6140 O.3   1 <1>  -0.6800 
 25 C        4.1020     9.9880    -1.2530 C.3   1 <1>  -0.1600 
 26 C        3.8140    11.3010    -1.9870 C.3   1 <1>  -0.2400 
 27 H       -2.3340     2.3460    -0.8340 H     1 <1>   0.3700 
 28 H        1.5580     2.5980    -1.5180 H     1 <1>   0.0800 
 29 H        1.6070     1.2610    -0.3950 H     1 <1>   0.0800 
 30 H       -1.5140     3.5400     1.2520 H     1 <1>   0.0800 
 31 H        0.5650     4.6990    -0.5860 H     1 <1>   0.0800 
 32 H       -2.7160     5.5500     1.6270 H     1 <1>   0.1500 
 33 H       -1.4970     4.5870    -2.3570 H     1 <1>   0.1500 
 34 H       -4.0560     7.4010     0.7590 H     1 <1>   0.1500 
 35 H       -2.8370     6.4460    -3.2080 H     1 <1>   0.1500 
 36 H       -4.1200     7.8600    -1.6570 H     1 <1>   0.1500 
 37 H        3.7220     5.6800     1.0450 H     1 <1>   0.0800 
 38 H        2.6700     5.0950    -0.2000 H     1 <1>   0.0800 
 39 H        0.9790     7.1760     3.0800 H     1 <1>   0.0800 
 40 H        2.6900     6.8820     3.0880 H     1 <1>   0.0800 
 41 H        3.7730     7.1270    -0.9690 H     1 <1>   0.0800 
 42 H        2.0700     7.3790    -0.8340 H     1 <1>   0.0800 
 43 H        1.1210     8.6730     1.2320 H     1 <1>   0.0800 
 44 H        2.2240     9.2110     2.4500 H     1 <1>   0.0800 
 45 H        4.5160     7.5580     2.1930 H     1 <1>   0.0800 
 46 H        4.7680     9.2630     1.9420 H     1 <1>   0.0800 
 47 H        2.1050     9.8330    -0.5340 H     1 <1>   0.0800 
 48 H        3.1910    10.5830     0.5820 H     1 <1>   0.0800 
 49 H        5.4230     7.2450     0.0790 H     1 <1>   0.4000 
 50 H        5.1020    10.0330    -0.8590 H     1 <1>   0.0800 
 51 H        4.0550     9.1810    -1.9610 H     1 <1>   0.0800 
 52 H        3.8780    12.1330    -1.3080 H     1 <1>   0.0800 
 53 H        2.8310    11.2830    -2.4230 H     1 <1>   0.0800 
 54 H        4.5340    11.4470    -2.7730 H     1 <1>   0.0800 
@<TRIPOS>BOND
  1   1   2  2   
  2   2   3  am  
  3   2   4  1   
  4   3   5  1   
  5   3  27  1   
  6   4   6  1   
  7   4  28  1   
  8   4  29  1   
  9   5   7  1   
 10   5   8  1   
 11   5  30  1   
 12   6   8  1   
 13   7   9  ar  
 14   7  10  ar  
 15   8  11  1   
 16   8  31  1   
 17   9  12  ar  
 18   9  32  1   
 19  10  13  ar  
 20  10  33  1   
 21  11  14  2   
 22  11  15  am  
 23  12  16  ar  
 24  12  34  1   
 25  13  16  ar  
 26  13  35  1   
 27  15  17  1   
 28  15  18  1   
 29  16  36  1   
 30  17  19  1   
 31  17  37  1   
 32  17  38  1   
 33  18  20  1   
 34  18  39  1   
 35  18  40  1   
 36  19  21  1   
 37  19  41  1   
 38  19  42  1   
 39  20  21  1   
 40  20  43  1   
 41  20  44  1   
 42  21  22  1   
 43  21  23  1   
 44  22  24  1   
 45  22  45  1   
 46  22  46  1   
 47  23  25  1   
 48  23  47  1   
 49  23  48  1   
 50  24  49  1   
 51  25  26  1   
 52  25  50  1   
 53  25  51  1   
 54  26  52  1   
 55  26  53  1   
 56  26  54  1   
@<TRIPOS>SUBSTRUCTURE
  1 ****  11 GROUP 4 **** **** 0

# MOE 2024.06 (io_trps.svl 2023.06)
