@<TRIPOS>MOLECULE
NONAME
52 54 1 0 0 
SMALL
USER_CHARGES


@<TRIPOS>ATOM
  1 F        4.5940    -2.9720     2.7070 F     1 <1>  -0.3400 
  2 C        4.4930    -4.2180     2.2640 C.3   1 <1>   1.1640 
  3 F        4.5860    -5.0000     3.3340 F     1 <1>  -0.3400 
  4 F        5.5870    -4.4450     1.5450 F     1 <1>  -0.3400 
  5 C        3.1920    -4.4400     1.4790 C.ar  1 <1>  -0.1440 
  6 C        3.1740    -4.4100     0.0880 C.ar  1 <1>  -0.1500 
  7 C        1.9950    -4.6720     2.1480 C.ar  1 <1>  -0.1500 
  8 C        2.0000    -4.6320    -0.6070 C.ar  1 <1>  -0.1500 
  9 C        0.8230    -4.8940     1.4470 C.ar  1 <1>  -0.1500 
 10 C        0.8050    -4.9030     0.0540 C.ar  1 <1>   0.0860 
 11 C       -0.3980    -5.2180    -0.6910 C.2   1 <1>   0.5440 
 12 O       -0.9420    -4.3370    -1.3290 O.2   1 <1>  -0.5700 
 13 N       -0.9460    -6.4860    -0.7050 N.am  1 <1>  -0.6600 
 14 C       -0.2970    -7.6530     0.0020 C.3   1 <1>   0.3640 
 15 C       -2.2920    -6.6930    -1.3210 C.3   1 <1>   0.1400 
 16 C        1.1320    -7.8250    -0.5230 C.ar  1 <1>  -0.1430 
 17 C       -1.0350    -9.0250    -0.1060 C.3   1 <1>   0.2000 
 18 C       -2.5690    -8.1580    -1.6500 C.3   1 <1>   0.1200 
 19 C        2.1970    -7.8780     0.3630 C.ar  1 <1>  -0.1500 
 20 C        1.3940    -7.9050    -1.8820 C.ar  1 <1>  -0.1500 
 21 O       -2.3740    -8.9230    -0.5070 O.3   1 <1>  -0.5600 
 22 C       -1.0490    -9.7930     1.2260 C.3   1 <1>   0.1200 
 23 C        3.5050    -7.9920    -0.0750 C.ar  1 <1>   0.0830 
 24 C        2.6920    -8.0360    -2.3420 C.ar  1 <1>  -0.1500 
 25 O        0.2220    -9.8880     1.7830 O.3   1 <1>  -0.6800 
 26 O        4.4300    -7.9930     0.9290 O.3   1 <1>  -0.3630 
 27 C        3.7650    -8.0860    -1.4540 C.ar  1 <1>   0.0830 
 28 C        5.7850    -7.6680     0.7150 C.3   1 <1>   0.0400 
 29 O        5.0460    -8.2330    -1.9060 O.3   1 <1>  -0.3630 
 30 C        5.3490    -8.4320    -3.2690 C.3   1 <1>   0.0400 
 31 H        4.0770    -4.2210    -0.4690 H     1 <1>   0.1500 
 32 H        1.9710    -4.6860     3.2260 H     1 <1>   0.1500 
 33 H        2.0010    -4.6150    -1.6830 H     1 <1>   0.1500 
 34 H       -0.0940    -5.0730     1.9800 H     1 <1>   0.1500 
 35 H       -0.2460    -7.3990     1.0460 H     1 <1>   0.0800 
 36 H       -3.0440    -6.3370    -0.6400 H     1 <1>   0.0800 
 37 H       -2.3690    -6.1140    -2.2260 H     1 <1>   0.0800 
 38 H       -0.5420    -9.6370    -0.8410 H     1 <1>   0.0800 
 39 H       -1.9240    -8.5130    -2.4350 H     1 <1>   0.0800 
 40 H       -3.5930    -8.2790    -1.9580 H     1 <1>   0.0800 
 41 H        2.0230    -7.8170     1.4230 H     1 <1>   0.1500 
 42 H        0.5840    -7.8540    -2.5890 H     1 <1>   0.1500 
 43 H       -1.4270   -10.7900     1.0800 H     1 <1>   0.0800 
 44 H       -1.6730    -9.2780     1.9370 H     1 <1>   0.0800 
 45 H        2.8400    -8.0950    -3.4030 H     1 <1>   0.1500 
 46 H        0.8280   -10.4030     1.2110 H     1 <1>   0.4000 
 47 H        6.2390    -7.4820     1.6710 H     1 <1>   0.0800 
 48 H        5.8420    -6.7850     0.1030 H     1 <1>   0.0800 
 49 H        6.2690    -8.4990     0.2360 H     1 <1>   0.0800 
 50 H        6.4130    -8.5600    -3.3580 H     1 <1>   0.0800 
 51 H        5.0390    -7.5670    -3.8270 H     1 <1>   0.0800 
 52 H        4.8460    -9.3180    -3.6140 H     1 <1>   0.0800 
@<TRIPOS>BOND
  1   1   2  1   
  2   2   3  1   
  3   2   4  1   
  4   2   5  1   
  5   5   6  ar  
  6   5   7  ar  
  7   6   8  ar  
  8   6  31  1   
  9   7   9  ar  
 10   7  32  1   
 11   8  10  ar  
 12   8  33  1   
 13   9  10  ar  
 14   9  34  1   
 15  10  11  1   
 16  11  12  2   
 17  11  13  am  
 18  13  14  1   
 19  13  15  1   
 20  14  16  1   
 21  14  17  1   
 22  14  35  1   
 23  15  18  1   
 24  15  36  1   
 25  15  37  1   
 26  16  19  ar  
 27  16  20  ar  
 28  17  21  1   
 29  17  22  1   
 30  17  38  1   
 31  18  21  1   
 32  18  39  1   
 33  18  40  1   
 34  19  23  ar  
 35  19  41  1   
 36  20  24  ar  
 37  20  42  1   
 38  22  25  1   
 39  22  43  1   
 40  22  44  1   
 41  23  26  1   
 42  23  27  ar  
 43  24  27  ar  
 44  24  45  1   
 45  25  46  1   
 46  26  28  1   
 47  27  29  1   
 48  28  47  1   
 49  28  48  1   
 50  28  49  1   
 51  29  30  1   
 52  30  50  1   
 53  30  51  1   
 54  30  52  1   
@<TRIPOS>SUBSTRUCTURE
  1 ****  19 GROUP 4 **** **** 0

# MOE 2024.06 (io_trps.svl 2023.06)
