@<TRIPOS>MOLECULE
NONAME
50 50 1 0 0 
SMALL
USER_CHARGES


@<TRIPOS>ATOM
  1 S        1.5870     0.6180     0.2790 S.o2  1 <1>   1.4470 
  2 O        2.1410    -0.3970     1.1400 O.2   1 <1>  -0.6500 
  3 O        2.4270     1.6860    -0.2150 O.2   1 <1>  -0.6500 
  4 N        0.9840    -0.2450    -1.0270 N.am  1 <1>  -0.9140 
  5 C        0.0870     1.3190     1.0190 C.ar  1 <1>  -0.0090 
  6 C        1.9320    -0.6580    -2.0940 C.3   1 <1>   0.3370 
  7 C       -0.7810     2.0990     0.2570 C.ar  1 <1>  -0.1500 
  8 C       -0.2250     1.0980     2.3600 C.ar  1 <1>  -0.1500 
  9 C        3.4010    -0.9810    -1.7000 C.2   1 <1>   0.5690 
 10 C        1.7910     0.2140    -3.3750 C.3   1 <1>  -0.0800 
 11 C       -1.9300     2.6420     0.8070 C.ar  1 <1>  -0.1500 
 12 C       -1.3700     1.6330     2.9280 C.ar  1 <1>  -0.1500 
 13 O        3.7380    -2.1410    -1.6990 O.2   1 <1>  -0.5700 
 14 N        4.2830     0.0000    -1.3650 N.am  1 <1>  -0.7300 
 15 C        2.0980     1.7130    -3.2180 C.3   1 <1>  -0.2400 
 16 C        0.3880     0.0670    -3.9920 C.3   1 <1>  -0.2400 
 17 C       -2.2040     2.3980     2.1370 C.ar  1 <1>   0.1900 
 18 C        5.6660    -0.1800    -0.8440 C.3   1 <1>   0.2810 
 19 F       -3.2840     2.9040     2.6640 F     1 <1>  -0.1900 
 20 C        6.5240    -1.1200    -1.6970 C.2   1 <1>   0.4490 
 21 C        5.5740    -0.6220     0.6280 C.3   1 <1>  -0.1600 
 22 O        7.5080    -0.7580    -2.2760 O.2   1 <1>  -0.5700 
 23 C        6.9330    -0.8040     1.3340 C.3   1 <1>  -0.0800 
 24 C        6.7020    -1.2790     2.7720 C.3   1 <1>  -0.2400 
 25 C        7.7560     0.4920     1.3490 C.3   1 <1>  -0.2400 
 26 H        0.7010    -1.1190    -0.5850 H     1 <1>   0.4200 
 27 H        1.5650    -1.6190    -2.4120 H     1 <1>   0.0800 
 28 H       -0.5530     2.2800    -0.7810 H     1 <1>   0.1500 
 29 H        0.4350     0.5000     2.9680 H     1 <1>   0.1500 
 30 H        2.4920    -0.1790    -4.0930 H     1 <1>   0.0800 
 31 H       -2.6020     3.2440     0.2200 H     1 <1>   0.1500 
 32 H       -1.6130     1.4640     3.9620 H     1 <1>   0.1500 
 33 H        3.8940     0.9400    -1.1930 H     1 <1>   0.3700 
 34 H        1.3980     2.1790    -2.5490 H     1 <1>   0.0800 
 35 H        2.0250     2.2060    -4.1710 H     1 <1>   0.0800 
 36 H        3.0940     1.8720    -2.8490 H     1 <1>   0.0800 
 37 H       -0.3620     0.4630    -3.3300 H     1 <1>   0.0800 
 38 H        0.1640    -0.9680    -4.1840 H     1 <1>   0.0800 
 39 H        0.3310     0.5990    -4.9260 H     1 <1>   0.0800 
 40 H        6.1410     0.7840    -0.8780 H     1 <1>   0.0800 
 41 H        6.2020    -2.1440    -1.7370 H     1 <1>   0.0600 
 42 H        4.9970     0.1070     1.1680 H     1 <1>   0.0800 
 43 H        5.0410    -1.5570     0.6710 H     1 <1>   0.0800 
 44 H        7.5030    -1.5640     0.8240 H     1 <1>   0.0800 
 45 H        6.1470    -0.5460     3.3310 H     1 <1>   0.0800 
 46 H        7.6430    -1.4480     3.2670 H     1 <1>   0.0800 
 47 H        6.1510    -2.2030     2.7770 H     1 <1>   0.0800 
 48 H        7.1940     1.2940     1.7940 H     1 <1>   0.0800 
 49 H        8.0440     0.7780     0.3530 H     1 <1>   0.0800 
 50 H        8.6580     0.3510     1.9190 H     1 <1>   0.0800 
@<TRIPOS>BOND
  1   1   2  2   
  2   1   3  2   
  3   1   4  am  
  4   1   5  1   
  5   4   6  1   
  6   4  26  1   
  7   5   7  ar  
  8   5   8  ar  
  9   6   9  1   
 10   6  10  1   
 11   6  27  1   
 12   7  11  ar  
 13   7  28  1   
 14   8  12  ar  
 15   8  29  1   
 16   9  13  2   
 17   9  14  am  
 18  10  15  1   
 19  10  16  1   
 20  10  30  1   
 21  11  17  ar  
 22  11  31  1   
 23  12  17  ar  
 24  12  32  1   
 25  14  18  1   
 26  14  33  1   
 27  15  34  1   
 28  15  35  1   
 29  15  36  1   
 30  16  37  1   
 31  16  38  1   
 32  16  39  1   
 33  17  19  1   
 34  18  20  1   
 35  18  21  1   
 36  18  40  1   
 37  20  22  2   
 38  20  41  1   
 39  21  23  1   
 40  21  42  1   
 41  21  43  1   
 42  23  24  1   
 43  23  25  1   
 44  23  44  1   
 45  24  45  1   
 46  24  46  1   
 47  24  47  1   
 48  25  48  1   
 49  25  49  1   
 50  25  50  1   
@<TRIPOS>SUBSTRUCTURE
  1 ****   1 GROUP 4 **** **** 0

# MOE 2024.06 (io_trps.svl 2023.06)
