@<TRIPOS>MOLECULE
NONAME
53 56 1 0 0 
SMALL
USER_CHARGES


@<TRIPOS>ATOM
  1 O        1.9270    -1.3700    -2.0670 O.2   1 <1>  -0.5700 
  2 C        1.7010    -1.1550    -0.8980 C.2   1 <1>   0.6300 
  3 N        1.7630     0.1000    -0.3780 N.am  1 <1>  -0.7300 
  4 C        1.3320    -2.3060     0.0410 C.3   1 <1>   0.0320 
  5 C        2.0810     1.3220    -1.1400 C.3   1 <1>   0.1400 
  6 C       -0.1770    -2.5000     0.1290 C.ar  1 <1>  -0.0320 
  7 C        2.2110    -3.5230     0.1490 C.3   1 <1>  -0.1900 
  8 C        2.1830    -2.5380     1.2700 C.3   1 <1>  -0.2000 
  9 C        3.2960     2.0000    -0.5120 C.3   1 <1>  -0.1600 
 10 C       -0.8490    -3.0780    -0.9360 C.ar  1 <1>  -0.1500 
 11 C       -0.8960    -2.1020     1.2470 C.ar  1 <1>  -0.1500 
 12 C        1.7010    -4.9310     0.4380 C.3   1 <1>  -0.0650 
 13 C        3.5290    -3.6990    -0.6050 C.3   1 <1>  -0.0650 
 14 C        3.7010     3.2310    -1.3170 C.3   1 <1>   0.2090 
 15 C       -2.2200    -3.2640    -0.8860 C.ar  1 <1>  -0.1500 
 16 C       -2.2670    -2.2870     1.3010 C.ar  1 <1>  -0.1500 
 17 C        2.9800    -5.7250     0.6880 C.3   1 <1>  -0.1600 
 18 C        4.0580    -5.0770    -0.1890 C.3   1 <1>  -0.1600 
 19 N        4.8460     3.8800    -0.6410 N.pl3 1 <1>  -0.8690 
 20 C       -2.9290    -2.8680     0.2340 C.ar  1 <1>  -0.1500 
 21 C        4.7610     5.2220    -0.2630 C.ar  1 <1>   0.1000 
 22 C        5.7530     6.1480    -0.5980 C.ar  1 <1>   0.1600 
 23 C        3.6860     5.6840     0.4780 C.ar  1 <1>  -0.1500 
 24 N        5.7520     7.4350    -0.2860 N.ar  1 <1>  -0.6200 
 25 C        3.6630     7.0190     0.8160 C.ar  1 <1>  -0.1500 
 26 C        4.7040     7.8400     0.4140 C.ar  1 <1>   0.1600 
 27 H        1.5370     0.2240     0.6090 H     1 <1>   0.3700 
 28 H        1.2300     1.9820    -1.1210 H     1 <1>   0.0800 
 29 H        2.2900     1.0680    -2.1660 H     1 <1>   0.0800 
 30 H        1.7150    -2.8300     2.1930 H     1 <1>   0.1000 
 31 H        3.0410    -1.9100     1.4310 H     1 <1>   0.1000 
 32 H        4.1190     1.3070    -0.4960 H     1 <1>   0.0800 
 33 H        3.0630     2.2990     0.4940 H     1 <1>   0.0800 
 34 H       -0.2960    -3.3800    -1.8090 H     1 <1>   0.1500 
 35 H       -0.3920    -1.6470     2.0800 H     1 <1>   0.1500 
 36 H        1.2040    -5.3120    -0.4380 H     1 <1>   0.0800 
 37 H        1.0250    -4.9720     1.2730 H     1 <1>   0.0800 
 38 H        4.2330    -2.9150    -0.3900 H     1 <1>   0.0800 
 39 H        3.3290    -3.7000    -1.6640 H     1 <1>   0.0800 
 40 H        2.8740     3.9180    -1.3890 H     1 <1>   0.0800 
 41 H        3.9910     2.9440    -2.3140 H     1 <1>   0.0800 
 42 H       -2.7310    -3.7130    -1.7190 H     1 <1>   0.1500 
 43 H       -2.8190    -1.9780     2.1720 H     1 <1>   0.1500 
 44 H        2.8500    -6.7700     0.4640 H     1 <1>   0.0800 
 45 H        3.2570    -5.6210     1.7230 H     1 <1>   0.0800 
 46 H        4.9810    -4.9840     0.3570 H     1 <1>   0.0800 
 47 H        4.2330    -5.6750    -1.0670 H     1 <1>   0.0800 
 48 H        5.7450     3.5970    -1.0490 H     1 <1>   0.4000 
 49 H       -3.9950    -3.0130     0.2740 H     1 <1>   0.1500 
 50 H        6.5950     5.7920    -1.1620 H     1 <1>   0.1500 
 51 H        2.9020     5.0150     0.7820 H     1 <1>   0.1500 
 52 H        2.8500     7.4250     1.3880 H     1 <1>   0.1500 
 53 H        4.6750     8.8820     0.6840 H     1 <1>   0.1500 
@<TRIPOS>BOND
  1   1   2  2   
  2   2   3  am  
  3   2   4  1   
  4   3   5  1   
  5   3  27  1   
  6   4   6  1   
  7   4   7  1   
  8   4   8  1   
  9   5   9  1   
 10   5  28  1   
 11   5  29  1   
 12   6  10  ar  
 13   6  11  ar  
 14   7   8  1   
 15   7  12  1   
 16   7  13  1   
 17   8  30  1   
 18   8  31  1   
 19   9  14  1   
 20   9  32  1   
 21   9  33  1   
 22  10  15  ar  
 23  10  34  1   
 24  11  16  ar  
 25  11  35  1   
 26  12  17  1   
 27  12  36  1   
 28  12  37  1   
 29  13  18  1   
 30  13  38  1   
 31  13  39  1   
 32  14  19  1   
 33  14  40  1   
 34  14  41  1   
 35  15  20  ar  
 36  15  42  1   
 37  16  20  ar  
 38  16  43  1   
 39  17  18  1   
 40  17  44  1   
 41  17  45  1   
 42  18  46  1   
 43  18  47  1   
 44  19  21  1   
 45  19  48  1   
 46  20  49  1   
 47  21  22  ar  
 48  21  23  ar  
 49  22  24  ar  
 50  22  50  1   
 51  23  25  ar  
 52  23  51  1   
 53  24  26  ar  
 54  25  26  ar  
 55  25  52  1   
 56  26  53  1   
@<TRIPOS>SUBSTRUCTURE
  1 ****   3 GROUP 4 **** **** 0

# MOE 2024.06 (io_trps.svl 2023.06)
