@<TRIPOS>MOLECULE
NONAME
46 48 1 0 0 
SMALL
USER_CHARGES


@<TRIPOS>ATOM
  1 F       -1.6650     2.8610    -1.5090 F     1 <1>  -0.3400 
  2 C       -2.7890     2.2120    -1.7950 C.3   1 <1>   1.1640 
  3 F       -3.4070     2.9270    -2.7310 F     1 <1>  -0.3400 
  4 F       -2.4100     1.0870    -2.4000 F     1 <1>  -0.3400 
  5 C       -3.6760     1.9540    -0.5480 C.ar  1 <1>   0.1660 
  6 N       -4.1810     2.9820     0.1230 N.ar  1 <1>  -0.6200 
  7 C       -3.9420     0.6710    -0.1320 C.ar  1 <1>  -0.1500 
  8 C       -4.9230     2.7070     1.1910 C.ar  1 <1>   0.7200 
  9 C       -4.7380     0.4960     0.9790 C.ar  1 <1>   0.4100 
 10 N       -5.2260     1.5010     1.6480 N.ar  1 <1>  -0.6200 
 11 N       -5.4300     3.7870     1.8880 N.pl3 1 <1>  -0.8380 
 12 N       -5.0780    -0.7290     1.4650 N.pl3 1 <1>  -0.8690 
 13 C       -5.4240     5.1670     1.3270 C.3   1 <1>   0.1290 
 14 C       -5.9160     3.6630     3.2910 C.3   1 <1>   0.1290 
 15 C       -5.5150    -1.8810     0.6370 C.3   1 <1>   0.2890 
 16 C       -7.0240    -1.8910     0.4190 C.3   1 <1>  -0.0800 
 17 C       -5.3390    -3.1660     1.4410 C.3   1 <1>   0.1200 
 18 C       -7.5500    -2.5690     1.6850 C.3   1 <1>   0.1200 
 19 C       -7.6960    -0.5380     0.1180 C.3   1 <1>  -0.0170 
 20 O       -6.4910    -3.3060     2.2210 O.3   1 <1>  -0.5600 
 21 C       -9.1780    -0.7260    -0.1680 C.ar  1 <1>  -0.1430 
 22 C       -9.6340    -1.1560    -1.3980 C.ar  1 <1>  -0.1500 
 23 C      -10.1430    -0.4800     0.7870 C.ar  1 <1>  -0.1500 
 24 C      -10.9940    -1.3230    -1.6040 C.ar  1 <1>   0.1600 
 25 C      -11.4790    -0.6790     0.4780 C.ar  1 <1>   0.1600 
 26 N      -11.9280    -1.0980    -0.6940 N.ar  1 <1>  -0.6200 
 27 H       -3.5460    -0.1890    -0.6340 H     1 <1>   0.1500 
 28 H       -5.5850    -0.6750     2.3540 H     1 <1>   0.4000 
 29 H       -6.2520     5.7300     1.7200 H     1 <1>   0.0800 
 30 H       -5.5130     5.1390     0.2550 H     1 <1>   0.0800 
 31 H       -4.5030     5.6580     1.5890 H     1 <1>   0.0800 
 32 H       -5.6600     4.5460     3.8500 H     1 <1>   0.0800 
 33 H       -5.4660     2.8150     3.7780 H     1 <1>   0.0800 
 34 H       -6.9850     3.5390     3.2920 H     1 <1>   0.0800 
 35 H       -4.9670    -1.9160    -0.2870 H     1 <1>   0.0800 
 36 H       -7.2280    -2.5540    -0.4030 H     1 <1>   0.0800 
 37 H       -4.4730    -3.1370     2.0790 H     1 <1>   0.0800 
 38 H       -5.2850    -4.0170     0.7870 H     1 <1>   0.0800 
 39 H       -8.3720    -3.2320     1.4770 H     1 <1>   0.0800 
 40 H       -7.8440    -1.8450     2.4240 H     1 <1>   0.0800 
 41 H       -7.2240    -0.0790    -0.7330 H     1 <1>   0.0800 
 42 H       -7.5790     0.1330     0.9520 H     1 <1>   0.0800 
 43 H       -8.9470    -1.3630    -2.1970 H     1 <1>   0.1500 
 44 H       -9.8710    -0.1350     1.7680 H     1 <1>   0.1500 
 45 H      -11.3310    -1.6600    -2.5690 H     1 <1>   0.1500 
 46 H      -12.2170    -0.4820     1.2370 H     1 <1>   0.1500 
@<TRIPOS>BOND
  1   1   2  1   
  2   2   3  1   
  3   2   4  1   
  4   2   5  1   
  5   5   6  ar  
  6   5   7  ar  
  7   6   8  ar  
  8   7   9  ar  
  9   7  27  1   
 10   8  10  ar  
 11   8  11  1   
 12   9  10  ar  
 13   9  12  1   
 14  11  13  1   
 15  11  14  1   
 16  12  15  1   
 17  12  28  1   
 18  13  29  1   
 19  13  30  1   
 20  13  31  1   
 21  14  32  1   
 22  14  33  1   
 23  14  34  1   
 24  15  16  1   
 25  15  17  1   
 26  15  35  1   
 27  16  18  1   
 28  16  19  1   
 29  16  36  1   
 30  17  20  1   
 31  17  37  1   
 32  17  38  1   
 33  18  20  1   
 34  18  39  1   
 35  18  40  1   
 36  19  21  1   
 37  19  41  1   
 38  19  42  1   
 39  21  22  ar  
 40  21  23  ar  
 41  22  24  ar  
 42  22  43  1   
 43  23  25  ar  
 44  23  44  1   
 45  24  26  ar  
 46  24  45  1   
 47  25  26  ar  
 48  25  46  1   
@<TRIPOS>SUBSTRUCTURE
  1 ****   9 GROUP 4 **** **** 0

# MOE 2024.06 (io_trps.svl 2023.06)
