@<TRIPOS>MOLECULE
NONAME
51 54 1 0 0 
SMALL
USER_CHARGES


@<TRIPOS>ATOM
  1 S        1.2560     1.1580    -2.4590 S.3   1 <1>  -0.0800 
  2 C        2.3010     0.6330    -1.1350 C.2   1 <1>   0.0400 
  3 C        0.9700    -0.4900    -2.9820 C.2   1 <1>  -0.1100 
  4 C        2.8910     1.6180    -0.2720 C.2   1 <1>   0.1400 
  5 C        2.3790    -0.7210    -1.1540 C.2   1 <1>  -0.1500 
  6 C        1.6310    -1.3540    -2.1910 C.2   1 <1>  -0.1500 
  7 O        2.6600     2.9120    -0.4530 O.3   1 <1>  -0.2800 
  8 C        3.7210     1.4740     0.7950 C.2   1 <1>  -0.1500 
  9 C        3.3120     3.5970     0.4600 C.2   1 <1>  -0.0400 
 10 C        3.9940     2.7580     1.2700 C.2   1 <1>  -0.1500 
 11 C        3.1840     5.1100     0.4320 C.3   1 <1>   0.0200 
 12 C        4.0840     5.7920     1.4680 C.3   1 <1>  -0.0990 
 13 C        3.9640     7.2960     1.3770 C.2   1 <1>   0.5690 
 14 O        3.2030     7.8510     2.1320 O.2   1 <1>  -0.5700 
 15 N        4.7310     7.9300     0.4500 N.am  1 <1>  -0.4930 
 16 C        4.9280     9.3070     0.1770 C.2   1 <1>   0.0630 
 17 C        6.1520     9.7990    -0.2870 C.2   1 <1>   0.3720 
 18 C        4.1230    10.3900     0.2510 C.2   1 <1>  -0.3320 
 19 N        6.1380    11.0820    -0.4660 N.2   1 <1>  -0.7070 
 20 N        7.2800     8.9900    -0.5320 N.pl3 1 <1>  -0.8210 
 21 N        4.8830    11.4510    -0.1230 N.pl3 1 <1>   0.3140 
 22 C        2.6560    10.4940     0.6450 C.3   1 <1>  -0.0600 
 23 C        8.3550     9.2500     0.4630 C.3   1 <1>   0.2090 
 24 C        7.8490     9.2060    -1.8920 C.3   1 <1>   0.2090 
 25 C        4.4750    12.8590    -0.1820 C.3   1 <1>   0.0160 
 26 C        9.6590     9.2670    -0.3210 C.3   1 <1>  -0.1600 
 27 C        9.2460     9.7770    -1.6910 C.3   1 <1>  -0.1600 
 28 H        0.3310    -0.6370    -3.8340 H     1 <1>   0.1500 
 29 H        2.9500    -1.3060    -0.4560 H     1 <1>   0.1500 
 30 H        1.6240    -2.4250    -2.2970 H     1 <1>   0.1500 
 31 H        4.1040     0.5600     1.2100 H     1 <1>   0.1500 
 32 H        4.6220     2.9880     2.1120 H     1 <1>   0.1500 
 33 H        2.1570     5.3750     0.6160 H     1 <1>   0.0800 
 34 H        3.4420     5.4540    -0.5540 H     1 <1>   0.0800 
 35 H        5.1080     5.5060     1.3140 H     1 <1>   0.0800 
 36 H        3.7930     5.4820     2.4560 H     1 <1>   0.0800 
 37 H        5.4630     7.3790    -0.0020 H     1 <1>   0.3700 
 38 H        2.1790     9.5350     0.5630 H     1 <1>   0.0800 
 39 H        2.1350    11.1760    -0.0020 H     1 <1>   0.0800 
 40 H        2.5720    10.8320     1.6620 H     1 <1>   0.0800 
 41 H        8.3630     8.4830     1.2170 H     1 <1>   0.0800 
 42 H        8.2030    10.2080     0.9360 H     1 <1>   0.0800 
 43 H        7.2410     9.8700    -2.4840 H     1 <1>   0.0800 
 44 H        7.9090     8.2540    -2.3910 H     1 <1>   0.0800 
 45 H        4.0100    13.1310     0.7460 H     1 <1>   0.0800 
 46 H        3.7850    12.9910    -0.9940 H     1 <1>   0.0800 
 47 H        5.3430    13.4710    -0.3430 H     1 <1>   0.0800 
 48 H       10.0370     8.2630    -0.3970 H     1 <1>   0.0800 
 49 H       10.3980     9.8930     0.1460 H     1 <1>   0.0800 
 50 H        9.1770    10.8510    -1.6760 H     1 <1>   0.0800 
 51 H        9.9210     9.4750    -2.4700 H     1 <1>   0.0800 
@<TRIPOS>BOND
  1   1   2  1   
  2   1   3  1   
  3   2   4  1   
  4   2   5  2   
  5   3   6  2   
  6   3  28  1   
  7   4   7  1   
  8   4   8  2   
  9   5   6  1   
 10   5  29  1   
 11   6  30  1   
 12   7   9  1   
 13   8  10  1   
 14   8  31  1   
 15   9  10  2   
 16   9  11  1   
 17  10  32  1   
 18  11  12  1   
 19  11  33  1   
 20  11  34  1   
 21  12  13  1   
 22  12  35  1   
 23  12  36  1   
 24  13  14  2   
 25  13  15  am  
 26  15  16  1   
 27  15  37  1   
 28  16  17  1   
 29  16  18  2   
 30  17  19  2   
 31  17  20  1   
 32  18  21  1   
 33  18  22  1   
 34  19  21  1   
 35  20  23  1   
 36  20  24  1   
 37  21  25  1   
 38  22  38  1   
 39  22  39  1   
 40  22  40  1   
 41  23  26  1   
 42  23  41  1   
 43  23  42  1   
 44  24  27  1   
 45  24  43  1   
 46  24  44  1   
 47  25  45  1   
 48  25  46  1   
 49  25  47  1   
 50  26  27  1   
 51  26  48  1   
 52  26  49  1   
 53  27  50  1   
 54  27  51  1   
@<TRIPOS>SUBSTRUCTURE
  1 ****  12 GROUP 4 **** **** 0

# MOE 2024.06 (io_trps.svl 2023.06)
