@<TRIPOS>MOLECULE
NONAME
45 47 1 0 0 
SMALL
USER_CHARGES


@<TRIPOS>ATOM
  1 S        0.9720     0.5530    -1.4810 S.o2  1 <1>   1.3330 
  2 O        1.1690    -0.8290    -1.8570 O.2   1 <1>  -0.6500 
  3 O        0.2870     1.4510    -2.3820 O.2   1 <1>  -0.6500 
  4 N        0.1230     0.5770    -0.0090 N.am  1 <1>  -0.8490 
  5 C        2.5710     1.2460    -1.0560 C.3   1 <1>  -0.0550 
  6 C       -0.9100    -0.4620     0.0490 C.3   1 <1>   0.1160 
  7 C       -0.4730     1.8830     0.2960 C.3   1 <1>   0.1160 
  8 C        3.4490     0.3310    -0.1730 C.3   1 <1>  -0.0800 
  9 C        4.8580     0.8440     0.0810 C.3   1 <1>   0.2200 
 10 C        2.9200     0.0800     1.2450 C.3   1 <1>   0.1200 
 11 N        4.8440     2.2910     0.4060 N.am  1 <1>  -0.7300 
 12 C        5.2090     0.0670     1.3420 C.3   1 <1>   0.1200 
 13 O        4.0340     0.0590     2.0930 O.3   1 <1>  -0.5600 
 14 C        5.1100     3.3010    -0.4720 C.2   1 <1>   0.5440 
 15 O        5.3380     3.0050    -1.6270 O.2   1 <1>  -0.5700 
 16 C        5.0770     4.6900    -0.0500 C.ar  1 <1>   0.0860 
 17 C        4.7710     5.7010    -0.9390 C.ar  1 <1>  -0.1500 
 18 C        5.3500     5.0620     1.2830 C.ar  1 <1>  -0.1500 
 19 C        4.7070     7.0480    -0.5640 C.ar  1 <1>   0.3100 
 20 C        5.2980     6.3720     1.6820 C.ar  1 <1>  -0.1500 
 21 N        4.3850     7.9820    -1.4990 N.ar  1 <1>  -0.6200 
 22 C        4.9740     7.3980     0.7830 C.ar  1 <1>   0.3100 
 23 C        4.3510     9.1940    -1.0400 C.ar  1 <1>   0.1600 
 24 N        4.9250     8.6810     1.2240 N.ar  1 <1>  -0.6200 
 25 C        4.6170     9.5390     0.3010 C.ar  1 <1>   0.1600 
 26 H        3.1070     1.4350    -1.9670 H     1 <1>   0.0800 
 27 H        2.4270     2.1910    -0.5730 H     1 <1>   0.0800 
 28 H       -1.4230    -0.4290     0.9950 H     1 <1>   0.0800 
 29 H       -0.4610    -1.4360    -0.0550 H     1 <1>   0.0800 
 30 H       -1.6240    -0.3250    -0.7470 H     1 <1>   0.0800 
 31 H       -0.9170     1.8670     1.2760 H     1 <1>   0.0800 
 32 H       -1.2320     2.1300    -0.4290 H     1 <1>   0.0800 
 33 H        0.2820     2.6500     0.2780 H     1 <1>   0.0800 
 34 H        3.5320    -0.6260    -0.6600 H     1 <1>   0.0800 
 35 H        5.5350     0.6390    -0.7330 H     1 <1>   0.0800 
 36 H        2.4040    -0.8630     1.3190 H     1 <1>   0.0800 
 37 H        2.2760     0.8740     1.5800 H     1 <1>   0.0800 
 38 H        4.5300     2.4900     1.3590 H     1 <1>   0.3700 
 39 H        6.0030     0.5220     1.9080 H     1 <1>   0.0800 
 40 H        5.4610    -0.9530     1.1070 H     1 <1>   0.0800 
 41 H        4.5690     5.4660    -1.9690 H     1 <1>   0.1500 
 42 H        5.6120     4.3000     1.9950 H     1 <1>   0.1500 
 43 H        5.5070     6.6540     2.6990 H     1 <1>   0.1500 
 44 H        4.1060     9.9910    -1.7200 H     1 <1>   0.1500 
 45 H        4.5590    10.5790     0.5690 H     1 <1>   0.1500 
@<TRIPOS>BOND
  1   1   2  2   
  2   1   3  2   
  3   1   4  am  
  4   1   5  1   
  5   4   6  1   
  6   4   7  1   
  7   5   8  1   
  8   5  26  1   
  9   5  27  1   
 10   6  28  1   
 11   6  29  1   
 12   6  30  1   
 13   7  31  1   
 14   7  32  1   
 15   7  33  1   
 16   8   9  1   
 17   8  10  1   
 18   8  34  1   
 19   9  11  1   
 20   9  12  1   
 21   9  35  1   
 22  10  13  1   
 23  10  36  1   
 24  10  37  1   
 25  11  14  am  
 26  11  38  1   
 27  12  13  1   
 28  12  39  1   
 29  12  40  1   
 30  14  15  2   
 31  14  16  1   
 32  16  17  ar  
 33  16  18  ar  
 34  17  19  ar  
 35  17  41  1   
 36  18  20  ar  
 37  18  42  1   
 38  19  21  ar  
 39  19  22  ar  
 40  20  22  ar  
 41  20  43  1   
 42  21  23  ar  
 43  22  24  ar  
 44  23  25  ar  
 45  23  44  1   
 46  24  25  ar  
 47  25  45  1   
@<TRIPOS>SUBSTRUCTURE
  1 ****  14 GROUP 4 **** **** 0

# MOE 2024.06 (io_trps.svl 2023.06)
