@<TRIPOS>MOLECULE
NONAME
45 46 1 0 0 
SMALL
USER_CHARGES


@<TRIPOS>ATOM
  1 O        1.1560    -0.3290    -2.0370 O.2   1 <1>  -0.5700 
  2 C        1.7230    -0.8250    -1.0790 C.2   1 <1>   0.5440 
  3 N        2.7240    -0.1100    -0.4750 N.am  1 <1>  -0.4930 
  4 C        1.3490    -2.1540    -0.6130 C.ar  1 <1>   0.0860 
  5 C        3.2590     1.1650    -0.7850 C.2   1 <1>   0.0630 
  6 C        1.6840    -2.6840     0.6480 C.ar  1 <1>   0.0830 
  7 C        0.6070    -2.9780    -1.4640 C.ar  1 <1>  -0.1500 
  8 C        2.9560     2.0250    -1.8420 C.2   1 <1>   0.1390 
  9 C        4.2070     1.8170    -0.0810 C.2   1 <1>  -0.3020 
 10 O        2.3990    -1.9140     1.5150 O.3   1 <1>  -0.3630 
 11 C        1.2860    -3.9710     1.0070 C.ar  1 <1>  -0.1500 
 12 C        0.2150    -4.2550    -1.1180 C.ar  1 <1>   0.0830 
 13 N        3.6530     3.1240    -1.8020 N.2   1 <1>  -0.7070 
 14 N        4.4310     2.9930    -0.7090 N.pl3 1 <1>   0.3140 
 15 C        2.5720    -2.2430     2.8790 C.3   1 <1>   0.0400 
 16 C        0.5450    -4.7670     0.1420 C.ar  1 <1>   0.0830 
 17 O       -0.4970    -4.9350    -2.0590 O.3   1 <1>  -0.3630 
 18 C        5.3720     4.0460    -0.2990 C.3   1 <1>   0.1570 
 19 O        0.1220    -6.0120     0.4910 O.3   1 <1>  -0.3630 
 20 C       -0.1410    -6.2670    -2.3620 C.3   1 <1>   0.0400 
 21 C        4.6330     5.1540     0.4170 C.2   1 <1>   0.5690 
 22 C        0.2340    -6.5190     1.8030 C.3   1 <1>   0.0400 
 23 O        5.1300     5.6210     1.4140 O.2   1 <1>  -0.5700 
 24 N        3.4470     5.6020    -0.0790 N.am  1 <1>  -0.7300 
 25 C        2.6010     6.6700     0.5060 C.3   1 <1>   0.0600 
 26 H        3.0840    -0.5450     0.3780 H     1 <1>   0.3700 
 27 H        0.3230    -2.6130    -2.4360 H     1 <1>   0.1500 
 28 H        2.2280     1.8060    -2.6050 H     1 <1>   0.1500 
 29 H        4.7200     1.5190     0.8130 H     1 <1>   0.1500 
 30 H        1.5560    -4.3610     1.9640 H     1 <1>   0.1500 
 31 H        3.0680    -1.4210     3.3620 H     1 <1>   0.0800 
 32 H        3.1790    -3.1280     2.9530 H     1 <1>   0.0800 
 33 H        1.6060    -2.3980     3.3270 H     1 <1>   0.0800 
 34 H        5.8490     4.4440    -1.1740 H     1 <1>   0.0800 
 35 H        6.1140     3.6250     0.3510 H     1 <1>   0.0800 
 36 H       -0.4800    -6.4840    -3.3590 H     1 <1>   0.0800 
 37 H       -0.6270    -6.9240    -1.6640 H     1 <1>   0.0800 
 38 H        0.9280    -6.3710    -2.3030 H     1 <1>   0.0800 
 39 H       -0.2510    -7.4780     1.8320 H     1 <1>   0.0800 
 40 H       -0.2550    -5.8420     2.4820 H     1 <1>   0.0800 
 41 H        1.2750    -6.6310     2.0480 H     1 <1>   0.0800 
 42 H        3.0550     5.0920    -0.8870 H     1 <1>   0.3700 
 43 H        3.0880     7.1070     1.3610 H     1 <1>   0.0800 
 44 H        1.6580     6.2550     0.8170 H     1 <1>   0.0800 
 45 H        2.4270     7.4380    -0.2270 H     1 <1>   0.0800 
@<TRIPOS>BOND
  1   1   2  2   
  2   2   3  am  
  3   2   4  1   
  4   3   5  1   
  5   3  26  1   
  6   4   6  ar  
  7   4   7  ar  
  8   5   8  1   
  9   5   9  2   
 10   6  10  1   
 11   6  11  ar  
 12   7  12  ar  
 13   7  27  1   
 14   8  13  2   
 15   8  28  1   
 16   9  14  1   
 17   9  29  1   
 18  10  15  1   
 19  11  16  ar  
 20  11  30  1   
 21  12  16  ar  
 22  12  17  1   
 23  13  14  1   
 24  14  18  1   
 25  15  31  1   
 26  15  32  1   
 27  15  33  1   
 28  16  19  1   
 29  17  20  1   
 30  18  21  1   
 31  18  34  1   
 32  18  35  1   
 33  19  22  1   
 34  20  36  1   
 35  20  37  1   
 36  20  38  1   
 37  21  23  2   
 38  21  24  am  
 39  22  39  1   
 40  22  40  1   
 41  22  41  1   
 42  24  25  1   
 43  24  42  1   
 44  25  43  1   
 45  25  44  1   
 46  25  45  1   
@<TRIPOS>SUBSTRUCTURE
  1 ****   3 GROUP 4 **** **** 0

# MOE 2024.06 (io_trps.svl 2023.06)
