@<TRIPOS>MOLECULE
NONAME
43 44 1 0 0 
SMALL
USER_CHARGES


@<TRIPOS>ATOM
  1 O        0.3640     1.3220    -1.2560 O.2   1 <1>  -0.5700 
  2 C        0.1260     2.4950    -1.1200 C.2   1 <1>   0.5690 
  3 N       -0.7220     2.9240    -0.1610 N.am  1 <1>  -0.7300 
  4 C        0.7510     3.5240    -2.0600 C.3   1 <1>   0.1810 
  5 C       -1.1540     4.3370    -0.0090 C.3   1 <1>   0.3640 
  6 O        0.7840     4.8110    -1.4870 O.3   1 <1>  -0.5600 
  7 C       -2.6770     4.3740    -0.1320 C.ar  1 <1>  -0.1440 
  8 C       -0.4790     5.2980    -1.0300 C.3   1 <1>   0.2610 
  9 C       -3.4260     5.1160     0.7710 C.ar  1 <1>  -0.1500 
 10 C       -3.3390     3.6780    -1.1380 C.ar  1 <1>  -0.1500 
 11 C       -0.3090     6.6850    -0.3970 C.2   1 <1>   0.5690 
 12 C       -4.8050     5.1610     0.6750 C.ar  1 <1>  -0.1500 
 13 C       -4.7190     3.7220    -1.2340 C.ar  1 <1>  -0.1500 
 14 O       -1.2760     7.2540     0.0510 O.2   1 <1>  -0.5700 
 15 N        0.9420     7.2230    -0.3530 N.am  1 <1>  -0.7300 
 16 C       -5.4540     4.4630    -0.3270 C.ar  1 <1>  -0.1500 
 17 C        1.4190     8.4860     0.2170 C.3   1 <1>   0.3000 
 18 C        2.9410     8.5640    -0.0310 C.3   1 <1>  -0.1600 
 19 C        0.7350     9.6490    -0.5050 C.3   1 <1>  -0.2400 
 20 C        1.0970     8.5210     1.7140 C.3   1 <1>  -0.2400 
 21 C        3.7800     7.4160     0.5620 C.3   1 <1>  -0.2400 
 22 H       -1.1930     2.2310     0.4220 H     1 <1>   0.3700 
 23 H        0.1910     3.5680    -2.9750 H     1 <1>   0.0800 
 24 H        1.7630     3.2360    -2.2810 H     1 <1>   0.0800 
 25 H       -0.8800     4.6540     0.9830 H     1 <1>   0.0800 
 26 H       -1.1140     5.4060    -1.8910 H     1 <1>   0.0800 
 27 H       -2.9390     5.6750     1.5520 H     1 <1>   0.1500 
 28 H       -2.7880     3.0940    -1.8540 H     1 <1>   0.1500 
 29 H       -5.3730     5.7430     1.3800 H     1 <1>   0.1500 
 30 H       -5.2220     3.1780    -2.0150 H     1 <1>   0.1500 
 31 H        1.6840     6.6480    -0.7600 H     1 <1>   0.3700 
 32 H       -6.5270     4.4980    -0.4010 H     1 <1>   0.1500 
 33 H        3.1160     8.6040    -1.0920 H     1 <1>   0.0800 
 34 H        3.3060     9.4910     0.3770 H     1 <1>   0.0800 
 35 H        1.1160    10.5860    -0.1420 H     1 <1>   0.0800 
 36 H       -0.3260     9.6350    -0.3300 H     1 <1>   0.0800 
 37 H        0.9130     9.5940    -1.5630 H     1 <1>   0.0800 
 38 H        1.5460     9.3850     2.1680 H     1 <1>   0.0800 
 39 H        1.4660     7.6410     2.2070 H     1 <1>   0.0800 
 40 H        0.0350     8.5810     1.8690 H     1 <1>   0.0800 
 41 H        3.4670     6.4620     0.1780 H     1 <1>   0.0800 
 42 H        3.7060     7.3990     1.6340 H     1 <1>   0.0800 
 43 H        4.8160     7.5550     0.3040 H     1 <1>   0.0800 
@<TRIPOS>BOND
  1   1   2  2   
  2   2   3  am  
  3   2   4  1   
  4   3   5  1   
  5   3  22  1   
  6   4   6  1   
  7   4  23  1   
  8   4  24  1   
  9   5   7  1   
 10   5   8  1   
 11   5  25  1   
 12   6   8  1   
 13   7   9  ar  
 14   7  10  ar  
 15   8  11  1   
 16   8  26  1   
 17   9  12  ar  
 18   9  27  1   
 19  10  13  ar  
 20  10  28  1   
 21  11  14  2   
 22  11  15  am  
 23  12  16  ar  
 24  12  29  1   
 25  13  16  ar  
 26  13  30  1   
 27  15  17  1   
 28  15  31  1   
 29  16  32  1   
 30  17  18  1   
 31  17  19  1   
 32  17  20  1   
 33  18  21  1   
 34  18  33  1   
 35  18  34  1   
 36  19  35  1   
 37  19  36  1   
 38  19  37  1   
 39  20  38  1   
 40  20  39  1   
 41  20  40  1   
 42  21  41  1   
 43  21  42  1   
 44  21  43  1   
@<TRIPOS>SUBSTRUCTURE
  1 ****   8 GROUP 4 **** **** 0

# MOE 2024.06 (io_trps.svl 2023.06)
