@<TRIPOS>MOLECULE
NONAME
50 53 1 0 0 
SMALL
USER_CHARGES


@<TRIPOS>ATOM
  1 O        0.3920     1.2870    -2.5110 O.2   1 <1>  -0.5700 
  2 C        0.3050     1.9590    -1.5000 C.2   1 <1>   0.5440 
  3 N       -0.9460     2.2560    -0.9990 N.am  1 <1>  -0.6600 
  4 C        1.5100     2.4430    -0.8680 C.ar  1 <1>   0.0860 
  5 C       -1.1550     3.2800     0.0710 C.3   1 <1>   0.1400 
  6 C       -2.1640     1.6030    -1.5660 C.3   1 <1>   0.1400 
  7 C        1.9050     2.0300     0.4290 C.ar  1 <1>   0.0000 
  8 C        2.3250     3.3400    -1.5030 C.ar  1 <1>  -0.1500 
  9 C       -2.5400     3.9070    -0.0710 C.3   1 <1>  -0.1600 
 10 C       -3.2520     1.4890    -0.4970 C.3   1 <1>  -0.1600 
 11 C        3.0670     2.6120     0.9850 C.ar  1 <1>   0.3100 
 12 C        1.2080     1.0680     1.1920 C.ar  1 <1>  -0.1500 
 13 C        3.4620     3.8470    -0.8720 C.ar  1 <1>   0.3920 
 14 C       -3.6430     2.8510     0.1090 C.3   1 <1>   0.4180 
 15 N        3.8310     3.5190     0.3340 N.ar  1 <1>  -0.6200 
 16 C        3.4590     2.2300     2.2790 C.ar  1 <1>  -0.1500 
 17 C        1.6180     0.7150     2.4490 C.ar  1 <1>  -0.1500 
 18 O        4.1890     4.7320    -1.5780 O.3   1 <1>  -0.3630 
 19 O       -3.8120     2.6070     1.4840 O.3   1 <1>  -0.5600 
 20 C       -4.9500     3.3380    -0.5160 C.2   1 <1>  -0.2880 
 21 C        2.7560     1.3050     3.0030 C.ar  1 <1>  -0.1500 
 22 C        5.3700     5.2980    -1.0440 C.3   1 <1>   0.0400 
 23 C       -4.6230     3.4860     2.2150 C.3   1 <1>   0.1200 
 24 C       -6.0600     3.6080     0.1750 C.2   1 <1>  -0.2760 
 25 C       -6.0630     3.4680     1.6850 C.3   1 <1>  -0.0220 
 26 C       -7.3740     4.0500    -0.4430 C.3   1 <1>  -0.1020 
 27 H       -0.4060     4.0500    -0.0040 H     1 <1>   0.0800 
 28 H       -1.0700     2.8100     1.0360 H     1 <1>   0.0800 
 29 H       -1.9150     0.6200    -1.9280 H     1 <1>   0.0800 
 30 H       -2.5200     2.1860    -2.3980 H     1 <1>   0.0800 
 31 H        2.1030     3.6740    -2.4990 H     1 <1>   0.1500 
 32 H       -2.6110     4.3430    -1.0510 H     1 <1>   0.0800 
 33 H       -2.6590     4.7040     0.6360 H     1 <1>   0.0800 
 34 H       -2.8810     0.8390     0.2750 H     1 <1>   0.0800 
 35 H       -4.1190     1.0190    -0.9230 H     1 <1>   0.0800 
 36 H        0.3330     0.5990     0.7740 H     1 <1>   0.1500 
 37 H        4.3410     2.6910     2.6850 H     1 <1>   0.1500 
 38 H        1.0740    -0.0170     3.0210 H     1 <1>   0.1500 
 39 H       -4.8890     3.4300    -1.5850 H     1 <1>   0.1500 
 40 H        3.0700     1.0220     3.9930 H     1 <1>   0.1500 
 41 H        5.7870     5.9660    -1.7750 H     1 <1>   0.0800 
 42 H        6.0650     4.5070    -0.8240 H     1 <1>   0.0800 
 43 H        5.1210     5.8390    -0.1470 H     1 <1>   0.0800 
 44 H       -4.2120     4.4770     2.1450 H     1 <1>   0.0800 
 45 H       -4.6010     3.1750     3.2440 H     1 <1>   0.0800 
 46 H       -6.6020     4.2820     2.1350 H     1 <1>   0.0800 
 47 H       -6.5430     2.5480     1.9670 H     1 <1>   0.0800 
 48 H       -7.6530     5.0200    -0.0710 H     1 <1>   0.0800 
 49 H       -8.1510     3.3470    -0.2010 H     1 <1>   0.0800 
 50 H       -7.2870     4.1070    -1.5130 H     1 <1>   0.0800 
@<TRIPOS>BOND
  1   1   2  2   
  2   2   3  am  
  3   2   4  1   
  4   3   5  1   
  5   3   6  1   
  6   4   7  ar  
  7   4   8  ar  
  8   5   9  1   
  9   5  27  1   
 10   5  28  1   
 11   6  10  1   
 12   6  29  1   
 13   6  30  1   
 14   7  11  ar  
 15   7  12  ar  
 16   8  13  ar  
 17   8  31  1   
 18   9  14  1   
 19   9  32  1   
 20   9  33  1   
 21  10  14  1   
 22  10  34  1   
 23  10  35  1   
 24  11  15  ar  
 25  11  16  ar  
 26  12  17  ar  
 27  12  36  1   
 28  13  15  ar  
 29  13  18  1   
 30  14  19  1   
 31  14  20  1   
 32  16  21  ar  
 33  16  37  1   
 34  17  21  ar  
 35  17  38  1   
 36  18  22  1   
 37  19  23  1   
 38  20  24  2   
 39  20  39  1   
 40  21  40  1   
 41  22  41  1   
 42  22  42  1   
 43  22  43  1   
 44  23  25  1   
 45  23  44  1   
 46  23  45  1   
 47  24  25  1   
 48  24  26  1   
 49  25  46  1   
 50  25  47  1   
 51  26  48  1   
 52  26  49  1   
 53  26  50  1   
@<TRIPOS>SUBSTRUCTURE
  1 ****   5 GROUP 4 **** **** 0

# MOE 2024.06 (io_trps.svl 2023.06)
