@<TRIPOS>MOLECULE
NONAME
51 52 1 0 0 
SMALL
USER_CHARGES


@<TRIPOS>ATOM
  1 O       -2.1780     0.3760     2.9840 O.2   1 <1>  -0.5700 
  2 C       -2.1430     0.8030     1.8550 C.2   1 <1>   0.5690 
  3 N       -2.7310     0.1060     0.8250 N.am  1 <1>  -0.6600 
  4 C       -1.4370     2.1390     1.6340 C.3   1 <1>   0.1810 
  5 C       -3.2770    -1.2620     1.1460 C.3   1 <1>   0.3210 
  6 C       -2.7500     0.5910    -0.6010 C.3   1 <1>   0.1400 
  7 O       -2.3530     3.1130     1.1520 O.3   1 <1>  -0.3630 
  8 C       -3.9920    -1.9760    -0.0040 C.2   1 <1>   0.0460 
  9 C       -3.8960     1.5810    -0.9340 C.3   1 <1>   0.3430 
 10 C       -1.9270     4.3240     0.7150 C.ar  1 <1>   0.0820 
 11 N       -5.2280    -1.6060    -0.4110 N.2   1 <1>  -0.5650 
 12 C       -3.5460    -3.0290    -0.7310 C.2   1 <1>  -0.3320 
 13 N       -5.2000     1.2630    -0.2680 N.4   1 <1>  -0.9590 
 14 C       -0.5940     4.7240     0.7180 C.ar  1 <1>  -0.1500 
 15 C       -2.8960     5.1910     0.2360 C.ar  1 <1>  -0.1500 
 16 C       -5.5110    -2.4490    -1.3510 C.2   1 <1>   0.0360 
 17 N       -4.5280    -3.3380    -1.5970 N.pl3 1 <1>   0.0330 
 18 C       -2.2420    -3.8100    -0.6760 C.3   1 <1>  -0.0600 
 19 C       -6.3640     1.6480    -1.1110 C.3   1 <1>   0.2630 
 20 C       -5.3050     1.8540     1.1000 C.3   1 <1>   0.2630 
 21 C       -0.2460     5.9720     0.2300 C.ar  1 <1>  -0.1500 
 22 C       -2.5440     6.4370    -0.2500 C.ar  1 <1>  -0.1500 
 23 C       -1.2160     6.8330    -0.2570 C.ar  1 <1>  -0.1430 
 24 C       -0.8270     8.2000    -0.7920 C.3   1 <1>  -0.0970 
 25 H       -0.6490     2.0110     0.9160 H     1 <1>   0.0800 
 26 H       -1.0280     2.4940     2.5620 H     1 <1>   0.0800 
 27 H       -3.9690    -1.1780     1.9670 H     1 <1>   0.0800 
 28 H       -2.4640    -1.8770     1.4870 H     1 <1>   0.0800 
 29 H       -2.8090    -0.2430    -1.2760 H     1 <1>   0.0800 
 30 H       -1.8170     1.0760    -0.8250 H     1 <1>   0.0800 
 31 H       -4.0290     1.5710    -2.0020 H     1 <1>   0.0800 
 32 H       -3.5940     2.5790    -0.6680 H     1 <1>   0.0800 
 33 H       -5.2180     0.2220    -0.1650 H     1 <1>   0.4500 
 34 H        0.1880     4.0930     1.0930 H     1 <1>   0.1500 
 35 H       -3.9280     4.8970     0.2470 H     1 <1>   0.1500 
 36 H       -6.4380    -2.4670    -1.8990 H     1 <1>   0.1500 
 37 H       -4.5390    -4.0990    -2.2850 H     1 <1>   0.2700 
 38 H       -1.5690    -3.3880     0.0480 H     1 <1>   0.0800 
 39 H       -1.7580    -3.7940    -1.6360 H     1 <1>   0.0800 
 40 H       -2.4350    -4.8320    -0.4030 H     1 <1>   0.0800 
 41 H       -6.3830     2.7140    -1.2620 H     1 <1>   0.0800 
 42 H       -7.2820     1.3480    -0.6320 H     1 <1>   0.0800 
 43 H       -6.3050     1.1590    -2.0700 H     1 <1>   0.0800 
 44 H       -5.2110     2.9270     1.0550 H     1 <1>   0.0800 
 45 H       -4.5280     1.4710     1.7390 H     1 <1>   0.0800 
 46 H       -6.2560     1.6040     1.5420 H     1 <1>   0.0800 
 47 H        0.7870     6.2750     0.2310 H     1 <1>   0.1500 
 48 H       -3.3050     7.1020    -0.6210 H     1 <1>   0.1500 
 49 H        0.0350     8.5760    -0.2720 H     1 <1>   0.0800 
 50 H       -1.6320     8.9000    -0.6610 H     1 <1>   0.0800 
 51 H       -0.5960     8.1290    -1.8400 H     1 <1>   0.0800 
@<TRIPOS>BOND
  1   1   2  2   
  2   2   3  am  
  3   2   4  1   
  4   3   5  1   
  5   3   6  1   
  6   4   7  1   
  7   4  25  1   
  8   4  26  1   
  9   5   8  1   
 10   5  27  1   
 11   5  28  1   
 12   6   9  1   
 13   6  29  1   
 14   6  30  1   
 15   7  10  1   
 16   8  11  1   
 17   8  12  2   
 18   9  13  1   
 19   9  31  1   
 20   9  32  1   
 21  10  14  ar  
 22  10  15  ar  
 23  11  16  2   
 24  12  17  1   
 25  12  18  1   
 26  13  19  1   
 27  13  20  1   
 28  13  33  1   
 29  14  21  ar  
 30  14  34  1   
 31  15  22  ar  
 32  15  35  1   
 33  16  17  1   
 34  16  36  1   
 35  17  37  1   
 36  18  38  1   
 37  18  39  1   
 38  18  40  1   
 39  19  41  1   
 40  19  42  1   
 41  19  43  1   
 42  20  44  1   
 43  20  45  1   
 44  20  46  1   
 45  21  23  ar  
 46  21  47  1   
 47  22  23  ar  
 48  22  48  1   
 49  23  24  1   
 50  24  49  1   
 51  24  50  1   
 52  24  51  1   
@<TRIPOS>SUBSTRUCTURE
  1 ****   6 GROUP 4 **** **** 0

# MOE 2024.06 (io_trps.svl 2023.06)
