@<TRIPOS>MOLECULE
NONAME
52 55 1 0 0 
SMALL
USER_CHARGES


@<TRIPOS>ATOM
  1 O       -2.8610    -2.1900    -1.7000 O.2   1 <1>  -0.5700 
  2 C       -2.1740    -1.8490    -0.7670 C.2   1 <1>   0.5690 
  3 N       -1.2650    -2.7230    -0.2370 N.am  1 <1>  -0.6600 
  4 C       -2.3760    -0.4770    -0.1340 C.3   1 <1>  -0.0190 
  5 C       -1.4680    -3.2100     1.1630 C.3   1 <1>   0.2200 
  6 C       -0.4850    -3.5790    -1.1710 C.3   1 <1>   0.1400 
  7 C       -3.7040    -0.3390     0.6430 C.3   1 <1>  -0.0220 
  8 C       -2.3390     0.6900    -1.1450 C.3   1 <1>  -0.0220 
  9 C       -0.2640    -4.0130     1.7240 C.3   1 <1>   0.1200 
 10 C       -2.8100    -3.9940     1.2370 C.3   1 <1>   0.3430 
 11 C       -0.8130    -5.0650    -1.0080 C.3   1 <1>  -0.0800 
 12 C       -4.0970     1.0910     0.3750 C.2   1 <1>  -0.2880 
 13 C       -3.3650     1.6430    -0.5840 C.2   1 <1>  -0.2880 
 14 O       -0.3100    -5.3740     1.3780 O.3   1 <1>  -0.5600 
 15 N       -2.8100    -5.3310     0.5410 N.4   1 <1>  -0.9590 
 16 C        0.0740    -5.7180     0.0770 C.3   1 <1>   0.1200 
 17 C       -2.3340    -5.3080    -0.8850 C.3   1 <1>   0.3430 
 18 C       -4.0930    -6.0620     0.7180 C.3   1 <1>   0.4860 
 19 C       -3.9290    -7.4860     0.2420 C.ar  1 <1>  -0.1430 
 20 C       -4.5720    -7.9400    -0.8870 C.ar  1 <1>   0.1600 
 21 C       -3.1220    -8.3830     0.9040 C.ar  1 <1>   0.1600 
 22 N       -4.4130    -9.1630    -1.3330 N.ar  1 <1>  -0.6200 
 23 N       -2.9490    -9.6100     0.4740 N.ar  1 <1>  -0.6200 
 24 C       -3.6090    -9.9370    -0.6230 C.ar  1 <1>   0.4770 
 25 C       -3.4190   -11.3520    -1.1150 C.3   1 <1>  -0.0970 
 26 H       -1.5770    -0.2970     0.5610 H     1 <1>   0.0800 
 27 H       -1.5680    -2.3390     1.7860 H     1 <1>   0.0800 
 28 H       -0.7030    -3.2840    -2.1850 H     1 <1>   0.0800 
 29 H        0.5670    -3.4050    -1.0180 H     1 <1>   0.0800 
 30 H       -4.4640    -0.9930     0.2520 H     1 <1>   0.0800 
 31 H       -3.5640    -0.5120     1.6950 H     1 <1>   0.0800 
 32 H       -1.3620     1.1400    -1.1850 H     1 <1>   0.0800 
 33 H       -2.6390     0.3820    -2.1320 H     1 <1>   0.0800 
 34 H       -0.2960    -3.9760     2.7990 H     1 <1>   0.0800 
 35 H        0.6760    -3.5900     1.4110 H     1 <1>   0.0800 
 36 H       -3.5880    -3.3750     0.8220 H     1 <1>   0.0800 
 37 H       -3.0410    -4.1500     2.2780 H     1 <1>   0.0800 
 38 H       -0.5120    -5.5160    -1.9370 H     1 <1>   0.0800 
 39 H       -4.9050     1.5270     0.9380 H     1 <1>   0.1500 
 40 H       -3.4290     2.6370    -0.9940 H     1 <1>   0.1500 
 41 H       -2.0580    -5.8540     1.0300 H     1 <1>   0.4500 
 42 H        1.1090    -5.4450    -0.0530 H     1 <1>   0.0800 
 43 H        0.0080    -6.7910     0.0030 H     1 <1>   0.0800 
 44 H       -2.5400    -6.2630    -1.3390 H     1 <1>   0.0800 
 45 H       -2.8700    -4.5590    -1.4460 H     1 <1>   0.0800 
 46 H       -4.3740    -6.0680     1.7590 H     1 <1>   0.0800 
 47 H       -4.8740    -5.5740     0.1580 H     1 <1>   0.0800 
 48 H       -5.2300    -7.2960    -1.4490 H     1 <1>   0.1500 
 49 H       -2.5980    -8.1020     1.8030 H     1 <1>   0.1500 
 50 H       -3.9870   -11.5220    -2.0120 H     1 <1>   0.0800 
 51 H       -3.7460   -12.0400    -0.3590 H     1 <1>   0.0800 
 52 H       -2.3800   -11.5240    -1.3220 H     1 <1>   0.0800 
@<TRIPOS>BOND
  1   1   2  2   
  2   2   3  am  
  3   2   4  1   
  4   3   5  1   
  5   3   6  1   
  6   4   7  1   
  7   4   8  1   
  8   4  26  1   
  9   5   9  1   
 10   5  10  1   
 11   5  27  1   
 12   6  11  1   
 13   6  28  1   
 14   6  29  1   
 15   7  12  1   
 16   7  30  1   
 17   7  31  1   
 18   8  13  1   
 19   8  32  1   
 20   8  33  1   
 21   9  14  1   
 22   9  34  1   
 23   9  35  1   
 24  10  15  1   
 25  10  36  1   
 26  10  37  1   
 27  11  16  1   
 28  11  17  1   
 29  11  38  1   
 30  12  13  2   
 31  12  39  1   
 32  13  40  1   
 33  14  16  1   
 34  15  17  1   
 35  15  18  1   
 36  15  41  1   
 37  16  42  1   
 38  16  43  1   
 39  17  44  1   
 40  17  45  1   
 41  18  19  1   
 42  18  46  1   
 43  18  47  1   
 44  19  20  ar  
 45  19  21  ar  
 46  20  22  ar  
 47  20  48  1   
 48  21  23  ar  
 49  21  49  1   
 50  22  24  ar  
 51  23  24  ar  
 52  24  25  1   
 53  25  50  1   
 54  25  51  1   
 55  25  52  1   
@<TRIPOS>SUBSTRUCTURE
  1 ****  15 GROUP 4 **** **** 0

# MOE 2024.06 (io_trps.svl 2023.06)
