@<TRIPOS>MOLECULE
NONAME
43 45 1 0 0 
SMALL
USER_CHARGES


@<TRIPOS>ATOM
  1 O       -0.6790    -0.0490     2.1480 O.2   1 <1>  -0.5700 
  2 C       -1.4160     0.6220     1.4500 C.2   1 <1>   0.5440 
  3 N       -2.3070    -0.0230     0.6240 N.am  1 <1>  -0.6600 
  4 C       -1.3790     2.0590     1.5530 C.ar  1 <1>   0.0860 
  5 C       -3.3130     0.6280    -0.2520 C.3   1 <1>   0.1400 
  6 C       -2.3750    -1.4990     0.5040 C.3   1 <1>   0.1400 
  7 C       -0.9120     2.8680     0.5100 C.ar  1 <1>   0.3920 
  8 C       -1.8080     2.6900     2.7120 C.ar  1 <1>  -0.1500 
  9 C       -3.8910    -0.5110    -1.0910 C.3   1 <1>   0.2000 
 10 C       -3.6670    -1.7760    -0.2660 C.3   1 <1>  -0.0800 
 11 O       -0.4610     2.2620    -0.6090 O.3   1 <1>  -0.3630 
 12 N       -0.8800     4.2010     0.5400 N.ar  1 <1>  -0.6200 
 13 C       -1.7680     4.0650     2.7580 C.ar  1 <1>  -0.1500 
 14 O       -5.2430    -0.3300    -1.3360 O.3   1 <1>  -0.6800 
 15 C       -3.6130    -3.0530    -1.1170 C.3   1 <1>   0.0210 
 16 C        0.0890     2.9930    -1.6880 C.3   1 <1>   0.0400 
 17 C       -1.3040     4.7630     1.6580 C.ar  1 <1>   0.1600 
 18 C       -3.3000    -4.2620    -0.2580 C.2   1 <1>   0.1080 
 19 N       -4.0800    -4.6670     0.6960 N.2   1 <1>  -0.7070 
 20 C       -2.1630    -5.0550    -0.3800 C.2   1 <1>  -0.1500 
 21 N       -3.4540    -5.7400     1.2140 N.pl3 1 <1>   0.3000 
 22 C       -2.2900    -5.9950     0.5800 C.2   1 <1>  -0.3320 
 23 C       -1.3570    -7.1360     0.9370 C.3   1 <1>  -0.0600 
 24 H       -4.0730     1.0820     0.3580 H     1 <1>   0.0800 
 25 H       -2.8520     1.3640    -0.8860 H     1 <1>   0.0800 
 26 H       -1.5130    -1.8430    -0.0420 H     1 <1>   0.0800 
 27 H       -2.3890    -1.9650     1.4750 H     1 <1>   0.0800 
 28 H       -2.1580     2.1070     3.5470 H     1 <1>   0.1500 
 29 H       -3.3770    -0.5590    -2.0360 H     1 <1>   0.0800 
 30 H       -4.4510    -1.8740     0.4640 H     1 <1>   0.0800 
 31 H       -2.0920     4.5950     3.6360 H     1 <1>   0.1500 
 32 H       -5.7530    -0.4530    -0.5120 H     1 <1>   0.4000 
 33 H       -2.8650    -2.9560    -1.8840 H     1 <1>   0.0800 
 34 H       -4.5640    -3.2060    -1.5940 H     1 <1>   0.0800 
 35 H        0.3890     2.2960    -2.4500 H     1 <1>   0.0800 
 36 H        0.9420     3.5440    -1.3340 H     1 <1>   0.0800 
 37 H       -0.6580     3.6650    -2.0720 H     1 <1>   0.0800 
 38 H       -1.2790     5.8390     1.7010 H     1 <1>   0.1500 
 39 H       -1.3690    -4.9230    -1.0930 H     1 <1>   0.1500 
 40 H       -3.8460    -6.2750     1.9980 H     1 <1>   0.2700 
 41 H       -0.4980    -7.1280     0.2890 H     1 <1>   0.0800 
 42 H       -1.8620    -8.0790     0.8240 H     1 <1>   0.0800 
 43 H       -1.0190    -7.0370     1.9530 H     1 <1>   0.0800 
@<TRIPOS>BOND
  1   1   2  2   
  2   2   3  am  
  3   2   4  1   
  4   3   5  1   
  5   3   6  1   
  6   4   7  ar  
  7   4   8  ar  
  8   5   9  1   
  9   5  24  1   
 10   5  25  1   
 11   6  10  1   
 12   6  26  1   
 13   6  27  1   
 14   7  11  1   
 15   7  12  ar  
 16   8  13  ar  
 17   8  28  1   
 18   9  10  1   
 19   9  14  1   
 20   9  29  1   
 21  10  15  1   
 22  10  30  1   
 23  11  16  1   
 24  12  17  ar  
 25  13  17  ar  
 26  13  31  1   
 27  14  32  1   
 28  15  18  1   
 29  15  33  1   
 30  15  34  1   
 31  16  35  1   
 32  16  36  1   
 33  16  37  1   
 34  17  38  1   
 35  18  19  2   
 36  18  20  1   
 37  19  21  1   
 38  20  22  2   
 39  20  39  1   
 40  21  22  1   
 41  21  40  1   
 42  22  23  1   
 43  23  41  1   
 44  23  42  1   
 45  23  43  1   
@<TRIPOS>SUBSTRUCTURE
  1 ****   3 GROUP 4 **** **** 0

# MOE 2024.06 (io_trps.svl 2023.06)
