@<TRIPOS>MOLECULE
NONAME
47 50 1 0 0 
SMALL
USER_CHARGES


@<TRIPOS>ATOM
  1 O        0.2270     1.4470    -1.2040 O.2   1 <1>  -0.5700 
  2 C       -0.2340     2.5570    -1.3360 C.2   1 <1>   0.5690 
  3 N       -0.9350     3.2090    -0.3570 N.am  1 <1>  -0.5090 
  4 C       -0.0130     3.2810    -2.6570 C.3   1 <1>   0.1810 
  5 C       -1.4660     4.5910    -0.5890 C.3   1 <1>   0.3640 
  6 C       -0.9870     2.7060     1.0380 C.3   1 <1>   0.0490 
  7 O        0.2330     4.6450    -2.4330 O.3   1 <1>  -0.5600 
  8 C       -2.9830     4.5540    -0.7780 C.ar  1 <1>  -0.1440 
  9 C       -0.8290     5.3440    -1.7960 C.3   1 <1>   0.2610 
 10 C       -1.5890     1.3600     1.2900 C.3   1 <1>  -0.2000 
 11 C       -2.2940     2.5890     1.7640 C.3   1 <1>  -0.2000 
 12 C       -3.7540     5.5880    -0.2620 C.ar  1 <1>   0.1600 
 13 C       -3.6230     3.5300    -1.4540 C.ar  1 <1>  -0.1500 
 14 C       -0.3500     6.7190    -1.3240 C.2   1 <1>   0.5690 
 15 N       -5.0690     5.6770    -0.3630 N.ar  1 <1>  -0.6200 
 16 C       -4.9940     3.6090    -1.5670 C.ar  1 <1>  -0.1500 
 17 O       -1.1230     7.4470    -0.7460 O.2   1 <1>  -0.5700 
 18 N        0.9410     7.0880    -1.5330 N.am  1 <1>  -0.7300 
 19 C       -5.6590     4.6870    -1.0110 C.ar  1 <1>   0.1600 
 20 C        1.5430     8.3890    -1.1520 C.3   1 <1>   0.1400 
 21 C        1.6830     8.4840     0.3680 C.3   1 <1>   0.0960 
 22 N        2.3330     9.7520     0.7210 N.pl3 1 <1>   0.3140 
 23 N        3.6340     9.9720     0.4590 N.2   1 <1>  -0.7070 
 24 C        1.7640    10.8220     1.3100 C.2   1 <1>  -0.3020 
 25 C        3.8610    11.1750     0.8920 C.2   1 <1>   0.1390 
 26 C        2.7250    11.7610     1.4370 C.2   1 <1>  -0.1500 
 27 H       -0.8730     3.1770    -3.2920 H     1 <1>   0.0800 
 28 H        0.8470     2.8680    -3.1530 H     1 <1>   0.0800 
 29 H       -1.2630     5.1540     0.3060 H     1 <1>   0.0800 
 30 H       -0.1070     2.9700     1.6010 H     1 <1>   0.1000 
 31 H       -1.5820     5.5120    -2.5450 H     1 <1>   0.0800 
 32 H       -1.9880     0.8140     0.4520 H     1 <1>   0.1000 
 33 H       -1.1230     0.7180     2.0160 H     1 <1>   0.1000 
 34 H       -2.3190     2.7730     2.8230 H     1 <1>   0.1000 
 35 H       -3.2240     2.8340     1.2850 H     1 <1>   0.1000 
 36 H       -3.2670     6.3950     0.2620 H     1 <1>   0.1500 
 37 H       -3.0910     2.6940    -1.8730 H     1 <1>   0.1500 
 38 H       -5.5470     2.8420    -2.0780 H     1 <1>   0.1500 
 39 H        1.5430     6.4250    -2.0370 H     1 <1>   0.3700 
 40 H       -6.7310     4.7390    -1.1030 H     1 <1>   0.1500 
 41 H        2.5120     8.4800    -1.6140 H     1 <1>   0.0800 
 42 H        0.9120     9.1870    -1.5050 H     1 <1>   0.0800 
 43 H        2.2950     7.6810     0.7340 H     1 <1>   0.0800 
 44 H        0.7180     8.4470     0.8370 H     1 <1>   0.0800 
 45 H        0.7300    10.8560     1.5990 H     1 <1>   0.1500 
 46 H        4.8240    11.6550     0.8310 H     1 <1>   0.1500 
 47 H        2.6590    12.7480     1.8590 H     1 <1>   0.1500 
@<TRIPOS>BOND
  1   1   2  2   
  2   2   3  am  
  3   2   4  1   
  4   3   5  1   
  5   3   6  1   
  6   4   7  1   
  7   4  27  1   
  8   4  28  1   
  9   5   8  1   
 10   5   9  1   
 11   5  29  1   
 12   6  10  1   
 13   6  11  1   
 14   6  30  1   
 15   7   9  1   
 16   8  12  ar  
 17   8  13  ar  
 18   9  14  1   
 19   9  31  1   
 20  10  11  1   
 21  10  32  1   
 22  10  33  1   
 23  11  34  1   
 24  11  35  1   
 25  12  15  ar  
 26  12  36  1   
 27  13  16  ar  
 28  13  37  1   
 29  14  17  2   
 30  14  18  am  
 31  15  19  ar  
 32  16  19  ar  
 33  16  38  1   
 34  18  20  1   
 35  18  39  1   
 36  19  40  1   
 37  20  21  1   
 38  20  41  1   
 39  20  42  1   
 40  21  22  1   
 41  21  43  1   
 42  21  44  1   
 43  22  23  1   
 44  22  24  1   
 45  23  25  2   
 46  24  26  2   
 47  24  45  1   
 48  25  26  1   
 49  25  46  1   
 50  26  47  1   
@<TRIPOS>SUBSTRUCTURE
  1 ****  14 GROUP 4 **** **** 0

# MOE 2024.06 (io_trps.svl 2023.06)
