@<TRIPOS>MOLECULE
NONAME
52 54 1 0 0 
SMALL
USER_CHARGES


@<TRIPOS>ATOM
  1 O       -1.6030     0.2550     1.6000 O.2   1 <1>  -0.5700 
  2 C       -2.5200     0.0160     0.8420 C.2   1 <1>   0.6900 
  3 N       -3.8430     0.1420     1.2190 N.am  1 <1>  -0.4200 
  4 N       -2.2270    -0.3840    -0.4300 N.am  1 <1>  -0.5390 
  5 C       -4.8520    -0.0970     0.2990 C.2   1 <1>   0.6160 
  6 C       -4.1800     0.5690     2.6060 C.3   1 <1>   0.0600 
  7 C       -3.2010    -0.6820    -1.3620 C.2   1 <1>  -0.0410 
  8 O       -6.0140     0.0990     0.6150 O.2   1 <1>  -0.5700 
  9 C       -4.5010    -0.5450    -1.0190 C.2   1 <1>  -0.1240 
 10 C       -5.6310    -0.8740    -1.9920 C.3   1 <1>   0.0390 
 11 C       -6.3640    -2.1470    -1.5810 C.2   1 <1>   0.5690 
 12 O       -5.6740    -3.0880    -1.2630 O.2   1 <1>  -0.5700 
 13 N       -7.7370    -2.2380    -1.5780 N.am  1 <1>  -0.6600 
 14 C       -8.4120    -3.3830    -0.8980 C.3   1 <1>   0.1400 
 15 C       -8.6670    -1.2260    -2.1490 C.3   1 <1>   0.1400 
 16 C       -9.1990    -2.9250     0.3370 C.3   1 <1>   0.1400 
 17 C       -9.1630    -0.2960    -1.0390 C.3   1 <1>  -0.1600 
 18 N      -10.4810    -2.2500    -0.0430 N.am  1 <1>  -0.6600 
 19 C      -10.4300    -0.7820    -0.3220 C.3   1 <1>   0.1400 
 20 C      -11.7070    -2.8560     0.1500 C.2   1 <1>   0.7150 
 21 O      -12.7080    -2.1620     0.1720 O.2   1 <1>  -0.5700 
 22 C      -11.8390    -4.2710     0.3550 C.2   1 <1>  -0.2370 
 23 N      -12.5990    -4.8140     1.3400 N.pl3 1 <1>   0.3140 
 24 C      -11.3060    -5.3350    -0.3080 C.2   1 <1>  -0.1500 
 25 N      -12.5450    -6.1540     1.3440 N.2   1 <1>  -0.7070 
 26 C      -13.4130    -4.0980     2.3340 C.3   1 <1>   0.0160 
 27 C      -11.7730    -6.4570     0.3490 C.2   1 <1>   0.1080 
 28 C      -11.4540    -7.8890    -0.0110 C.3   1 <1>  -0.0590 
 29 H       -1.2280    -0.4780    -0.6240 H     1 <1>   0.3700 
 30 H       -3.3990     0.2810     3.2890 H     1 <1>   0.0800 
 31 H       -5.0980     0.1070     2.9250 H     1 <1>   0.0800 
 32 H       -4.2950     1.6380     2.6330 H     1 <1>   0.0800 
 33 H       -2.8740    -1.0240    -2.3310 H     1 <1>   0.1500 
 34 H       -5.2370    -1.0250    -2.9790 H     1 <1>   0.0800 
 35 H       -6.2970    -0.0340    -2.0250 H     1 <1>   0.0800 
 36 H       -7.6800    -4.1050    -0.5780 H     1 <1>   0.0800 
 37 H       -9.0650    -3.8750    -1.5940 H     1 <1>   0.0800 
 38 H       -9.5000    -1.7200    -2.6220 H     1 <1>   0.0800 
 39 H       -8.1640    -0.6560    -2.9090 H     1 <1>   0.0800 
 40 H       -8.5910    -2.2600     0.9260 H     1 <1>   0.0800 
 41 H       -9.4080    -3.7840     0.9500 H     1 <1>   0.0800 
 42 H       -9.3920     0.6600    -1.4730 H     1 <1>   0.0800 
 43 H       -8.3840    -0.1260    -0.3190 H     1 <1>   0.0800 
 44 H      -11.2760    -0.5260    -0.9390 H     1 <1>   0.0800 
 45 H      -10.5390    -0.2490     0.6070 H     1 <1>   0.0800 
 46 H      -10.6660    -5.3350    -1.1690 H     1 <1>   0.1500 
 47 H      -12.8080    -3.3610     2.8270 H     1 <1>   0.0800 
 48 H      -13.7900    -4.7990     3.0550 H     1 <1>   0.0800 
 49 H      -14.2350    -3.6200     1.8340 H     1 <1>   0.0800 
 50 H      -10.7980    -7.9280    -0.8600 H     1 <1>   0.0800 
 51 H      -12.3650    -8.4090    -0.2440 H     1 <1>   0.0800 
 52 H      -10.9820    -8.3720     0.8240 H     1 <1>   0.0800 
@<TRIPOS>BOND
  1   1   2  2   
  2   2   3  am  
  3   2   4  am  
  4   3   5  am  
  5   3   6  1   
  6   4   7  1   
  7   4  29  1   
  8   5   8  2   
  9   5   9  1   
 10   6  30  1   
 11   6  31  1   
 12   6  32  1   
 13   7   9  2   
 14   7  33  1   
 15   9  10  1   
 16  10  11  1   
 17  10  34  1   
 18  10  35  1   
 19  11  12  2   
 20  11  13  am  
 21  13  14  1   
 22  13  15  1   
 23  14  16  1   
 24  14  36  1   
 25  14  37  1   
 26  15  17  1   
 27  15  38  1   
 28  15  39  1   
 29  16  18  1   
 30  16  40  1   
 31  16  41  1   
 32  17  19  1   
 33  17  42  1   
 34  17  43  1   
 35  18  19  1   
 36  18  20  am  
 37  19  44  1   
 38  19  45  1   
 39  20  21  2   
 40  20  22  1   
 41  22  23  1   
 42  22  24  2   
 43  23  25  1   
 44  23  26  1   
 45  24  27  1   
 46  24  46  1   
 47  25  27  2   
 48  26  47  1   
 49  26  48  1   
 50  26  49  1   
 51  27  28  1   
 52  28  50  1   
 53  28  51  1   
 54  28  52  1   
@<TRIPOS>SUBSTRUCTURE
  1 ****  16 GROUP 4 **** **** 0

# MOE 2024.06 (io_trps.svl 2023.06)
