@<TRIPOS>MOLECULE
NONAME
43 45 1 0 0 
SMALL
USER_CHARGES


@<TRIPOS>ATOM
  1 O       -0.3540     0.6100    -1.3500 O.3   1 <1>  -0.3630 
  2 C       -1.0450    -0.2700    -0.5830 C.ar  1 <1>   0.0830 
  3 C        0.1470     1.7740    -0.7100 C.3   1 <1>   0.2000 
  4 C       -1.5270     0.0910     0.6760 C.ar  1 <1>   0.0830 
  5 C       -1.2640    -1.5480    -1.0670 C.ar  1 <1>  -0.1500 
  6 C       -0.9040     2.3370     0.2610 C.3   1 <1>   0.1200 
  7 C        0.5430     2.7730    -1.8100 C.3   1 <1>   0.2090 
  8 O       -1.3450     1.3420     1.1680 O.3   1 <1>  -0.3630 
  9 C       -2.2090    -0.8360     1.4460 C.ar  1 <1>  -0.1500 
 10 C       -1.9520    -2.4710    -0.2950 C.ar  1 <1>  -0.1500 
 11 N        0.7940     4.1520    -1.2880 N.pl3 1 <1>  -0.8690 
 12 C       -2.4220    -2.1160     0.9600 C.ar  1 <1>  -0.1500 
 13 C        1.9000     4.5010    -0.5490 C.ar  1 <1>   0.4100 
 14 N        2.6530     3.5200    -0.1020 N.ar  1 <1>  -0.6200 
 15 C        2.2060     5.8320    -0.2830 C.ar  1 <1>  -0.1430 
 16 C        3.7050     3.8690     0.6050 C.ar  1 <1>   0.4770 
 17 C        3.3350     6.0590     0.4670 C.ar  1 <1>   0.1600 
 18 C        1.3040     6.9530    -0.8120 C.3   1 <1>  -0.0170 
 19 N        4.0990     5.0860     0.9210 N.ar  1 <1>  -0.6200 
 20 C        4.5600     2.7370     1.1210 C.3   1 <1>  -0.0970 
 21 C        1.7060     8.3750    -0.3910 C.3   1 <1>  -0.1600 
 22 C        0.7340     9.4180    -0.9520 C.3   1 <1>  -0.2400 
 23 H        1.0220     1.4840    -0.1570 H     1 <1>   0.0800 
 24 H       -0.8950    -1.8150    -2.0400 H     1 <1>   0.1500 
 25 H       -1.7590     2.6980    -0.2810 H     1 <1>   0.0800 
 26 H       -0.4870     3.1440     0.8370 H     1 <1>   0.0800 
 27 H       -0.2520     2.8230    -2.5330 H     1 <1>   0.0800 
 28 H        1.4320     2.4160    -2.3030 H     1 <1>   0.0800 
 29 H       -2.5700    -0.5490     2.4170 H     1 <1>   0.1500 
 30 H       -2.1210    -3.4650    -0.6710 H     1 <1>   0.1500 
 31 H        0.3760     4.8950    -1.8480 H     1 <1>   0.4000 
 32 H       -2.9530    -2.8350     1.5590 H     1 <1>   0.1500 
 33 H        3.6440     7.0570     0.7170 H     1 <1>   0.1500 
 34 H        0.3010     6.7680    -0.4680 H     1 <1>   0.0800 
 35 H        1.2990     6.9030    -1.8870 H     1 <1>   0.0800 
 36 H        4.5870     1.9400     0.4010 H     1 <1>   0.0800 
 37 H        4.1430     2.3700     2.0390 H     1 <1>   0.0800 
 38 H        5.5620     3.0790     1.2990 H     1 <1>   0.0800 
 39 H        2.6960     8.5940    -0.7520 H     1 <1>   0.0800 
 40 H        1.7100     8.4460     0.6840 H     1 <1>   0.0800 
 41 H        0.7240     9.3870    -2.0280 H     1 <1>   0.0800 
 42 H        1.0360    10.4040    -0.6450 H     1 <1>   0.0800 
 43 H       -0.2630     9.2400    -0.5890 H     1 <1>   0.0800 
@<TRIPOS>BOND
  1   1   2  1   
  2   1   3  1   
  3   2   4  ar  
  4   2   5  ar  
  5   3   6  1   
  6   3   7  1   
  7   3  23  1   
  8   4   8  1   
  9   4   9  ar  
 10   5  10  ar  
 11   5  24  1   
 12   6   8  1   
 13   6  25  1   
 14   6  26  1   
 15   7  11  1   
 16   7  27  1   
 17   7  28  1   
 18   9  12  ar  
 19   9  29  1   
 20  10  12  ar  
 21  10  30  1   
 22  11  13  1   
 23  11  31  1   
 24  12  32  1   
 25  13  14  ar  
 26  13  15  ar  
 27  14  16  ar  
 28  15  17  ar  
 29  15  18  1   
 30  16  19  ar  
 31  16  20  1   
 32  17  19  ar  
 33  17  33  1   
 34  18  21  1   
 35  18  34  1   
 36  18  35  1   
 37  20  36  1   
 38  20  37  1   
 39  20  38  1   
 40  21  22  1   
 41  21  39  1   
 42  21  40  1   
 43  22  41  1   
 44  22  42  1   
 45  22  43  1   
@<TRIPOS>SUBSTRUCTURE
  1 ****   3 GROUP 4 **** **** 0

# MOE 2024.06 (io_trps.svl 2023.06)
