@<TRIPOS>MOLECULE
NONAME
50 52 1 0 0 
SMALL
USER_CHARGES


@<TRIPOS>ATOM
  1 O       -0.3300     2.1960     2.9370 O.co2 1 <1>  -0.9000 
  2 C       -0.6250     2.0630     1.7460 C.2   1 <1>   0.9060 
  3 O       -0.0290     1.2800     0.9860 O.co2 1 <1>  -0.9000 
  4 C       -1.9230     2.7080     1.2030 C.3   1 <1>   0.4600 
  5 N       -2.6680     1.7610     0.2760 N.4   1 <1>  -0.9590 
  6 C       -1.6760     4.0220     0.4560 C.ar  1 <1>  -0.1430 
  7 C       -3.7690     2.3900    -0.4950 C.3   1 <1>   0.3430 
  8 C       -3.0450     0.5250     1.0090 C.3   1 <1>   0.3430 
  9 C       -2.3510     5.1900     0.8020 C.ar  1 <1>  -0.1440 
 10 C       -0.7810     4.0400    -0.6080 C.ar  1 <1>  -0.1500 
 11 C       -4.3610     1.3730    -1.4700 C.3   1 <1>  -0.1600 
 12 C       -3.6520    -0.4890     0.0390 C.3   1 <1>  -0.1600 
 13 C       -2.1370     6.3420     0.0620 C.ar  1 <1>  -0.1500 
 14 C       -3.3110     5.2420     1.9830 C.3   1 <1>  -0.0970 
 15 C       -0.5690     5.1930    -1.3410 C.ar  1 <1>  -0.1430 
 16 C       -4.8380     0.0830    -0.7720 C.3   1 <1>   0.0000 
 17 C       -1.2570     6.3450    -1.0040 C.ar  1 <1>  -0.1500 
 18 C        0.4150     5.1940    -2.4970 C.3   1 <1>  -0.0970 
 19 C       -6.0570     0.3820     0.1330 C.3   1 <1>  -0.1600 
 20 C       -5.2840    -0.9300    -1.8470 C.3   1 <1>  -0.1600 
 21 C       -6.7560    -0.8970     0.6140 C.3   1 <1>   0.1200 
 22 C       -6.0250    -2.1320    -1.2470 C.3   1 <1>   0.1200 
 23 O       -7.0980    -1.6740    -0.4880 O.3   1 <1>  -0.5600 
 24 H       -2.5330     2.9080     2.0630 H     1 <1>   0.0800 
 25 H       -1.9040     1.4750    -0.3590 H     1 <1>   0.4500 
 26 H       -3.3970     3.2390    -1.0470 H     1 <1>   0.0800 
 27 H       -4.5330     2.7360     0.1810 H     1 <1>   0.0800 
 28 H       -3.7540     0.7620     1.7840 H     1 <1>   0.0800 
 29 H       -2.1690     0.0930     1.4720 H     1 <1>   0.0800 
 30 H       -0.2350     3.1470    -0.8670 H     1 <1>   0.1500 
 31 H       -3.6130     1.1360    -2.2070 H     1 <1>   0.0800 
 32 H       -5.1820     1.8340    -1.9910 H     1 <1>   0.0800 
 33 H       -3.9540    -1.3530     0.6010 H     1 <1>   0.0800 
 34 H       -2.8730    -0.8120    -0.6300 H     1 <1>   0.0800 
 35 H       -2.6500     7.2540     0.3140 H     1 <1>   0.1500 
 36 H       -4.1370     4.5730     1.8290 H     1 <1>   0.0800 
 37 H       -3.7020     6.2350     2.1160 H     1 <1>   0.0800 
 38 H       -2.7940     4.9680     2.8860 H     1 <1>   0.0800 
 39 H       -1.1040     7.2500    -1.5650 H     1 <1>   0.1500 
 40 H        1.2100     4.4930    -2.3110 H     1 <1>   0.0800 
 41 H        0.8490     6.1700    -2.6210 H     1 <1>   0.0800 
 42 H       -0.0880     4.9180    -3.4060 H     1 <1>   0.0800 
 43 H       -6.7860     0.9500    -0.4190 H     1 <1>   0.0800 
 44 H       -5.7800     0.9690     0.9880 H     1 <1>   0.0800 
 45 H       -4.4370    -1.2810    -2.4100 H     1 <1>   0.0800 
 46 H       -5.9540    -0.4540    -2.5420 H     1 <1>   0.0800 
 47 H       -7.6670    -0.6550     1.1340 H     1 <1>   0.0800 
 48 H       -6.1310    -1.4820     1.2670 H     1 <1>   0.0800 
 49 H       -5.3850    -2.7290    -0.6200 H     1 <1>   0.0800 
 50 H       -6.4220    -2.7560    -2.0290 H     1 <1>   0.0800 
@<TRIPOS>BOND
  1   1   2  ar  
  2   2   3  ar  
  3   2   4  1   
  4   4   5  1   
  5   4   6  1   
  6   4  24  1   
  7   5   7  1   
  8   5   8  1   
  9   5  25  1   
 10   6   9  ar  
 11   6  10  ar  
 12   7  11  1   
 13   7  26  1   
 14   7  27  1   
 15   8  12  1   
 16   8  28  1   
 17   8  29  1   
 18   9  13  ar  
 19   9  14  1   
 20  10  15  ar  
 21  10  30  1   
 22  11  16  1   
 23  11  31  1   
 24  11  32  1   
 25  12  16  1   
 26  12  33  1   
 27  12  34  1   
 28  13  17  ar  
 29  13  35  1   
 30  14  36  1   
 31  14  37  1   
 32  14  38  1   
 33  15  17  ar  
 34  15  18  1   
 35  16  19  1   
 36  16  20  1   
 37  17  39  1   
 38  18  40  1   
 39  18  41  1   
 40  18  42  1   
 41  19  21  1   
 42  19  43  1   
 43  19  44  1   
 44  20  22  1   
 45  20  45  1   
 46  20  46  1   
 47  21  23  1   
 48  21  47  1   
 49  21  48  1   
 50  22  23  1   
 51  22  49  1   
 52  22  50  1   
@<TRIPOS>SUBSTRUCTURE
  1 ****   5 GROUP 4 **** **** 0

# MOE 2024.06 (io_trps.svl 2023.06)
