@<TRIPOS>MOLECULE
NONAME
44 46 1 0 0 
SMALL
USER_CHARGES


@<TRIPOS>ATOM
  1 O       -0.7480     0.0730     0.9170 O.2   1 <1>  -0.5700 
  2 C       -1.6580     0.7120     0.4060 C.2   1 <1>   0.6160 
  3 N       -1.6490     2.1010     0.4470 N.am  1 <1>  -0.4770 
  4 C       -2.7460     0.0420    -0.2410 C.2   1 <1>  -0.1240 
  5 C       -2.6850     2.8530    -0.1450 C.ar  1 <1>   0.1170 
  6 C       -0.5110     2.8060     1.1140 C.3   1 <1>   0.0600 
  7 C       -3.7400     0.7550    -0.8240 C.2   1 <1>  -0.1780 
  8 C       -2.7020    -1.4830    -0.2530 C.3   1 <1>   0.2480 
  9 C       -3.7410     2.1820    -0.7900 C.ar  1 <1>   0.0280 
 10 C       -2.7130     4.2530    -0.1200 C.ar  1 <1>  -0.1500 
 11 N       -4.0540    -2.0800    -0.3080 N.3   1 <1>  -0.8100 
 12 C       -4.7690     2.9180    -1.3830 C.ar  1 <1>  -0.1500 
 13 C       -3.7370     4.9640    -0.7080 C.ar  1 <1>  -0.1500 
 14 C       -3.9620    -3.5380    -0.5980 C.3   1 <1>   0.1100 
 15 C       -4.7660    -1.9000     0.9860 C.3   1 <1>   0.1100 
 16 C       -4.7710     4.2930    -1.3440 C.ar  1 <1>  -0.1500 
 17 C       -5.3340    -4.2580    -0.5580 C.3   1 <1>   0.3170 
 18 C       -6.1780    -2.5370     0.9870 C.3   1 <1>   0.3430 
 19 N       -6.4650    -3.2470    -0.3030 N.4   1 <1>  -0.9590 
 20 C       -5.2310    -5.4610     0.4090 C.2   1 <1>   0.9060 
 21 C       -7.7870    -3.9310    -0.2620 C.3   1 <1>   0.2630 
 22 O       -4.5730    -6.4380     0.0490 O.co2 1 <1>  -0.9000 
 23 O       -5.8190    -5.4170     1.5000 O.co2 1 <1>  -0.9000 
 24 H        0.2140     2.1150     1.5060 H     1 <1>   0.0800 
 25 H       -0.8840     3.3990     1.9290 H     1 <1>   0.0800 
 26 H       -0.0160     3.4420     0.4020 H     1 <1>   0.0800 
 27 H       -4.5550     0.2720    -1.3320 H     1 <1>   0.1500 
 28 H       -2.1920    -1.8530     0.6220 H     1 <1>   0.0800 
 29 H       -2.1350    -1.7920    -1.1150 H     1 <1>   0.0800 
 30 H       -1.9300     4.8060     0.3630 H     1 <1>   0.1500 
 31 H       -5.5700     2.4000    -1.8780 H     1 <1>   0.1500 
 32 H       -3.7400     6.0400    -0.6780 H     1 <1>   0.1500 
 33 H       -3.2960    -4.0070     0.1100 H     1 <1>   0.0800 
 34 H       -3.5310    -3.6840    -1.5730 H     1 <1>   0.0800 
 35 H       -4.8620    -0.8520     1.2100 H     1 <1>   0.0800 
 36 H       -4.1940    -2.3480     1.7820 H     1 <1>   0.0800 
 37 H       -5.5680     4.8520    -1.8040 H     1 <1>   0.1500 
 38 H       -5.4870    -4.7010    -1.5240 H     1 <1>   0.0800 
 39 H       -6.9110    -1.7670     1.1520 H     1 <1>   0.0800 
 40 H       -6.2450    -3.2320     1.8090 H     1 <1>   0.0800 
 41 H       -6.3770    -2.5450    -1.0470 H     1 <1>   0.4500 
 42 H       -7.8070    -4.6430     0.5490 H     1 <1>   0.0800 
 43 H       -7.9630    -4.4590    -1.1850 H     1 <1>   0.0800 
 44 H       -8.5760    -3.2130    -0.1130 H     1 <1>   0.0800 
@<TRIPOS>BOND
  1   1   2  2   
  2   2   3  am  
  3   2   4  1   
  4   3   5  1   
  5   3   6  1   
  6   4   7  2   
  7   4   8  1   
  8   5   9  ar  
  9   5  10  ar  
 10   6  24  1   
 11   6  25  1   
 12   6  26  1   
 13   7   9  1   
 14   7  27  1   
 15   8  11  1   
 16   8  28  1   
 17   8  29  1   
 18   9  12  ar  
 19  10  13  ar  
 20  10  30  1   
 21  11  14  1   
 22  11  15  1   
 23  12  16  ar  
 24  12  31  1   
 25  13  16  ar  
 26  13  32  1   
 27  14  17  1   
 28  14  33  1   
 29  14  34  1   
 30  15  18  1   
 31  15  35  1   
 32  15  36  1   
 33  16  37  1   
 34  17  19  1   
 35  17  20  1   
 36  17  38  1   
 37  18  19  1   
 38  18  39  1   
 39  18  40  1   
 40  19  21  1   
 41  19  41  1   
 42  20  22  ar  
 43  20  23  ar  
 44  21  42  1   
 45  21  43  1   
 46  21  44  1   
@<TRIPOS>SUBSTRUCTURE
  1 ****   4 GROUP 4 **** **** 0

# MOE 2024.06 (io_trps.svl 2023.06)
