@<TRIPOS>MOLECULE
NONAME
44 46 1 0 0 
SMALL
USER_CHARGES


@<TRIPOS>ATOM
  1 F        0.6330    -0.2350     0.5910 F     1 <1>  -0.3400 
  2 C       -0.2110    -1.2610     0.5210 C.3   1 <1>   1.1640 
  3 F       -0.4600    -1.5910     1.7840 F     1 <1>  -0.3400 
  4 F       -1.3320    -0.7520     0.0210 F     1 <1>  -0.3400 
  5 C        0.3610    -2.4070    -0.3090 C.ar  1 <1>  -0.1440 
  6 C       -0.3570    -3.5990    -0.4180 C.ar  1 <1>   0.4100 
  7 C        1.5850    -2.3040    -0.9480 C.ar  1 <1>  -0.1500 
  8 N        0.0870    -4.6670    -1.0760 N.ar  1 <1>  -0.6200 
  9 N       -1.5960    -3.7520     0.1670 N.pl3 1 <1>  -0.8380 
 10 C        2.0330    -3.4020    -1.6500 C.ar  1 <1>  -0.1500 
 11 C        1.2550    -4.5430    -1.6780 C.ar  1 <1>   0.1600 
 12 C       -1.8090    -4.9220     1.0720 C.3   1 <1>   0.2090 
 13 C       -2.8070    -3.3950    -0.6320 C.3   1 <1>   0.2090 
 14 C       -2.2830    -6.1620     0.2670 C.3   1 <1>   0.4230 
 15 C       -3.3070    -4.6170    -1.4140 C.3   1 <1>  -0.1600 
 16 N       -2.4620    -7.4120     1.0890 N.4   1 <1>  -0.9590 
 17 C       -3.5840    -5.8380    -0.4950 C.3   1 <1>  -0.1060 
 18 C       -2.7790    -8.5890     0.2430 C.3   1 <1>   0.3430 
 19 C       -1.3780    -7.6870     2.0670 C.3   1 <1>   0.2630 
 20 C       -4.6910    -5.5160     0.5270 C.2   1 <1>   0.9060 
 21 C       -3.9850    -7.0430    -1.3780 C.3   1 <1>  -0.1600 
 22 C       -4.0570    -8.3410    -0.5600 C.3   1 <1>  -0.1600 
 23 O       -4.6640    -6.0750     1.6370 O.co2 1 <1>  -0.9000 
 24 O       -5.5830    -4.7250     0.2270 O.co2 1 <1>  -0.9000 
 25 H        2.1850    -1.4090    -0.9090 H     1 <1>   0.1500 
 26 H        2.9750    -3.3750    -2.1680 H     1 <1>   0.1500 
 27 H        1.6160    -5.3970    -2.2260 H     1 <1>   0.1500 
 28 H       -0.8770    -5.1370     1.5610 H     1 <1>   0.0800 
 29 H       -2.5350    -4.6560     1.8210 H     1 <1>   0.0800 
 30 H       -3.5800    -3.0360     0.0290 H     1 <1>   0.0800 
 31 H       -2.5720    -2.6040    -1.3230 H     1 <1>   0.0800 
 32 H       -1.5180    -6.3590    -0.4640 H     1 <1>   0.0800 
 33 H       -4.2120    -4.3430    -1.9300 H     1 <1>   0.0800 
 34 H       -2.5740    -4.8660    -2.1600 H     1 <1>   0.0800 
 35 H       -3.3490    -7.1720     1.6100 H     1 <1>   0.4500 
 36 H       -1.9610    -8.7780    -0.4320 H     1 <1>   0.0800 
 37 H       -2.9180    -9.4580     0.8650 H     1 <1>   0.0800 
 38 H       -0.4380    -7.8170     1.5560 H     1 <1>   0.0800 
 39 H       -1.6020    -8.5810     2.6250 H     1 <1>   0.0800 
 40 H       -1.2890    -6.8690     2.7630 H     1 <1>   0.0800 
 41 H       -4.9450    -6.8500    -1.8300 H     1 <1>   0.0800 
 42 H       -3.2670    -7.1670    -2.1710 H     1 <1>   0.0800 
 43 H       -4.2260    -9.1710    -1.2220 H     1 <1>   0.0800 
 44 H       -4.8940    -8.2980     0.1170 H     1 <1>   0.0800 
@<TRIPOS>BOND
  1   1   2  1   
  2   2   3  1   
  3   2   4  1   
  4   2   5  1   
  5   5   6  ar  
  6   5   7  ar  
  7   6   8  ar  
  8   6   9  1   
  9   7  10  ar  
 10   7  25  1   
 11   8  11  ar  
 12   9  12  1   
 13   9  13  1   
 14  10  11  ar  
 15  10  26  1   
 16  11  27  1   
 17  12  14  1   
 18  12  28  1   
 19  12  29  1   
 20  13  15  1   
 21  13  30  1   
 22  13  31  1   
 23  14  16  1   
 24  14  17  1   
 25  14  32  1   
 26  15  17  1   
 27  15  33  1   
 28  15  34  1   
 29  16  18  1   
 30  16  19  1   
 31  16  35  1   
 32  17  20  1   
 33  17  21  1   
 34  18  22  1   
 35  18  36  1   
 36  18  37  1   
 37  19  38  1   
 38  19  39  1   
 39  19  40  1   
 40  20  23  ar  
 41  20  24  ar  
 42  21  22  1   
 43  21  41  1   
 44  21  42  1   
 45  22  43  1   
 46  22  44  1   
@<TRIPOS>SUBSTRUCTURE
  1 ****   9 GROUP 4 **** **** 0

# MOE 2024.06 (io_trps.svl 2023.06)
