@<TRIPOS>MOLECULE
NONAME
45 46 1 0 0 
SMALL
USER_CHARGES


@<TRIPOS>ATOM
  1 O        1.2040     2.2300    -0.7430 O.co2 1 <1>  -0.9000 
  2 C        0.3350     2.2450     0.1320 C.2   1 <1>   0.9060 
  3 O        0.0040     1.2610     0.7870 O.co2 1 <1>  -0.9000 
  4 C       -0.3180     3.5510     0.4400 C.3   1 <1>  -0.1860 
  5 C       -1.1540     3.9800    -0.7690 C.3   1 <1>   0.2000 
  6 C        0.8420     4.4880     0.7500 C.3   1 <1>   0.3430 
  7 O       -2.3290     4.5540    -0.3090 O.3   1 <1>  -0.6800 
  8 C       -0.4250     5.0270    -1.6080 C.3   1 <1>  -0.1600 
  9 N        0.4360     5.9160     0.6060 N.4   1 <1>  -0.9590 
 10 C       -0.0490     6.2550    -0.7750 C.3   1 <1>   0.3430 
 11 C       -0.5450     6.3110     1.6590 C.3   1 <1>   0.3430 
 12 C       -0.6310     7.8360     1.8210 C.3   1 <1>   0.1200 
 13 O        0.6770     8.3770     1.8990 O.3   1 <1>  -0.3630 
 14 C        1.1770     9.0070     0.8040 C.ar  1 <1>   0.0830 
 15 C        2.3220     8.5100     0.1780 C.ar  1 <1>   0.0830 
 16 C        0.5540    10.1440     0.3170 C.ar  1 <1>  -0.1500 
 17 O        2.8990     7.3860     0.6930 O.3   1 <1>  -0.3630 
 18 C        2.8140     9.1590    -0.9510 C.ar  1 <1>  -0.1500 
 19 C        1.0520    10.7780    -0.8070 C.ar  1 <1>  -0.1500 
 20 C        4.2030     6.9970     0.3130 C.3   1 <1>   0.0400 
 21 C        2.1780    10.2870    -1.4470 C.ar  1 <1>  -0.1430 
 22 C        2.7220    10.9900    -2.6780 C.3   1 <1>  -0.0970 
 23 H       -0.9310     3.4030     1.3090 H     1 <1>   0.0800 
 24 H       -1.4200     3.1280    -1.3780 H     1 <1>   0.0800 
 25 H        1.6450     4.2870     0.0580 H     1 <1>   0.0800 
 26 H        1.2120     4.2920     1.7430 H     1 <1>   0.0800 
 27 H       -2.9170     3.8410     0.0170 H     1 <1>   0.4000 
 28 H        0.4680     4.5860    -2.0160 H     1 <1>   0.0800 
 29 H       -1.0390     5.3200    -2.4400 H     1 <1>   0.0800 
 30 H        1.2800     6.4990     0.7810 H     1 <1>   0.4500 
 31 H       -0.9170     6.8880    -0.6980 H     1 <1>   0.0800 
 32 H        0.7140     6.8100    -1.2970 H     1 <1>   0.0800 
 33 H       -1.5180     5.9130     1.4240 H     1 <1>   0.0800 
 34 H       -0.2400     5.8900     2.6020 H     1 <1>   0.0800 
 35 H       -1.1430     8.0810     2.7340 H     1 <1>   0.0800 
 36 H       -1.1630     8.2770     0.9980 H     1 <1>   0.0800 
 37 H       -0.3110    10.5430     0.8160 H     1 <1>   0.1500 
 38 H        3.6890     8.8000    -1.4580 H     1 <1>   0.1500 
 39 H        0.5620    11.6630    -1.1790 H     1 <1>   0.1500 
 40 H        4.5020     6.1700     0.9320 H     1 <1>   0.0800 
 41 H        4.8730     7.8250     0.4650 H     1 <1>   0.0800 
 42 H        4.1950     6.6940    -0.7190 H     1 <1>   0.0800 
 43 H        1.9360    11.5070    -3.1980 H     1 <1>   0.0800 
 44 H        3.1630    10.2790    -3.3540 H     1 <1>   0.0800 
 45 H        3.4720    11.7040    -2.3880 H     1 <1>   0.0800 
@<TRIPOS>BOND
  1   1   2  ar  
  2   2   3  ar  
  3   2   4  1   
  4   4   5  1   
  5   4   6  1   
  6   4  23  1   
  7   5   7  1   
  8   5   8  1   
  9   5  24  1   
 10   6   9  1   
 11   6  25  1   
 12   6  26  1   
 13   7  27  1   
 14   8  10  1   
 15   8  28  1   
 16   8  29  1   
 17   9  10  1   
 18   9  11  1   
 19   9  30  1   
 20  10  31  1   
 21  10  32  1   
 22  11  12  1   
 23  11  33  1   
 24  11  34  1   
 25  12  13  1   
 26  12  35  1   
 27  12  36  1   
 28  13  14  1   
 29  14  15  ar  
 30  14  16  ar  
 31  15  17  1   
 32  15  18  ar  
 33  16  19  ar  
 34  16  37  1   
 35  17  20  1   
 36  18  21  ar  
 37  18  38  1   
 38  19  21  ar  
 39  19  39  1   
 40  20  40  1   
 41  20  41  1   
 42  20  42  1   
 43  21  22  1   
 44  22  43  1   
 45  22  44  1   
 46  22  45  1   
@<TRIPOS>SUBSTRUCTURE
  1 ****   9 GROUP 4 **** **** 0

# MOE 2024.06 (io_trps.svl 2023.06)
