@<TRIPOS>MOLECULE
NONAME
55 58 1 0 0 
SMALL
USER_CHARGES


@<TRIPOS>ATOM
  1 O       -1.7650    -0.8670    -2.6160 O.2   1 <1>  -0.5700 
  2 C       -1.9660    -1.0520    -1.4290 C.2   1 <1>   0.5440 
  3 N       -1.6670    -2.3200    -0.9320 N.am  1 <1>  -0.6600 
  4 C       -2.4930     0.0620    -0.6260 C.ar  1 <1>   0.3960 
  5 C       -1.6170    -2.6180     0.5380 C.3   1 <1>   0.2200 
  6 C       -1.3000    -3.4090    -1.8830 C.3   1 <1>   0.1400 
  7 N       -3.3470    -0.1710     0.3920 N.ar  1 <1>  -0.6200 
  8 C       -2.0950     1.3610    -0.9490 C.ar  1 <1>  -0.1500 
  9 C       -0.4220    -3.5200     0.9430 C.3   1 <1>   0.1200 
 10 C       -2.9940    -3.1560     1.0070 C.3   1 <1>   0.3430 
 11 C       -1.7280    -4.7990    -1.4050 C.3   1 <1>  -0.0800 
 12 C       -3.7930     0.8760     1.0620 C.ar  1 <1>   0.1660 
 13 C       -2.5590     2.4450    -0.2400 C.ar  1 <1>  -0.1500 
 14 O       -0.6980    -4.8920     0.8230 O.3   1 <1>  -0.5600 
 15 N       -3.3070    -4.5560     0.5640 N.4   1 <1>  -0.9590 
 16 C       -0.6760    -5.4310    -0.4670 C.3   1 <1>   0.1200 
 17 C       -3.1870    -4.8130    -0.9050 C.3   1 <1>   0.3430 
 18 C       -3.4320     2.1850     0.7900 C.ar  1 <1>  -0.1500 
 19 C       -4.7610     0.5870     2.1900 C.3   1 <1>  -0.0970 
 20 C       -4.5630    -5.0800     1.1410 C.3   1 <1>   0.5240 
 21 C       -4.5420    -6.5790     0.9610 C.2   1 <1>  -0.1810 
 22 C       -5.3930    -7.3340     0.1600 C.2   1 <1>   0.1080 
 23 C       -3.6960    -7.4820     1.5080 C.2   1 <1>  -0.3020 
 24 N       -5.0950    -8.5910     0.1960 N.2   1 <1>  -0.7070 
 25 C       -6.5480    -6.8260    -0.6770 C.3   1 <1>  -0.0590 
 26 N       -4.0540    -8.6910     1.0350 N.pl3 1 <1>   0.3140 
 27 C       -3.4480    -9.9900     1.3500 C.3   1 <1>   0.0160 
 28 H       -1.4480    -1.6860     1.0460 H     1 <1>   0.0800 
 29 H       -1.7800    -3.2250    -2.8300 H     1 <1>   0.0800 
 30 H       -0.2380    -3.3800    -2.0590 H     1 <1>   0.0800 
 31 H       -1.4170     1.5140    -1.7700 H     1 <1>   0.1500 
 32 H       -0.2010    -3.3500     1.9820 H     1 <1>   0.0800 
 33 H        0.4620    -3.2770     0.3770 H     1 <1>   0.0800 
 34 H       -3.7600    -2.4880     0.6510 H     1 <1>   0.0800 
 35 H       -3.0090    -3.1230     2.0830 H     1 <1>   0.0800 
 36 H       -1.7150    -5.4050    -2.2940 H     1 <1>   0.0800 
 37 H       -2.2570     3.4500    -0.4840 H     1 <1>   0.1500 
 38 H       -2.5400    -5.1280     0.9660 H     1 <1>   0.4500 
 39 H        0.3180    -5.3140    -0.8660 H     1 <1>   0.0800 
 40 H       -0.8690    -6.4860    -0.3670 H     1 <1>   0.0800 
 41 H       -3.5910    -5.7900    -1.1210 H     1 <1>   0.0800 
 42 H       -3.7670    -4.0900    -1.4560 H     1 <1>   0.0800 
 43 H       -3.8280     2.9970     1.3730 H     1 <1>   0.1500 
 44 H       -5.0940     1.4960     2.6570 H     1 <1>   0.0800 
 45 H       -4.2830    -0.0240     2.9330 H     1 <1>   0.0800 
 46 H       -5.6190     0.0660     1.8060 H     1 <1>   0.0800 
 47 H       -4.6150    -4.8520     2.1930 H     1 <1>   0.0800 
 48 H       -5.4170    -4.6490     0.6460 H     1 <1>   0.0800 
 49 H       -2.8770    -7.3490     2.1920 H     1 <1>   0.1500 
 50 H       -6.3410    -5.8520    -1.0760 H     1 <1>   0.0800 
 51 H       -7.4380    -6.7870    -0.0760 H     1 <1>   0.0800 
 52 H       -6.7220    -7.5020    -1.4950 H     1 <1>   0.0800 
 53 H       -2.6340    -9.8560     2.0380 H     1 <1>   0.0800 
 54 H       -3.0890   -10.4370     0.4410 H     1 <1>   0.0800 
 55 H       -4.1950   -10.6240     1.7890 H     1 <1>   0.0800 
@<TRIPOS>BOND
  1   1   2  2   
  2   2   3  am  
  3   2   4  1   
  4   3   5  1   
  5   3   6  1   
  6   4   7  ar  
  7   4   8  ar  
  8   5   9  1   
  9   5  10  1   
 10   5  28  1   
 11   6  11  1   
 12   6  29  1   
 13   6  30  1   
 14   7  12  ar  
 15   8  13  ar  
 16   8  31  1   
 17   9  14  1   
 18   9  32  1   
 19   9  33  1   
 20  10  15  1   
 21  10  34  1   
 22  10  35  1   
 23  11  16  1   
 24  11  17  1   
 25  11  36  1   
 26  12  18  ar  
 27  12  19  1   
 28  13  18  ar  
 29  13  37  1   
 30  14  16  1   
 31  15  17  1   
 32  15  20  1   
 33  15  38  1   
 34  16  39  1   
 35  16  40  1   
 36  17  41  1   
 37  17  42  1   
 38  18  43  1   
 39  19  44  1   
 40  19  45  1   
 41  19  46  1   
 42  20  21  1   
 43  20  47  1   
 44  20  48  1   
 45  21  22  1   
 46  21  23  2   
 47  22  24  2   
 48  22  25  1   
 49  23  26  1   
 50  23  49  1   
 51  24  26  1   
 52  25  50  1   
 53  25  51  1   
 54  25  52  1   
 55  26  27  1   
 56  27  53  1   
 57  27  54  1   
 58  27  55  1   
@<TRIPOS>SUBSTRUCTURE
  1 ****  10 GROUP 4 **** **** 0

# MOE 2024.06 (io_trps.svl 2023.06)
