@<TRIPOS>MOLECULE
NONAME
47 49 1 0 0 
SMALL
USER_CHARGES


@<TRIPOS>ATOM
  1 O       -2.5170    -0.3100    -1.3250 O.2   1 <1>  -0.5700 
  2 C       -2.5620     0.4620    -0.3710 C.2   1 <1>   0.6160 
  3 N       -2.1040     1.7720    -0.5550 N.am  1 <1>  -0.4690 
  4 C       -3.0890     0.0750     0.9080 C.2   1 <1>   0.0290 
  5 C       -2.1890     2.6960     0.4700 C.2   1 <1>  -0.0290 
  6 C       -1.5150     2.1650    -1.8750 C.3   1 <1>   0.0600 
  7 C       -3.5390    -1.2740     1.1540 C.2   1 <1>   0.6160 
  8 C       -3.1350     1.0170     1.9050 C.2   1 <1>  -0.1500 
  9 C       -2.6930     2.3310     1.6800 C.2   1 <1>  -0.1500 
 10 C       -1.7170     4.1260     0.2430 C.3   1 <1>  -0.1020 
 11 O       -3.3750    -1.7520     2.2640 O.2   1 <1>  -0.5700 
 12 N       -4.2290    -2.0310     0.2360 N.am  1 <1>  -0.6600 
 13 C       -4.1330    -3.5320     0.2760 C.3   1 <1>   0.3640 
 14 C       -5.3290    -1.4330    -0.5710 C.3   1 <1>   0.1400 
 15 C       -2.6520    -3.9360     0.3080 C.ar  1 <1>  -0.1440 
 16 C       -4.8130    -4.2610    -0.9270 C.3   1 <1>   0.2000 
 17 C       -5.5820    -2.2420    -1.8410 C.3   1 <1>   0.1200 
 18 C       -1.7750    -3.5150    -0.6840 C.ar  1 <1>  -0.1500 
 19 C       -2.1670    -4.7340     1.3350 C.ar  1 <1>  -0.1500 
 20 O       -5.8900    -3.5510    -1.4820 O.3   1 <1>  -0.5600 
 21 C       -5.3640    -5.6510    -0.5640 C.3   1 <1>   0.1200 
 22 C       -0.4450    -3.8950    -0.6580 C.ar  1 <1>  -0.1500 
 23 C       -0.8370    -5.1160     1.3630 C.ar  1 <1>  -0.1500 
 24 O       -4.4270    -6.4370     0.1010 O.3   1 <1>  -0.6800 
 25 C        0.0250    -4.6990     0.3650 C.ar  1 <1>  -0.1500 
 26 H       -2.1870     2.8340    -2.3820 H     1 <1>   0.0800 
 27 H       -1.3410     1.3110    -2.5050 H     1 <1>   0.0800 
 28 H       -0.5690     2.6540    -1.7230 H     1 <1>   0.0800 
 29 H       -3.5100     0.7620     2.8820 H     1 <1>   0.1500 
 30 H       -2.7630     3.0310     2.4940 H     1 <1>   0.1500 
 31 H       -0.6610     4.1420     0.0390 H     1 <1>   0.0800 
 32 H       -1.8960     4.7290     1.1150 H     1 <1>   0.0800 
 33 H       -2.2460     4.5670    -0.5820 H     1 <1>   0.0800 
 34 H       -4.6070    -3.8640     1.1830 H     1 <1>   0.0800 
 35 H       -6.2290    -1.4170     0.0180 H     1 <1>   0.0800 
 36 H       -5.0900    -0.4210    -0.8430 H     1 <1>   0.0800 
 37 H       -4.0940    -4.3840    -1.7170 H     1 <1>   0.0800 
 38 H       -4.7180    -2.2360    -2.4840 H     1 <1>   0.0800 
 39 H       -6.4230    -1.8400    -2.3770 H     1 <1>   0.0800 
 40 H       -2.1250    -2.8780    -1.4780 H     1 <1>   0.1500 
 41 H       -2.8270    -5.0590     2.1210 H     1 <1>   0.1500 
 42 H       -5.6580    -6.1720    -1.4580 H     1 <1>   0.0800 
 43 H       -6.2160    -5.5510     0.0850 H     1 <1>   0.0800 
 44 H        0.2230    -3.5580    -1.4310 H     1 <1>   0.1500 
 45 H       -0.4750    -5.7350     2.1650 H     1 <1>   0.1500 
 46 H       -3.5470    -6.3830    -0.3270 H     1 <1>   0.4000 
 47 H        1.0600    -4.9930     0.3880 H     1 <1>   0.1500 
@<TRIPOS>BOND
  1   1   2  2   
  2   2   3  am  
  3   2   4  1   
  4   3   5  1   
  5   3   6  1   
  6   4   7  1   
  7   4   8  2   
  8   5   9  2   
  9   5  10  1   
 10   6  26  1   
 11   6  27  1   
 12   6  28  1   
 13   7  11  2   
 14   7  12  am  
 15   8   9  1   
 16   8  29  1   
 17   9  30  1   
 18  10  31  1   
 19  10  32  1   
 20  10  33  1   
 21  12  13  1   
 22  12  14  1   
 23  13  15  1   
 24  13  16  1   
 25  13  34  1   
 26  14  17  1   
 27  14  35  1   
 28  14  36  1   
 29  15  18  ar  
 30  15  19  ar  
 31  16  20  1   
 32  16  21  1   
 33  16  37  1   
 34  17  20  1   
 35  17  38  1   
 36  17  39  1   
 37  18  22  ar  
 38  18  40  1   
 39  19  23  ar  
 40  19  41  1   
 41  21  24  1   
 42  21  42  1   
 43  21  43  1   
 44  22  25  ar  
 45  22  44  1   
 46  23  25  ar  
 47  23  45  1   
 48  24  46  1   
 49  25  47  1   
@<TRIPOS>SUBSTRUCTURE
  1 ****  12 GROUP 4 **** **** 0

# MOE 2024.06 (io_trps.svl 2023.06)
