@<TRIPOS>MOLECULE
NONAME
54 56 1 0 0 
SMALL
USER_CHARGES


@<TRIPOS>ATOM
  1 S       -0.2600    -0.0030     1.1310 S.o2  1 <1>   1.4470 
  2 O        0.0570    -1.3780     1.4760 O.2   1 <1>  -0.6500 
  3 O       -0.9060     0.7930     2.1510 O.2   1 <1>  -0.6500 
  4 N       -1.3210    -0.1310    -0.2020 N.am  1 <1>  -0.8490 
  5 C        1.2170     0.8130     0.4750 C.ar  1 <1>  -0.0090 
  6 C       -1.4790    -1.4800    -0.7500 C.3   1 <1>   0.1960 
  7 C       -2.5990     0.5810    -0.0710 C.3   1 <1>   0.1960 
  8 C        1.1490     2.0870    -0.0820 C.ar  1 <1>   0.0820 
  9 C        2.4530     0.1770     0.5210 C.ar  1 <1>  -0.1500 
 10 C       -2.4180    -2.3380     0.1410 C.3   1 <1>   0.4230 
 11 C       -3.5880    -0.2190     0.7960 C.3   1 <1>  -0.1600 
 12 O       -0.0620     2.7000    -0.1120 O.3   1 <1>  -0.3630 
 13 C        2.2980     2.6930    -0.5860 C.ar  1 <1>  -0.1500 
 14 C        3.5990     0.7760     0.0240 C.ar  1 <1>  -0.1440 
 15 N       -2.4660    -3.8130    -0.2340 N.4   1 <1>  -0.9590 
 16 C       -3.8170    -1.6770     0.3060 C.3   1 <1>   0.0000 
 17 C       -0.2090     4.0540    -0.4800 C.3   1 <1>   0.0400 
 18 C        3.5130     2.0390    -0.5330 C.ar  1 <1>  -0.1500 
 19 C        4.9330     0.0550     0.0890 C.3   1 <1>  -0.0970 
 20 C       -3.6450    -4.5480     0.3300 C.3   1 <1>   0.3430 
 21 C       -2.3180    -4.1180    -1.6940 C.3   1 <1>   0.2630 
 22 C       -4.6270    -2.4510     1.3880 C.3   1 <1>  -0.1600 
 23 C       -4.5790    -1.6800    -1.0500 C.3   1 <1>   0.1200 
 24 C       -4.1330    -3.8920     1.6210 C.3   1 <1>  -0.1600 
 25 O       -5.7410    -0.9290    -0.9880 O.3   1 <1>  -0.6800 
 26 H       -1.8760    -1.3940    -1.7450 H     1 <1>   0.0800 
 27 H       -0.5110    -1.9470    -0.8260 H     1 <1>   0.0800 
 28 H       -2.4370     1.5570     0.3570 H     1 <1>   0.0800 
 29 H       -3.0210     0.7340    -1.0500 H     1 <1>   0.0800 
 30 H        2.5230    -0.8050     0.9560 H     1 <1>   0.1500 
 31 H       -1.9830    -2.3030     1.1260 H     1 <1>   0.0800 
 32 H       -3.2110    -0.2270     1.8040 H     1 <1>   0.0800 
 33 H       -4.5180     0.3200     0.8340 H     1 <1>   0.0800 
 34 H        2.2680     3.6720    -1.0260 H     1 <1>   0.1500 
 35 H       -1.6380    -4.2100     0.2400 H     1 <1>   0.4500 
 36 H       -1.2400     4.3260    -0.3460 H     1 <1>   0.0800 
 37 H        0.0670     4.1690    -1.5130 H     1 <1>   0.0800 
 38 H        0.4130     4.6590     0.1570 H     1 <1>   0.0800 
 39 H        4.3940     2.5170    -0.9260 H     1 <1>   0.1500 
 40 H        5.7390     0.7620     0.1790 H     1 <1>   0.0800 
 41 H        5.0790    -0.5230    -0.8060 H     1 <1>   0.0800 
 42 H        4.9660    -0.6040     0.9380 H     1 <1>   0.0800 
 43 H       -4.4540    -4.5400    -0.3830 H     1 <1>   0.0800 
 44 H       -3.3800    -5.5760     0.5200 H     1 <1>   0.0800 
 45 H       -3.1310    -3.6860    -2.2550 H     1 <1>   0.0800 
 46 H       -2.3190    -5.1840    -1.8550 H     1 <1>   0.0800 
 47 H       -1.3890    -3.7220    -2.0720 H     1 <1>   0.0800 
 48 H       -4.5790    -1.9410     2.3360 H     1 <1>   0.0800 
 49 H       -5.6690    -2.4790     1.1220 H     1 <1>   0.0800 
 50 H       -4.8570    -2.6760    -1.3430 H     1 <1>   0.0800 
 51 H       -3.9870    -1.2470    -1.8360 H     1 <1>   0.0800 
 52 H       -4.9370    -4.4770     2.0350 H     1 <1>   0.0800 
 53 H       -3.3350    -3.8990     2.3440 H     1 <1>   0.0800 
 54 H       -6.3640    -1.2640    -0.3130 H     1 <1>   0.4000 
@<TRIPOS>BOND
  1   1   2  2   
  2   1   3  2   
  3   1   4  am  
  4   1   5  1   
  5   4   6  1   
  6   4   7  1   
  7   5   8  ar  
  8   5   9  ar  
  9   6  10  1   
 10   6  26  1   
 11   6  27  1   
 12   7  11  1   
 13   7  28  1   
 14   7  29  1   
 15   8  12  1   
 16   8  13  ar  
 17   9  14  ar  
 18   9  30  1   
 19  10  15  1   
 20  10  16  1   
 21  10  31  1   
 22  11  16  1   
 23  11  32  1   
 24  11  33  1   
 25  12  17  1   
 26  13  18  ar  
 27  13  34  1   
 28  14  18  ar  
 29  14  19  1   
 30  15  20  1   
 31  15  21  1   
 32  15  35  1   
 33  16  22  1   
 34  16  23  1   
 35  17  36  1   
 36  17  37  1   
 37  17  38  1   
 38  18  39  1   
 39  19  40  1   
 40  19  41  1   
 41  19  42  1   
 42  20  24  1   
 43  20  43  1   
 44  20  44  1   
 45  21  45  1   
 46  21  46  1   
 47  21  47  1   
 48  22  24  1   
 49  22  48  1   
 50  22  49  1   
 51  23  25  1   
 52  23  50  1   
 53  23  51  1   
 54  24  52  1   
 55  24  53  1   
 56  25  54  1   
@<TRIPOS>SUBSTRUCTURE
  1 ****   4 GROUP 4 **** **** 0

# MOE 2024.06 (io_trps.svl 2023.06)
