@<TRIPOS>MOLECULE
NONAME
59 62 1 0 0 
SMALL
USER_CHARGES


@<TRIPOS>ATOM
  1 O       -0.2170    -0.6680    -0.9460 O.2   1 <1>  -0.5700 
  2 C        0.7890    -0.0640    -0.5990 C.2   1 <1>   0.5440 
  3 N        0.6450     1.1060     0.1040 N.am  1 <1>  -0.6600 
  4 C        2.0920    -0.5920    -0.9090 C.ar  1 <1>   0.0860 
  5 C        1.7570     1.8290     0.7680 C.3   1 <1>   0.1400 
  6 C       -0.6600     1.7160     0.4420 C.3   1 <1>   0.1400 
  7 C        2.5510    -1.7630    -0.2830 C.ar  1 <1>   0.4100 
  8 C        2.9160     0.0100    -1.8490 C.ar  1 <1>  -0.1500 
  9 C        1.1050     3.0510     1.4040 C.3   1 <1>  -0.1600 
 10 C       -0.3560     2.6580     1.6010 C.3   1 <1>  -0.1600 
 11 N        3.7030    -2.3560    -0.5720 N.ar  1 <1>  -0.6200 
 12 N        1.7920    -2.3810     0.6830 N.pl3 1 <1>  -0.8690 
 13 C        4.1240    -0.5890    -2.1270 C.ar  1 <1>  -0.1500 
 14 C        4.4620    -1.7600    -1.4700 C.ar  1 <1>   0.1600 
 15 C        1.5850    -3.8600     0.7660 C.3   1 <1>   0.2090 
 16 C        0.2590    -4.3510     0.0980 C.3   1 <1>   0.1430 
 17 C        0.0710    -5.8820     0.3060 C.ar  1 <1>  -0.1430 
 18 C        0.3640    -4.0810    -1.4270 C.3   1 <1>  -0.1600 
 19 C       -0.9290    -3.5840     0.7550 C.3   1 <1>  -0.1600 
 20 C       -1.0950    -6.5290    -0.1000 C.ar  1 <1>  -0.1500 
 21 C        1.0580    -6.6780     0.8920 C.ar  1 <1>  -0.1500 
 22 C       -0.9640    -3.9510    -2.1570 C.3   1 <1>   0.3430 
 23 C       -2.1810    -3.4090    -0.1020 C.3   1 <1>   0.3430 
 24 C       -1.2760    -7.8890     0.0770 C.ar  1 <1>  -0.1500 
 25 C        0.8820    -8.0380     1.0710 C.ar  1 <1>  -0.1500 
 26 N       -1.8000    -2.9460    -1.4570 N.4   1 <1>  -0.9590 
 27 C       -0.2860    -8.6490     0.6650 C.ar  1 <1>  -0.1500 
 28 C       -2.9850    -2.5460    -2.2660 C.3   1 <1>   0.2630 
 29 H        2.5140     2.1180     0.0590 H     1 <1>   0.0800 
 30 H        2.1900     1.1970     1.5250 H     1 <1>   0.0800 
 31 H       -1.3820     0.9680     0.7180 H     1 <1>   0.0800 
 32 H       -1.0180     2.2700    -0.4090 H     1 <1>   0.0800 
 33 H        2.6120     0.9150    -2.3470 H     1 <1>   0.1500 
 34 H        1.1710     3.8790     0.7200 H     1 <1>   0.0800 
 35 H        1.5840     3.3240     2.3280 H     1 <1>   0.0800 
 36 H       -0.4700     2.1230     2.5270 H     1 <1>   0.0800 
 37 H       -1.0130     3.5100     1.6060 H     1 <1>   0.0800 
 38 H        1.0540    -1.8200     1.1140 H     1 <1>   0.4000 
 39 H        4.8000    -0.1620    -2.8470 H     1 <1>   0.1500 
 40 H        5.4050    -2.2270    -1.6990 H     1 <1>   0.1500 
 41 H        1.5830    -4.1330     1.8070 H     1 <1>   0.0800 
 42 H        2.4210    -4.3540     0.3010 H     1 <1>   0.0800 
 43 H        0.9400    -4.8650    -1.8860 H     1 <1>   0.0800 
 44 H        0.8950    -3.1730    -1.6240 H     1 <1>   0.0800 
 45 H       -0.6430    -2.5900     1.0360 H     1 <1>   0.0800 
 46 H       -1.2020    -4.0800     1.6700 H     1 <1>   0.0800 
 47 H       -1.8990    -6.0060    -0.5680 H     1 <1>   0.1500 
 48 H        1.9980    -6.2830     1.2300 H     1 <1>   0.1500 
 49 H       -1.4690    -4.9010    -2.1910 H     1 <1>   0.0800 
 50 H       -0.7770    -3.6320    -3.1700 H     1 <1>   0.0800 
 51 H       -2.8220    -2.6790     0.3650 H     1 <1>   0.0800 
 52 H       -2.7280    -4.3320    -0.1660 H     1 <1>   0.0800 
 53 H       -2.1880    -8.3640    -0.2440 H     1 <1>   0.1500 
 54 H        1.6600    -8.6260     1.5280 H     1 <1>   0.1500 
 55 H       -1.2050    -2.0940    -1.3250 H     1 <1>   0.4500 
 56 H       -0.4220    -9.7080     0.8060 H     1 <1>   0.1500 
 57 H       -3.6330    -3.3920    -2.4290 H     1 <1>   0.0800 
 58 H       -2.6680    -2.1610    -3.2210 H     1 <1>   0.0800 
 59 H       -3.5400    -1.7760    -1.7550 H     1 <1>   0.0800 
@<TRIPOS>BOND
  1   1   2  2   
  2   2   3  am  
  3   2   4  1   
  4   3   5  1   
  5   3   6  1   
  6   4   7  ar  
  7   4   8  ar  
  8   5   9  1   
  9   5  29  1   
 10   5  30  1   
 11   6  10  1   
 12   6  31  1   
 13   6  32  1   
 14   7  11  ar  
 15   7  12  1   
 16   8  13  ar  
 17   8  33  1   
 18   9  10  1   
 19   9  34  1   
 20   9  35  1   
 21  10  36  1   
 22  10  37  1   
 23  11  14  ar  
 24  12  15  1   
 25  12  38  1   
 26  13  14  ar  
 27  13  39  1   
 28  14  40  1   
 29  15  16  1   
 30  15  41  1   
 31  15  42  1   
 32  16  17  1   
 33  16  18  1   
 34  16  19  1   
 35  17  20  ar  
 36  17  21  ar  
 37  18  22  1   
 38  18  43  1   
 39  18  44  1   
 40  19  23  1   
 41  19  45  1   
 42  19  46  1   
 43  20  24  ar  
 44  20  47  1   
 45  21  25  ar  
 46  21  48  1   
 47  22  26  1   
 48  22  49  1   
 49  22  50  1   
 50  23  26  1   
 51  23  51  1   
 52  23  52  1   
 53  24  27  ar  
 54  24  53  1   
 55  25  27  ar  
 56  25  54  1   
 57  26  28  1   
 58  26  55  1   
 59  27  56  1   
 60  28  57  1   
 61  28  58  1   
 62  28  59  1   
@<TRIPOS>SUBSTRUCTURE
  1 ****  12 GROUP 4 **** **** 0

# MOE 2024.06 (io_trps.svl 2023.06)
