@<TRIPOS>MOLECULE
NONAME
44 45 1 0 0 
SMALL
USER_CHARGES


@<TRIPOS>ATOM
  1 O       -0.7280     1.2020    -1.7670 O.co2 1 <1>  -0.9000 
  2 C       -0.0730     1.8090    -0.9040 C.2   1 <1>   0.9060 
  3 O        1.1410     1.9920    -1.0000 O.co2 1 <1>  -0.9000 
  4 C       -0.8110     2.2200     0.3990 C.3   1 <1>   0.4600 
  5 N       -2.0180     1.3420     0.7130 N.4   1 <1>  -0.9590 
  6 C       -1.2330     3.6940     0.4490 C.ar  1 <1>  -0.1430 
  7 C       -3.1570     1.6410    -0.1960 C.3   1 <1>   0.5240 
  8 C       -2.3890     1.3270     2.1530 C.3   1 <1>   0.2630 
  9 C       -1.6900     4.3580    -0.6850 C.ar  1 <1>  -0.1500 
 10 C       -1.1690     4.3850     1.6530 C.ar  1 <1>  -0.1500 
 11 C       -4.1910     0.5510    -0.0160 C.2   1 <1>  -0.1810 
 12 C       -2.1080     5.6760    -0.6170 C.ar  1 <1>   0.0830 
 13 C       -1.5620     5.7110     1.7240 C.ar  1 <1>  -0.1500 
 14 C       -4.2100    -0.7070    -0.5120 C.2   1 <1>  -0.3320 
 15 C       -5.3560     0.6580     0.7350 C.2   1 <1>   0.1390 
 16 O       -2.5920     6.2300    -1.7570 O.3   1 <1>  -0.3630 
 17 C       -2.0200     6.3670     0.5960 C.ar  1 <1>   0.0830 
 18 N       -5.3380    -1.2850    -0.0480 N.pl3 1 <1>   0.3000 
 19 C       -3.2190    -1.4140    -1.4260 C.3   1 <1>  -0.0600 
 20 N       -6.0410    -0.4410     0.7320 N.2   1 <1>  -0.7070 
 21 C       -3.9230     6.6980    -1.7370 C.3   1 <1>   0.0400 
 22 O       -2.3510     7.6740     0.7260 O.3   1 <1>  -0.3630 
 23 C       -1.5030     8.5930     0.0720 C.3   1 <1>   0.0400 
 24 H       -0.0790     2.0720     1.1710 H     1 <1>   0.0800 
 25 H       -1.7290     0.4030     0.3990 H     1 <1>   0.4500 
 26 H       -2.8260     1.6460    -1.2220 H     1 <1>   0.0800 
 27 H       -3.5810     2.6040     0.0330 H     1 <1>   0.0800 
 28 H       -2.7410     2.3000     2.4550 H     1 <1>   0.0800 
 29 H       -1.5340     1.0620     2.7540 H     1 <1>   0.0800 
 30 H       -3.1690     0.6040     2.3290 H     1 <1>   0.0800 
 31 H       -1.7290     3.8610    -1.6410 H     1 <1>   0.1500 
 32 H       -0.8030     3.9040     2.5430 H     1 <1>   0.1500 
 33 H       -1.5060     6.2480     2.6540 H     1 <1>   0.1500 
 34 H       -5.6720     1.5400     1.2690 H     1 <1>   0.1500 
 35 H       -5.6590    -2.2420    -0.2480 H     1 <1>   0.2700 
 36 H       -2.4300    -0.7480    -1.7300 H     1 <1>   0.0800 
 37 H       -3.7160    -1.7610    -2.3140 H     1 <1>   0.0800 
 38 H       -2.7780    -2.2560    -0.9240 H     1 <1>   0.0800 
 39 H       -4.2130     6.9250    -2.7470 H     1 <1>   0.0800 
 40 H       -3.9820     7.5850    -1.1340 H     1 <1>   0.0800 
 41 H       -4.5580     5.9280    -1.3350 H     1 <1>   0.0800 
 42 H       -1.8400     9.5870     0.3040 H     1 <1>   0.0800 
 43 H       -1.5490     8.4280    -0.9900 H     1 <1>   0.0800 
 44 H       -0.4980     8.4510     0.4270 H     1 <1>   0.0800 
@<TRIPOS>BOND
  1   1   2  ar  
  2   2   3  ar  
  3   2   4  1   
  4   4   5  1   
  5   4   6  1   
  6   4  24  1   
  7   5   7  1   
  8   5   8  1   
  9   5  25  1   
 10   6   9  ar  
 11   6  10  ar  
 12   7  11  1   
 13   7  26  1   
 14   7  27  1   
 15   8  28  1   
 16   8  29  1   
 17   8  30  1   
 18   9  12  ar  
 19   9  31  1   
 20  10  13  ar  
 21  10  32  1   
 22  11  14  2   
 23  11  15  1   
 24  12  16  1   
 25  12  17  ar  
 26  13  17  ar  
 27  13  33  1   
 28  14  18  1   
 29  14  19  1   
 30  15  20  2   
 31  15  34  1   
 32  16  21  1   
 33  17  22  1   
 34  18  20  1   
 35  18  35  1   
 36  19  36  1   
 37  19  37  1   
 38  19  38  1   
 39  21  39  1   
 40  21  40  1   
 41  21  41  1   
 42  22  23  1   
 43  23  42  1   
 44  23  43  1   
 45  23  44  1   
@<TRIPOS>SUBSTRUCTURE
  1 ****   6 GROUP 4 **** **** 0

# MOE 2024.06 (io_trps.svl 2023.06)
