@<TRIPOS>MOLECULE
NONAME
58 60 1 0 0 
SMALL
USER_CHARGES


@<TRIPOS>ATOM
  1 F       -1.8010    -1.4710    -0.9880 F     1 <1>  -0.3400 
  2 C       -2.8520    -0.6610    -1.1110 C.3   1 <1>   0.8560 
  3 F       -2.3330     0.5610    -1.2250 F     1 <1>  -0.3400 
  4 N       -3.7230    -0.7430     0.1090 N.pl3 1 <1>   0.3140 
  5 N       -5.0570    -0.9660     0.0450 N.2   1 <1>  -0.7070 
  6 C       -3.3240    -0.6200     1.3940 C.2   1 <1>  -0.3020 
  7 C       -5.4920    -0.9830     1.2970 C.2   1 <1>   0.2030 
  8 C       -4.4150    -0.7690     2.1670 C.2   1 <1>  -0.1500 
  9 C       -6.8570    -1.2060     1.7800 C.2   1 <1>   0.7160 
 10 O       -7.0110    -1.6260     2.9170 O.2   1 <1>  -0.5700 
 11 N       -7.9990    -0.9630     1.0260 N.am  1 <1>  -0.6600 
 12 C       -8.0170    -0.0970    -0.1860 C.3   1 <1>   0.1400 
 13 C       -9.3140    -1.5660     1.3850 C.3   1 <1>   0.1400 
 14 C       -9.1010     0.9770    -0.0470 C.3   1 <1>  -0.1600 
 15 C      -10.3810    -0.4730     1.4880 C.3   1 <1>  -0.1600 
 16 C      -10.4980     0.3640     0.2000 C.3   1 <1>   0.2800 
 17 O      -11.3600     1.4250     0.5390 O.3   1 <1>  -0.5600 
 18 C      -11.0760    -0.4670    -1.0110 C.3   1 <1>   0.2000 
 19 C      -11.9830     2.1140    -0.4970 C.3   1 <1>   0.1200 
 20 O      -10.4700    -0.0840    -2.2230 O.3   1 <1>  -0.6800 
 21 C      -12.6220    -0.3050    -1.1460 C.3   1 <1>   0.3000 
 22 C      -12.9670     1.1960    -1.2420 C.3   1 <1>  -0.1600 
 23 N      -13.3330    -0.8390     0.0350 N.am  1 <1>  -0.7300 
 24 C      -13.1940    -1.0360    -2.3730 C.3   1 <1>  -0.2400 
 25 C      -13.3380    -2.1000     0.5390 C.2   1 <1>   0.5690 
 26 O      -12.7010    -3.0030     0.0490 O.2   1 <1>  -0.5700 
 27 C      -14.1540    -2.3750     1.8010 C.3   1 <1>   0.1810 
 28 O      -14.6350    -1.1840     2.3790 O.3   1 <1>  -0.5600 
 29 C      -15.3650    -1.3770     3.5430 C.3   1 <1>   0.1200 
 30 C      -15.8250    -0.0070     4.0250 C.3   1 <1>  -0.2400 
 31 H       -3.3770    -0.9040    -2.0160 H     1 <1>   0.0800 
 32 H       -2.3010    -0.4400     1.6740 H     1 <1>   0.1500 
 33 H       -4.4920    -0.7420     3.2410 H     1 <1>   0.1500 
 34 H       -7.0740     0.4010    -0.3140 H     1 <1>   0.0800 
 35 H       -8.1940    -0.7080    -1.0540 H     1 <1>   0.0800 
 36 H       -9.5840    -2.2910     0.6370 H     1 <1>   0.0800 
 37 H       -9.2530    -2.0860     2.3260 H     1 <1>   0.0800 
 38 H       -9.0960     1.5890    -0.9280 H     1 <1>   0.0800 
 39 H       -8.8400     1.6090     0.7830 H     1 <1>   0.0800 
 40 H      -10.1140     0.1700     2.3070 H     1 <1>   0.0800 
 41 H      -11.3180    -0.9240     1.7370 H     1 <1>   0.0800 
 42 H      -10.8420    -1.5080    -0.8940 H     1 <1>   0.0800 
 43 H      -12.5060     2.9510    -0.0660 H     1 <1>   0.0800 
 44 H      -11.2230     2.4930    -1.1570 H     1 <1>   0.0800 
 45 H      -10.6870     0.8450    -2.4190 H     1 <1>   0.4000 
 46 H      -13.9660     1.3700    -0.8860 H     1 <1>   0.0800 
 47 H      -12.9580     1.5050    -2.2720 H     1 <1>   0.0800 
 48 H      -13.7560    -0.1270     0.6400 H     1 <1>   0.3700 
 49 H      -12.8020    -0.6230    -3.2840 H     1 <1>   0.0800 
 50 H      -14.2660    -0.9520    -2.3960 H     1 <1>   0.0800 
 51 H      -12.9240    -2.0760    -2.3490 H     1 <1>   0.0800 
 52 H      -13.5300    -2.8790     2.5180 H     1 <1>   0.0800 
 53 H      -14.9910    -2.9990     1.5480 H     1 <1>   0.0800 
 54 H      -16.2110    -2.0070     3.3260 H     1 <1>   0.0800 
 55 H      -14.7320    -1.8460     4.2790 H     1 <1>   0.0800 
 56 H      -16.4440     0.4580     3.2790 H     1 <1>   0.0800 
 57 H      -14.9740     0.6180     4.2270 H     1 <1>   0.0800 
 58 H      -16.3970    -0.1120     4.9290 H     1 <1>   0.0800 
@<TRIPOS>BOND
  1   1   2  1   
  2   2   3  1   
  3   2   4  1   
  4   2  31  1   
  5   4   5  1   
  6   4   6  1   
  7   5   7  2   
  8   6   8  2   
  9   6  32  1   
 10   7   8  1   
 11   7   9  1   
 12   8  33  1   
 13   9  10  2   
 14   9  11  am  
 15  11  12  1   
 16  11  13  1   
 17  12  14  1   
 18  12  34  1   
 19  12  35  1   
 20  13  15  1   
 21  13  36  1   
 22  13  37  1   
 23  14  16  1   
 24  14  38  1   
 25  14  39  1   
 26  15  16  1   
 27  15  40  1   
 28  15  41  1   
 29  16  17  1   
 30  16  18  1   
 31  17  19  1   
 32  18  20  1   
 33  18  21  1   
 34  18  42  1   
 35  19  22  1   
 36  19  43  1   
 37  19  44  1   
 38  20  45  1   
 39  21  22  1   
 40  21  23  1   
 41  21  24  1   
 42  22  46  1   
 43  22  47  1   
 44  23  25  am  
 45  23  48  1   
 46  24  49  1   
 47  24  50  1   
 48  24  51  1   
 49  25  26  2   
 50  25  27  1   
 51  27  28  1   
 52  27  52  1   
 53  27  53  1   
 54  28  29  1   
 55  29  30  1   
 56  29  54  1   
 57  29  55  1   
 58  30  56  1   
 59  30  57  1   
 60  30  58  1   
@<TRIPOS>SUBSTRUCTURE
  1 ****  13 GROUP 4 **** **** 0

# MOE 2024.06 (io_trps.svl 2023.06)
