@<TRIPOS>MOLECULE
NONAME
58 61 1 0 0 
SMALL
USER_CHARGES


@<TRIPOS>ATOM
  1 S       -0.2830    -0.5750     1.4340 S.o2  1 <1>   1.5760 
  2 O       -1.4530    -0.4270     2.2700 O.2   1 <1>  -0.6500 
  3 O        1.0100    -0.8350     2.0280 O.2   1 <1>  -0.6500 
  4 N       -0.6020    -1.7460     0.2610 N.am  1 <1>  -0.8490 
  5 N       -0.1300     0.7920     0.4570 N.am  1 <1>  -0.8490 
  6 C       -1.9280    -1.5140    -0.3520 C.3   1 <1>   0.1960 
  7 C       -0.4900    -3.0950     0.8220 C.3   1 <1>   0.1960 
  8 C       -0.1680     2.0120     1.2620 C.3   1 <1>   0.1960 
  9 C        1.0860     0.7350    -0.3580 C.3   1 <1>   0.1960 
 10 C       -2.2440    -2.4410    -1.5360 C.3   1 <1>   0.2090 
 11 C       -0.2140    -4.1150    -0.2880 C.3   1 <1>  -0.1600 
 12 C       -0.1730     3.2460     0.3520 C.3   1 <1>  -0.1600 
 13 C        1.1220     1.9160    -1.3340 C.3   1 <1>  -0.1600 
 14 N       -2.5900    -3.8180    -1.0710 N.pl3 1 <1>  -0.8380 
 15 C       -1.4740    -4.7760    -0.8570 C.3   1 <1>   0.2090 
 16 C        1.0370     3.2540    -0.5900 C.3   1 <1>  -0.1600 
 17 C       -3.8970    -4.1630    -0.7890 C.ar  1 <1>   0.7200 
 18 N       -4.7540    -3.1670    -0.5910 N.ar  1 <1>  -0.6200 
 19 N       -4.1830    -5.4600    -0.7370 N.ar  1 <1>  -0.6200 
 20 C       -5.9870    -3.5010    -0.3080 C.ar  1 <1>   0.1670 
 21 C       -5.4220    -5.7780    -0.4610 C.ar  1 <1>   0.1670 
 22 C       -6.3900    -4.8200    -0.2220 C.ar  1 <1>  -0.1430 
 23 C       -6.9430    -2.3420    -0.0630 C.3   1 <1>  -0.0170 
 24 C       -5.7220    -7.2660    -0.4210 C.3   1 <1>  -0.0970 
 25 C       -7.8350    -5.1950     0.1090 C.3   1 <1>  -0.0170 
 26 C       -8.4190    -2.7560    -0.0990 C.3   1 <1>  -0.1600 
 27 C       -8.6320    -4.0340     0.7150 C.3   1 <1>  -0.1600 
 28 H       -1.9650    -0.5050    -0.7230 H     1 <1>   0.0800 
 29 H       -2.7060    -1.6120     0.3870 H     1 <1>   0.0800 
 30 H       -1.3740    -3.3530     1.3830 H     1 <1>   0.0800 
 31 H        0.3480    -3.1290     1.4990 H     1 <1>   0.0800 
 32 H        0.6820     2.0410     1.9240 H     1 <1>   0.0800 
 33 H       -1.0630     2.0230     1.8630 H     1 <1>   0.0800 
 34 H        1.1050    -0.1840    -0.9200 H     1 <1>   0.0800 
 35 H        1.9580     0.7580     0.2760 H     1 <1>   0.0800 
 36 H       -1.4090    -2.4710    -2.2120 H     1 <1>   0.0800 
 37 H       -3.0780    -2.0330    -2.0790 H     1 <1>   0.0800 
 38 H        0.3960    -4.9000     0.1190 H     1 <1>   0.0800 
 39 H        0.3570    -3.6570    -1.0760 H     1 <1>   0.0800 
 40 H       -0.1670     4.1350     0.9570 H     1 <1>   0.0800 
 41 H       -1.0820     3.2450    -0.2230 H     1 <1>   0.0800 
 42 H        0.2960     1.8240    -2.0170 H     1 <1>   0.0800 
 43 H        2.0310     1.8770    -1.9080 H     1 <1>   0.0800 
 44 H       -1.7880    -5.5370    -0.1620 H     1 <1>   0.0800 
 45 H       -1.2440    -5.2610    -1.7900 H     1 <1>   0.0800 
 46 H        1.9360     3.4010    -0.0160 H     1 <1>   0.0800 
 47 H        0.9510     4.0630    -1.2950 H     1 <1>   0.0800 
 48 H       -6.7700    -1.5780    -0.8000 H     1 <1>   0.0800 
 49 H       -6.7120    -1.9250     0.9010 H     1 <1>   0.0800 
 50 H       -4.9520    -7.8130    -0.9350 H     1 <1>   0.0800 
 51 H       -6.6580    -7.4790    -0.9010 H     1 <1>   0.0800 
 52 H       -5.7550    -7.5990     0.5990 H     1 <1>   0.0800 
 53 H       -7.8540    -6.0190     0.8010 H     1 <1>   0.0800 
 54 H       -8.3170    -5.5130    -0.8000 H     1 <1>   0.0800 
 55 H       -8.7140    -2.9280    -1.1210 H     1 <1>   0.0800 
 56 H       -9.0260    -1.9600     0.2950 H     1 <1>   0.0800 
 57 H       -8.3090    -3.8700     1.7290 H     1 <1>   0.0800 
 58 H       -9.6780    -4.2870     0.7360 H     1 <1>   0.0800 
@<TRIPOS>BOND
  1   1   2  2   
  2   1   3  2   
  3   1   4  am  
  4   1   5  am  
  5   4   6  1   
  6   4   7  1   
  7   5   8  1   
  8   5   9  1   
  9   6  10  1   
 10   6  28  1   
 11   6  29  1   
 12   7  11  1   
 13   7  30  1   
 14   7  31  1   
 15   8  12  1   
 16   8  32  1   
 17   8  33  1   
 18   9  13  1   
 19   9  34  1   
 20   9  35  1   
 21  10  14  1   
 22  10  36  1   
 23  10  37  1   
 24  11  15  1   
 25  11  38  1   
 26  11  39  1   
 27  12  16  1   
 28  12  40  1   
 29  12  41  1   
 30  13  16  1   
 31  13  42  1   
 32  13  43  1   
 33  14  15  1   
 34  14  17  1   
 35  15  44  1   
 36  15  45  1   
 37  16  46  1   
 38  16  47  1   
 39  17  18  ar  
 40  17  19  ar  
 41  18  20  ar  
 42  19  21  ar  
 43  20  22  ar  
 44  20  23  1   
 45  21  22  ar  
 46  21  24  1   
 47  22  25  1   
 48  23  26  1   
 49  23  48  1   
 50  23  49  1   
 51  24  50  1   
 52  24  51  1   
 53  24  52  1   
 54  25  27  1   
 55  25  53  1   
 56  25  54  1   
 57  26  27  1   
 58  26  55  1   
 59  26  56  1   
 60  27  57  1   
 61  27  58  1   
@<TRIPOS>SUBSTRUCTURE
  1 ****   6 GROUP 4 **** **** 0

# MOE 2024.06 (io_trps.svl 2023.06)
