@<TRIPOS>MOLECULE
NONAME
48 50 1 0 0 
SMALL
USER_CHARGES


@<TRIPOS>ATOM
  1 O       -0.5890     1.3310     1.9560 O.2   1 <1>  -0.5700 
  2 C       -0.3030     2.3610     1.3940 C.2   1 <1>   0.5690 
  3 N       -1.2610     3.2210     0.9140 N.am  1 <1>  -0.6600 
  4 C        1.1760     2.6470     1.2210 C.3   1 <1>  -0.0990 
  5 C       -2.7180     2.9250     1.0940 C.3   1 <1>   0.1400 
  6 C       -1.0180     4.4680     0.1370 C.3   1 <1>   0.1400 
  7 C        1.6690     2.1790    -0.1530 C.3   1 <1>  -0.0160 
  8 C       -3.4190     2.7560    -0.2770 C.3   1 <1>   0.0000 
  9 C       -1.6730     4.3490    -1.2440 C.3   1 <1>  -0.1600 
 10 C        3.1420     2.5060    -0.3300 C.ar  1 <1>  -0.1440 
 11 C       -4.9230     2.4800    -0.1040 C.3   1 <1>   0.2000 
 12 C       -3.1710     4.0130    -1.1390 C.3   1 <1>  -0.1600 
 13 C       -2.9450     1.4660    -0.9680 C.3   1 <1>  -0.1600 
 14 C        3.5660     3.6420    -0.9890 C.ar  1 <1>  -0.1500 
 15 C        4.1320     1.6810     0.1630 C.ar  1 <1>  -0.1500 
 16 O       -5.4740     3.2670     0.9100 O.3   1 <1>  -0.5600 
 17 C       -5.0360     0.9870     0.2200 C.3   1 <1>  -0.1600 
 18 C       -3.7580     0.3360    -0.3270 C.3   1 <1>  -0.1600 
 19 C        4.9230     3.8910    -1.1180 C.ar  1 <1>   0.1600 
 20 C        5.4620     2.0230    -0.0190 C.ar  1 <1>   0.1600 
 21 C       -6.8660     3.3020     0.9370 C.3   1 <1>   0.0400 
 22 N        5.8810     3.1090    -0.6480 N.ar  1 <1>  -0.6200 
 23 H        1.3760     3.6910     1.3670 H     1 <1>   0.0800 
 24 H        1.7140     2.1150     1.9850 H     1 <1>   0.0800 
 25 H       -2.8560     2.0410     1.6920 H     1 <1>   0.0800 
 26 H       -3.1640     3.7440     1.6310 H     1 <1>   0.0800 
 27 H       -1.4500     5.2970     0.6720 H     1 <1>   0.0800 
 28 H        0.0300     4.6630     0.0160 H     1 <1>   0.0800 
 29 H        1.0960     2.6510    -0.9310 H     1 <1>   0.0800 
 30 H        1.5210     1.1160    -0.2410 H     1 <1>   0.0800 
 31 H       -1.5540     5.2790    -1.7720 H     1 <1>   0.0800 
 32 H       -1.1670     3.5870    -1.8090 H     1 <1>   0.0800 
 33 H       -5.4300     2.6940    -1.0300 H     1 <1>   0.0800 
 34 H       -3.5820     3.8780    -2.1240 H     1 <1>   0.0800 
 35 H       -3.6820     4.8460    -0.6850 H     1 <1>   0.0800 
 36 H       -3.1800     1.5090    -2.0170 H     1 <1>   0.0800 
 37 H       -1.8880     1.2970    -0.8620 H     1 <1>   0.0800 
 38 H        2.8580     4.3350    -1.4040 H     1 <1>   0.1500 
 39 H        3.8810     0.7780     0.6890 H     1 <1>   0.1500 
 40 H       -5.0850     0.8390     1.2850 H     1 <1>   0.0800 
 41 H       -5.9090     0.5650    -0.2450 H     1 <1>   0.0800 
 42 H       -3.1970    -0.0940     0.4860 H     1 <1>   0.0800 
 43 H       -3.9780    -0.4370    -1.0430 H     1 <1>   0.0800 
 44 H        5.2360     4.7810    -1.6360 H     1 <1>   0.1500 
 45 H        6.2200     1.3680     0.3730 H     1 <1>   0.1500 
 46 H       -7.1670     3.9520     1.7390 H     1 <1>   0.0800 
 47 H       -7.2470     2.3110     1.1140 H     1 <1>   0.0800 
 48 H       -7.2300     3.6890     0.0010 H     1 <1>   0.0800 
@<TRIPOS>BOND
  1   1   2  2   
  2   2   3  am  
  3   2   4  1   
  4   3   5  1   
  5   3   6  1   
  6   4   7  1   
  7   4  23  1   
  8   4  24  1   
  9   5   8  1   
 10   5  25  1   
 11   5  26  1   
 12   6   9  1   
 13   6  27  1   
 14   6  28  1   
 15   7  10  1   
 16   7  29  1   
 17   7  30  1   
 18   8  11  1   
 19   8  12  1   
 20   8  13  1   
 21   9  12  1   
 22   9  31  1   
 23   9  32  1   
 24  10  14  ar  
 25  10  15  ar  
 26  11  16  1   
 27  11  17  1   
 28  11  33  1   
 29  12  34  1   
 30  12  35  1   
 31  13  18  1   
 32  13  36  1   
 33  13  37  1   
 34  14  19  ar  
 35  14  38  1   
 36  15  20  ar  
 37  15  39  1   
 38  16  21  1   
 39  17  18  1   
 40  17  40  1   
 41  17  41  1   
 42  18  42  1   
 43  18  43  1   
 44  19  22  ar  
 45  19  44  1   
 46  20  22  ar  
 47  20  45  1   
 48  21  46  1   
 49  21  47  1   
 50  21  48  1   
@<TRIPOS>SUBSTRUCTURE
  1 ****   3 GROUP 4 **** **** 0

# MOE 2024.06 (io_trps.svl 2023.06)
