@<TRIPOS>MOLECULE
NONAME
59 62 1 0 0 
SMALL
USER_CHARGES


@<TRIPOS>ATOM
  1 O        0.5980     0.6740    -0.2750 O.3   1 <1>  -0.5600 
  2 C        1.6420    -0.2490    -0.3170 C.3   1 <1>   0.2000 
  3 C       -0.6260     0.0360    -0.4920 C.3   1 <1>   0.1200 
  4 C        1.0430    -1.5190     0.2700 C.3   1 <1>  -0.1600 
  5 C        2.8990     0.2570     0.4410 C.3   1 <1>   0.3430 
  6 C       -0.4080    -1.4410    -0.1730 C.3   1 <1>  -0.1600 
  7 N        3.2010     1.7380     0.3280 N.4   1 <1>  -0.9590 
  8 C        2.2990     2.5080     1.2440 C.3   1 <1>   0.3430 
  9 C        3.1060     2.2070    -1.0900 C.3   1 <1>   0.3430 
 10 C        2.6350     3.9970     1.1940 C.3   1 <1>  -0.1600 
 11 C        3.4540     3.6910    -1.1860 C.3   1 <1>  -0.1600 
 12 C        2.5570     4.4990    -0.2470 C.3   1 <1>   0.2890 
 13 N        2.8210     5.9600    -0.3440 N.pl3 1 <1>  -0.8690 
 14 C        3.9070     6.7110    -0.0670 C.ar  1 <1>   0.4610 
 15 N        3.8360     8.0310    -0.2610 N.ar  1 <1>  -0.1790 
 16 C        5.1400     6.2110     0.4210 C.ar  1 <1>  -0.1500 
 17 C        4.8610     8.9330    -0.0240 C.ar  1 <1>   0.3610 
 18 C        6.2000     7.0240     0.6810 C.ar  1 <1>  -0.1440 
 19 C        6.0830     8.4310     0.4600 C.ar  1 <1>   0.0000 
 20 C        4.6810    10.3090    -0.2630 C.ar  1 <1>  -0.1440 
 21 C        7.5080     6.4400     1.2050 C.3   1 <1>  -0.0970 
 22 C        7.1150     9.3490     0.6960 C.ar  1 <1>  -0.1500 
 23 C        5.7260    11.1840    -0.0170 C.ar  1 <1>  -0.1440 
 24 C        3.3300    10.8110    -0.7920 C.3   1 <1>  -0.0970 
 25 C        6.9370    10.6880     0.4630 C.ar  1 <1>  -0.1500 
 26 C        5.6340    12.6900    -0.2420 C.3   1 <1>  -0.0960 
 27 H        1.8790    -0.4140    -1.3550 H     1 <1>   0.0800 
 28 H       -0.9100     0.1770    -1.5210 H     1 <1>   0.0800 
 29 H       -1.3630     0.4810     0.1550 H     1 <1>   0.0800 
 30 H        1.0960    -1.4950     1.3450 H     1 <1>   0.0800 
 31 H        1.5330    -2.4060    -0.0910 H     1 <1>   0.0800 
 32 H        3.7440    -0.3070     0.0820 H     1 <1>   0.0800 
 33 H        2.7830     0.0040     1.4820 H     1 <1>   0.0800 
 34 H       -0.5710    -2.0260    -1.0620 H     1 <1>   0.0800 
 35 H       -1.0820    -1.7810     0.5930 H     1 <1>   0.0800 
 36 H        4.1660     1.8780     0.6530 H     1 <1>   0.4500 
 37 H        2.4040     2.1470     2.2550 H     1 <1>   0.0800 
 38 H        1.2710     2.3710     0.9500 H     1 <1>   0.0800 
 39 H        2.1010     2.0570    -1.4530 H     1 <1>   0.0800 
 40 H        3.7750     1.6370    -1.7140 H     1 <1>   0.0800 
 41 H        3.6060     4.1480     1.6240 H     1 <1>   0.0800 
 42 H        1.9190     4.5280     1.7950 H     1 <1>   0.0800 
 43 H        3.2920     4.0150    -2.1990 H     1 <1>   0.0800 
 44 H        4.4940     3.8190    -0.9590 H     1 <1>   0.0800 
 45 H        1.5410     4.3450    -0.5770 H     1 <1>   0.0800 
 46 H        1.9720     6.4200    -0.6940 H     1 <1>   0.4000 
 47 H        2.9720     8.4280    -0.6080 H     1 <1>   0.4570 
 48 H        5.2330     5.1590     0.5890 H     1 <1>   0.1500 
 49 H        7.4430     5.3730     1.3210 H     1 <1>   0.0800 
 50 H        7.7470     6.8650     2.1650 H     1 <1>   0.0800 
 51 H        8.3110     6.6530     0.5220 H     1 <1>   0.0800 
 52 H        8.0670     9.0120     1.0660 H     1 <1>   0.1500 
 53 H        3.1110    10.3650    -1.7460 H     1 <1>   0.0800 
 54 H        3.3110    11.8750    -0.9360 H     1 <1>   0.0800 
 55 H        2.5440    10.5780    -0.0950 H     1 <1>   0.0800 
 56 H        7.7520    11.3660     0.6560 H     1 <1>   0.1500 
 57 H        4.8580    13.1120     0.3710 H     1 <1>   0.0800 
 58 H        5.4240    12.9010    -1.2750 H     1 <1>   0.0800 
 59 H        6.5570    13.1810     0.0120 H     1 <1>   0.0800 
@<TRIPOS>BOND
  1   1   2  1   
  2   1   3  1   
  3   2   4  1   
  4   2   5  1   
  5   2  27  1   
  6   3   6  1   
  7   3  28  1   
  8   3  29  1   
  9   4   6  1   
 10   4  30  1   
 11   4  31  1   
 12   5   7  1   
 13   5  32  1   
 14   5  33  1   
 15   6  34  1   
 16   6  35  1   
 17   7   8  1   
 18   7   9  1   
 19   7  36  1   
 20   8  10  1   
 21   8  37  1   
 22   8  38  1   
 23   9  11  1   
 24   9  39  1   
 25   9  40  1   
 26  10  12  1   
 27  10  41  1   
 28  10  42  1   
 29  11  12  1   
 30  11  43  1   
 31  11  44  1   
 32  12  13  1   
 33  12  45  1   
 34  13  14  1   
 35  13  46  1   
 36  14  15  ar  
 37  14  16  ar  
 38  15  17  ar  
 39  15  47  1   
 40  16  18  ar  
 41  16  48  1   
 42  17  19  ar  
 43  17  20  ar  
 44  18  19  ar  
 45  18  21  1   
 46  19  22  ar  
 47  20  23  ar  
 48  20  24  1   
 49  21  49  1   
 50  21  50  1   
 51  21  51  1   
 52  22  25  ar  
 53  22  52  1   
 54  23  25  ar  
 55  23  26  1   
 56  24  53  1   
 57  24  54  1   
 58  24  55  1   
 59  25  56  1   
 60  26  57  1   
 61  26  58  1   
 62  26  59  1   
@<TRIPOS>SUBSTRUCTURE
  1 ****  13 GROUP 4 **** **** 0

# MOE 2024.06 (io_trps.svl 2023.06)
