@<TRIPOS>MOLECULE
NONAME
56 59 1 0 0 
SMALL
USER_CHARGES


@<TRIPOS>ATOM
  1 O        0.3120     0.1250     0.4890 O.2   1 <1>  -0.5700 
  2 C       -0.3540     1.0810     0.8150 C.2   1 <1>   0.5690 
  3 N       -1.6820     1.1650     0.4570 N.am  1 <1>  -0.6600 
  4 C        0.3160     2.1540     1.6770 C.3   1 <1>   0.0440 
  5 C       -2.6770     2.1650     0.9610 C.3   1 <1>   0.1400 
  6 C       -2.2820     0.1900    -0.5010 C.3   1 <1>   0.1400 
  7 C        1.7820     2.4150     1.3210 C.ar  1 <1>  -0.1440 
  8 C       -3.2760     2.9750    -0.2040 C.3   1 <1>   0.1440 
  9 C       -2.9120     0.9360    -1.6850 C.3   1 <1>  -0.1600 
 10 C        2.1620     3.4680     0.4900 C.ar  1 <1>   0.0820 
 11 C        2.7540     1.5770     1.8460 C.ar  1 <1>  -0.1500 
 12 C       -4.2640     3.9680     0.3750 C.ar  1 <1>   0.1670 
 13 C       -3.9150     2.0100    -1.2240 C.3   1 <1>  -0.1600 
 14 C       -2.2240     3.9060    -0.8650 C.3   1 <1>  -0.1600 
 15 O        1.1880     4.2700    -0.0200 O.3   1 <1>  -0.3620 
 16 C        3.5130     3.6680     0.2100 C.ar  1 <1>  -0.1500 
 17 C        4.0920     1.7790     1.5630 C.ar  1 <1>  -0.1500 
 18 N       -5.4520     3.6730     0.8410 N.ar  1 <1>  -0.6200 
 19 C       -3.7560     5.2320     0.3820 C.ar  1 <1>  -0.1430 
 20 C       -2.3610     5.2810    -0.1920 C.3   1 <1>  -0.0170 
 21 C        1.4680     5.2120    -1.0310 C.3   1 <1>   0.0400 
 22 C        4.4720     2.8270     0.7450 C.ar  1 <1>  -0.1500 
 23 C       -6.1510     4.7080     1.3160 C.ar  1 <1>   0.7200 
 24 C       -4.5430     6.2320     0.8930 C.ar  1 <1>   0.1600 
 25 N       -5.7430     5.9810     1.3620 N.ar  1 <1>  -0.6200 
 26 N       -7.4130     4.4370     1.8090 N.pl3 1 <1>  -0.8380 
 27 C       -8.3940     5.5190     2.1000 C.3   1 <1>   0.1290 
 28 C       -7.8930     3.0480     2.0510 C.3   1 <1>   0.1290 
 29 H        0.2570     1.8320     2.6990 H     1 <1>   0.0800 
 30 H       -0.2130     3.0800     1.6070 H     1 <1>   0.0800 
 31 H       -2.2510     2.8290     1.6870 H     1 <1>   0.0800 
 32 H       -3.4730     1.6340     1.4540 H     1 <1>   0.0800 
 33 H       -3.0340    -0.3850     0.0120 H     1 <1>   0.0800 
 34 H       -1.5370    -0.4950    -0.8680 H     1 <1>   0.0800 
 35 H       -3.4110     0.2270    -2.3210 H     1 <1>   0.0800 
 36 H       -2.1250     1.3890    -2.2630 H     1 <1>   0.0800 
 37 H        2.4680     0.7500     2.4740 H     1 <1>   0.1500 
 38 H       -4.2910     2.5580    -2.0700 H     1 <1>   0.0800 
 39 H       -4.7550     1.5210    -0.7600 H     1 <1>   0.0800 
 40 H       -2.4610     4.0230    -1.9080 H     1 <1>   0.0800 
 41 H       -1.2240     3.5180    -0.7940 H     1 <1>   0.0800 
 42 H        3.8420     4.4710    -0.4200 H     1 <1>   0.1500 
 43 H        4.8350     1.1190     1.9750 H     1 <1>   0.1500 
 44 H       -2.2480     6.0820    -0.9020 H     1 <1>   0.0800 
 45 H       -1.6420     5.3880     0.6020 H     1 <1>   0.0800 
 46 H        0.5410     5.6570    -1.3420 H     1 <1>   0.0800 
 47 H        1.9260     4.7050    -1.8620 H     1 <1>   0.0800 
 48 H        2.1210     5.9680    -0.6330 H     1 <1>   0.0800 
 49 H        5.5130     2.9850     0.5250 H     1 <1>   0.1500 
 50 H       -4.1870     7.2470     0.9200 H     1 <1>   0.1500 
 51 H       -8.2370     6.3570     1.4430 H     1 <1>   0.0800 
 52 H       -8.2760     5.8460     3.1180 H     1 <1>   0.0800 
 53 H       -9.3980     5.1610     1.9540 H     1 <1>   0.0800 
 54 H       -7.0680     2.3990     2.2920 H     1 <1>   0.0800 
 55 H       -8.3830     2.6790     1.1680 H     1 <1>   0.0800 
 56 H       -8.5850     3.0340     2.8750 H     1 <1>   0.0800 
@<TRIPOS>BOND
  1   1   2  2   
  2   2   3  am  
  3   2   4  1   
  4   3   5  1   
  5   3   6  1   
  6   4   7  1   
  7   4  29  1   
  8   4  30  1   
  9   5   8  1   
 10   5  31  1   
 11   5  32  1   
 12   6   9  1   
 13   6  33  1   
 14   6  34  1   
 15   7  10  ar  
 16   7  11  ar  
 17   8  12  1   
 18   8  13  1   
 19   8  14  1   
 20   9  13  1   
 21   9  35  1   
 22   9  36  1   
 23  10  15  1   
 24  10  16  ar  
 25  11  17  ar  
 26  11  37  1   
 27  12  18  ar  
 28  12  19  ar  
 29  13  38  1   
 30  13  39  1   
 31  14  20  1   
 32  14  40  1   
 33  14  41  1   
 34  15  21  1   
 35  16  22  ar  
 36  16  42  1   
 37  17  22  ar  
 38  17  43  1   
 39  18  23  ar  
 40  19  20  1   
 41  19  24  ar  
 42  20  44  1   
 43  20  45  1   
 44  21  46  1   
 45  21  47  1   
 46  21  48  1   
 47  22  49  1   
 48  23  25  ar  
 49  23  26  1   
 50  24  25  ar  
 51  24  50  1   
 52  26  27  1   
 53  26  28  1   
 54  27  51  1   
 55  27  52  1   
 56  27  53  1   
 57  28  54  1   
 58  28  55  1   
 59  28  56  1   
@<TRIPOS>SUBSTRUCTURE
  1 ****   5 GROUP 4 **** **** 0

# MOE 2024.06 (io_trps.svl 2023.06)
