@<TRIPOS>MOLECULE
NONAME
25 26 1 0 0 
SMALL
USER_CHARGES


@<TRIPOS>ATOM
  1 CL      -0.1270    -0.4030    -1.4420 Cl    1 <1>  -0.1770 
  2 C       -1.4250    -1.4510    -0.9430 C.ar  1 <1>   0.4870 
  3 N       -2.0030    -2.1640    -1.8930 N.ar  1 <1>  -0.6200 
  4 C       -1.7690    -1.4680     0.3950 C.ar  1 <1>  -0.1500 
  5 C       -2.9800    -2.9520    -1.4730 C.ar  1 <1>   0.1600 
  6 C       -2.7930    -2.2930     0.8080 C.ar  1 <1>  -0.1500 
  7 C       -3.4130    -3.0720    -0.1550 C.ar  1 <1>  -0.1080 
  8 C       -4.5760    -4.0110     0.2100 C.3   1 <1>   0.1080 
  9 C       -4.5780    -5.3960    -0.5160 C.3   1 <1>   0.0000 
 10 C       -4.3690    -4.8250     1.5290 C.3   1 <1>   0.0000 
 11 C       -5.9360    -3.2930     0.1650 C.3   1 <1>   0.1200 
 12 C       -3.7330    -5.9400     0.6630 C.3   1 <1>   0.0000 
 13 O       -6.1710    -2.7870    -1.1070 O.3   1 <1>  -0.6800 
 14 H       -1.2390    -0.8430     1.0890 H     1 <1>   0.1500 
 15 H       -3.4710    -3.5300    -2.2370 H     1 <1>   0.1500 
 16 H       -3.0880    -2.3130     1.8430 H     1 <1>   0.1500 
 17 H       -4.0650    -5.4470    -1.4580 H     1 <1>   0.0000 
 18 H       -5.5530    -5.8530    -0.5520 H     1 <1>   0.0000 
 19 H       -5.2950    -5.1460     1.9770 H     1 <1>   0.0000 
 20 H       -3.6870    -4.4090     2.2460 H     1 <1>   0.0000 
 21 H       -5.9570    -2.4730     0.8620 H     1 <1>   0.0800 
 22 H       -6.7370    -3.9730     0.3990 H     1 <1>   0.0800 
 23 H       -2.6750    -5.8030     0.5170 H     1 <1>   0.0000 
 24 H       -4.0010    -6.9360     0.9690 H     1 <1>   0.0000 
 25 H       -5.5220    -2.0880    -1.3250 H     1 <1>   0.4000 
@<TRIPOS>BOND
  1   1   2  1   
  2   2   3  ar  
  3   2   4  ar  
  4   3   5  ar  
  5   4   6  ar  
  6   4  14  1   
  7   5   7  ar  
  8   5  15  1   
  9   6   7  ar  
 10   6  16  1   
 11   7   8  1   
 12   8   9  1   
 13   8  10  1   
 14   8  11  1   
 15   9  12  1   
 16   9  17  1   
 17   9  18  1   
 18  10  12  1   
 19  10  19  1   
 20  10  20  1   
 21  11  13  1   
 22  11  21  1   
 23  11  22  1   
 24  12  23  1   
 25  12  24  1   
 26  13  25  1   
@<TRIPOS>SUBSTRUCTURE
  1 ****   7 GROUP 4 **** **** 0

# MOE 2024.06 (io_trps.svl 2023.06)
