@<TRIPOS>MOLECULE
NONAME
47 50 1 0 0 
SMALL
USER_CHARGES


@<TRIPOS>ATOM
  1 S        1.3990    -1.1100    -2.0540 S.3   1 <1>  -0.0800 
  2 C        1.5160     0.5460    -1.5480 C.2   1 <1>  -0.1400 
  3 C        0.6710    -1.4830    -0.5040 C.2   1 <1>   0.1980 
  4 C        1.0110     0.6700    -0.3170 C.2   1 <1>   0.0460 
  5 C        2.1130     1.6240    -2.4260 C.3   1 <1>   0.0200 
  6 N        0.5330    -0.4840     0.2820 N.2   1 <1>  -0.5650 
  7 C        0.2830    -2.9320    -0.2520 C.3   1 <1>   0.5230 
  8 C        0.9610     2.0030     0.4040 C.3   1 <1>   0.0210 
  9 C        2.3690     2.8770    -1.5650 C.3   1 <1>  -0.1600 
 10 N       -0.5090    -3.0360     1.0200 N.4   1 <1>  -0.9590 
 11 C        1.2110     3.1660    -0.5830 C.3   1 <1>  -0.1600 
 12 C       -1.8890    -2.4680     0.8610 C.3   1 <1>   0.3430 
 13 C       -0.6450    -4.4460     1.4790 C.3   1 <1>   0.3430 
 14 C       -2.8580    -3.5610     1.3370 C.3   1 <1>   0.2000 
 15 C       -2.0810    -4.8610     1.1390 C.3   1 <1>  -0.0800 
 16 O       -3.1270    -3.4030     2.6910 O.3   1 <1>  -0.6800 
 17 C       -2.2470    -5.3760    -0.3100 C.3   1 <1>  -0.0170 
 18 C       -1.1610    -6.3560    -0.7230 C.ar  1 <1>   0.1670 
 19 N       -0.0340    -5.8190    -1.1760 N.ar  1 <1>  -0.6200 
 20 C       -1.3880    -7.7190    -0.6150 C.ar  1 <1>  -0.1500 
 21 C        0.8950    -6.6870    -1.5550 C.ar  1 <1>   0.1600 
 22 C       -0.4060    -8.6050    -1.0010 C.ar  1 <1>  -0.1500 
 23 C        0.7640    -8.0630    -1.4850 C.ar  1 <1>  -0.1500 
 24 H        3.0360     1.2830    -2.8620 H     1 <1>   0.0800 
 25 H        1.4220     1.8530    -3.2190 H     1 <1>   0.0800 
 26 H        1.1820    -3.5220    -0.1760 H     1 <1>   0.0800 
 27 H       -0.2910    -3.3050    -1.0830 H     1 <1>   0.0800 
 28 H        0.0010     2.1280     0.8720 H     1 <1>   0.0800 
 29 H        1.7140     2.0050     1.1710 H     1 <1>   0.0800 
 30 H        3.2710     2.7280    -0.9970 H     1 <1>   0.0800 
 31 H        2.5250     3.7260    -2.2080 H     1 <1>   0.0800 
 32 H        0.0060    -2.4500     1.6970 H     1 <1>   0.4500 
 33 H        0.3120     3.3350    -1.1520 H     1 <1>   0.0800 
 34 H        1.4190     4.0640    -0.0290 H     1 <1>   0.0800 
 35 H       -2.0170    -1.5610     1.4300 H     1 <1>   0.0800 
 36 H       -2.0770    -2.2540    -0.1780 H     1 <1>   0.0800 
 37 H        0.0910    -5.0940     1.0320 H     1 <1>   0.0800 
 38 H       -0.5190    -4.4840     2.5490 H     1 <1>   0.0800 
 39 H       -3.7980    -3.5370     0.8110 H     1 <1>   0.0800 
 40 H       -2.4150    -5.6310     1.8130 H     1 <1>   0.0800 
 41 H       -2.3230    -3.3280     3.2400 H     1 <1>   0.4000 
 42 H       -2.2360    -4.5620    -1.0130 H     1 <1>   0.0800 
 43 H       -3.2080    -5.8500    -0.4050 H     1 <1>   0.0800 
 44 H       -2.3230    -8.0940    -0.2390 H     1 <1>   0.1500 
 45 H        1.8160    -6.2860    -1.9440 H     1 <1>   0.1500 
 46 H       -0.5470    -9.6710    -0.9330 H     1 <1>   0.1500 
 47 H        1.5660    -8.7010    -1.8110 H     1 <1>   0.1500 
@<TRIPOS>BOND
  1   1   2  1   
  2   1   3  1   
  3   2   4  2   
  4   2   5  1   
  5   3   6  2   
  6   3   7  1   
  7   4   6  1   
  8   4   8  1   
  9   5   9  1   
 10   5  24  1   
 11   5  25  1   
 12   7  10  1   
 13   7  26  1   
 14   7  27  1   
 15   8  11  1   
 16   8  28  1   
 17   8  29  1   
 18   9  11  1   
 19   9  30  1   
 20   9  31  1   
 21  10  12  1   
 22  10  13  1   
 23  10  32  1   
 24  11  33  1   
 25  11  34  1   
 26  12  14  1   
 27  12  35  1   
 28  12  36  1   
 29  13  15  1   
 30  13  37  1   
 31  13  38  1   
 32  14  15  1   
 33  14  16  1   
 34  14  39  1   
 35  15  17  1   
 36  15  40  1   
 37  16  41  1   
 38  17  18  1   
 39  17  42  1   
 40  17  43  1   
 41  18  19  ar  
 42  18  20  ar  
 43  19  21  ar  
 44  20  22  ar  
 45  20  44  1   
 46  21  23  ar  
 47  21  45  1   
 48  22  23  ar  
 49  22  46  1   
 50  23  47  1   
@<TRIPOS>SUBSTRUCTURE
  1 ****   7 GROUP 4 **** **** 0

# MOE 2024.06 (io_trps.svl 2023.06)
