@<TRIPOS>MOLECULE
NONAME
47 50 1 0 0 
SMALL
USER_CHARGES


@<TRIPOS>ATOM
  1 S        0.2660    -0.4800     1.4570 S.3   1 <1>  -0.0800 
  2 C        1.3020    -1.7630     0.8470 C.2   1 <1>  -0.1400 
  3 C        1.6400     0.5880     1.6740 C.2   1 <1>  -0.1100 
  4 C        2.5870    -1.3610     0.8320 C.2   1 <1>  -0.1500 
  5 C        0.6420    -3.0700     0.4520 C.3   1 <1>   0.0200 
  6 C        2.7790    -0.0230     1.3020 C.2   1 <1>  -0.1500 
  7 C       -0.2610    -2.8790    -0.7670 C.3   1 <1>   0.1400 
  8 N       -0.8230    -4.1840    -1.1920 N.am  1 <1>  -0.7300 
  9 C       -2.1070    -4.5950    -1.0200 C.2   1 <1>   0.5690 
 10 O       -2.9250    -3.9000    -0.4640 O.2   1 <1>  -0.5700 
 11 C       -2.5270    -5.9800    -1.5250 C.3   1 <1>   0.2610 
 12 O       -1.4250    -6.6370    -2.1390 O.3   1 <1>  -0.5600 
 13 C       -3.1830    -6.7770    -0.3570 C.3   1 <1>   0.3640 
 14 C       -1.6290    -7.9990    -2.4080 C.3   1 <1>   0.1810 
 15 N       -2.6300    -8.1550    -0.1460 N.am  1 <1>  -0.5090 
 16 C       -4.6930    -6.8400    -0.5900 C.ar  1 <1>  -0.1430 
 17 C       -1.8780    -8.7640    -1.1150 C.2   1 <1>   0.5690 
 18 C       -2.7220    -8.6990     1.2320 C.3   1 <1>   0.0490 
 19 C       -5.2860    -7.8780    -1.2990 C.ar  1 <1>   0.1600 
 20 C       -5.5050    -5.8340    -0.1010 C.ar  1 <1>  -0.1500 
 21 O       -1.3940    -9.8660    -0.9960 O.2   1 <1>  -0.5700 
 22 C       -3.2890   -10.0710     1.4230 C.3   1 <1>  -0.2000 
 23 C       -4.0510    -8.8790     1.9020 C.3   1 <1>  -0.2000 
 24 N       -6.5790    -7.9810    -1.5590 N.ar  1 <1>  -0.6200 
 25 C       -6.8550    -5.9290    -0.3560 C.ar  1 <1>  -0.1500 
 26 C       -7.3340    -7.0060    -1.0800 C.ar  1 <1>   0.1600 
 27 H        1.4450     1.5720     2.0630 H     1 <1>   0.1500 
 28 H        3.4260    -1.9530     0.5080 H     1 <1>   0.1500 
 29 H        1.4070    -3.7900     0.2220 H     1 <1>   0.0800 
 30 H        0.0600    -3.4350     1.2790 H     1 <1>   0.0800 
 31 H        3.7620     0.4140     1.3370 H     1 <1>   0.1500 
 32 H        0.3040    -2.4530    -1.5790 H     1 <1>   0.0800 
 33 H       -1.0610    -2.2000    -0.5220 H     1 <1>   0.0800 
 34 H       -0.1920    -4.8290    -1.6810 H     1 <1>   0.3700 
 35 H       -3.2600    -5.8220    -2.2960 H     1 <1>   0.0800 
 36 H       -3.0180    -6.2320     0.5570 H     1 <1>   0.0800 
 37 H       -2.4650    -8.1070    -3.0760 H     1 <1>   0.0800 
 38 H       -0.7440    -8.3790    -2.8850 H     1 <1>   0.0800 
 39 H       -1.8740    -8.4230     1.8380 H     1 <1>   0.1000 
 40 H       -4.6720    -8.6770    -1.6760 H     1 <1>   0.1500 
 41 H       -5.1100    -4.9990     0.4560 H     1 <1>   0.1500 
 42 H       -3.6420   -10.6050     0.5580 H     1 <1>   0.1000 
 43 H       -2.8320   -10.7180     2.1500 H     1 <1>   0.1000 
 44 H       -4.1220    -8.7240     2.9640 H     1 <1>   0.1000 
 45 H       -4.9710    -8.6530     1.3950 H     1 <1>   0.1000 
 46 H       -7.5330    -5.1740     0.0000 H     1 <1>   0.1500 
 47 H       -8.3910    -7.0690    -1.2760 H     1 <1>   0.1500 
@<TRIPOS>BOND
  1   1   2  1   
  2   1   3  1   
  3   2   4  2   
  4   2   5  1   
  5   3   6  2   
  6   3  27  1   
  7   4   6  1   
  8   4  28  1   
  9   5   7  1   
 10   5  29  1   
 11   5  30  1   
 12   6  31  1   
 13   7   8  1   
 14   7  32  1   
 15   7  33  1   
 16   8   9  am  
 17   8  34  1   
 18   9  10  2   
 19   9  11  1   
 20  11  12  1   
 21  11  13  1   
 22  11  35  1   
 23  12  14  1   
 24  13  15  1   
 25  13  16  1   
 26  13  36  1   
 27  14  17  1   
 28  14  37  1   
 29  14  38  1   
 30  15  17  am  
 31  15  18  1   
 32  16  19  ar  
 33  16  20  ar  
 34  17  21  2   
 35  18  22  1   
 36  18  23  1   
 37  18  39  1   
 38  19  24  ar  
 39  19  40  1   
 40  20  25  ar  
 41  20  41  1   
 42  22  23  1   
 43  22  42  1   
 44  22  43  1   
 45  23  44  1   
 46  23  45  1   
 47  24  26  ar  
 48  25  26  ar  
 49  25  46  1   
 50  26  47  1   
@<TRIPOS>SUBSTRUCTURE
  1 ****   9 GROUP 4 **** **** 0

# MOE 2024.06 (io_trps.svl 2023.06)
