@<TRIPOS>MOLECULE
NONAME
48 51 1 0 0 
SMALL
USER_CHARGES


@<TRIPOS>ATOM
  1 O       -1.9020     0.3620    -1.0400 O.2   1 <1>  -0.5700 
  2 C       -1.9130     1.2570    -0.2110 C.2   1 <1>   0.7150 
  3 N       -2.7140     1.0900     0.9070 N.am  1 <1>  -0.6600 
  4 C       -1.0960     2.4320    -0.4550 C.2   1 <1>   0.0550 
  5 C       -3.2070    -0.2750     1.2670 C.3   1 <1>   0.1400 
  6 C       -3.1590     2.2320     1.7580 C.3   1 <1>   0.1400 
  7 O       -0.7100     3.2510     0.5390 O.3   1 <1>  -0.2800 
  8 C       -0.5780     2.8840    -1.6260 C.2   1 <1>  -0.1500 
  9 C       -4.5540    -0.5870     0.5970 C.3   1 <1>   0.1400 
 10 C       -4.6120     2.1320     2.2420 C.3   1 <1>  -0.1600 
 11 C        0.0360     4.2210     0.0150 C.ar  1 <1>   0.1400 
 12 C        0.1570     4.0480    -1.3500 C.ar  1 <1>   0.0000 
 13 N       -5.6890     0.1440     1.2450 N.am  1 <1>  -0.6600 
 14 C       -5.5900     1.6300     1.1760 C.3   1 <1>   0.1400 
 15 C        0.6370     5.2820     0.6780 C.ar  1 <1>  -0.1500 
 16 C        0.9030     4.9640    -2.0940 C.ar  1 <1>  -0.1500 
 17 C       -6.7870    -0.4480     1.8320 C.2   1 <1>   0.5690 
 18 C        1.3720     6.1850    -0.0630 C.ar  1 <1>  -0.1500 
 19 C        1.5040     6.0240    -1.4460 C.ar  1 <1>  -0.1500 
 20 O       -7.6340     0.2130     2.3890 O.2   1 <1>  -0.5700 
 21 C       -6.9960    -1.9560     1.8510 C.3   1 <1>   0.0810 
 22 C       -7.5300    -2.4790     0.5300 C.2   1 <1>  -0.0400 
 23 O       -6.7460    -2.5770    -0.5100 O.3   1 <1>  -0.0190 
 24 C       -8.7480    -2.9070     0.1680 C.2   1 <1>  -0.1500 
 25 N       -7.3720    -3.0500    -1.5470 N.2   1 <1>  -0.4100 
 26 C       -8.5830    -3.2560    -1.1700 C.2   1 <1>   0.1080 
 27 C       -9.6720    -3.8010    -2.0650 C.3   1 <1>  -0.0590 
 28 H       -3.2910    -0.3730     2.3340 H     1 <1>   0.0800 
 29 H       -2.4860    -1.0020     0.9330 H     1 <1>   0.0800 
 30 H       -3.0760     3.1410     1.1880 H     1 <1>   0.0800 
 31 H       -2.5000     2.3170     2.6060 H     1 <1>   0.0800 
 32 H       -0.6910     2.4470    -2.6020 H     1 <1>   0.1500 
 33 H       -4.7070    -1.6470     0.6500 H     1 <1>   0.0800 
 34 H       -4.5060    -0.3270    -0.4470 H     1 <1>   0.0800 
 35 H       -4.9170     3.1190     2.5400 H     1 <1>   0.0800 
 36 H       -4.6750     1.5150     3.1200 H     1 <1>   0.0800 
 37 H       -5.2760     1.9330     0.1920 H     1 <1>   0.0800 
 38 H       -6.5590     2.0670     1.3530 H     1 <1>   0.0800 
 39 H        0.5210     5.3810     1.7420 H     1 <1>   0.1500 
 40 H        0.9990     4.8310    -3.1570 H     1 <1>   0.1500 
 41 H        1.8510     7.0200     0.4200 H     1 <1>   0.1500 
 42 H        2.0820     6.7400    -2.0050 H     1 <1>   0.1500 
 43 H       -7.7130    -2.1810     2.6190 H     1 <1>   0.0800 
 44 H       -6.0860    -2.4580     2.1130 H     1 <1>   0.0800 
 45 H       -9.6540    -2.9760     0.7410 H     1 <1>   0.1500 
 46 H      -10.4890    -3.1050    -2.1110 H     1 <1>   0.0800 
 47 H      -10.0260    -4.7400    -1.6800 H     1 <1>   0.0800 
 48 H       -9.2880    -3.9540    -3.0580 H     1 <1>   0.0800 
@<TRIPOS>BOND
  1   1   2  2   
  2   2   3  am  
  3   2   4  1   
  4   3   5  1   
  5   3   6  1   
  6   4   7  1   
  7   4   8  2   
  8   5   9  1   
  9   5  28  1   
 10   5  29  1   
 11   6  10  1   
 12   6  30  1   
 13   6  31  1   
 14   7  11  1   
 15   8  12  1   
 16   8  32  1   
 17   9  13  1   
 18   9  33  1   
 19   9  34  1   
 20  10  14  1   
 21  10  35  1   
 22  10  36  1   
 23  11  12  ar  
 24  11  15  ar  
 25  12  16  ar  
 26  13  14  1   
 27  13  17  am  
 28  14  37  1   
 29  14  38  1   
 30  15  18  ar  
 31  15  39  1   
 32  16  19  ar  
 33  16  40  1   
 34  17  20  2   
 35  17  21  1   
 36  18  19  ar  
 37  18  41  1   
 38  19  42  1   
 39  21  22  1   
 40  21  43  1   
 41  21  44  1   
 42  22  23  1   
 43  22  24  2   
 44  23  25  1   
 45  24  26  1   
 46  24  45  1   
 47  25  26  2   
 48  26  27  1   
 49  27  46  1   
 50  27  47  1   
 51  27  48  1   
@<TRIPOS>SUBSTRUCTURE
  1 ****   3 GROUP 4 **** **** 0

# MOE 2024.06 (io_trps.svl 2023.06)
