@<TRIPOS>MOLECULE
NONAME
49 52 1 0 0 
SMALL
USER_CHARGES


@<TRIPOS>ATOM
  1 O       -2.1370     0.1610     0.2470 O.2   1 <1>  -0.5700 
  2 C       -2.3430     1.0260    -0.5920 C.2   1 <1>   0.7160 
  3 N       -3.2190     0.6870    -1.6010 N.am  1 <1>  -0.6600 
  4 C       -1.7820     2.3610    -0.4630 C.2   1 <1>   0.2030 
  5 C       -4.5960     1.2610    -1.5320 C.3   1 <1>   0.1400 
  6 C       -3.2090    -0.7140    -2.1360 C.3   1 <1>   0.1400 
  7 N       -2.1480     3.4180    -1.1240 N.2   1 <1>  -0.4100 
  8 C       -0.7640     2.7240     0.4050 C.2   1 <1>  -0.1500 
  9 C       -5.4920     0.4190    -0.5810 C.3   1 <1>   0.4230 
 10 C       -4.3000    -1.5910    -1.4750 C.3   1 <1>   0.3430 
 11 O       -1.4370     4.4540    -0.7540 O.3   1 <1>  -0.0190 
 12 C       -0.6010     4.0310     0.1710 C.2   1 <1>  -0.0400 
 13 N       -4.8640    -0.9230    -0.2490 N.4   1 <1>  -0.9590 
 14 C       -6.9130     0.2400    -1.1640 C.3   1 <1>   0.1200 
 15 C        0.3630     5.0440     0.7800 C.3   1 <1>   0.1000 
 16 C       -5.7920    -1.7540     0.5760 C.3   1 <1>   0.5180 
 17 O       -7.7000    -0.5540    -0.3210 O.3   1 <1>  -0.5600 
 18 C        1.4170     4.3680     1.6660 C.3   1 <1>  -0.2400 
 19 C       -0.4090     6.0900     1.5910 C.3   1 <1>  -0.2400 
 20 C       -5.1790    -3.1380     0.8210 C.3   1 <1>  -0.1950 
 21 C       -7.1960    -1.8380    -0.0610 C.3   1 <1>   0.1200 
 22 C       -5.2850    -3.7770     2.1720 C.3   1 <1>  -0.2000 
 23 C       -3.9520    -3.3110     1.6650 C.3   1 <1>  -0.2000 
 24 H       -4.5640     2.2800    -1.1830 H     1 <1>   0.0800 
 25 H       -5.0130     1.2820    -2.5250 H     1 <1>   0.0800 
 26 H       -3.3530    -0.6950    -3.2030 H     1 <1>   0.0800 
 27 H       -2.2440    -1.1600    -1.9560 H     1 <1>   0.0800 
 28 H       -0.2540     2.0690     1.0870 H     1 <1>   0.1500 
 29 H       -5.5990     0.9780     0.3350 H     1 <1>   0.0800 
 30 H       -3.8630    -2.5420    -1.2180 H     1 <1>   0.0800 
 31 H       -5.0880    -1.7740    -2.1870 H     1 <1>   0.0800 
 32 H       -4.0280    -0.7180     0.3300 H     1 <1>   0.4500 
 33 H       -6.8840    -0.2190    -2.1370 H     1 <1>   0.0800 
 34 H       -7.4000     1.1960    -1.2530 H     1 <1>   0.0800 
 35 H        0.8720     5.5420    -0.0280 H     1 <1>   0.0800 
 36 H       -5.9070    -1.2760     1.5360 H     1 <1>   0.0800 
 37 H        0.9510     3.8750     2.5010 H     1 <1>   0.0800 
 38 H        2.1100     5.1000     2.0420 H     1 <1>   0.0800 
 39 H        1.9680     3.6420     1.0960 H     1 <1>   0.0800 
 40 H       -0.9410     5.6200     2.4000 H     1 <1>   0.0800 
 41 H       -1.1200     6.5960     0.9620 H     1 <1>   0.0800 
 42 H        0.2650     6.8220     1.9980 H     1 <1>   0.0800 
 43 H       -5.3130    -3.8070    -0.0120 H     1 <1>   0.1000 
 44 H       -7.8760    -2.3240     0.6170 H     1 <1>   0.0800 
 45 H       -7.1760    -2.3950    -0.9810 H     1 <1>   0.0800 
 46 H       -5.7260    -3.2410     2.9970 H     1 <1>   0.1000 
 47 H       -5.4590    -4.8380     2.2400 H     1 <1>   0.1000 
 48 H       -3.2250    -4.0590     1.3940 H     1 <1>   0.1000 
 49 H       -3.4970    -2.4630     2.1500 H     1 <1>   0.1000 
@<TRIPOS>BOND
  1   1   2  2   
  2   2   3  am  
  3   2   4  1   
  4   3   5  1   
  5   3   6  1   
  6   4   7  2   
  7   4   8  1   
  8   5   9  1   
  9   5  24  1   
 10   5  25  1   
 11   6  10  1   
 12   6  26  1   
 13   6  27  1   
 14   7  11  1   
 15   8  12  2   
 16   8  28  1   
 17   9  13  1   
 18   9  14  1   
 19   9  29  1   
 20  10  13  1   
 21  10  30  1   
 22  10  31  1   
 23  11  12  1   
 24  12  15  1   
 25  13  16  1   
 26  13  32  1   
 27  14  17  1   
 28  14  33  1   
 29  14  34  1   
 30  15  18  1   
 31  15  19  1   
 32  15  35  1   
 33  16  20  1   
 34  16  21  1   
 35  16  36  1   
 36  17  21  1   
 37  18  37  1   
 38  18  38  1   
 39  18  39  1   
 40  19  40  1   
 41  19  41  1   
 42  19  42  1   
 43  20  22  1   
 44  20  23  1   
 45  20  43  1   
 46  21  44  1   
 47  21  45  1   
 48  22  23  1   
 49  22  46  1   
 50  22  47  1   
 51  23  48  1   
 52  23  49  1   
@<TRIPOS>SUBSTRUCTURE
  1 ****   2 GROUP 4 **** **** 0

# MOE 2024.06 (io_trps.svl 2023.06)
