@<TRIPOS>MOLECULE
NONAME
54 57 1 0 0 
SMALL
USER_CHARGES


@<TRIPOS>ATOM
  1 O        2.5340    -1.0830     2.3330 O.2   1 <1>  -0.5700 
  2 C        2.2030    -1.2970     1.1830 C.2   1 <1>   0.5440 
  3 N        2.0800    -0.2330     0.3150 N.am  1 <1>  -0.6600 
  4 C        1.9410    -2.6600     0.7670 C.ar  1 <1>   0.0860 
  5 C        2.5550     1.1370     0.6710 C.3   1 <1>   0.1400 
  6 C        1.3790    -0.2800    -1.0030 C.3   1 <1>   0.1400 
  7 C        0.9910    -3.4400     1.4210 C.ar  1 <1>  -0.1500 
  8 C        2.6280    -3.2490    -0.2930 C.ar  1 <1>  -0.1500 
  9 C        3.3280     1.7600    -0.5050 C.3   1 <1>   0.1200 
 10 C        2.2300     0.4080    -2.0840 C.3   1 <1>   0.1200 
 11 C        0.7260    -4.7380     1.0260 C.ar  1 <1>  -0.1500 
 12 C        2.3640    -4.5460    -0.6880 C.ar  1 <1>  -0.1500 
 13 O        2.5750     1.7040    -1.6860 O.3   1 <1>  -0.5600 
 14 C        1.4070    -5.3290    -0.0410 C.ar  1 <1>   0.0860 
 15 C        1.1450    -6.6910    -0.4700 C.2   1 <1>   0.5440 
 16 O        1.3580    -7.0360    -1.6150 O.2   1 <1>  -0.5700 
 17 N        0.6550    -7.6190     0.4020 N.am  1 <1>  -0.7300 
 18 C        0.3560    -9.0300     0.0720 C.3   1 <1>   0.2200 
 19 C       -1.1480    -9.1990    -0.0560 C.3   1 <1>  -0.0800 
 20 C        0.6620    -9.9070     1.2800 C.3   1 <1>   0.1200 
 21 C       -1.5830    -9.4260     1.3990 C.3   1 <1>   0.1200 
 22 C       -1.5060   -10.3890    -0.9670 C.3   1 <1>  -0.0170 
 23 O       -0.4400    -9.7760     2.1250 O.3   1 <1>  -0.5600 
 24 C       -3.0120   -10.5370    -1.1200 C.ar  1 <1>  -0.1430 
 25 C       -3.7220   -11.5380    -0.4870 C.ar  1 <1>  -0.1500 
 26 C       -3.7470    -9.6730    -1.9070 C.ar  1 <1>  -0.1500 
 27 C       -5.0930   -11.6190    -0.6610 C.ar  1 <1>   0.1600 
 28 C       -5.1170    -9.8420    -2.0140 C.ar  1 <1>   0.1600 
 29 N       -5.8090   -10.7930    -1.4080 N.ar  1 <1>  -0.6200 
 30 H        1.7080     1.7560     0.9100 H     1 <1>   0.0800 
 31 H        3.1950     1.1020     1.5350 H     1 <1>   0.0800 
 32 H        1.1700    -1.2910    -1.2990 H     1 <1>   0.0800 
 33 H        0.4400     0.2380    -0.9180 H     1 <1>   0.0800 
 34 H        0.4580    -3.0090     2.2520 H     1 <1>   0.1500 
 35 H        3.3810    -2.6760    -0.8060 H     1 <1>   0.1500 
 36 H        4.2560     1.2400    -0.6620 H     1 <1>   0.0800 
 37 H        3.5420     2.7940    -0.3000 H     1 <1>   0.0800 
 38 H        1.6730     0.4840    -3.0010 H     1 <1>   0.0800 
 39 H        3.1320    -0.1490    -2.2700 H     1 <1>   0.0800 
 40 H       -0.0260    -5.2980     1.5530 H     1 <1>   0.1500 
 41 H        2.9080    -4.9730    -1.5150 H     1 <1>   0.1500 
 42 H        0.5100    -7.3850     1.3860 H     1 <1>   0.3700 
 43 H        0.9000    -9.3380    -0.8060 H     1 <1>   0.0800 
 44 H       -1.6020    -8.3110    -0.4590 H     1 <1>   0.0800 
 45 H        1.5560    -9.6070     1.7970 H     1 <1>   0.0800 
 46 H        0.7360   -10.9410     0.9930 H     1 <1>   0.0800 
 47 H       -2.3120   -10.2100     1.5020 H     1 <1>   0.0800 
 48 H       -1.9750    -8.5190     1.8260 H     1 <1>   0.0800 
 49 H       -1.0900   -11.3000    -0.5730 H     1 <1>   0.0800 
 50 H       -1.0760   -10.2310    -1.9420 H     1 <1>   0.0800 
 51 H       -3.2240   -12.2540     0.1400 H     1 <1>   0.1500 
 52 H       -3.2670    -8.8710    -2.4370 H     1 <1>   0.1500 
 53 H       -5.6310   -12.4050    -0.1580 H     1 <1>   0.1500 
 54 H       -5.6740    -9.1580    -2.6320 H     1 <1>   0.1500 
@<TRIPOS>BOND
  1   1   2  2   
  2   2   3  am  
  3   2   4  1   
  4   3   5  1   
  5   3   6  1   
  6   4   7  ar  
  7   4   8  ar  
  8   5   9  1   
  9   5  30  1   
 10   5  31  1   
 11   6  10  1   
 12   6  32  1   
 13   6  33  1   
 14   7  11  ar  
 15   7  34  1   
 16   8  12  ar  
 17   8  35  1   
 18   9  13  1   
 19   9  36  1   
 20   9  37  1   
 21  10  13  1   
 22  10  38  1   
 23  10  39  1   
 24  11  14  ar  
 25  11  40  1   
 26  12  14  ar  
 27  12  41  1   
 28  14  15  1   
 29  15  16  2   
 30  15  17  am  
 31  17  18  1   
 32  17  42  1   
 33  18  19  1   
 34  18  20  1   
 35  18  43  1   
 36  19  21  1   
 37  19  22  1   
 38  19  44  1   
 39  20  23  1   
 40  20  45  1   
 41  20  46  1   
 42  21  23  1   
 43  21  47  1   
 44  21  48  1   
 45  22  24  1   
 46  22  49  1   
 47  22  50  1   
 48  24  25  ar  
 49  24  26  ar  
 50  25  27  ar  
 51  25  51  1   
 52  26  28  ar  
 53  26  52  1   
 54  27  29  ar  
 55  27  53  1   
 56  28  29  ar  
 57  28  54  1   
@<TRIPOS>SUBSTRUCTURE
  1 ****  14 GROUP 4 **** **** 0

# MOE 2024.06 (io_trps.svl 2023.06)
