@<TRIPOS>MOLECULE
NONAME
55 59 1 0 0 
SMALL
USER_CHARGES


@<TRIPOS>ATOM
  1 O        3.1030    -1.2010    -2.0210 O.2   1 <1>  -0.5700 
  2 C        2.2270    -1.5700    -1.2550 C.2   1 <1>   0.5440 
  3 N        1.5750    -0.5890    -0.5290 N.am  1 <1>  -0.6600 
  4 C        1.9460    -3.0040    -1.1370 C.ar  1 <1>   0.3960 
  5 C        1.8620     0.8530    -0.6960 C.3   1 <1>   0.1400 
  6 C        0.5960    -0.8110     0.5580 C.3   1 <1>   0.1400 
  7 N        0.7220    -3.4510    -0.8100 N.ar  1 <1>  -0.6200 
  8 C        2.9960    -3.8930    -1.3840 C.ar  1 <1>   0.1600 
  9 C        0.8430     1.5610     0.1910 C.3   1 <1>  -0.1600 
 10 C        0.4860     0.5350     1.2630 C.3   1 <1>  -0.1600 
 11 C        0.6160    -4.7680    -0.7420 C.ar  1 <1>   0.4100 
 12 N        2.9250    -5.2150    -1.3120 N.ar  1 <1>  -0.6200 
 13 N       -0.6430    -5.2660    -0.4090 N.pl3 1 <1>  -0.8380 
 14 C        1.7140    -5.6130    -0.9810 C.ar  1 <1>   0.1600 
 15 C       -1.8370    -4.3740    -0.3040 C.3   1 <1>   0.2090 
 16 C       -1.0760    -6.6410    -0.7610 C.3   1 <1>   0.2090 
 17 C       -3.0520    -5.2690    -0.5650 C.3   1 <1>   0.2000 
 18 C       -2.5570    -6.7030    -0.3980 C.3   1 <1>  -0.0800 
 19 O       -4.0790    -5.0230     0.3360 O.3   1 <1>  -0.6800 
 20 C       -3.3590    -7.7130    -1.2360 C.3   1 <1>  -0.0170 
 21 C       -2.7900    -9.1230    -1.1030 C.ar  1 <1>  -0.1430 
 22 C       -3.0000    -9.9190     0.0490 C.ar  1 <1>   0.0000 
 23 C       -2.0440    -9.6580    -2.1110 C.ar  1 <1>  -0.1500 
 24 C       -2.3930   -11.1980     0.0830 C.ar  1 <1>   0.3100 
 25 C       -3.7770    -9.5250     1.1630 C.ar  1 <1>  -0.1500 
 26 C       -1.4990   -10.9410    -1.9820 C.ar  1 <1>   0.1600 
 27 N       -1.6480   -11.6930    -0.9380 N.ar  1 <1>  -0.6200 
 28 C       -2.5670   -12.0030     1.2200 C.ar  1 <1>  -0.1500 
 29 C       -3.9290   -10.3360     2.2550 C.ar  1 <1>  -0.1500 
 30 C       -3.3150   -11.5890     2.2880 C.ar  1 <1>  -0.1500 
 31 H        2.8650     1.0510    -0.3580 H     1 <1>   0.0800 
 32 H        1.7650     1.1440    -1.7280 H     1 <1>   0.0800 
 33 H       -0.3510    -1.0860     0.1240 H     1 <1>   0.0800 
 34 H        0.9270    -1.5850     1.2290 H     1 <1>   0.0800 
 35 H        3.9530    -3.4800    -1.6540 H     1 <1>   0.1500 
 36 H        1.2400     2.4700     0.6060 H     1 <1>   0.0800 
 37 H       -0.0270     1.7930    -0.3980 H     1 <1>   0.0800 
 38 H       -0.4950     0.6930     1.6730 H     1 <1>   0.0800 
 39 H        1.2100     0.5720     2.0590 H     1 <1>   0.0800 
 40 H        1.5660    -6.6710    -0.8850 H     1 <1>   0.1500 
 41 H       -1.8710    -3.9450     0.6810 H     1 <1>   0.0800 
 42 H       -1.7960    -3.5910    -1.0420 H     1 <1>   0.0800 
 43 H       -0.9350    -6.7960    -1.8180 H     1 <1>   0.0800 
 44 H       -0.5180    -7.3780    -0.2080 H     1 <1>   0.0800 
 45 H       -3.4240    -5.0920    -1.5590 H     1 <1>   0.0800 
 46 H       -2.6040    -6.9740     0.6420 H     1 <1>   0.0800 
 47 H       -3.7570    -5.1330     1.2520 H     1 <1>   0.4000 
 48 H       -3.3360    -7.4140    -2.2700 H     1 <1>   0.0800 
 49 H       -4.3920    -7.7040    -0.9350 H     1 <1>   0.0800 
 50 H       -1.8520    -9.1210    -3.0220 H     1 <1>   0.1500 
 51 H       -4.2670    -8.5700     1.1570 H     1 <1>   0.1500 
 52 H       -0.9170   -11.3270    -2.8020 H     1 <1>   0.1500 
 53 H       -2.0890   -12.9660     1.2210 H     1 <1>   0.1500 
 54 H       -4.5230   -10.0230     3.0980 H     1 <1>   0.1500 
 55 H       -3.4390   -12.2170     3.1540 H     1 <1>   0.1500 
@<TRIPOS>BOND
  1   1   2  2   
  2   2   3  am  
  3   2   4  1   
  4   3   5  1   
  5   3   6  1   
  6   4   7  ar  
  7   4   8  ar  
  8   5   9  1   
  9   5  31  1   
 10   5  32  1   
 11   6  10  1   
 12   6  33  1   
 13   6  34  1   
 14   7  11  ar  
 15   8  12  ar  
 16   8  35  1   
 17   9  10  1   
 18   9  36  1   
 19   9  37  1   
 20  10  38  1   
 21  10  39  1   
 22  11  13  1   
 23  11  14  ar  
 24  12  14  ar  
 25  13  15  1   
 26  13  16  1   
 27  14  40  1   
 28  15  17  1   
 29  15  41  1   
 30  15  42  1   
 31  16  18  1   
 32  16  43  1   
 33  16  44  1   
 34  17  18  1   
 35  17  19  1   
 36  17  45  1   
 37  18  20  1   
 38  18  46  1   
 39  19  47  1   
 40  20  21  1   
 41  20  48  1   
 42  20  49  1   
 43  21  22  ar  
 44  21  23  ar  
 45  22  24  ar  
 46  22  25  ar  
 47  23  26  ar  
 48  23  50  1   
 49  24  27  ar  
 50  24  28  ar  
 51  25  29  ar  
 52  25  51  1   
 53  26  27  ar  
 54  26  52  1   
 55  28  30  ar  
 56  28  53  1   
 57  29  30  ar  
 58  29  54  1   
 59  30  55  1   
@<TRIPOS>SUBSTRUCTURE
  1 ****  13 GROUP 4 **** **** 0

# MOE 2024.06 (io_trps.svl 2023.06)
