@<TRIPOS>MOLECULE
NONAME
44 45 1 0 0 
SMALL
USER_CHARGES


@<TRIPOS>ATOM
  1 S        0.3720    -0.4380    -0.2570 S.3   1 <1>  -0.0800 
  2 C       -1.2290    -1.0960    -0.1480 C.2   1 <1>   0.4420 
  3 C       -0.3490     1.1320    -0.1720 C.2   1 <1>   0.1980 
  4 N       -2.1210    -0.1770    -0.0610 N.2   1 <1>  -0.3380 
  5 N       -1.3380    -2.4710    -0.1670 N.am  1 <1>  -0.4940 
  6 N       -1.6130     1.0900    -0.0750 N.2   1 <1>  -0.3380 
  7 C        0.5450     2.3510    -0.2180 C.3   1 <1>   0.0200 
  8 C       -2.4640    -3.2450    -0.1070 C.2   1 <1>   0.5690 
  9 C       -0.3320     3.6080    -0.1650 C.3   1 <1>   0.3430 
 10 O       -3.5760    -2.7890    -0.0490 O.2   1 <1>  -0.5700 
 11 C       -2.2860    -4.7570    -0.1430 C.3   1 <1>  -0.0190 
 12 N        0.4560     4.8830    -0.2700 N.4   1 <1>  -0.9590 
 13 C       -3.5730    -5.5430     0.1620 C.3   1 <1>   0.1400 
 14 C       -1.2400    -5.2990     0.8530 C.3   1 <1>  -0.0990 
 15 C        1.3020     5.1370     0.9410 C.3   1 <1>   0.2630 
 16 C       -0.4800     6.0310    -0.4880 C.3   1 <1>   0.2630 
 17 N       -3.0790    -6.7600     0.8320 N.am  1 <1>  -0.6600 
 18 C       -1.7990    -6.6390     1.2380 C.2   1 <1>   0.5690 
 19 C       -3.9450    -7.9260     1.1030 C.3   1 <1>   0.2780 
 20 O       -1.1580    -7.4640     1.8400 O.2   1 <1>  -0.5700 
 21 C       -4.4520    -8.4990    -0.2070 C.2   1 <1>  -0.2880 
 22 C       -4.0970    -9.6830    -0.7160 C.2   1 <1>  -0.3000 
 23 H       -0.4560    -2.9690    -0.2360 H     1 <1>   0.3700 
 24 H        1.1100     2.3310    -1.1320 H     1 <1>   0.0800 
 25 H        1.2120     2.3160     0.6230 H     1 <1>   0.0800 
 26 H       -0.9010     3.6030     0.7520 H     1 <1>   0.0800 
 27 H       -1.0380     3.5570    -0.9800 H     1 <1>   0.0800 
 28 H       -1.9830    -5.0280    -1.1380 H     1 <1>   0.0800 
 29 H        1.0700     4.8220    -1.0980 H     1 <1>   0.4500 
 30 H       -4.1060    -5.7770    -0.7440 H     1 <1>   0.0800 
 31 H       -4.2190    -5.0080     0.8380 H     1 <1>   0.0800 
 32 H       -1.1830    -4.6940     1.7400 H     1 <1>   0.0800 
 33 H       -0.2690    -5.4100     0.4080 H     1 <1>   0.0800 
 34 H        0.6850     5.1920     1.8240 H     1 <1>   0.0800 
 35 H        1.8340     6.0690     0.8360 H     1 <1>   0.0800 
 36 H        2.0230     4.3480     1.0720 H     1 <1>   0.0800 
 37 H       -1.1500     6.1330     0.3510 H     1 <1>   0.0800 
 38 H       -1.0670     5.8730    -1.3780 H     1 <1>   0.0800 
 39 H        0.0730     6.9490    -0.6010 H     1 <1>   0.0800 
 40 H       -4.7720    -7.6270     1.7240 H     1 <1>   0.0800 
 41 H       -3.3790    -8.6750     1.6330 H     1 <1>   0.0800 
 42 H       -5.1480    -7.8460    -0.7030 H     1 <1>   0.1500 
 43 H       -4.4690   -10.0750    -1.6470 H     1 <1>   0.1500 
 44 H       -3.4010   -10.3580    -0.2470 H     1 <1>   0.1500 
@<TRIPOS>BOND
  1   1   2  1   
  2   1   3  1   
  3   2   4  2   
  4   2   5  1   
  5   3   6  2   
  6   3   7  1   
  7   4   6  1   
  8   5   8  am  
  9   5  23  1   
 10   7   9  1   
 11   7  24  1   
 12   7  25  1   
 13   8  10  2   
 14   8  11  1   
 15   9  12  1   
 16   9  26  1   
 17   9  27  1   
 18  11  13  1   
 19  11  14  1   
 20  11  28  1   
 21  12  15  1   
 22  12  16  1   
 23  12  29  1   
 24  13  17  1   
 25  13  30  1   
 26  13  31  1   
 27  14  18  1   
 28  14  32  1   
 29  14  33  1   
 30  15  34  1   
 31  15  35  1   
 32  15  36  1   
 33  16  37  1   
 34  16  38  1   
 35  16  39  1   
 36  17  18  am  
 37  17  19  1   
 38  18  20  2   
 39  19  21  1   
 40  19  40  1   
 41  19  41  1   
 42  21  22  2   
 43  21  42  1   
 44  22  43  1   
 45  22  44  1   
@<TRIPOS>SUBSTRUCTURE
  1 ****   5 GROUP 4 **** **** 0

# MOE 2024.06 (io_trps.svl 2023.06)
