@<TRIPOS>MOLECULE
NONAME
20 21 1 0 0 
SMALL
USER_CHARGES


@<TRIPOS>ATOM
  1 N        3.8640    -0.2940    -0.0640 N.4   1 <1>  -0.8440 
  2 C        4.6640     0.8410     0.5040 C.3   1 <1>   0.4720 
  3 C        4.9100    -0.4560    -1.1270 C.3   1 <1>   0.4720 
  4 C        5.9100     0.2010    -0.1480 C.3   1 <1>   0.0000 
  5 C        6.6980    -0.8020     0.7280 C.3   1 <1>  -0.0220 
  6 C        6.9040     1.1770    -0.8150 C.3   1 <1>  -0.0220 
  7 C        8.1240    -0.4550     0.3920 C.2   1 <1>  -0.2880 
  8 C        8.2320     0.5880    -0.4210 C.2   1 <1>  -0.2880 
  9 H        2.9480    -0.0120    -0.4280 H     1 <1>   0.4500 
 10 H        3.8210    -1.0990     0.5680 H     1 <1>   0.4500 
 11 H        4.6690     0.8410     1.5790 H     1 <1>   0.0000 
 12 H        4.3820     1.7760     0.0530 H     1 <1>   0.0000 
 13 H        4.6880     0.1570    -1.9830 H     1 <1>   0.0000 
 14 H        5.1120    -1.4870    -1.3510 H     1 <1>   0.0000 
 15 H        6.4930    -1.8280     0.4700 H     1 <1>   0.0800 
 16 H        6.5270    -0.6450     1.7790 H     1 <1>   0.0800 
 17 H        6.8180     2.1750    -0.4190 H     1 <1>   0.0800 
 18 H        6.8040     1.1990    -1.8870 H     1 <1>   0.0800 
 19 H        8.9170    -1.0490     0.8220 H     1 <1>   0.1500 
 20 H        9.1330     1.0410    -0.8070 H     1 <1>   0.1500 
@<TRIPOS>BOND
  1   1   2  1   
  2   1   3  1   
  3   1   9  1   
  4   1  10  1   
  5   2   4  1   
  6   2  11  1   
  7   2  12  1   
  8   3   4  1   
  9   3  13  1   
 10   3  14  1   
 11   4   5  1   
 12   4   6  1   
 13   5   7  1   
 14   5  15  1   
 15   5  16  1   
 16   6   8  1   
 17   6  17  1   
 18   6  18  1   
 19   7   8  2   
 20   7  19  1   
 21   8  20  1   
@<TRIPOS>SUBSTRUCTURE
  1 ****   4 GROUP 4 **** **** 0

# MOE 2024.06 (io_trps.svl 2023.06)
