@<TRIPOS>MOLECULE
NONAME
62 65 1 0 0 
SMALL
USER_CHARGES


@<TRIPOS>ATOM
  1 O        0.8640    -0.2030    -1.6440 O.2   1 <1>  -0.5700 
  2 C        1.9920    -0.3030    -1.2220 C.2   1 <1>   0.5690 
  3 N        2.3220    -1.1660    -0.2130 N.am  1 <1>  -0.6600 
  4 C        3.0540     0.5780    -1.8550 C.3   1 <1>  -0.0990 
  5 C        3.7000    -1.3110     0.3150 C.3   1 <1>   0.1400 
  6 C        1.2950    -2.0170     0.4510 C.3   1 <1>   0.0600 
  7 C        3.6350     1.6170    -0.8760 C.3   1 <1>  -0.1600 
  8 C        4.1510    -0.0270     1.0250 C.3   1 <1>  -0.1600 
  9 C        4.7070     1.1110     0.1290 C.3   1 <1>   0.0000 
 10 C        6.0050     0.6450    -0.5810 C.3   1 <1>  -0.1600 
 11 C        5.0870     2.2800     1.0720 C.3   1 <1>  -0.1600 
 12 C        6.7670     1.7840    -1.2650 C.3   1 <1>   0.2090 
 13 C        5.8710     3.4080     0.3910 C.3   1 <1>   0.2090 
 14 N        7.0850     2.8390    -0.2640 N.pl3 1 <1>  -0.8380 
 15 C        8.3280     3.3410    -0.0450 C.ar  1 <1>   0.4100 
 16 N        8.4300     4.6160     0.2790 N.ar  1 <1>  -0.6200 
 17 C        9.4710     2.5260    -0.1580 C.ar  1 <1>  -0.1500 
 18 C        9.6340     5.1350     0.4620 C.ar  1 <1>   0.7710 
 19 C       10.6960     3.0660     0.0450 C.ar  1 <1>   0.2180 
 20 N       10.7440     4.3830     0.3530 N.ar  1 <1>  -0.1790 
 21 N        9.7540     6.4550     0.7720 N.pl3 1 <1>  -0.8380 
 22 C       11.9950     2.2750    -0.0450 C.3   1 <1>  -0.0170 
 23 C       11.0180     7.2680     0.8710 C.3   1 <1>   0.2090 
 24 C        8.5440     7.3220     1.0330 C.3   1 <1>   0.2090 
 25 C       12.9050     2.7840    -1.1700 C.3   1 <1>  -0.2400 
 26 C       10.9200     8.5520     0.0250 C.3   1 <1>   0.1200 
 27 C        8.5820     8.6050     0.1860 C.3   1 <1>   0.1200 
 28 O        9.7880     9.2870     0.3800 O.3   1 <1>  -0.5600 
 29 H        2.5830     1.1100    -2.6620 H     1 <1>   0.0800 
 30 H        3.8140    -0.0370    -2.2930 H     1 <1>   0.0800 
 31 H        4.3690    -1.5780    -0.4830 H     1 <1>   0.0800 
 32 H        3.7150    -2.1190     1.0260 H     1 <1>   0.0800 
 33 H        0.3180    -1.8350     0.0370 H     1 <1>   0.0800 
 34 H        1.2650    -1.7960     1.5040 H     1 <1>   0.0800 
 35 H        1.5370    -3.0560     0.3110 H     1 <1>   0.0800 
 36 H        2.8120     2.0400    -0.3260 H     1 <1>   0.0800 
 37 H        4.0420     2.4150    -1.4680 H     1 <1>   0.0800 
 38 H        4.9230    -0.3100     1.7180 H     1 <1>   0.0800 
 39 H        3.3300     0.3410     1.6160 H     1 <1>   0.0800 
 40 H        5.7950    -0.1080    -1.3160 H     1 <1>   0.0800 
 41 H        6.6660     0.2000     0.1410 H     1 <1>   0.0800 
 42 H        5.6970     1.9120     1.8770 H     1 <1>   0.0800 
 43 H        4.2000     2.6960     1.5160 H     1 <1>   0.0800 
 44 H        6.1670     2.2140    -2.0490 H     1 <1>   0.0800 
 45 H        7.6600     1.4030    -1.7240 H     1 <1>   0.0800 
 46 H        6.1460     4.1350     1.1360 H     1 <1>   0.0800 
 47 H        5.2660     3.9060    -0.3460 H     1 <1>   0.0800 
 48 H        9.3440     1.4850    -0.3860 H     1 <1>   0.1500 
 49 H       11.6180     4.8530     0.5350 H     1 <1>   0.4570 
 50 H       11.7680     1.2380    -0.2280 H     1 <1>   0.0800 
 51 H       12.5160     2.3240     0.8960 H     1 <1>   0.0800 
 52 H       11.8760     6.7130     0.5410 H     1 <1>   0.0800 
 53 H       11.1790     7.5500     1.8990 H     1 <1>   0.0800 
 54 H        8.5240     7.5970     2.0740 H     1 <1>   0.0800 
 55 H        7.6230     6.8070     0.8230 H     1 <1>   0.0800 
 56 H       12.3950     2.7380    -2.1180 H     1 <1>   0.0800 
 57 H       13.7830     2.1640    -1.2360 H     1 <1>   0.0800 
 58 H       13.2250     3.7950    -0.9960 H     1 <1>   0.0800 
 59 H       10.8640     8.3210    -1.0250 H     1 <1>   0.0800 
 60 H       11.7790     9.1780     0.1950 H     1 <1>   0.0800 
 61 H        7.7830     9.2640     0.4760 H     1 <1>   0.0800 
 62 H        8.4760     8.3740    -0.8600 H     1 <1>   0.0800 
@<TRIPOS>BOND
  1   1   2  2   
  2   2   3  am  
  3   2   4  1   
  4   3   5  1   
  5   3   6  1   
  6   4   7  1   
  7   4  29  1   
  8   4  30  1   
  9   5   8  1   
 10   5  31  1   
 11   5  32  1   
 12   6  33  1   
 13   6  34  1   
 14   6  35  1   
 15   7   9  1   
 16   7  36  1   
 17   7  37  1   
 18   8   9  1   
 19   8  38  1   
 20   8  39  1   
 21   9  10  1   
 22   9  11  1   
 23  10  12  1   
 24  10  40  1   
 25  10  41  1   
 26  11  13  1   
 27  11  42  1   
 28  11  43  1   
 29  12  14  1   
 30  12  44  1   
 31  12  45  1   
 32  13  14  1   
 33  13  46  1   
 34  13  47  1   
 35  14  15  1   
 36  15  16  ar  
 37  15  17  ar  
 38  16  18  ar  
 39  17  19  ar  
 40  17  48  1   
 41  18  20  ar  
 42  18  21  1   
 43  19  20  ar  
 44  19  22  1   
 45  20  49  1   
 46  21  23  1   
 47  21  24  1   
 48  22  25  1   
 49  22  50  1   
 50  22  51  1   
 51  23  26  1   
 52  23  52  1   
 53  23  53  1   
 54  24  27  1   
 55  24  54  1   
 56  24  55  1   
 57  25  56  1   
 58  25  57  1   
 59  25  58  1   
 60  26  28  1   
 61  26  59  1   
 62  26  60  1   
 63  27  28  1   
 64  27  61  1   
 65  27  62  1   
@<TRIPOS>SUBSTRUCTURE
  1 ****  14 GROUP 4 **** **** 0

# MOE 2024.06 (io_trps.svl 2023.06)
