@<TRIPOS>MOLECULE
NONAME
47 49 1 0 0 
SMALL
USER_CHARGES


@<TRIPOS>ATOM
  1 O       -0.5650     2.8990    -1.8750 O.2   1 <1>  -0.5700 
  2 C        0.3290     2.1340    -1.5250 C.2   1 <1>   0.6160 
  3 N        0.8130     2.1750    -0.2270 N.am  1 <1>  -0.4690 
  4 C        0.8780     1.1760    -2.4200 C.2   1 <1>  -0.1360 
  5 C        1.7790     1.2720     0.1830 C.2   1 <1>  -0.0410 
  6 C        0.2820     3.1880     0.7400 C.3   1 <1>   0.2010 
  7 C        1.8370     0.3000    -2.0170 C.2   1 <1>  -0.1500 
  8 C        2.2900     0.3520    -0.6770 C.2   1 <1>  -0.1500 
  9 C       -1.0800     2.8010     1.3120 C.2   1 <1>   0.5690 
 10 O       -1.1890     2.5900     2.4960 O.2   1 <1>  -0.5700 
 11 N       -2.1420     2.6910     0.4750 N.am  1 <1>  -0.7300 
 12 C       -3.5340     2.3320     0.8320 C.3   1 <1>   0.2200 
 13 C       -3.6660     0.8310     1.1800 C.3   1 <1>   0.2000 
 14 C       -4.4290     2.7150    -0.3510 C.3   1 <1>  -0.1600 
 15 O       -3.0080     0.5610     2.3730 O.3   1 <1>  -0.6800 
 16 C       -5.1290     0.4020     1.3430 C.3   1 <1>   0.1400 
 17 C       -5.8820     2.3090    -0.1000 C.3   1 <1>   0.1400 
 18 N       -5.9460     0.8470     0.1710 N.am  1 <1>  -0.6600 
 19 C       -6.5620    -0.0270    -0.7050 C.2   1 <1>   0.5440 
 20 O       -6.8760     0.3760    -1.8090 O.2   1 <1>  -0.5700 
 21 C       -6.8350    -1.4090    -0.3540 C.ar  1 <1>   0.0860 
 22 C       -7.5100    -1.7470     0.8190 C.ar  1 <1>  -0.1500 
 23 C       -6.4340    -2.4500    -1.1900 C.ar  1 <1>  -0.1500 
 24 C       -7.7580    -3.0670     1.1520 C.ar  1 <1>  -0.1500 
 25 C       -6.6790    -3.7720    -0.8640 C.ar  1 <1>  -0.1500 
 26 C       -7.3410    -4.0820     0.3100 C.ar  1 <1>  -0.1500 
 27 H        0.4930     1.1840    -3.4220 H     1 <1>   0.1500 
 28 H        2.1090     1.3240     1.2080 H     1 <1>   0.1500 
 29 H        0.9750     3.3060     1.5530 H     1 <1>   0.0800 
 30 H        0.1910     4.1370     0.2450 H     1 <1>   0.0800 
 31 H        2.2610    -0.4320    -2.6830 H     1 <1>   0.1500 
 32 H        3.0420    -0.3520    -0.3630 H     1 <1>   0.1500 
 33 H       -1.9530     2.7970    -0.5350 H     1 <1>   0.3700 
 34 H       -3.8370     2.9070     1.6910 H     1 <1>   0.0800 
 35 H       -3.2070     0.2390     0.4070 H     1 <1>   0.0800 
 36 H       -4.3870     3.7780    -0.5060 H     1 <1>   0.0800 
 37 H       -4.0910     2.2250    -1.2480 H     1 <1>   0.0800 
 38 H       -2.2600     1.2040     2.4850 H     1 <1>   0.4000 
 39 H       -5.5350     0.8470     2.2350 H     1 <1>   0.0800 
 40 H       -5.1570    -0.6670     1.4490 H     1 <1>   0.0800 
 41 H       -6.4840     2.5650    -0.9550 H     1 <1>   0.0800 
 42 H       -6.2750     2.8410     0.7500 H     1 <1>   0.0800 
 43 H       -7.8440    -0.9610     1.4730 H     1 <1>   0.1500 
 44 H       -5.9250    -2.2080    -2.1080 H     1 <1>   0.1500 
 45 H       -8.2780    -3.3050     2.0640 H     1 <1>   0.1500 
 46 H       -6.3580    -4.5580    -1.5250 H     1 <1>   0.1500 
 47 H       -7.5330    -5.1100     0.5660 H     1 <1>   0.1500 
@<TRIPOS>BOND
  1   1   2  2   
  2   2   3  am  
  3   2   4  1   
  4   3   5  1   
  5   3   6  1   
  6   4   7  2   
  7   4  27  1   
  8   5   8  2   
  9   5  28  1   
 10   6   9  1   
 11   6  29  1   
 12   6  30  1   
 13   7   8  1   
 14   7  31  1   
 15   8  32  1   
 16   9  10  2   
 17   9  11  am  
 18  11  12  1   
 19  11  33  1   
 20  12  13  1   
 21  12  14  1   
 22  12  34  1   
 23  13  15  1   
 24  13  16  1   
 25  13  35  1   
 26  14  17  1   
 27  14  36  1   
 28  14  37  1   
 29  15  38  1   
 30  16  18  1   
 31  16  39  1   
 32  16  40  1   
 33  17  18  1   
 34  17  41  1   
 35  17  42  1   
 36  18  19  am  
 37  19  20  2   
 38  19  21  1   
 39  21  22  ar  
 40  21  23  ar  
 41  22  24  ar  
 42  22  43  1   
 43  23  25  ar  
 44  23  44  1   
 45  24  26  ar  
 46  24  45  1   
 47  25  26  ar  
 48  25  46  1   
 49  26  47  1   
@<TRIPOS>SUBSTRUCTURE
  1 ****  13 GROUP 4 **** **** 0

# MOE 2024.06 (io_trps.svl 2023.06)
