@<TRIPOS>MOLECULE
NONAME
53 55 1 0 0 
SMALL
USER_CHARGES


@<TRIPOS>ATOM
  1 O       -0.0580    -0.3450     0.3170 O.3   1 <1>  -0.0190 
  2 N        0.4420     0.8310     0.5450 N.2   1 <1>  -0.4100 
  3 C        0.9480    -1.0340    -0.1630 C.2   1 <1>   0.2980 
  4 C        1.6680     0.7880     0.2060 C.2   1 <1>   0.3350 
  5 N        2.0470    -0.3940    -0.2600 N.2   1 <1>  -0.5650 
  6 C        0.7020    -2.4890    -0.5350 C.3   1 <1>   0.1000 
  7 C        2.6350     1.9540     0.3000 C.3   1 <1>   0.0210 
  8 C        0.5030    -3.3090     0.7480 C.3   1 <1>   0.2090 
  9 C        1.8330    -3.0880    -1.3960 C.3   1 <1>  -0.1600 
 10 C        3.2210     2.1390     1.7140 C.3   1 <1>  -0.0800 
 11 N        0.3160    -4.7630     0.4470 N.pl3 1 <1>  -0.8380 
 12 C        1.5710    -4.5750    -1.6780 C.3   1 <1>  -0.1600 
 13 C        4.0720     3.4140     1.7770 C.3   1 <1>  -0.2400 
 14 C        4.0680     0.9340     2.1490 C.3   1 <1>  -0.2400 
 15 C       -0.9670    -5.2870     0.3920 C.ar  1 <1>   0.4100 
 16 C        1.3870    -5.3760    -0.3850 C.3   1 <1>   0.2090 
 17 N       -1.8410    -4.5440    -0.2700 N.ar  1 <1>  -0.6200 
 18 C       -1.2940    -6.5110     0.9910 C.ar  1 <1>   0.0730 
 19 C       -3.0750    -4.9940    -0.3560 C.ar  1 <1>   0.1670 
 20 C       -0.2740    -7.2220     1.7020 C.1   1 <1>   0.4840 
 21 C       -2.5980    -6.9870     0.8860 C.ar  1 <1>  -0.1430 
 22 C       -3.5150    -6.1910     0.2080 C.ar  1 <1>  -0.1430 
 23 C       -4.0040    -4.0850    -1.1420 C.3   1 <1>  -0.0970 
 24 N        0.5180    -7.8330     2.2540 N.1   1 <1>  -0.5570 
 25 C       -3.0130    -8.3320     1.4950 C.3   1 <1>  -0.0970 
 26 C       -4.9780    -6.6290     0.0900 C.3   1 <1>  -0.0970 
 27 H       -0.2120    -2.5260    -1.1000 H     1 <1>   0.0800 
 28 H        2.1030     2.8440     0.0180 H     1 <1>   0.0800 
 29 H        3.4280     1.8080    -0.4110 H     1 <1>   0.0800 
 30 H       -0.3560    -2.9400     1.2830 H     1 <1>   0.0800 
 31 H        1.3630    -3.1950     1.3850 H     1 <1>   0.0800 
 32 H        2.7710    -2.9850    -0.8790 H     1 <1>   0.0800 
 33 H        1.9030    -2.5470    -2.3240 H     1 <1>   0.0800 
 34 H        2.4010     2.2460     2.4070 H     1 <1>   0.0800 
 35 H        2.3920    -4.9880    -2.2360 H     1 <1>   0.0800 
 36 H        0.6810    -4.6800    -2.2750 H     1 <1>   0.0800 
 37 H        4.9060     3.3490     1.1010 H     1 <1>   0.0800 
 38 H        4.4510     3.5610     2.7740 H     1 <1>   0.0800 
 39 H        3.4810     4.2740     1.5140 H     1 <1>   0.0800 
 40 H        4.8780     0.7700     1.4600 H     1 <1>   0.0800 
 41 H        3.4670     0.0430     2.1870 H     1 <1>   0.0800 
 42 H        4.4790     1.0990     3.1290 H     1 <1>   0.0800 
 43 H        1.1310    -6.3930    -0.6270 H     1 <1>   0.0800 
 44 H        2.3050    -5.3860     0.1780 H     1 <1>   0.0800 
 45 H       -3.4400    -3.3450    -1.6810 H     1 <1>   0.0800 
 46 H       -4.6710    -3.5780    -0.4690 H     1 <1>   0.0800 
 47 H       -4.5710    -4.6530    -1.8560 H     1 <1>   0.0800 
 48 H       -2.1750    -8.9750     1.6910 H     1 <1>   0.0800 
 49 H       -3.6600    -8.8660     0.8230 H     1 <1>   0.0800 
 50 H       -3.5340    -8.1670     2.4210 H     1 <1>   0.0800 
 51 H       -5.6380    -5.7960    -0.0680 H     1 <1>   0.0800 
 52 H       -5.3100    -7.1110     0.9910 H     1 <1>   0.0800 
 53 H       -5.0880    -7.3140    -0.7320 H     1 <1>   0.0800 
@<TRIPOS>BOND
  1   1   2  1   
  2   1   3  1   
  3   2   4  2   
  4   3   5  2   
  5   3   6  1   
  6   4   5  1   
  7   4   7  1   
  8   6   8  1   
  9   6   9  1   
 10   6  27  1   
 11   7  10  1   
 12   7  28  1   
 13   7  29  1   
 14   8  11  1   
 15   8  30  1   
 16   8  31  1   
 17   9  12  1   
 18   9  32  1   
 19   9  33  1   
 20  10  13  1   
 21  10  14  1   
 22  10  34  1   
 23  11  15  1   
 24  11  16  1   
 25  12  16  1   
 26  12  35  1   
 27  12  36  1   
 28  13  37  1   
 29  13  38  1   
 30  13  39  1   
 31  14  40  1   
 32  14  41  1   
 33  14  42  1   
 34  15  17  ar  
 35  15  18  ar  
 36  16  43  1   
 37  16  44  1   
 38  17  19  ar  
 39  18  20  1   
 40  18  21  ar  
 41  19  22  ar  
 42  19  23  1   
 43  20  24  3   
 44  21  22  ar  
 45  21  25  1   
 46  22  26  1   
 47  23  45  1   
 48  23  46  1   
 49  23  47  1   
 50  25  48  1   
 51  25  49  1   
 52  25  50  1   
 53  26  51  1   
 54  26  52  1   
 55  26  53  1   
@<TRIPOS>SUBSTRUCTURE
  1 ****   8 GROUP 4 **** **** 0

# MOE 2024.06 (io_trps.svl 2023.06)
