@<TRIPOS>MOLECULE
NONAME
46 48 1 0 0 
SMALL
USER_CHARGES


@<TRIPOS>ATOM
  1 O       -1.1160     0.8960    -1.1430 O.2   1 <1>  -0.5700 
  2 C       -1.4800     1.6060    -0.2060 C.2   1 <1>   0.5440 
  3 N       -2.4110     1.0400     0.6560 N.am  1 <1>  -0.6600 
  4 C       -0.9940     2.9630    -0.1290 C.ar  1 <1>   0.0860 
  5 C       -2.3480    -0.4140     0.9570 C.3   1 <1>   0.1400 
  6 C       -3.1980     1.8730     1.5960 C.3   1 <1>   0.1400 
  7 C       -0.6270     3.6640     1.0470 C.ar  1 <1>  -0.1710 
  8 C       -0.8400     3.6990    -1.3020 C.ar  1 <1>  -0.1500 
  9 C       -3.5760    -1.1480     0.4020 C.3   1 <1>   0.1400 
 10 C       -4.6750     1.4700     1.6130 C.3   1 <1>  -0.1600 
 11 O       -0.6670     3.1470     2.1920 O.3   1 <1>  -0.8290 
 12 C       -0.1860     4.9970     0.9230 C.ar  1 <1>   0.1600 
 13 C       -0.3930     5.0010    -1.2980 C.ar  1 <1>   0.1660 
 14 N       -4.8460    -1.0040     1.2000 N.am  1 <1>  -0.6600 
 15 C       -4.9200     0.0880     2.2220 C.3   1 <1>   0.1400 
 16 N       -0.0670     5.6710    -0.1930 N.ar  1 <1>  -0.6200 
 17 C       -0.2390     5.7720    -2.5900 C.3   1 <1>  -0.0970 
 18 C       -5.9380    -1.8150     0.9610 C.2   1 <1>   0.5690 
 19 O       -6.9690    -1.6680     1.5840 O.2   1 <1>  -0.5700 
 20 C       -5.8720    -2.9640    -0.0850 C.3   1 <1>   0.2610 
 21 O       -5.5770    -2.4880    -1.3710 O.3   1 <1>  -0.5600 
 22 C       -7.1790    -3.7280    -0.3130 C.3   1 <1>  -0.1600 
 23 C       -6.7470    -2.0660    -1.9940 C.3   1 <1>   0.1200 
 24 C       -7.8650    -2.9260    -1.4100 C.3   1 <1>  -0.1600 
 25 H       -1.4700    -0.8270     0.4950 H     1 <1>   0.0800 
 26 H       -2.2480    -0.5710     2.0150 H     1 <1>   0.0800 
 27 H       -2.7680     1.7920     2.5810 H     1 <1>   0.0800 
 28 H       -3.1310     2.9070     1.3050 H     1 <1>   0.0800 
 29 H       -1.0820     3.2180    -2.2300 H     1 <1>   0.1500 
 30 H       -3.3250    -2.1910     0.3450 H     1 <1>   0.0800 
 31 H       -3.7480    -0.8010    -0.6030 H     1 <1>   0.0800 
 32 H       -5.0940     1.5330     0.6250 H     1 <1>   0.0800 
 33 H       -5.1840     2.1910     2.2250 H     1 <1>   0.0800 
 34 H        0.0730     5.4820     1.8460 H     1 <1>   0.1500 
 35 H       -5.8960     0.0970     2.6750 H     1 <1>   0.0800 
 36 H       -4.2130    -0.1040     3.0110 H     1 <1>   0.0800 
 37 H       -0.5190     5.1710    -3.4340 H     1 <1>   0.0800 
 38 H        0.7850     6.0780    -2.7000 H     1 <1>   0.0800 
 39 H       -0.8610     6.6470    -2.5580 H     1 <1>   0.0800 
 40 H       -5.0940    -3.6450     0.2050 H     1 <1>   0.0800 
 41 H       -6.9440    -4.7140    -0.6720 H     1 <1>   0.0800 
 42 H       -7.7770    -3.8180     0.5770 H     1 <1>   0.0800 
 43 H       -6.8930    -1.0240    -1.7610 H     1 <1>   0.0800 
 44 H       -6.6380    -2.1980    -3.0570 H     1 <1>   0.0800 
 45 H       -8.6310    -2.2910    -1.0010 H     1 <1>   0.0800 
 46 H       -8.2990    -3.5660    -2.1580 H     1 <1>   0.0800 
@<TRIPOS>BOND
  1   1   2  2   
  2   2   3  am  
  3   2   4  1   
  4   3   5  1   
  5   3   6  1   
  6   4   7  ar  
  7   4   8  ar  
  8   5   9  1   
  9   5  25  1   
 10   5  26  1   
 11   6  10  1   
 12   6  27  1   
 13   6  28  1   
 14   7  11  1   
 15   7  12  ar  
 16   8  13  ar  
 17   8  29  1   
 18   9  14  1   
 19   9  30  1   
 20   9  31  1   
 21  10  15  1   
 22  10  32  1   
 23  10  33  1   
 24  12  16  ar  
 25  12  34  1   
 26  13  16  ar  
 27  13  17  1   
 28  14  15  1   
 29  14  18  am  
 30  15  35  1   
 31  15  36  1   
 32  17  37  1   
 33  17  38  1   
 34  17  39  1   
 35  18  19  2   
 36  18  20  1   
 37  20  21  1   
 38  20  22  1   
 39  20  40  1   
 40  21  23  1   
 41  22  24  1   
 42  22  41  1   
 43  22  42  1   
 44  23  24  1   
 45  23  43  1   
 46  23  44  1   
 47  24  45  1   
 48  24  46  1   
@<TRIPOS>SUBSTRUCTURE
  1 ****   3 GROUP 4 **** **** 0

# MOE 2024.06 (io_trps.svl 2023.06)
