@<TRIPOS>MOLECULE
NONAME
45 48 1 0 0 
SMALL
USER_CHARGES


@<TRIPOS>ATOM
  1 O       -0.5250     0.3520     0.5350 O.2   1 <1>  -0.5700 
  2 C       -1.5720     0.9510     0.3330 C.2   1 <1>   0.7160 
  3 N       -2.7250     0.1850     0.3080 N.am  1 <1>  -0.6600 
  4 C       -1.5490     2.4040     0.1290 C.2   1 <1>   0.2030 
  5 C       -4.1010     0.6810     0.0470 C.3   1 <1>   0.1400 
  6 C       -2.7010    -1.3000     0.2660 C.3   1 <1>   0.1400 
  7 N       -2.5840     3.2370     0.1200 N.2   1 <1>  -0.7070 
  8 C       -0.3710     3.1380    -0.0910 C.2   1 <1>  -0.1810 
  9 C       -4.9980    -0.5390     0.2520 C.3   1 <1>   0.2000 
 10 C       -4.1100    -1.7110    -0.1720 C.3   1 <1>  -0.0800 
 11 N       -2.0740     4.4610    -0.0920 N.pl3 1 <1>   0.3000 
 12 C       -0.7390     4.4200    -0.2140 C.2   1 <1>  -0.3320 
 13 C        1.0820     2.6930    -0.1920 C.3   1 <1>   0.3010 
 14 O       -5.2840    -0.6400     1.6060 O.3   1 <1>  -0.6800 
 15 C       -4.5400    -3.0970     0.3430 C.3   1 <1>   0.0210 
 16 C        0.2580     5.5340    -0.4560 C.3   1 <1>   0.0200 
 17 O        1.8610     3.7340    -0.7380 O.3   1 <1>  -0.5600 
 18 C       -3.5670    -4.1680    -0.1090 C.2   1 <1>   0.1080 
 19 C        1.6740     4.9980    -0.1560 C.3   1 <1>   0.1200 
 20 N       -3.3380    -4.4330    -1.3580 N.2   1 <1>  -0.7070 
 21 C       -2.8130    -4.9680     0.7440 C.2   1 <1>  -0.1500 
 22 N       -2.4250    -5.4220    -1.3350 N.pl3 1 <1>   0.3000 
 23 C       -2.0890    -5.7610    -0.0720 C.2   1 <1>  -0.3320 
 24 C       -1.0820    -6.8410     0.2810 C.3   1 <1>  -0.0600 
 25 H       -4.3720     1.4820     0.7130 H     1 <1>   0.0800 
 26 H       -4.1630     1.0230    -0.9710 H     1 <1>   0.0800 
 27 H       -1.9580    -1.6580    -0.4270 H     1 <1>   0.0800 
 28 H       -2.4770    -1.6750     1.2500 H     1 <1>   0.0800 
 29 H       -5.9250    -0.4830    -0.2940 H     1 <1>   0.0800 
 30 H       -4.1070    -1.7460    -1.2480 H     1 <1>   0.0800 
 31 H       -2.6600     5.3040    -0.1480 H     1 <1>   0.2700 
 32 H        1.1740     1.8400    -0.8420 H     1 <1>   0.0800 
 33 H        1.4710     2.4420     0.7790 H     1 <1>   0.0800 
 34 H       -4.4610    -0.4720     2.1070 H     1 <1>   0.4000 
 35 H       -5.5160    -3.3340    -0.0380 H     1 <1>   0.0800 
 36 H       -4.5920    -3.1040     1.4170 H     1 <1>   0.0800 
 37 H        0.0520     6.3760     0.1800 H     1 <1>   0.0800 
 38 H        0.2070     5.8560    -1.4810 H     1 <1>   0.0800 
 39 H        1.8250     4.9040     0.9050 H     1 <1>   0.0800 
 40 H        2.4190     5.6610    -0.5580 H     1 <1>   0.0800 
 41 H       -2.8250    -4.9370     1.8190 H     1 <1>   0.1500 
 42 H       -2.0530    -5.8430    -2.1940 H     1 <1>   0.2700 
 43 H       -0.9870    -6.9220     1.3490 H     1 <1>   0.0800 
 44 H       -0.1180    -6.6000    -0.1310 H     1 <1>   0.0800 
 45 H       -1.4040    -7.7910    -0.1070 H     1 <1>   0.0800 
@<TRIPOS>BOND
  1   1   2  2   
  2   2   3  am  
  3   2   4  1   
  4   3   5  1   
  5   3   6  1   
  6   4   7  2   
  7   4   8  1   
  8   5   9  1   
  9   5  25  1   
 10   5  26  1   
 11   6  10  1   
 12   6  27  1   
 13   6  28  1   
 14   7  11  1   
 15   8  12  2   
 16   8  13  1   
 17   9  10  1   
 18   9  14  1   
 19   9  29  1   
 20  10  15  1   
 21  10  30  1   
 22  11  12  1   
 23  11  31  1   
 24  12  16  1   
 25  13  17  1   
 26  13  32  1   
 27  13  33  1   
 28  14  34  1   
 29  15  18  1   
 30  15  35  1   
 31  15  36  1   
 32  16  19  1   
 33  16  37  1   
 34  16  38  1   
 35  17  19  1   
 36  18  20  2   
 37  18  21  1   
 38  19  39  1   
 39  19  40  1   
 40  20  22  1   
 41  21  23  2   
 42  21  41  1   
 43  22  23  1   
 44  22  42  1   
 45  23  24  1   
 46  24  43  1   
 47  24  44  1   
 48  24  45  1   
@<TRIPOS>SUBSTRUCTURE
  1 ****   3 GROUP 4 **** **** 0

# MOE 2024.06 (io_trps.svl 2023.06)
