@<TRIPOS>MOLECULE
NONAME
49 51 1 0 0 
SMALL
USER_CHARGES


@<TRIPOS>ATOM
  1 O       -1.0660    -1.3080     2.6300 O.3   1 <1>  -0.5320 
  2 C       -1.9040    -1.4250     1.5900 C.ar  1 <1>   0.0830 
  3 C       -2.0720    -2.6420     0.9480 C.ar  1 <1>  -0.1500 
  4 C       -2.5950    -0.3050     1.1660 C.ar  1 <1>  -0.1500 
  5 C       -2.9470    -2.7390    -0.1260 C.ar  1 <1>  -0.1430 
  6 C       -3.4550    -0.3960     0.0870 C.ar  1 <1>  -0.1500 
  7 C       -3.6280    -1.6080    -0.5590 C.ar  1 <1>  -0.1500 
  8 C       -3.1670    -4.0670    -0.8240 C.3   1 <1>   0.4860 
  9 N       -4.1040    -4.8850     0.0080 N.4   1 <1>  -0.9590 
 10 C       -4.1420    -6.3300    -0.4350 C.3   1 <1>   0.3430 
 11 C       -5.4570    -4.2410     0.0450 C.3   1 <1>   0.3430 
 12 C       -5.2030    -7.2130     0.3080 C.3   1 <1>   0.4230 
 13 C       -6.3930    -5.0920     0.8990 C.3   1 <1>  -0.1600 
 14 N       -5.2620    -8.6790    -0.1370 N.4   1 <1>  -0.9590 
 15 C       -6.5940    -6.5190     0.3190 C.3   1 <1>   0.0000 
 16 C       -6.5460    -9.3810     0.2210 C.3   1 <1>   0.3430 
 17 C       -4.9540    -8.9640    -1.5810 C.3   1 <1>   0.2630 
 18 C       -7.5620    -7.2880     1.2600 C.3   1 <1>  -0.1600 
 19 C       -7.1750    -6.4760    -1.1280 C.3   1 <1>   0.1200 
 20 C       -7.1810    -8.7660     1.4660 C.3   1 <1>  -0.1600 
 21 O       -8.0350    -5.4090    -1.2950 O.3   1 <1>  -0.6800 
 22 H       -0.5300    -2.0980     2.8190 H     1 <1>   0.4500 
 23 H       -1.5150    -3.4930     1.2950 H     1 <1>   0.1500 
 24 H       -2.4520     0.6310     1.6780 H     1 <1>   0.1500 
 25 H       -3.9840     0.4810    -0.2470 H     1 <1>   0.1500 
 26 H       -4.2980    -1.6460    -1.4020 H     1 <1>   0.1500 
 27 H       -2.2180    -4.5680    -0.9280 H     1 <1>   0.0800 
 28 H       -3.5780    -3.9010    -1.8070 H     1 <1>   0.0800 
 29 H       -3.7310    -4.8070     0.9660 H     1 <1>   0.4500 
 30 H       -4.3630    -6.3520    -1.4890 H     1 <1>   0.0800 
 31 H       -3.1670    -6.7660    -0.2900 H     1 <1>   0.0800 
 32 H       -5.3860    -3.2510     0.4710 H     1 <1>   0.0800 
 33 H       -5.8600    -4.1460    -0.9520 H     1 <1>   0.0800 
 34 H       -4.8920    -7.2310     1.3390 H     1 <1>   0.0800 
 35 H       -6.0040    -5.1360     1.9020 H     1 <1>   0.0800 
 36 H       -7.3400    -4.5820     0.9690 H     1 <1>   0.0800 
 37 H       -4.5440    -9.1760     0.4160 H     1 <1>   0.4500 
 38 H       -7.2480    -9.3030    -0.5940 H     1 <1>   0.0800 
 39 H       -6.3570   -10.4310     0.3900 H     1 <1>   0.0800 
 40 H       -5.6770    -8.4910    -2.2260 H     1 <1>   0.0800 
 41 H       -4.9860   -10.0270    -1.7640 H     1 <1>   0.0800 
 42 H       -3.9690    -8.6130    -1.8420 H     1 <1>   0.0800 
 43 H       -7.5990    -6.8290     2.2350 H     1 <1>   0.0800 
 44 H       -8.5650    -7.2310     0.8700 H     1 <1>   0.0800 
 45 H       -7.7120    -7.3750    -1.3770 H     1 <1>   0.0800 
 46 H       -6.3990    -6.3390    -1.8600 H     1 <1>   0.0800 
 47 H       -8.0670    -9.3240     1.7220 H     1 <1>   0.0800 
 48 H       -6.5020    -8.8660     2.2960 H     1 <1>   0.0800 
 49 H       -8.9490    -5.6150    -1.0010 H     1 <1>   0.4000 
@<TRIPOS>BOND
  1   1   2  1   
  2   1  22  1   
  3   2   3  ar  
  4   2   4  ar  
  5   3   5  ar  
  6   3  23  1   
  7   4   6  ar  
  8   4  24  1   
  9   5   7  ar  
 10   5   8  1   
 11   6   7  ar  
 12   6  25  1   
 13   7  26  1   
 14   8   9  1   
 15   8  27  1   
 16   8  28  1   
 17   9  10  1   
 18   9  11  1   
 19   9  29  1   
 20  10  12  1   
 21  10  30  1   
 22  10  31  1   
 23  11  13  1   
 24  11  32  1   
 25  11  33  1   
 26  12  14  1   
 27  12  15  1   
 28  12  34  1   
 29  13  15  1   
 30  13  35  1   
 31  13  36  1   
 32  14  16  1   
 33  14  17  1   
 34  14  37  1   
 35  15  18  1   
 36  15  19  1   
 37  16  20  1   
 38  16  38  1   
 39  16  39  1   
 40  17  40  1   
 41  17  41  1   
 42  17  42  1   
 43  18  20  1   
 44  18  43  1   
 45  18  44  1   
 46  19  21  1   
 47  19  45  1   
 48  19  46  1   
 49  20  47  1   
 50  20  48  1   
 51  21  49  1   
@<TRIPOS>SUBSTRUCTURE
  1 ****   9 GROUP 4 **** **** 0

# MOE 2024.06 (io_trps.svl 2023.06)
