@<TRIPOS>MOLECULE
NONAME
46 47 1 0 0 
SMALL
USER_CHARGES


@<TRIPOS>ATOM
  1 O        0.2770     1.2430     0.5050 O.3   1 <1>  -0.5600 
  2 C       -1.0000     1.6760     0.0920 C.3   1 <1>   0.2000 
  3 C        0.2760     0.6290     1.7690 C.3   1 <1>   0.1200 
  4 C       -1.9940     0.5000     0.1240 C.3   1 <1>   0.1200 
  5 C       -0.8700     2.2780    -1.3210 C.3   1 <1>   0.3430 
  6 C       -0.7410    -0.5260     1.8110 C.3   1 <1>   0.1200 
  7 O       -1.9960    -0.0710     1.3950 O.3   1 <1>  -0.5600 
  8 N        0.4560     2.9600    -1.4720 N.4   1 <1>  -0.9590 
  9 C        0.4610     4.3070    -0.8110 C.3   1 <1>   0.3430 
 10 C        0.9050     2.9990    -2.8980 C.3   1 <1>   0.2630 
 11 C        1.8750     4.8460    -0.5840 C.3   1 <1>   0.1200 
 12 O        1.7450     6.1060     0.0230 O.3   1 <1>  -0.3630 
 13 C        2.8340     6.8530     0.3360 C.ar  1 <1>   0.0820 
 14 C        2.5940     8.1110     0.8660 C.ar  1 <1>  -0.1500 
 15 C        4.1460     6.4250     0.1520 C.ar  1 <1>  -0.1500 
 16 C        3.6430     8.9470     1.2130 C.ar  1 <1>  -0.1440 
 17 C        5.1960     7.2590     0.4960 C.ar  1 <1>  -0.1500 
 18 C        4.9450     8.5140     1.0230 C.ar  1 <1>  -0.1500 
 19 C        3.3680    10.3250     1.7930 C.3   1 <1>  -0.0170 
 20 C        3.2850    11.3700     0.6790 C.3   1 <1>  -0.2400 
 21 H       -1.3330     2.4380     0.7760 H     1 <1>   0.0800 
 22 H        0.0320     1.3670     2.5150 H     1 <1>   0.0800 
 23 H        1.2680     0.2590     1.9640 H     1 <1>   0.0800 
 24 H       -1.7270    -0.2590    -0.5910 H     1 <1>   0.0800 
 25 H       -2.9950     0.8380    -0.0810 H     1 <1>   0.0800 
 26 H       -1.6820     2.9580    -1.5170 H     1 <1>   0.0800 
 27 H       -0.9360     1.4700    -2.0310 H     1 <1>   0.0800 
 28 H       -0.8410    -0.9020     2.8150 H     1 <1>   0.0800 
 29 H       -0.4320    -1.3330     1.1700 H     1 <1>   0.0800 
 30 H        1.0840     2.3420    -0.9160 H     1 <1>   0.4500 
 31 H       -0.0200     4.2340     0.1510 H     1 <1>   0.0800 
 32 H       -0.0900     5.0100    -1.4150 H     1 <1>   0.0800 
 33 H        0.2420     3.6160    -3.4830 H     1 <1>   0.0800 
 34 H        0.9100     2.0050    -3.3150 H     1 <1>   0.0800 
 35 H        1.9020     3.4010    -2.9680 H     1 <1>   0.0800 
 36 H        2.3980     4.9800    -1.5140 H     1 <1>   0.0800 
 37 H        2.4250     4.2070     0.0840 H     1 <1>   0.0800 
 38 H        1.5790     8.4340     1.0040 H     1 <1>   0.1500 
 39 H        4.3770     5.4590    -0.2510 H     1 <1>   0.1500 
 40 H        6.2120     6.9340     0.3560 H     1 <1>   0.1500 
 41 H        5.7690     9.1540     1.2860 H     1 <1>   0.1500 
 42 H        4.1520    10.5910     2.4810 H     1 <1>   0.0800 
 43 H        2.4430    10.3100     2.3430 H     1 <1>   0.0800 
 44 H        4.2120    11.4060     0.1340 H     1 <1>   0.0800 
 45 H        3.0900    12.3420     1.0960 H     1 <1>   0.0800 
 46 H        2.4940    11.1200    -0.0050 H     1 <1>   0.0800 
@<TRIPOS>BOND
  1   1   2  1   
  2   1   3  1   
  3   2   4  1   
  4   2   5  1   
  5   2  21  1   
  6   3   6  1   
  7   3  22  1   
  8   3  23  1   
  9   4   7  1   
 10   4  24  1   
 11   4  25  1   
 12   5   8  1   
 13   5  26  1   
 14   5  27  1   
 15   6   7  1   
 16   6  28  1   
 17   6  29  1   
 18   8   9  1   
 19   8  10  1   
 20   8  30  1   
 21   9  11  1   
 22   9  31  1   
 23   9  32  1   
 24  10  33  1   
 25  10  34  1   
 26  10  35  1   
 27  11  12  1   
 28  11  36  1   
 29  11  37  1   
 30  12  13  1   
 31  13  14  ar  
 32  13  15  ar  
 33  14  16  ar  
 34  14  38  1   
 35  15  17  ar  
 36  15  39  1   
 37  16  18  ar  
 38  16  19  1   
 39  17  18  ar  
 40  17  40  1   
 41  18  41  1   
 42  19  20  1   
 43  19  42  1   
 44  19  43  1   
 45  20  44  1   
 46  20  45  1   
 47  20  46  1   
@<TRIPOS>SUBSTRUCTURE
  1 ****  11 GROUP 4 **** **** 0

# MOE 2024.06 (io_trps.svl 2023.06)
