@<TRIPOS>MOLECULE
NONAME
53 55 1 0 0 
SMALL
USER_CHARGES


@<TRIPOS>ATOM
  1 S       -0.8020    -0.9820    -2.1410 S.3   1 <1>  -0.0800 
  2 C       -1.4280    -2.3330    -1.2360 C.2   1 <1>  -0.1400 
  3 C        0.7140    -1.1460    -1.2880 C.2   1 <1>   0.2280 
  4 C       -0.4700    -2.7730    -0.4020 C.2   1 <1>   0.0460 
  5 C       -2.8540    -2.7400    -1.5260 C.3   1 <1>   0.5230 
  6 N        0.7310    -2.0910    -0.4360 N.2   1 <1>  -0.5650 
  7 C       -0.5420    -3.9240     0.5810 C.3   1 <1>  -0.0590 
  8 N       -3.7080    -2.4720    -0.3380 N.4   1 <1>  -0.9590 
  9 C       -5.1330    -2.8810    -0.5540 C.3   1 <1>   0.3430 
 10 C       -3.5790    -1.1070     0.2420 C.3   1 <1>   0.3430 
 11 C       -5.9200    -2.9080     0.7750 C.3   1 <1>   0.1400 
 12 C       -3.3400    -1.2400     1.7490 C.3   1 <1>  -0.1600 
 13 N       -4.9960    -3.1300     1.9330 N.am  1 <1>  -0.6600 
 14 C       -4.4880    -1.8710     2.5570 C.3   1 <1>   0.1400 
 15 C       -4.3890    -4.3360     2.2020 C.2   1 <1>   0.5690 
 16 O       -3.2490    -4.3430     2.6020 O.2   1 <1>  -0.5700 
 17 C       -5.0490    -5.6980     1.9270 C.3   1 <1>   0.1240 
 18 C       -5.0780    -5.9800     0.4150 C.ar  1 <1>  -0.1440 
 19 C       -6.3850    -5.8620     2.6880 C.3   1 <1>  -0.1600 
 20 C       -3.8630    -6.1930    -0.2220 C.ar  1 <1>  -0.1500 
 21 C       -6.2420    -6.0180    -0.3470 C.ar  1 <1>  -0.1500 
 22 C       -6.8950    -7.3110     2.7040 C.3   1 <1>  -0.2400 
 23 C       -3.8020    -6.4080    -1.5870 C.ar  1 <1>  -0.1500 
 24 C       -6.1840    -6.2320    -1.7130 C.ar  1 <1>  -0.1500 
 25 C       -4.9640    -6.4210    -2.3360 C.ar  1 <1>  -0.1500 
 26 H        1.5010    -0.4550    -1.5360 H     1 <1>   0.1500 
 27 H       -2.8830    -3.7900    -1.7660 H     1 <1>   0.0800 
 28 H       -3.2180    -2.1860    -2.3770 H     1 <1>   0.0800 
 29 H       -1.4900    -4.4190     0.5310 H     1 <1>   0.0800 
 30 H       -0.3930    -3.5580     1.5820 H     1 <1>   0.0800 
 31 H        0.2340    -4.6350     0.3610 H     1 <1>   0.0800 
 32 H       -3.3670    -3.0890     0.4190 H     1 <1>   0.4500 
 33 H       -5.1530    -3.8690    -0.9820 H     1 <1>   0.0800 
 34 H       -5.6180    -2.2170    -1.2510 H     1 <1>   0.0800 
 35 H       -4.4680    -0.5280     0.0520 H     1 <1>   0.0800 
 36 H       -2.7410    -0.5890    -0.1950 H     1 <1>   0.0800 
 37 H       -6.6780    -3.6660     0.7400 H     1 <1>   0.0800 
 38 H       -6.4320    -1.9700     0.9000 H     1 <1>   0.0800 
 39 H       -3.1600    -0.2570     2.1480 H     1 <1>   0.0800 
 40 H       -2.4380    -1.8010     1.9190 H     1 <1>   0.0800 
 41 H       -5.2990    -1.1690     2.6560 H     1 <1>   0.0800 
 42 H       -4.1360    -2.0890     3.5530 H     1 <1>   0.0800 
 43 H       -4.3860    -6.4320     2.3540 H     1 <1>   0.0800 
 44 H       -7.1410    -5.2160     2.2810 H     1 <1>   0.0800 
 45 H       -6.2300    -5.5560     3.7090 H     1 <1>   0.0800 
 46 H       -2.9510    -6.2080     0.3520 H     1 <1>   0.1500 
 47 H       -7.2090    -5.8890     0.1060 H     1 <1>   0.1500 
 48 H       -7.0740    -7.6780     1.7090 H     1 <1>   0.0800 
 49 H       -7.8160    -7.3710     3.2570 H     1 <1>   0.0800 
 50 H       -6.1760    -7.9570     3.1790 H     1 <1>   0.0800 
 51 H       -2.8530    -6.5850    -2.0660 H     1 <1>   0.1500 
 52 H       -7.0920    -6.2650    -2.2930 H     1 <1>   0.1500 
 53 H       -4.9220    -6.5990    -3.3980 H     1 <1>   0.1500 
@<TRIPOS>BOND
  1   1   2  1   
  2   1   3  1   
  3   2   4  2   
  4   2   5  1   
  5   3   6  2   
  6   3  26  1   
  7   4   6  1   
  8   4   7  1   
  9   5   8  1   
 10   5  27  1   
 11   5  28  1   
 12   7  29  1   
 13   7  30  1   
 14   7  31  1   
 15   8   9  1   
 16   8  10  1   
 17   8  32  1   
 18   9  11  1   
 19   9  33  1   
 20   9  34  1   
 21  10  12  1   
 22  10  35  1   
 23  10  36  1   
 24  11  13  1   
 25  11  37  1   
 26  11  38  1   
 27  12  14  1   
 28  12  39  1   
 29  12  40  1   
 30  13  14  1   
 31  13  15  am  
 32  14  41  1   
 33  14  42  1   
 34  15  16  2   
 35  15  17  1   
 36  17  18  1   
 37  17  19  1   
 38  17  43  1   
 39  18  20  ar  
 40  18  21  ar  
 41  19  22  1   
 42  19  44  1   
 43  19  45  1   
 44  20  23  ar  
 45  20  46  1   
 46  21  24  ar  
 47  21  47  1   
 48  22  48  1   
 49  22  49  1   
 50  22  50  1   
 51  23  25  ar  
 52  23  51  1   
 53  24  25  ar  
 54  24  52  1   
 55  25  53  1   
@<TRIPOS>SUBSTRUCTURE
  1 ****   8 GROUP 4 **** **** 0

# MOE 2024.06 (io_trps.svl 2023.06)
