@<TRIPOS>MOLECULE
NONAME
36 38 1 0 0 
SMALL
USER_CHARGES


@<TRIPOS>ATOM
  1 CL      -2.6720     1.6540     3.8140 Cl    1 <1>  -0.1770 
  2 C       -2.5870     1.9280     2.0930 C.ar  1 <1>   0.1770 
  3 C       -2.5490     3.2300     1.6230 C.ar  1 <1>  -0.1500 
  4 C       -2.5580     0.8420     1.2360 C.ar  1 <1>  -0.1500 
  5 C       -2.4700     3.4720     0.2570 C.ar  1 <1>  -0.1440 
  6 C       -2.4930     1.0660    -0.1290 C.ar  1 <1>  -0.1500 
  7 C       -2.4540     2.3710    -0.5910 C.ar  1 <1>   0.1900 
  8 C       -2.4240     4.9030    -0.2750 C.3   1 <1>   0.2540 
  9 F       -2.4060     2.5520    -1.8850 F     1 <1>  -0.1900 
 10 N       -1.0570     5.4540    -0.3380 N.3   1 <1>  -0.8100 
 11 C       -0.4140     5.5850     0.9960 C.3   1 <1>   0.1100 
 12 C       -0.2270     4.7780    -1.3590 C.3   1 <1>   0.1100 
 13 C        0.8810     6.4420     1.0470 C.3   1 <1>   0.2200 
 14 C        1.0760     5.5210    -1.7210 C.3   1 <1>  -0.0190 
 15 N        0.9930     7.3890    -0.0930 N.am  1 <1>  -0.7300 
 16 C        2.1490     5.5670     1.1420 C.3   1 <1>   0.1200 
 17 C        1.0350     7.0000    -1.3840 C.2   1 <1>   0.5690 
 18 C        2.3310     4.8640    -1.1210 C.3   1 <1>   0.1200 
 19 O        2.1630     4.5140     0.2210 O.3   1 <1>  -0.5600 
 20 O        1.0730     7.8200    -2.2670 O.2   1 <1>  -0.5700 
 21 H       -2.5800     4.0420     2.3270 H     1 <1>   0.1500 
 22 H       -2.5880    -0.1570     1.6340 H     1 <1>   0.1500 
 23 H       -2.4730     0.2470    -0.8270 H     1 <1>   0.1500 
 24 H       -3.0220     5.5360     0.3570 H     1 <1>   0.0800 
 25 H       -2.8640     4.9440    -1.2580 H     1 <1>   0.0800 
 26 H       -1.1220     6.0460     1.6610 H     1 <1>   0.0800 
 27 H       -0.2020     4.6060     1.3900 H     1 <1>   0.0800 
 28 H        0.0000     3.7750    -1.0400 H     1 <1>   0.0800 
 29 H       -0.8100     4.7040    -2.2610 H     1 <1>   0.0800 
 30 H        0.8480     7.0270     1.9480 H     1 <1>   0.0800 
 31 H        1.1910     5.4550    -2.7860 H     1 <1>   0.0800 
 32 H        0.8140     8.3770     0.0790 H     1 <1>   0.3700 
 33 H        2.1870     5.1150     2.1170 H     1 <1>   0.0800 
 34 H        3.0370     6.1620     1.0140 H     1 <1>   0.0800 
 35 H        3.1900     5.5080    -1.2140 H     1 <1>   0.0800 
 36 H        2.5370     3.9510    -1.6510 H     1 <1>   0.0800 
@<TRIPOS>BOND
  1   1   2  1   
  2   2   3  ar  
  3   2   4  ar  
  4   3   5  ar  
  5   3  21  1   
  6   4   6  ar  
  7   4  22  1   
  8   5   7  ar  
  9   5   8  1   
 10   6   7  ar  
 11   6  23  1   
 12   7   9  1   
 13   8  10  1   
 14   8  24  1   
 15   8  25  1   
 16  10  11  1   
 17  10  12  1   
 18  11  13  1   
 19  11  26  1   
 20  11  27  1   
 21  12  14  1   
 22  12  28  1   
 23  12  29  1   
 24  13  15  1   
 25  13  16  1   
 26  13  30  1   
 27  14  17  1   
 28  14  18  1   
 29  14  31  1   
 30  15  17  am  
 31  15  32  1   
 32  16  19  1   
 33  16  33  1   
 34  16  34  1   
 35  17  20  2   
 36  18  19  1   
 37  18  35  1   
 38  18  36  1   
@<TRIPOS>SUBSTRUCTURE
  1 ****  10 GROUP 4 **** **** 0

# MOE 2024.06 (io_trps.svl 2023.06)
