@<TRIPOS>MOLECULE
NONAME
43 45 1 0 0 
SMALL
USER_CHARGES


@<TRIPOS>ATOM
  1 O       -0.3170     0.4330     2.0830 O.3   1 <1>  -0.5600 
  2 C        0.6340     0.7710     1.1160 C.3   1 <1>   0.1200 
  3 C       -1.6090     0.5340     1.5570 C.3   1 <1>   0.1200 
  4 C       -0.0790     1.7000     0.1420 C.3   1 <1>   0.2890 
  5 C       -1.4700     1.0850     0.1350 C.3   1 <1>  -0.0800 
  6 N       -0.1160     3.0710     0.7170 N.pl3 1 <1>  -0.8690 
  7 C       -2.6140     2.0230    -0.2940 C.3   1 <1>  -0.0170 
  8 C        0.6620     4.1300     0.2860 C.ar  1 <1>   0.4100 
  9 C       -3.9420     1.2820    -0.3220 C.ar  1 <1>  -0.1430 
 10 N        1.3840     3.9080    -0.8070 N.ar  1 <1>  -0.6200 
 11 C        0.6680     5.3500     0.9810 C.ar  1 <1>   0.0730 
 12 C       -4.8560     1.3800     0.7070 C.ar  1 <1>  -0.1500 
 13 C       -4.3000     0.4710    -1.3800 C.ar  1 <1>  -0.1500 
 14 C        2.1360     4.9000    -1.2360 C.ar  1 <1>   0.1670 
 15 C       -0.1520     5.4980     2.1440 C.1   1 <1>   0.4840 
 16 C        1.4680     6.3840     0.5150 C.ar  1 <1>  -0.1440 
 17 C       -6.0470     0.6770     0.6340 C.ar  1 <1>   0.1600 
 18 C       -5.5170    -0.1890    -1.3550 C.ar  1 <1>   0.1600 
 19 C        2.2120     6.1360    -0.6200 C.ar  1 <1>  -0.1500 
 20 C        2.9480     4.6190    -2.4830 C.3   1 <1>  -0.0970 
 21 N       -0.8010     5.6110     3.0760 N.1   1 <1>  -0.5570 
 22 C        1.5410     7.7430     1.2020 C.3   1 <1>  -0.0970 
 23 N       -6.3990    -0.1080    -0.3720 N.ar  1 <1>  -0.6200 
 24 H        1.4820     1.2380     1.5840 H     1 <1>   0.0800 
 25 H        0.9380    -0.1350     0.6230 H     1 <1>   0.0800 
 26 H       -2.0710    -0.4390     1.5670 H     1 <1>   0.0800 
 27 H       -2.1630     1.2060     2.1890 H     1 <1>   0.0800 
 28 H        0.3730     1.6860    -0.8360 H     1 <1>   0.0800 
 29 H       -1.4540     0.2440    -0.5350 H     1 <1>   0.0800 
 30 H       -0.3750     3.0470     1.7100 H     1 <1>   0.4000 
 31 H       -2.4030     2.4180    -1.2730 H     1 <1>   0.0800 
 32 H       -2.6880     2.8590     0.3790 H     1 <1>   0.0800 
 33 H       -4.6540     1.9950     1.5650 H     1 <1>   0.1500 
 34 H       -3.6440     0.3470    -2.2220 H     1 <1>   0.1500 
 35 H       -6.7480     0.7650     1.4470 H     1 <1>   0.1500 
 36 H       -5.7800    -0.8180    -2.1890 H     1 <1>   0.1500 
 37 H        2.8500     6.8990    -1.0280 H     1 <1>   0.1500 
 38 H        3.5340     5.4720    -2.7680 H     1 <1>   0.0800 
 39 H        2.2860     4.3670    -3.2920 H     1 <1>   0.0800 
 40 H        3.6060     3.7890    -2.3030 H     1 <1>   0.0800 
 41 H        2.2180     8.4000     0.6860 H     1 <1>   0.0800 
 42 H        1.8870     7.6300     2.2150 H     1 <1>   0.0800 
 43 H        0.5700     8.2050     1.2180 H     1 <1>   0.0800 
@<TRIPOS>BOND
  1   1   2  1   
  2   1   3  1   
  3   2   4  1   
  4   2  24  1   
  5   2  25  1   
  6   3   5  1   
  7   3  26  1   
  8   3  27  1   
  9   4   5  1   
 10   4   6  1   
 11   4  28  1   
 12   5   7  1   
 13   5  29  1   
 14   6   8  1   
 15   6  30  1   
 16   7   9  1   
 17   7  31  1   
 18   7  32  1   
 19   8  10  ar  
 20   8  11  ar  
 21   9  12  ar  
 22   9  13  ar  
 23  10  14  ar  
 24  11  15  1   
 25  11  16  ar  
 26  12  17  ar  
 27  12  33  1   
 28  13  18  ar  
 29  13  34  1   
 30  14  19  ar  
 31  14  20  1   
 32  15  21  3   
 33  16  19  ar  
 34  16  22  1   
 35  17  23  ar  
 36  17  35  1   
 37  18  23  ar  
 38  18  36  1   
 39  19  37  1   
 40  20  38  1   
 41  20  39  1   
 42  20  40  1   
 43  22  41  1   
 44  22  42  1   
 45  22  43  1   
@<TRIPOS>SUBSTRUCTURE
  1 ****   6 GROUP 4 **** **** 0

# MOE 2024.06 (io_trps.svl 2023.06)
