@<TRIPOS>MOLECULE
NONAME
47 49 1 0 0 
SMALL
USER_CHARGES


@<TRIPOS>ATOM
  1 S        0.6860    -0.1930    -0.4410 S.o2  1 <1>   1.3330 
  2 O        0.7500    -0.7830     0.8780 O.2   1 <1>  -0.6500 
  3 O        0.7580    -1.0470    -1.6060 O.2   1 <1>  -0.6500 
  4 N       -0.7440     0.7170    -0.5330 N.am  1 <1>  -0.8490 
  5 C        1.9670     1.0470    -0.5910 C.3   1 <1>  -0.0550 
  6 C       -1.1290     1.3290     0.7430 C.3   1 <1>   0.1160 
  7 C       -1.8620    -0.0580    -1.0750 C.3   1 <1>   0.1160 
  8 C        3.3840     0.4450    -0.6610 C.3   1 <1>  -0.0800 
  9 C        4.4950     1.4570    -0.8910 C.3   1 <1>   0.2200 
 10 C        3.8400    -0.2810     0.6120 C.3   1 <1>   0.1200 
 11 N        4.2870     2.6650    -0.0580 N.am  1 <1>  -0.7300 
 12 C        5.6860     0.6900    -0.3330 C.3   1 <1>   0.1200 
 13 O        5.1860     0.0520     0.8030 O.3   1 <1>  -0.5600 
 14 C        3.8830     3.8790    -0.5230 C.2   1 <1>   0.5440 
 15 O        3.3340     3.9380    -1.6020 O.2   1 <1>  -0.5700 
 16 C        4.1500     5.0770     0.2400 C.ar  1 <1>   0.0860 
 17 C        5.4620     5.4890     0.5150 C.ar  1 <1>  -0.0230 
 18 C        3.0970     5.8530     0.7200 C.ar  1 <1>  -0.1500 
 19 N        6.5660     4.7520     0.0170 N.pl3 1 <1>   0.3260 
 20 C        5.6840     6.6320     1.2760 C.ar  1 <1>  -0.1500 
 21 C        3.3270     6.9890     1.4720 C.ar  1 <1>  -0.1500 
 22 C        7.5420     4.1390     0.7010 C.2   1 <1>   0.0370 
 23 C        6.8530     4.3830    -1.2410 C.2   1 <1>   0.0370 
 24 C        4.6240     7.3770     1.7540 C.ar  1 <1>  -0.1500 
 25 N        8.3310     3.4650    -0.0600 N.2   1 <1>  -0.3380 
 26 N        7.8870     3.6210    -1.3090 N.2   1 <1>  -0.3380 
 27 H        1.7940     1.6150    -1.4850 H     1 <1>   0.0800 
 28 H        1.9000     1.7210     0.2390 H     1 <1>   0.0800 
 29 H       -1.9870     1.9640     0.6030 H     1 <1>   0.0800 
 30 H       -0.3220     1.9290     1.1260 H     1 <1>   0.0800 
 31 H       -1.3690     0.5690     1.4680 H     1 <1>   0.0800 
 32 H       -2.7460     0.5530    -1.1360 H     1 <1>   0.0800 
 33 H       -2.0630    -0.9130    -0.4500 H     1 <1>   0.0800 
 34 H       -1.6250    -0.4040    -2.0670 H     1 <1>   0.0800 
 35 H        3.4100    -0.2660    -1.4690 H     1 <1>   0.0800 
 36 H        4.6210     1.7200    -1.9280 H     1 <1>   0.0800 
 37 H        3.7550    -1.3510     0.5150 H     1 <1>   0.0800 
 38 H        3.2970     0.0460     1.4820 H     1 <1>   0.0800 
 39 H        4.6290     2.5470     0.9010 H     1 <1>   0.3700 
 40 H        6.5120     1.3240    -0.0660 H     1 <1>   0.0800 
 41 H        6.0160    -0.0670    -1.0240 H     1 <1>   0.0800 
 42 H        2.0860     5.5570     0.4950 H     1 <1>   0.1500 
 43 H        6.6910     6.9510     1.4930 H     1 <1>   0.1500 
 44 H        2.4990     7.5750     1.8370 H     1 <1>   0.1500 
 45 H        7.6310     4.2120     1.7690 H     1 <1>   0.1500 
 46 H        6.2580     4.6950    -2.0810 H     1 <1>   0.1500 
 47 H        4.8040     8.2620     2.3420 H     1 <1>   0.1500 
@<TRIPOS>BOND
  1   1   2  2   
  2   1   3  2   
  3   1   4  am  
  4   1   5  1   
  5   4   6  1   
  6   4   7  1   
  7   5   8  1   
  8   5  27  1   
  9   5  28  1   
 10   6  29  1   
 11   6  30  1   
 12   6  31  1   
 13   7  32  1   
 14   7  33  1   
 15   7  34  1   
 16   8   9  1   
 17   8  10  1   
 18   8  35  1   
 19   9  11  1   
 20   9  12  1   
 21   9  36  1   
 22  10  13  1   
 23  10  37  1   
 24  10  38  1   
 25  11  14  am  
 26  11  39  1   
 27  12  13  1   
 28  12  40  1   
 29  12  41  1   
 30  14  15  2   
 31  14  16  1   
 32  16  17  ar  
 33  16  18  ar  
 34  17  19  1   
 35  17  20  ar  
 36  18  21  ar  
 37  18  42  1   
 38  19  22  1   
 39  19  23  1   
 40  20  24  ar  
 41  20  43  1   
 42  21  24  ar  
 43  21  44  1   
 44  22  25  2   
 45  22  45  1   
 46  23  26  2   
 47  23  46  1   
 48  24  47  1   
 49  25  26  1   
@<TRIPOS>SUBSTRUCTURE
  1 ****  11 GROUP 4 **** **** 0

# MOE 2024.06 (io_trps.svl 2023.06)
