@<TRIPOS>MOLECULE
NONAME
51 54 1 0 0 
SMALL
USER_CHARGES


@<TRIPOS>ATOM
  1 O       -0.0180     0.5280     0.4900 O.2   1 <1>  -0.5700 
  2 C       -0.6240     1.5570     0.7180 C.2   1 <1>   0.5440 
  3 N       -2.0040     1.5460     0.6770 N.am  1 <1>  -0.6600 
  4 C        0.1260     2.7580     1.0030 C.ar  1 <1>   0.0860 
  5 C       -2.8590     2.7740     0.7340 C.3   1 <1>   0.1400 
  6 C       -2.7500     0.2780     0.3910 C.3   1 <1>   0.1400 
  7 C        0.0020     3.4090     2.2270 C.ar  1 <1>   0.1600 
  8 C        1.0000     3.3080     0.0770 C.ar  1 <1>  -0.1500 
  9 C       -3.5710     3.0170    -0.6160 C.3   1 <1>   0.1440 
 10 C       -4.1150     0.5430    -0.2680 C.3   1 <1>  -0.1600 
 11 N        0.6190     4.5270     2.5740 N.ar  1 <1>  -0.6200 
 12 C        1.6680     4.4670     0.4140 C.ar  1 <1>  -0.1430 
 13 C       -4.7290     3.9640    -0.3490 C.ar  1 <1>   0.1670 
 14 C       -4.0240     1.6920    -1.2850 C.3   1 <1>  -0.1600 
 15 C       -2.6850     3.8560    -1.5740 C.3   1 <1>  -0.1600 
 16 C        1.4380     5.0280     1.6620 C.ar  1 <1>   0.1600 
 17 C        2.6360     5.1100    -0.5640 C.3   1 <1>  -0.0970 
 18 N       -5.8650     3.6360     0.2130 N.ar  1 <1>  -0.6200 
 19 C       -4.4410     5.2320    -0.7540 C.ar  1 <1>  -0.1430 
 20 C       -3.0610     5.3310    -1.3530 C.3   1 <1>  -0.0170 
 21 C       -6.7430     4.6340     0.3570 C.ar  1 <1>   0.7200 
 22 C       -5.4000     6.1950    -0.5650 C.ar  1 <1>   0.1600 
 23 N       -6.5540     5.9060    -0.0120 N.ar  1 <1>  -0.6200 
 24 N       -7.9590     4.3170     0.9350 N.pl3 1 <1>  -0.8380 
 25 C       -8.3610     2.9000     1.1580 C.3   1 <1>   0.1290 
 26 C       -9.0490     5.3260     1.0650 C.3   1 <1>   0.1290 
 27 H       -2.2930     3.6460     1.0030 H     1 <1>   0.0800 
 28 H       -3.6000     2.6280     1.5020 H     1 <1>   0.0800 
 29 H       -2.8830    -0.2710     1.3070 H     1 <1>   0.0800 
 30 H       -2.1610    -0.3300    -0.2750 H     1 <1>   0.0800 
 31 H       -0.6580     2.9730     2.9580 H     1 <1>   0.1500 
 32 H        1.1450     2.8250    -0.8740 H     1 <1>   0.1500 
 33 H       -4.8400     0.7880     0.4890 H     1 <1>   0.0800 
 34 H       -4.4520    -0.3540    -0.7560 H     1 <1>   0.0800 
 35 H       -3.3090     1.4030    -2.0350 H     1 <1>   0.0800 
 36 H       -4.9730     1.8310    -1.7740 H     1 <1>   0.0800 
 37 H       -2.9270     3.6070    -2.5930 H     1 <1>   0.0800 
 38 H       -1.6350     3.6780    -1.4220 H     1 <1>   0.0800 
 39 H        1.9550     5.9340     1.9270 H     1 <1>   0.1500 
 40 H        3.0780     4.3640    -1.2020 H     1 <1>   0.0800 
 41 H        3.4270     5.6120    -0.0360 H     1 <1>   0.0800 
 42 H        2.1170     5.8260    -1.1760 H     1 <1>   0.0800 
 43 H       -3.0630     5.8830    -2.2770 H     1 <1>   0.0800 
 44 H       -2.3920     5.7950    -0.6490 H     1 <1>   0.0800 
 45 H       -5.2200     7.2110    -0.8680 H     1 <1>   0.1500 
 46 H       -7.5700     2.3680     1.6570 H     1 <1>   0.0800 
 47 H       -8.5560     2.4290     0.2100 H     1 <1>   0.0800 
 48 H       -9.2440     2.8470     1.7680 H     1 <1>   0.0800 
 49 H       -8.6420     6.2850     1.3390 H     1 <1>   0.0800 
 50 H       -9.7460     5.0290     1.8280 H     1 <1>   0.0800 
 51 H       -9.5650     5.4210     0.1260 H     1 <1>   0.0800 
@<TRIPOS>BOND
  1   1   2  2   
  2   2   3  am  
  3   2   4  1   
  4   3   5  1   
  5   3   6  1   
  6   4   7  ar  
  7   4   8  ar  
  8   5   9  1   
  9   5  27  1   
 10   5  28  1   
 11   6  10  1   
 12   6  29  1   
 13   6  30  1   
 14   7  11  ar  
 15   7  31  1   
 16   8  12  ar  
 17   8  32  1   
 18   9  13  1   
 19   9  14  1   
 20   9  15  1   
 21  10  14  1   
 22  10  33  1   
 23  10  34  1   
 24  11  16  ar  
 25  12  16  ar  
 26  12  17  1   
 27  13  18  ar  
 28  13  19  ar  
 29  14  35  1   
 30  14  36  1   
 31  15  20  1   
 32  15  37  1   
 33  15  38  1   
 34  16  39  1   
 35  17  40  1   
 36  17  41  1   
 37  17  42  1   
 38  18  21  ar  
 39  19  20  1   
 40  19  22  ar  
 41  20  43  1   
 42  20  44  1   
 43  21  23  ar  
 44  21  24  1   
 45  22  23  ar  
 46  22  45  1   
 47  24  25  1   
 48  24  26  1   
 49  25  46  1   
 50  25  47  1   
 51  25  48  1   
 52  26  49  1   
 53  26  50  1   
 54  26  51  1   
@<TRIPOS>SUBSTRUCTURE
  1 ****   5 GROUP 4 **** **** 0

# MOE 2024.06 (io_trps.svl 2023.06)
