@<TRIPOS>MOLECULE
NONAME
53 55 1 0 0 
SMALL
USER_CHARGES


@<TRIPOS>ATOM
  1 O       -4.5420    -1.8230    -2.1320 O.2   1 <1>  -0.5700 
  2 C       -3.8210    -1.5730    -1.2000 C.2   1 <1>   0.5690 
  3 N       -4.1990    -0.6820    -0.2570 N.am  1 <1>  -0.7300 
  4 C       -2.4820    -2.2770    -1.0800 C.3   1 <1>  -0.0190 
  5 C       -3.4430    -0.4220     1.0030 C.3   1 <1>   0.2200 
  6 C       -1.3350    -1.2530    -1.0470 C.3   1 <1>   0.1200 
  7 C       -2.4420    -3.2700     0.1030 C.3   1 <1>   0.1400 
  8 C       -2.0750     0.2110     0.6760 C.3   1 <1>   0.1200 
  9 C       -3.2880    -1.6870     1.8910 C.3   1 <1>   0.1400 
 10 O       -1.1360    -0.7270     0.2310 O.3   1 <1>  -0.5600 
 11 N       -3.4750    -2.9830     1.1520 N.am  1 <1>  -0.6600 
 12 C       -4.6230    -3.7160     1.3410 C.2   1 <1>   0.5690 
 13 O       -5.3890    -3.4630     2.2410 O.2   1 <1>  -0.5700 
 14 C       -4.9630    -4.8690     0.4000 C.3   1 <1>  -0.0990 
 15 C       -6.3820    -5.4440     0.5730 C.3   1 <1>  -0.1600 
 16 C       -6.6610    -6.5710    -0.4290 C.3   1 <1>  -0.0170 
 17 C       -8.0640    -7.1250    -0.2440 C.ar  1 <1>  -0.1440 
 18 C       -8.2950    -8.1780     0.6260 C.ar  1 <1>  -0.1500 
 19 C       -9.1300    -6.5840    -0.9430 C.ar  1 <1>  -0.1500 
 20 C       -9.5720    -8.6860     0.7890 C.ar  1 <1>  -0.1500 
 21 C      -10.4070    -7.0920    -0.7790 C.ar  1 <1>  -0.1500 
 22 C      -10.6420    -8.1490     0.0880 C.ar  1 <1>  -0.1440 
 23 C      -12.0450    -8.7230     0.2800 C.3   1 <1>   0.0630 
 24 C      -12.5850    -9.2960    -1.0350 C.3   1 <1>  -0.2400 
 25 C      -12.9970    -7.6650     0.8450 C.3   1 <1>  -0.2400 
 26 H       -5.1680    -0.3620    -0.2990 H     1 <1>   0.3700 
 27 H       -2.3490    -2.8440    -1.9820 H     1 <1>   0.0800 
 28 H       -3.9950     0.3090     1.5670 H     1 <1>   0.0800 
 29 H       -1.5100    -0.4460    -1.7400 H     1 <1>   0.0800 
 30 H       -0.4170    -1.7400    -1.3240 H     1 <1>   0.0800 
 31 H       -1.4690    -3.2520     0.5630 H     1 <1>   0.0800 
 32 H       -2.5790    -4.2640    -0.2810 H     1 <1>   0.0800 
 33 H       -1.6690     0.6460     1.5720 H     1 <1>   0.0800 
 34 H       -2.1760     0.9910    -0.0600 H     1 <1>   0.0800 
 35 H       -4.0050    -1.6160     2.6900 H     1 <1>   0.0800 
 36 H       -2.3190    -1.6890     2.3600 H     1 <1>   0.0800 
 37 H       -4.8650    -4.5140    -0.6100 H     1 <1>   0.0800 
 38 H       -4.2460    -5.6530     0.5610 H     1 <1>   0.0800 
 39 H       -6.4980    -5.8210     1.5750 H     1 <1>   0.0800 
 40 H       -7.1050    -4.6580     0.4340 H     1 <1>   0.0800 
 41 H       -5.9450    -7.3630    -0.2970 H     1 <1>   0.0800 
 42 H       -6.5550    -6.1990    -1.4330 H     1 <1>   0.0800 
 43 H       -7.4800    -8.6070     1.1810 H     1 <1>   0.1500 
 44 H       -8.9700    -5.7620    -1.6180 H     1 <1>   0.1500 
 45 H       -9.7260    -9.5040     1.4700 H     1 <1>   0.1500 
 46 H      -11.2180    -6.6560    -1.3330 H     1 <1>   0.1500 
 47 H      -11.9920    -9.5300     0.9910 H     1 <1>   0.0800 
 48 H      -12.7040    -8.5210    -1.7700 H     1 <1>   0.0800 
 49 H      -13.5380    -9.7660    -0.8720 H     1 <1>   0.0800 
 50 H      -11.9010   -10.0300    -1.4200 H     1 <1>   0.0800 
 51 H      -13.1230    -6.8530     0.1510 H     1 <1>   0.0800 
 52 H      -12.5990    -7.2710     1.7630 H     1 <1>   0.0800 
 53 H      -13.9600    -8.0980     1.0460 H     1 <1>   0.0800 
@<TRIPOS>BOND
  1   1   2  2   
  2   2   3  am  
  3   2   4  1   
  4   3   5  1   
  5   3  26  1   
  6   4   6  1   
  7   4   7  1   
  8   4  27  1   
  9   5   8  1   
 10   5   9  1   
 11   5  28  1   
 12   6  10  1   
 13   6  29  1   
 14   6  30  1   
 15   7  11  1   
 16   7  31  1   
 17   7  32  1   
 18   8  10  1   
 19   8  33  1   
 20   8  34  1   
 21   9  11  1   
 22   9  35  1   
 23   9  36  1   
 24  11  12  am  
 25  12  13  2   
 26  12  14  1   
 27  14  15  1   
 28  14  37  1   
 29  14  38  1   
 30  15  16  1   
 31  15  39  1   
 32  15  40  1   
 33  16  17  1   
 34  16  41  1   
 35  16  42  1   
 36  17  18  ar  
 37  17  19  ar  
 38  18  20  ar  
 39  18  43  1   
 40  19  21  ar  
 41  19  44  1   
 42  20  22  ar  
 43  20  45  1   
 44  21  22  ar  
 45  21  46  1   
 46  22  23  1   
 47  23  24  1   
 48  23  25  1   
 49  23  47  1   
 50  24  48  1   
 51  24  49  1   
 52  24  50  1   
 53  25  51  1   
 54  25  52  1   
 55  25  53  1   
@<TRIPOS>SUBSTRUCTURE
  1 ****  15 GROUP 4 **** **** 0

# MOE 2024.06 (io_trps.svl 2023.06)
