@<TRIPOS>MOLECULE
NONAME
49 51 1 0 0 
SMALL
USER_CHARGES


@<TRIPOS>ATOM
  1 O        0.1720     1.6290     1.4180 O.2   1 <1>  -0.5700 
  2 C        0.0810     2.7430     0.9680 C.2   1 <1>   0.5690 
  3 N       -0.9200     3.5640     1.3550 N.am  1 <1>  -0.7300 
  4 C        1.0860     3.2340    -0.0790 C.3   1 <1>   0.1810 
  5 C       -1.1100     4.9350     0.8230 C.3   1 <1>   0.3640 
  6 O        1.0740     4.6380    -0.2340 O.3   1 <1>  -0.5600 
  7 C       -2.5900     5.1340     0.5190 C.ar  1 <1>  -0.1440 
  8 C       -0.2210     5.1950    -0.4190 C.3   1 <1>   0.2610 
  9 C       -3.2400     6.2690     0.9800 C.ar  1 <1>  -0.1500 
 10 C       -3.3110     4.2040    -0.2170 C.ar  1 <1>  -0.1500 
 11 C       -0.1280     6.7000    -0.6810 C.2   1 <1>   0.5690 
 12 C       -4.5800     6.4860     0.7150 C.ar  1 <1>   0.0830 
 13 C       -4.6550     4.4030    -0.4830 C.ar  1 <1>  -0.1500 
 14 O       -0.9950     7.2490    -1.3170 O.2   1 <1>  -0.5700 
 15 N        0.9300     7.3950    -0.1940 N.am  1 <1>  -0.7300 
 16 O       -5.0980     7.6420     1.2110 O.3   1 <1>  -0.3630 
 17 C       -5.3110     5.5400    -0.0170 C.ar  1 <1>   0.0830 
 18 C        1.1900     8.8190    -0.4440 C.3   1 <1>   0.3210 
 19 C       -5.8930     8.4530     0.3730 C.3   1 <1>   0.0400 
 20 O       -6.6430     5.7440    -0.2390 O.3   1 <1>  -0.3630 
 21 C        2.6880     9.0140    -0.5200 C.2   1 <1>  -0.1810 
 22 C       -7.4490     4.7830    -0.8830 C.3   1 <1>   0.0400 
 23 C        3.5190     8.5350    -1.5260 C.2   1 <1>   0.1390 
 24 C        3.5180     9.6610     0.3260 C.2   1 <1>  -0.3020 
 25 N        4.7620     8.8530    -1.3280 N.2   1 <1>  -0.7070 
 26 N        4.7620     9.5510    -0.1820 N.pl3 1 <1>   0.3140 
 27 C        6.0010    10.0970     0.3810 C.3   1 <1>   0.0160 
 28 H       -1.6020     3.2290     2.0380 H     1 <1>   0.3700 
 29 H        0.8620     2.7850    -1.0300 H     1 <1>   0.0800 
 30 H        2.0780     2.9450     0.2160 H     1 <1>   0.0800 
 31 H       -0.8190     5.6280     1.5930 H     1 <1>   0.0800 
 32 H       -0.6600     4.7340    -1.2850 H     1 <1>   0.0800 
 33 H       -2.7110     7.0130     1.5480 H     1 <1>   0.1500 
 34 H       -2.8310     3.3140    -0.5880 H     1 <1>   0.1500 
 35 H       -5.1700     3.6550    -1.0530 H     1 <1>   0.1500 
 36 H        1.7170     6.8750     0.2050 H     1 <1>   0.3700 
 37 H        0.7270     9.1280    -1.3660 H     1 <1>   0.0800 
 38 H        0.7820     9.4040     0.3620 H     1 <1>   0.0800 
 39 H       -5.8450     9.4620     0.7400 H     1 <1>   0.0800 
 40 H       -6.9070     8.1010     0.4090 H     1 <1>   0.0800 
 41 H       -5.5090     8.4060    -0.6310 H     1 <1>   0.0800 
 42 H       -8.4570     5.1550    -0.9050 H     1 <1>   0.0800 
 43 H       -7.4100     3.8650    -0.3240 H     1 <1>   0.0800 
 44 H       -7.0890     4.6420    -1.8870 H     1 <1>   0.0800 
 45 H        3.1820     7.9630    -2.3750 H     1 <1>   0.1500 
 46 H        3.3010    10.1820     1.2400 H     1 <1>   0.1500 
 47 H        5.8040    10.5240     1.3450 H     1 <1>   0.0800 
 48 H        6.3800    10.8500    -0.2840 H     1 <1>   0.0800 
 49 H        6.7200     9.3040     0.4710 H     1 <1>   0.0800 
@<TRIPOS>BOND
  1   1   2  2   
  2   2   3  am  
  3   2   4  1   
  4   3   5  1   
  5   3  28  1   
  6   4   6  1   
  7   4  29  1   
  8   4  30  1   
  9   5   7  1   
 10   5   8  1   
 11   5  31  1   
 12   6   8  1   
 13   7   9  ar  
 14   7  10  ar  
 15   8  11  1   
 16   8  32  1   
 17   9  12  ar  
 18   9  33  1   
 19  10  13  ar  
 20  10  34  1   
 21  11  14  2   
 22  11  15  am  
 23  12  16  1   
 24  12  17  ar  
 25  13  17  ar  
 26  13  35  1   
 27  15  18  1   
 28  15  36  1   
 29  16  19  1   
 30  17  20  1   
 31  18  21  1   
 32  18  37  1   
 33  18  38  1   
 34  19  39  1   
 35  19  40  1   
 36  19  41  1   
 37  20  22  1   
 38  21  23  1   
 39  21  24  2   
 40  22  42  1   
 41  22  43  1   
 42  22  44  1   
 43  23  25  2   
 44  23  45  1   
 45  24  26  1   
 46  24  46  1   
 47  25  26  1   
 48  26  27  1   
 49  27  47  1   
 50  27  48  1   
 51  27  49  1   
@<TRIPOS>SUBSTRUCTURE
  1 ****  11 GROUP 4 **** **** 0

# MOE 2024.06 (io_trps.svl 2023.06)
