@<TRIPOS>MOLECULE
NONAME
44 46 1 0 0 
SMALL
USER_CHARGES


@<TRIPOS>ATOM
  1 O       -1.1850     0.4620    -2.0970 O.2   1 <1>  -0.5700 
  2 C       -1.8990     0.9440    -1.2500 C.2   1 <1>   0.5690 
  3 N       -2.8410     0.1830    -0.6050 N.am  1 <1>  -0.6600 
  4 C       -1.7350     2.4290    -0.9510 C.3   1 <1>   0.0820 
  5 C       -3.9040     0.6430     0.3250 C.3   1 <1>   0.1400 
  6 C       -2.9720    -1.2750    -0.8540 C.3   1 <1>   0.1400 
  7 C       -0.3880     2.7580    -0.3160 C.2   1 <1>  -0.1810 
  8 C       -4.7230    -0.6060     0.6550 C.3   1 <1>   0.2000 
  9 C       -3.8380    -1.7970     0.2930 C.3   1 <1>  -0.0800 
 10 C        0.6670     3.4050    -0.8370 C.2   1 <1>  -0.0400 
 11 C        0.0420     2.4450     0.9750 C.2   1 <1>   0.1080 
 12 O       -5.0520    -0.6530     2.0010 O.3   1 <1>  -0.6800 
 13 C       -4.6520    -3.0560    -0.0530 C.3   1 <1>  -0.0170 
 14 O        1.5960     3.4680     0.0780 O.3   1 <1>  -0.0190 
 15 C        0.9370     4.0130    -2.1990 C.3   1 <1>  -0.0600 
 16 N        1.2280     2.8900     1.1830 N.2   1 <1>  -0.4100 
 17 C       -0.7440     1.6820     2.0180 C.3   1 <1>  -0.0590 
 18 C       -3.7510    -4.2340    -0.3830 C.ar  1 <1>   0.1670 
 19 N       -3.2950    -4.2930    -1.6250 N.ar  1 <1>  -0.6200 
 20 C       -3.4510    -5.1670     0.5980 C.ar  1 <1>  -0.1500 
 21 C       -2.5070    -5.3200    -1.8990 C.ar  1 <1>   0.1600 
 22 C       -2.6290    -6.2320     0.2990 C.ar  1 <1>  -0.1500 
 23 C       -2.1470    -6.3000    -0.9900 C.ar  1 <1>  -0.1500 
 24 H       -1.8260     2.9550    -1.8810 H     1 <1>   0.0800 
 25 H       -2.5160     2.7850    -0.3090 H     1 <1>   0.0800 
 26 H       -3.4580     1.0520     1.2140 H     1 <1>   0.0800 
 27 H       -4.5250     1.3800    -0.1540 H     1 <1>   0.0800 
 28 H       -3.4570    -1.4270    -1.8040 H     1 <1>   0.0800 
 29 H       -2.0070    -1.7540    -0.8740 H     1 <1>   0.0800 
 30 H       -5.6350    -0.6040     0.0820 H     1 <1>   0.0800 
 31 H       -3.1750    -2.0170     1.1110 H     1 <1>   0.0800 
 32 H       -4.2510    -0.7710     2.5450 H     1 <1>   0.4000 
 33 H       -5.2930    -2.8610    -0.8940 H     1 <1>   0.0800 
 34 H       -5.2820    -3.3100     0.7810 H     1 <1>   0.0800 
 35 H        0.1070     3.8520    -2.8610 H     1 <1>   0.0800 
 36 H        1.8110     3.5580    -2.6270 H     1 <1>   0.0800 
 37 H        1.1070     5.0700    -2.0980 H     1 <1>   0.0800 
 38 H       -0.9890     0.7050     1.6450 H     1 <1>   0.0800 
 39 H       -1.6420     2.2170     2.2630 H     1 <1>   0.0800 
 40 H       -0.1530     1.5710     2.9100 H     1 <1>   0.0800 
 41 H       -3.8550    -5.0640     1.5890 H     1 <1>   0.1500 
 42 H       -2.1250    -5.3830    -2.9040 H     1 <1>   0.1500 
 43 H       -2.3750    -6.9740     1.0360 H     1 <1>   0.1500 
 44 H       -1.5000    -7.1040    -1.2920 H     1 <1>   0.1500 
@<TRIPOS>BOND
  1   1   2  2   
  2   2   3  am  
  3   2   4  1   
  4   3   5  1   
  5   3   6  1   
  6   4   7  1   
  7   4  24  1   
  8   4  25  1   
  9   5   8  1   
 10   5  26  1   
 11   5  27  1   
 12   6   9  1   
 13   6  28  1   
 14   6  29  1   
 15   7  10  2   
 16   7  11  1   
 17   8   9  1   
 18   8  12  1   
 19   8  30  1   
 20   9  13  1   
 21   9  31  1   
 22  10  14  1   
 23  10  15  1   
 24  11  16  2   
 25  11  17  1   
 26  12  32  1   
 27  13  18  1   
 28  13  33  1   
 29  13  34  1   
 30  14  16  1   
 31  15  35  1   
 32  15  36  1   
 33  15  37  1   
 34  17  38  1   
 35  17  39  1   
 36  17  40  1   
 37  18  19  ar  
 38  18  20  ar  
 39  19  21  ar  
 40  20  22  ar  
 41  20  41  1   
 42  21  23  ar  
 43  21  42  1   
 44  22  23  ar  
 45  22  43  1   
 46  23  44  1   
@<TRIPOS>SUBSTRUCTURE
  1 ****   3 GROUP 4 **** **** 0

# MOE 2024.06 (io_trps.svl 2023.06)
