@<TRIPOS>MOLECULE
NONAME
50 52 1 0 0 
SMALL
USER_CHARGES


@<TRIPOS>ATOM
  1 F        0.5070     2.1170     0.5990 F     1 <1>  -0.1900 
  2 C        1.7550     2.3030     0.2690 C.ar  1 <1>   0.1900 
  3 C        2.6350     2.7730     1.2230 C.ar  1 <1>  -0.1500 
  4 C        2.1510     2.0230    -1.0240 C.ar  1 <1>  -0.1500 
  5 C        3.9590     2.9670     0.8690 C.ar  1 <1>  -0.1500 
  6 C        3.4770     2.2200    -1.3710 C.ar  1 <1>  -0.1500 
  7 C        4.3880     2.6900    -0.4280 C.ar  1 <1>  -0.1430 
  8 C        5.8480     2.8950    -0.8260 C.3   1 <1>   0.6280 
  9 N        6.7070     1.8360    -0.1610 N.4   1 <1>  -0.9590 
 10 C        6.2750     4.3550    -0.5130 C.2   1 <1>   0.5690 
 11 C        8.1070     1.8560    -0.6860 C.3   1 <1>   0.3430 
 12 C        6.1160     0.4620    -0.1850 C.3   1 <1>   0.3430 
 13 O        7.1580     4.5150     0.2970 O.2   1 <1>  -0.5700 
 14 N        5.6560     5.3950    -1.1590 N.am  1 <1>  -0.4940 
 15 C        8.9880     0.9330     0.1580 C.3   1 <1>  -0.1600 
 16 C        6.9680    -0.4840     0.6610 C.3   1 <1>  -0.1600 
 17 C        5.9200     6.7690    -1.1420 C.2   1 <1>   0.2040 
 18 C        8.4330    -0.4950     0.2080 C.3   1 <1>  -0.1600 
 19 O        5.5650     7.4440    -2.2080 O.3   1 <1>  -0.0190 
 20 C        6.4600     7.6500    -0.2700 C.2   1 <1>  -0.1810 
 21 N        5.8460     8.7120    -2.1080 N.2   1 <1>  -0.4100 
 22 C        6.3850     8.8650    -0.9540 C.2   1 <1>   0.1080 
 23 C        7.0080     7.4720     1.1390 C.3   1 <1>   0.0210 
 24 C        6.8540    10.2110    -0.4420 C.3   1 <1>  -0.0590 
 25 C        8.5370     7.3960     1.1310 C.3   1 <1>  -0.2400 
 26 H        2.2820     2.9820     2.2190 H     1 <1>   0.1500 
 27 H        1.4290     1.6610    -1.7360 H     1 <1>   0.1500 
 28 H        4.6410     3.3390     1.6180 H     1 <1>   0.1500 
 29 H        3.7790     1.9990    -2.3820 H     1 <1>   0.1500 
 30 H        5.9210     2.7650    -1.8920 H     1 <1>   0.0800 
 31 H        6.7760     2.1330     0.8220 H     1 <1>   0.4500 
 32 H        8.5110     2.8560    -0.6450 H     1 <1>   0.0800 
 33 H        8.1210     1.5240    -1.7110 H     1 <1>   0.0800 
 34 H        6.0740     0.0980    -1.1990 H     1 <1>   0.0800 
 35 H        5.1120     0.4750     0.2110 H     1 <1>   0.0800 
 36 H        4.9090     5.1700    -1.8180 H     1 <1>   0.3700 
 37 H        9.0700     1.3330     1.1540 H     1 <1>   0.0800 
 38 H        9.9800     0.9150    -0.2610 H     1 <1>   0.0800 
 39 H        6.5660    -1.4800     0.5880 H     1 <1>   0.0800 
 40 H        6.9060    -0.1910     1.6950 H     1 <1>   0.0800 
 41 H        9.0210    -1.0920     0.8860 H     1 <1>   0.0800 
 42 H        8.5050    -0.9450    -0.7690 H     1 <1>   0.0800 
 43 H        6.6020     6.5810     1.5800 H     1 <1>   0.0800 
 44 H        6.6930     8.2970     1.7530 H     1 <1>   0.0800 
 45 H        6.4110    10.4190     0.5140 H     1 <1>   0.0800 
 46 H        6.5650    10.9850    -1.1300 H     1 <1>   0.0800 
 47 H        7.9240    10.2160    -0.3500 H     1 <1>   0.0800 
 48 H        8.8660     6.5770     0.5180 H     1 <1>   0.0800 
 49 H        8.9030     7.2460     2.1310 H     1 <1>   0.0800 
 50 H        8.9600     8.3050     0.7430 H     1 <1>   0.0800 
@<TRIPOS>BOND
  1   1   2  1   
  2   2   3  ar  
  3   2   4  ar  
  4   3   5  ar  
  5   3  26  1   
  6   4   6  ar  
  7   4  27  1   
  8   5   7  ar  
  9   5  28  1   
 10   6   7  ar  
 11   6  29  1   
 12   7   8  1   
 13   8   9  1   
 14   8  10  1   
 15   8  30  1   
 16   9  11  1   
 17   9  12  1   
 18   9  31  1   
 19  10  13  2   
 20  10  14  am  
 21  11  15  1   
 22  11  32  1   
 23  11  33  1   
 24  12  16  1   
 25  12  34  1   
 26  12  35  1   
 27  14  17  1   
 28  14  36  1   
 29  15  18  1   
 30  15  37  1   
 31  15  38  1   
 32  16  18  1   
 33  16  39  1   
 34  16  40  1   
 35  17  19  1   
 36  17  20  2   
 37  18  41  1   
 38  18  42  1   
 39  19  21  1   
 40  20  22  1   
 41  20  23  1   
 42  21  22  2   
 43  22  24  1   
 44  23  25  1   
 45  23  43  1   
 46  23  44  1   
 47  24  45  1   
 48  24  46  1   
 49  24  47  1   
 50  25  48  1   
 51  25  49  1   
 52  25  50  1   
@<TRIPOS>SUBSTRUCTURE
  1 ****  10 GROUP 4 **** **** 0

# MOE 2024.06 (io_trps.svl 2023.06)
