@<TRIPOS>MOLECULE
NONAME
50 53 1 0 0 
SMALL
USER_CHARGES


@<TRIPOS>ATOM
  1 O        1.3100     0.1610    -2.3400 O.2   1 <1>  -0.5700 
  2 C        1.2620    -0.5050    -1.3300 C.2   1 <1>   0.5690 
  3 N        1.1530     0.1060    -0.0990 N.am  1 <1>  -0.6600 
  4 C        1.3140    -2.0330    -1.5140 C.3   1 <1>   0.1610 
  5 C        1.1770     1.6020     0.0010 C.3   1 <1>   0.3200 
  6 C        1.0310    -0.5900     1.2190 C.3   1 <1>   0.0600 
  7 C        0.2060    -2.7890    -0.7850 C.2   1 <1>  -0.3320 
  8 C        2.6990    -2.6120    -1.1300 C.3   1 <1>  -0.1600 
  9 C        2.4860     2.1080     0.5890 C.2   1 <1>   0.2980 
 10 N       -1.1080    -2.4150    -0.7470 N.pl3 1 <1>   0.0330 
 11 C        0.3750    -3.9240    -0.0740 C.2   1 <1>  -0.1810 
 12 C        2.6890    -4.1500    -0.9980 C.3   1 <1>  -0.1600 
 13 O        3.5980     1.9740    -0.0610 O.3   1 <1>  -0.2800 
 14 N        2.6530     2.6850     1.7180 N.2   1 <1>  -0.3380 
 15 C       -1.7810    -3.3240     0.0300 C.ar  1 <1>  -0.1520 
 16 C       -0.8760    -4.2870     0.4690 C.ar  1 <1>   0.0000 
 17 C        1.7030    -4.6360     0.0820 C.3   1 <1>   0.0210 
 18 C        4.4790     2.5000     0.7240 C.2   1 <1>   0.2980 
 19 N        3.9590     2.9410     1.8070 N.2   1 <1>  -0.3380 
 20 C       -3.1270    -3.3900     0.3970 C.ar  1 <1>  -0.1500 
 21 C       -1.3200    -5.3310     1.2870 C.ar  1 <1>  -0.1500 
 22 C        5.9360     2.5250     0.2870 C.3   1 <1>   0.0200 
 23 C       -3.5470    -4.4220     1.2030 C.ar  1 <1>  -0.1500 
 24 C       -2.6460    -5.3980     1.6520 C.ar  1 <1>  -0.1440 
 25 C        6.8740     3.1680     1.3180 C.3   1 <1>  -0.2400 
 26 C       -3.1580    -6.5180     2.5390 C.3   1 <1>  -0.0970 
 27 H        1.1680    -2.2280    -2.5620 H     1 <1>   0.0800 
 28 H        0.3660     1.9230     0.6300 H     1 <1>   0.0800 
 29 H        1.0390     2.0560    -0.9630 H     1 <1>   0.0800 
 30 H        1.3720    -1.6070     1.1650 H     1 <1>   0.0800 
 31 H        0.0020    -0.5930     1.5330 H     1 <1>   0.0800 
 32 H        1.6210    -0.0860     1.9650 H     1 <1>   0.0800 
 33 H        3.0210    -2.1900    -0.1950 H     1 <1>   0.0800 
 34 H        3.4150    -2.3170    -1.8760 H     1 <1>   0.0800 
 35 H       -1.5270    -1.6000    -1.2070 H     1 <1>   0.2700 
 36 H        3.6780    -4.5040    -0.7640 H     1 <1>   0.0800 
 37 H        2.4010    -4.5760    -1.9440 H     1 <1>   0.0800 
 38 H        1.5590    -5.6980    -0.0100 H     1 <1>   0.0800 
 39 H        2.0950    -4.4280     1.0610 H     1 <1>   0.0800 
 40 H       -3.8160    -2.6410     0.0500 H     1 <1>   0.1500 
 41 H       -0.6090    -6.0650     1.6150 H     1 <1>   0.1500 
 42 H        6.0010     3.0680    -0.6390 H     1 <1>   0.0800 
 43 H        6.2510     1.5140     0.1020 H     1 <1>   0.0800 
 44 H       -4.5800    -4.4880     1.4950 H     1 <1>   0.1500 
 45 H        6.5810     4.1870     1.5020 H     1 <1>   0.0800 
 46 H        7.8870     3.1590     0.9570 H     1 <1>   0.0800 
 47 H        6.8320     2.6260     2.2470 H     1 <1>   0.0800 
 48 H       -2.3620    -7.1890     2.8070 H     1 <1>   0.0800 
 49 H       -3.9170    -7.0760     2.0210 H     1 <1>   0.0800 
 50 H       -3.5790    -6.1080     3.4390 H     1 <1>   0.0800 
@<TRIPOS>BOND
  1   1   2  2   
  2   2   3  am  
  3   2   4  1   
  4   3   5  1   
  5   3   6  1   
  6   4   7  1   
  7   4   8  1   
  8   4  27  1   
  9   5   9  1   
 10   5  28  1   
 11   5  29  1   
 12   6  30  1   
 13   6  31  1   
 14   6  32  1   
 15   7  10  1   
 16   7  11  2   
 17   8  12  1   
 18   8  33  1   
 19   8  34  1   
 20   9  13  1   
 21   9  14  2   
 22  10  15  1   
 23  10  35  1   
 24  11  16  1   
 25  11  17  1   
 26  12  17  1   
 27  12  36  1   
 28  12  37  1   
 29  13  18  1   
 30  14  19  1   
 31  15  16  ar  
 32  15  20  ar  
 33  16  21  ar  
 34  17  38  1   
 35  17  39  1   
 36  18  19  2   
 37  18  22  1   
 38  20  23  ar  
 39  20  40  1   
 40  21  24  ar  
 41  21  41  1   
 42  22  25  1   
 43  22  42  1   
 44  22  43  1   
 45  23  24  ar  
 46  23  44  1   
 47  24  26  1   
 48  25  45  1   
 49  25  46  1   
 50  25  47  1   
 51  26  48  1   
 52  26  49  1   
 53  26  50  1   
@<TRIPOS>SUBSTRUCTURE
  1 ****   6 GROUP 4 **** **** 0

# MOE 2024.06 (io_trps.svl 2023.06)
