@<TRIPOS>MOLECULE
NONAME
50 52 1 0 0 
SMALL
USER_CHARGES


@<TRIPOS>ATOM
  1 O       -1.8370    -0.6830    -1.9860 O.2   1 <1>  -0.5700 
  2 C       -1.7650     0.1830    -1.1370 C.2   1 <1>   0.5690 
  3 N       -2.1250    -0.1020     0.1650 N.am  1 <1>  -0.6600 
  4 C       -1.3370     1.5900    -1.6330 C.3   1 <1>   0.2810 
  5 C       -2.1190    -1.5150     0.6240 C.3   1 <1>   0.3200 
  6 C       -2.3890     0.9080     1.2330 C.3   1 <1>   0.1400 
  7 N       -0.3000     2.3500    -0.8200 N.am  1 <1>  -0.6600 
  8 C       -2.6080     2.4420    -1.8530 C.3   1 <1>  -0.1600 
  9 C       -3.4940    -2.1060     0.4070 C.2   1 <1>  -0.3320 
 10 C       -3.8870     0.9950     1.5420 C.3   1 <1>   0.1200 
 11 C        0.6030     1.7120    -0.0030 C.2   1 <1>   0.6300 
 12 C       -0.0480     3.7540    -1.2660 C.3   1 <1>   0.1400 
 13 C       -2.3180     3.8650    -2.3360 C.3   1 <1>  -0.1600 
 14 N       -4.0440    -2.1670    -0.8160 N.pl3 1 <1>   0.0330 
 15 C       -4.3930    -2.6510     1.2550 C.2   1 <1>   0.0770 
 16 O       -4.1050     2.0260     2.4460 O.3   1 <1>  -0.6800 
 17 O        0.8120     0.5250    -0.0530 O.2   1 <1>  -0.5700 
 18 C        1.3980     2.5090     1.0270 C.3   1 <1>  -0.1000 
 19 C       -1.3510     4.5450    -1.3670 C.3   1 <1>  -0.1600 
 20 C       -5.2530    -2.7390    -0.6360 C.2   1 <1>   0.0070 
 21 N       -5.5000    -3.0440     0.5970 N.2   1 <1>  -0.5650 
 22 C        1.3710     2.1130     2.4760 C.3   1 <1>  -0.2000 
 23 C        0.7150     3.3850     2.0420 C.3   1 <1>  -0.2000 
 24 C       -6.2130    -2.9910    -1.7770 C.3   1 <1>  -0.0600 
 25 H       -0.8950     1.4340    -2.6020 H     1 <1>   0.0800 
 26 H       -1.8460    -1.5690     1.6630 H     1 <1>   0.0800 
 27 H       -1.3890    -2.0750     0.0630 H     1 <1>   0.0800 
 28 H       -2.0520     1.8780     0.9250 H     1 <1>   0.0800 
 29 H       -1.8450     0.6360     2.1200 H     1 <1>   0.0800 
 30 H       -3.1680     2.4970    -0.9380 H     1 <1>   0.0800 
 31 H       -3.2340     1.9470    -2.5750 H     1 <1>   0.0800 
 32 H       -4.2590     0.0820     1.9710 H     1 <1>   0.0800 
 33 H       -4.4400     1.2210     0.6470 H     1 <1>   0.0800 
 34 H        0.4270     3.7260    -2.2320 H     1 <1>   0.0800 
 35 H        0.6160     4.2650    -0.5920 H     1 <1>   0.0800 
 36 H       -3.2370     4.4250    -2.3880 H     1 <1>   0.0800 
 37 H       -1.8870     3.8350    -3.3220 H     1 <1>   0.0800 
 38 H       -3.6010    -1.8260    -1.6800 H     1 <1>   0.2700 
 39 H       -4.3060    -2.7840     2.3200 H     1 <1>   0.1500 
 40 H       -3.8520     1.7570     3.3500 H     1 <1>   0.4000 
 41 H        2.3470     2.8240     0.6340 H     1 <1>   0.1000 
 42 H       -1.1340     5.5390    -1.7160 H     1 <1>   0.0800 
 43 H       -1.7960     4.6280    -0.3900 H     1 <1>   0.0800 
 44 H        2.2900     2.1600     3.0340 H     1 <1>   0.1000 
 45 H        0.7610     1.2720     2.7590 H     1 <1>   0.1000 
 46 H       -0.3600     3.4370     2.0430 H     1 <1>   0.1000 
 47 H        1.1740     4.3210     2.3090 H     1 <1>   0.1000 
 48 H       -5.7600    -3.6430    -2.5010 H     1 <1>   0.0800 
 49 H       -6.4780    -2.0620    -2.2470 H     1 <1>   0.0800 
 50 H       -7.1070    -3.4570    -1.4020 H     1 <1>   0.0800 
@<TRIPOS>BOND
  1   1   2  2   
  2   2   3  am  
  3   2   4  1   
  4   3   5  1   
  5   3   6  1   
  6   4   7  1   
  7   4   8  1   
  8   4  25  1   
  9   5   9  1   
 10   5  26  1   
 11   5  27  1   
 12   6  10  1   
 13   6  28  1   
 14   6  29  1   
 15   7  11  am  
 16   7  12  1   
 17   8  13  1   
 18   8  30  1   
 19   8  31  1   
 20   9  14  1   
 21   9  15  2   
 22  10  16  1   
 23  10  32  1   
 24  10  33  1   
 25  11  17  2   
 26  11  18  1   
 27  12  19  1   
 28  12  34  1   
 29  12  35  1   
 30  13  19  1   
 31  13  36  1   
 32  13  37  1   
 33  14  20  1   
 34  14  38  1   
 35  15  21  1   
 36  15  39  1   
 37  16  40  1   
 38  18  22  1   
 39  18  23  1   
 40  18  41  1   
 41  19  42  1   
 42  19  43  1   
 43  20  21  2   
 44  20  24  1   
 45  22  23  1   
 46  22  44  1   
 47  22  45  1   
 48  23  46  1   
 49  23  47  1   
 50  24  48  1   
 51  24  49  1   
 52  24  50  1   
@<TRIPOS>SUBSTRUCTURE
  1 ****   3 GROUP 4 **** **** 0

# MOE 2024.06 (io_trps.svl 2023.06)
