@<TRIPOS>MOLECULE
NONAME
57 59 1 0 0 
SMALL
USER_CHARGES


@<TRIPOS>ATOM
  1 O       -1.3220    -0.7430     0.4680 O.3   1 <1>  -0.3630 
  2 C       -2.6440    -0.9770     0.6490 C.ar  1 <1>   0.0820 
  3 C       -0.8470     0.5380     0.1170 C.3   1 <1>   0.1200 
  4 C       -2.9900    -2.2480     1.0740 C.ar  1 <1>  -0.1500 
  5 C       -3.6400    -0.0290     0.4340 C.ar  1 <1>  -0.1500 
  6 C        0.6810     0.4760     0.0350 C.3   1 <1>  -0.1600 
  7 C       -4.3190    -2.5900     1.2760 C.ar  1 <1>  -0.1440 
  8 C       -4.9660    -0.3630     0.6450 C.ar  1 <1>  -0.1500 
  9 C        1.3100     1.7910    -0.4580 C.3   1 <1>  -0.0800 
 10 C       -5.3060    -1.6380     1.0650 C.ar  1 <1>  -0.1500 
 11 C       -4.6860    -3.9930     1.7140 C.3   1 <1>   0.4860 
 12 C        2.8210     1.6060    -0.6350 C.3   1 <1>  -0.2400 
 13 C        1.0470     2.9540     0.5080 C.3   1 <1>  -0.2400 
 14 N       -4.4280    -4.9190     0.5770 N.4   1 <1>  -0.9590 
 15 C       -5.3920    -4.6530    -0.5390 C.3   1 <1>   0.3430 
 16 C       -4.6250    -6.3410     0.9980 C.3   1 <1>   0.3430 
 17 C       -6.4770    -5.7250    -0.4110 C.3   1 <1>   0.2000 
 18 C       -5.6990    -6.9430     0.0790 C.3   1 <1>  -0.0800 
 19 O       -7.3570    -5.3410     0.5960 O.3   1 <1>  -0.6800 
 20 C       -5.0780    -7.7370    -1.0880 C.3   1 <1>  -0.0170 
 21 C       -4.1210    -8.8000    -0.5720 C.ar  1 <1>  -0.1440 
 22 C       -2.7590    -8.7290    -0.7970 C.ar  1 <1>  -0.1500 
 23 C       -4.5630    -9.8890     0.1530 C.ar  1 <1>  -0.1500 
 24 C       -1.9290    -9.7110    -0.2840 C.ar  1 <1>   0.1600 
 25 C       -3.6470   -10.8160     0.6230 C.ar  1 <1>   0.1600 
 26 N       -2.3410   -10.7440     0.4300 N.ar  1 <1>  -0.6200 
 27 H       -1.2660     0.8060    -0.8370 H     1 <1>   0.0800 
 28 H       -1.1630     1.2320     0.8750 H     1 <1>   0.0800 
 29 H       -2.1960    -2.9520     1.2440 H     1 <1>   0.1500 
 30 H       -3.4040     0.9660     0.1070 H     1 <1>   0.1500 
 31 H        1.0740     0.2300     1.0060 H     1 <1>   0.0800 
 32 H        0.9480    -0.3130    -0.6470 H     1 <1>   0.0800 
 33 H       -5.7350     0.3740     0.4830 H     1 <1>   0.1500 
 34 H        0.8890     2.0390    -1.4190 H     1 <1>   0.0800 
 35 H       -6.3460    -1.8740     1.2250 H     1 <1>   0.1500 
 36 H       -5.7260    -4.0330     1.9990 H     1 <1>   0.0800 
 37 H       -4.0840    -4.2680     2.5640 H     1 <1>   0.0800 
 38 H        3.2860     1.3580     0.3030 H     1 <1>   0.0800 
 39 H        3.2680     2.5100    -1.0110 H     1 <1>   0.0800 
 40 H        3.0230     0.8160    -1.3370 H     1 <1>   0.0800 
 41 H        1.4100     2.7180     1.4930 H     1 <1>   0.0800 
 42 H       -0.0020     3.1770     0.5690 H     1 <1>   0.0800 
 43 H        1.5500     3.8420     0.1650 H     1 <1>   0.0800 
 44 H       -3.4690    -4.7430     0.2540 H     1 <1>   0.4500 
 45 H       -5.8160    -3.6630    -0.4940 H     1 <1>   0.0800 
 46 H       -4.8880    -4.7730    -1.4830 H     1 <1>   0.0800 
 47 H       -3.7030    -6.8980     0.9400 H     1 <1>   0.0800 
 48 H       -4.9820    -6.3750     2.0150 H     1 <1>   0.0800 
 49 H       -7.0300    -5.8790    -1.3230 H     1 <1>   0.0800 
 50 H       -6.3330    -7.6080     0.6400 H     1 <1>   0.0800 
 51 H       -8.1730    -5.8860     0.5820 H     1 <1>   0.4000 
 52 H       -4.5500    -7.0820    -1.7590 H     1 <1>   0.0800 
 53 H       -5.8570    -8.2180    -1.6550 H     1 <1>   0.0800 
 54 H       -2.3270    -7.9280    -1.3690 H     1 <1>   0.1500 
 55 H       -5.6080   -10.0360     0.3580 H     1 <1>   0.1500 
 56 H       -0.8690    -9.6460    -0.4690 H     1 <1>   0.1500 
 57 H       -4.0070   -11.6610     1.1860 H     1 <1>   0.1500 
@<TRIPOS>BOND
  1   1   2  1   
  2   1   3  1   
  3   2   4  ar  
  4   2   5  ar  
  5   3   6  1   
  6   3  27  1   
  7   3  28  1   
  8   4   7  ar  
  9   4  29  1   
 10   5   8  ar  
 11   5  30  1   
 12   6   9  1   
 13   6  31  1   
 14   6  32  1   
 15   7  10  ar  
 16   7  11  1   
 17   8  10  ar  
 18   8  33  1   
 19   9  12  1   
 20   9  13  1   
 21   9  34  1   
 22  10  35  1   
 23  11  14  1   
 24  11  36  1   
 25  11  37  1   
 26  12  38  1   
 27  12  39  1   
 28  12  40  1   
 29  13  41  1   
 30  13  42  1   
 31  13  43  1   
 32  14  15  1   
 33  14  16  1   
 34  14  44  1   
 35  15  17  1   
 36  15  45  1   
 37  15  46  1   
 38  16  18  1   
 39  16  47  1   
 40  16  48  1   
 41  17  18  1   
 42  17  19  1   
 43  17  49  1   
 44  18  20  1   
 45  18  50  1   
 46  19  51  1   
 47  20  21  1   
 48  20  52  1   
 49  20  53  1   
 50  21  22  ar  
 51  21  23  ar  
 52  22  24  ar  
 53  22  54  1   
 54  23  25  ar  
 55  23  55  1   
 56  24  26  ar  
 57  24  56  1   
 58  25  26  ar  
 59  25  57  1   
@<TRIPOS>SUBSTRUCTURE
  1 ****  14 GROUP 4 **** **** 0

# MOE 2024.06 (io_trps.svl 2023.06)
