@<TRIPOS>MOLECULE
NONAME
43 44 1 0 0 
SMALL
USER_CHARGES


@<TRIPOS>ATOM
  1 S        1.0080    -0.0360     1.0060 S.o2  1 <1>   1.3330 
  2 O        0.7020     1.0110     1.9540 O.2   1 <1>  -0.6500 
  3 O        1.8810    -1.1180     1.3990 O.2   1 <1>  -0.6500 
  4 N       -0.4550    -0.7190     0.4790 N.am  1 <1>  -0.8490 
  5 C        1.6300     0.7470    -0.4830 C.3   1 <1>  -0.0550 
  6 C       -1.4430    -0.8140     1.5580 C.3   1 <1>   0.1160 
  7 C       -0.2870    -2.0280    -0.1600 C.3   1 <1>   0.1160 
  8 C        2.9510     1.5150    -0.2700 C.3   1 <1>  -0.0800 
  9 C        3.2970     2.3560    -1.4860 C.3   1 <1>   0.2200 
 10 C        4.1530     0.5720    -0.2050 C.3   1 <1>   0.1200 
 11 N        4.1970     3.4540    -1.0710 N.am  1 <1>  -0.7300 
 12 C        4.0540     1.3650    -2.3690 C.3   1 <1>   0.1200 
 13 O        4.5480     0.3630    -1.5260 O.3   1 <1>  -0.5600 
 14 C        3.9020     4.7780    -1.1310 C.2   1 <1>   0.5690 
 15 O        2.8600     5.1740    -1.5920 O.2   1 <1>  -0.5700 
 16 C        4.9010     5.7980    -0.6080 C.3   1 <1>   0.0440 
 17 C        6.1110     5.1540     0.0620 C.ar  1 <1>  -0.1440 
 18 C        7.2530     4.8620    -0.6710 C.ar  1 <1>   0.1600 
 19 C        6.0800     4.8280     1.4030 C.ar  1 <1>  -0.1500 
 20 N        8.3340     4.2760    -0.1840 N.ar  1 <1>  -0.6200 
 21 C        7.2020     4.2240     1.9280 C.ar  1 <1>  -0.1500 
 22 C        8.2850     3.9730     1.1030 C.ar  1 <1>   0.1600 
 23 H        1.7640     0.0090    -1.2490 H     1 <1>   0.0800 
 24 H        0.8850     1.4400    -0.8230 H     1 <1>   0.0800 
 25 H       -2.3610    -1.2360     1.1870 H     1 <1>   0.0800 
 26 H       -1.6590     0.1670     1.9480 H     1 <1>   0.0800 
 27 H       -1.0660    -1.4290     2.3580 H     1 <1>   0.0800 
 28 H       -1.2290    -2.3700    -0.5560 H     1 <1>   0.0800 
 29 H        0.0770    -2.7520     0.5510 H     1 <1>   0.0800 
 30 H        0.4160    -1.9600    -0.9720 H     1 <1>   0.0800 
 31 H        2.8690     2.1210     0.6170 H     1 <1>   0.0800 
 32 H        2.4300     2.7570    -1.9860 H     1 <1>   0.0800 
 33 H        3.9410    -0.3790     0.2520 H     1 <1>   0.0800 
 34 H        4.9760     1.0370     0.3110 H     1 <1>   0.0800 
 35 H        5.0980     3.1600    -0.6810 H     1 <1>   0.3700 
 36 H        4.8710     1.8250    -2.8960 H     1 <1>   0.0800 
 37 H        3.3870     0.8950    -3.0700 H     1 <1>   0.0800 
 38 H        5.2180     6.4120    -1.4310 H     1 <1>   0.0800 
 39 H        4.3940     6.4350     0.0930 H     1 <1>   0.0800 
 40 H        7.2800     5.1170    -1.7170 H     1 <1>   0.1500 
 41 H        5.2190     5.0310     2.0190 H     1 <1>   0.1500 
 42 H        7.2400     3.9480     2.9660 H     1 <1>   0.1500 
 43 H        9.1560     3.5000     1.5240 H     1 <1>   0.1500 
@<TRIPOS>BOND
  1   1   2  2   
  2   1   3  2   
  3   1   4  am  
  4   1   5  1   
  5   4   6  1   
  6   4   7  1   
  7   5   8  1   
  8   5  23  1   
  9   5  24  1   
 10   6  25  1   
 11   6  26  1   
 12   6  27  1   
 13   7  28  1   
 14   7  29  1   
 15   7  30  1   
 16   8   9  1   
 17   8  10  1   
 18   8  31  1   
 19   9  11  1   
 20   9  12  1   
 21   9  32  1   
 22  10  13  1   
 23  10  33  1   
 24  10  34  1   
 25  11  14  am  
 26  11  35  1   
 27  12  13  1   
 28  12  36  1   
 29  12  37  1   
 30  14  15  2   
 31  14  16  1   
 32  16  17  1   
 33  16  38  1   
 34  16  39  1   
 35  17  18  ar  
 36  17  19  ar  
 37  18  20  ar  
 38  18  40  1   
 39  19  21  ar  
 40  19  41  1   
 41  20  22  ar  
 42  21  22  ar  
 43  21  42  1   
 44  22  43  1   
@<TRIPOS>SUBSTRUCTURE
  1 ****   8 GROUP 4 **** **** 0

# MOE 2024.06 (io_trps.svl 2023.06)
