@<TRIPOS>MOLECULE
NONAME
43 44 1 0 0 
SMALL
USER_CHARGES


@<TRIPOS>ATOM
  1 S       -0.2780    -0.2190     0.5180 S.o2  1 <1>   1.3330 
  2 O       -1.0470     1.0030     0.4660 O.2   1 <1>  -0.6500 
  3 O       -0.0570    -0.8700     1.7900 O.2   1 <1>  -0.6500 
  4 N       -0.9990    -1.3490    -0.5240 N.am  1 <1>  -0.8490 
  5 C        1.2960     0.0990    -0.2820 C.3   1 <1>  -0.0550 
  6 C       -2.4620    -1.2520    -0.5250 C.3   1 <1>   0.1160 
  7 C       -0.5910    -2.7330    -0.2550 C.3   1 <1>   0.1160 
  8 C        2.1370     1.1860     0.4180 C.3   1 <1>  -0.0800 
  9 C        3.3440     1.5710    -0.4210 C.3   1 <1>   0.2200 
 10 C        2.7870     0.6700     1.7090 C.3   1 <1>   0.1200 
 11 N        3.7830     2.9340    -0.0430 N.am  1 <1>  -0.7300 
 12 C        4.3810     0.5590     0.0460 C.3   1 <1>   0.1200 
 13 O        4.1050     0.3260     1.3950 O.3   1 <1>  -0.5600 
 14 C        3.9250     3.9880    -0.9000 C.2   1 <1>   0.5440 
 15 O        3.6780     3.8100    -2.0750 O.2   1 <1>  -0.5700 
 16 C        4.3760     5.2800    -0.4230 C.ar  1 <1>   0.0860 
 17 C        4.9620     6.1930    -1.2990 C.ar  1 <1>   0.1600 
 18 C        4.2540     5.6800     0.9030 C.ar  1 <1>  -0.1500 
 19 N        5.4230     7.3930    -0.9800 N.ar  1 <1>  -0.6200 
 20 C        4.7260     6.9260     1.2540 C.ar  1 <1>  -0.1500 
 21 C        5.2980     7.7380     0.2890 C.ar  1 <1>   0.1670 
 22 C        5.8240     9.1100     0.6540 C.3   1 <1>  -0.0970 
 23 H        1.8590    -0.8120    -0.3400 H     1 <1>   0.0800 
 24 H        1.0930     0.4210    -1.2850 H     1 <1>   0.0800 
 25 H       -2.8840    -1.9700    -1.2060 H     1 <1>   0.0800 
 26 H       -2.7660    -0.2690    -0.8440 H     1 <1>   0.0800 
 27 H       -2.8490    -1.4290     0.4650 H     1 <1>   0.0800 
 28 H       -1.0030    -3.3910    -1.0010 H     1 <1>   0.0800 
 29 H       -0.9360    -3.0450     0.7170 H     1 <1>   0.0800 
 30 H        0.4820    -2.8170    -0.2830 H     1 <1>   0.0800 
 31 H        1.5090     2.0410     0.6070 H     1 <1>   0.0800 
 32 H        3.1640     1.5080    -1.4820 H     1 <1>   0.0800 
 33 H        2.2970    -0.1940     2.1230 H     1 <1>   0.0800 
 34 H        2.8230     1.4450     2.4540 H     1 <1>   0.0800 
 35 H        4.1410     3.0000     0.9120 H     1 <1>   0.3700 
 36 H        5.3900     0.9170    -0.0620 H     1 <1>   0.0800 
 37 H        4.2670    -0.3740    -0.4770 H     1 <1>   0.0800 
 38 H        5.0540     5.9050    -2.3330 H     1 <1>   0.1500 
 39 H        3.7980     5.0420     1.6390 H     1 <1>   0.1500 
 40 H        4.6480     7.2660     2.2710 H     1 <1>   0.1500 
 41 H        5.6860     9.3150     1.7000 H     1 <1>   0.0800 
 42 H        5.3040     9.8570     0.0820 H     1 <1>   0.0800 
 43 H        6.8720     9.1660     0.4220 H     1 <1>   0.0800 
@<TRIPOS>BOND
  1   1   2  2   
  2   1   3  2   
  3   1   4  am  
  4   1   5  1   
  5   4   6  1   
  6   4   7  1   
  7   5   8  1   
  8   5  23  1   
  9   5  24  1   
 10   6  25  1   
 11   6  26  1   
 12   6  27  1   
 13   7  28  1   
 14   7  29  1   
 15   7  30  1   
 16   8   9  1   
 17   8  10  1   
 18   8  31  1   
 19   9  11  1   
 20   9  12  1   
 21   9  32  1   
 22  10  13  1   
 23  10  33  1   
 24  10  34  1   
 25  11  14  am  
 26  11  35  1   
 27  12  13  1   
 28  12  36  1   
 29  12  37  1   
 30  14  15  2   
 31  14  16  1   
 32  16  17  ar  
 33  16  18  ar  
 34  17  19  ar  
 35  17  38  1   
 36  18  20  ar  
 37  18  39  1   
 38  19  21  ar  
 39  20  21  ar  
 40  20  40  1   
 41  21  22  1   
 42  22  41  1   
 43  22  42  1   
 44  22  43  1   
@<TRIPOS>SUBSTRUCTURE
  1 ****  11 GROUP 4 **** **** 0

# MOE 2024.06 (io_trps.svl 2023.06)
