@<TRIPOS>MOLECULE
NONAME
51 54 1 0 0 
SMALL
USER_CHARGES


@<TRIPOS>ATOM
  1 O       -0.7030     0.1060    -1.8720 O.2   1 <1>  -0.5700 
  2 C       -1.2700     0.7240    -0.9920 C.2   1 <1>   0.5440 
  3 N       -2.0640     0.0390    -0.1040 N.am  1 <1>  -0.6600 
  4 C       -1.1270     2.1550    -0.9030 C.ar  1 <1>   0.0860 
  5 C       -3.0460     0.6660     0.8170 C.3   1 <1>   0.1400 
  6 C       -2.2460    -1.4310    -0.1520 C.3   1 <1>   0.1400 
  7 C       -0.4670     2.7780     0.1680 C.ar  1 <1>   0.0000 
  8 C       -1.6530     3.0130    -1.8460 C.ar  1 <1>  -0.1500 
  9 C       -4.0050    -0.4650     1.1870 C.3   1 <1>   0.2000 
 10 C       -3.2060    -1.7520     0.9940 C.3   1 <1>  -0.0800 
 11 C       -0.4540     4.1550     0.2290 C.ar  1 <1>   0.1050 
 12 C        0.2580     2.3790     1.3070 C.2   1 <1>   0.1080 
 13 C       -1.5620     4.4010    -1.6950 C.ar  1 <1>   0.1660 
 14 O       -4.4400    -0.3590     2.4970 O.3   1 <1>  -0.6800 
 15 C       -4.0910    -2.9790     0.7300 C.3   1 <1>   0.0210 
 16 N       -0.9910     4.9920    -0.6770 N.ar  1 <1>  -0.5670 
 17 N        0.2160     4.4750     1.3710 N.pl3 1 <1>   0.3140 
 18 N        0.6500     3.3760     2.0280 N.2   1 <1>  -0.7070 
 19 C        0.5970     0.9500     1.6770 C.3   1 <1>  -0.0590 
 20 C       -2.1570     5.3080    -2.7520 C.3   1 <1>  -0.0970 
 21 C       -3.2500    -4.2060     0.4410 C.2   1 <1>   0.1080 
 22 C        0.4880     5.8340     1.8550 C.3   1 <1>   0.0160 
 23 N       -2.4520    -4.7340     1.3160 N.2   1 <1>  -0.7070 
 24 C       -3.2260    -4.8870    -0.7710 C.2   1 <1>  -0.1500 
 25 N       -1.8940    -5.7810     0.6800 N.pl3 1 <1>   0.3000 
 26 C       -2.3450    -5.8930    -0.5870 C.2   1 <1>  -0.3320 
 27 C       -1.9000    -6.9700    -1.5590 C.3   1 <1>  -0.0600 
 28 H       -2.5330     1.0350     1.6880 H     1 <1>   0.0800 
 29 H       -3.5710     1.4680     0.3280 H     1 <1>   0.0800 
 30 H       -2.6720    -1.7000    -1.1040 H     1 <1>   0.0800 
 31 H       -1.3030    -1.9390    -0.0300 H     1 <1>   0.0800 
 32 H       -2.1440     2.6010    -2.7080 H     1 <1>   0.1500 
 33 H       -4.8650    -0.4350     0.5400 H     1 <1>   0.0800 
 34 H       -2.6020    -1.9380     1.8660 H     1 <1>   0.0800 
 35 H       -3.7030    -0.5300     3.1160 H     1 <1>   0.4000 
 36 H       -4.7450    -2.7910    -0.1030 H     1 <1>   0.0800 
 37 H       -4.7000    -3.1750     1.5950 H     1 <1>   0.0800 
 38 H        0.9010     0.4020     0.8040 H     1 <1>   0.0800 
 39 H       -0.2550     0.4700     2.1180 H     1 <1>   0.0800 
 40 H        1.4040     0.9400     2.3860 H     1 <1>   0.0800 
 41 H       -2.5930     4.7410    -3.5540 H     1 <1>   0.0800 
 42 H       -1.3870     5.9410    -3.1540 H     1 <1>   0.0800 
 43 H       -2.9160     5.9270    -2.3100 H     1 <1>   0.0800 
 44 H       -0.4400     6.3680     1.9370 H     1 <1>   0.0800 
 45 H        1.1320     6.3310     1.1540 H     1 <1>   0.0800 
 46 H        0.9660     5.7800     2.8150 H     1 <1>   0.0800 
 47 H       -3.7960    -4.6440    -1.6500 H     1 <1>   0.1500 
 48 H       -1.2120    -6.3990     1.1360 H     1 <1>   0.2700 
 49 H       -2.4020    -6.8470    -2.5020 H     1 <1>   0.0800 
 50 H       -2.1380    -7.9440    -1.1700 H     1 <1>   0.0800 
 51 H       -0.8390    -6.9070    -1.7250 H     1 <1>   0.0800 
@<TRIPOS>BOND
  1   1   2  2   
  2   2   3  am  
  3   2   4  1   
  4   3   5  1   
  5   3   6  1   
  6   4   7  ar  
  7   4   8  ar  
  8   5   9  1   
  9   5  28  1   
 10   5  29  1   
 11   6  10  1   
 12   6  30  1   
 13   6  31  1   
 14   7  11  ar  
 15   7  12  1   
 16   8  13  ar  
 17   8  32  1   
 18   9  10  1   
 19   9  14  1   
 20   9  33  1   
 21  10  15  1   
 22  10  34  1   
 23  11  16  ar  
 24  11  17  1   
 25  12  18  2   
 26  12  19  1   
 27  13  16  ar  
 28  13  20  1   
 29  14  35  1   
 30  15  21  1   
 31  15  36  1   
 32  15  37  1   
 33  17  18  1   
 34  17  22  1   
 35  19  38  1   
 36  19  39  1   
 37  19  40  1   
 38  20  41  1   
 39  20  42  1   
 40  20  43  1   
 41  21  23  2   
 42  21  24  1   
 43  22  44  1   
 44  22  45  1   
 45  22  46  1   
 46  23  25  1   
 47  24  26  2   
 48  24  47  1   
 49  25  26  1   
 50  25  48  1   
 51  26  27  1   
 52  27  49  1   
 53  27  50  1   
 54  27  51  1   
@<TRIPOS>SUBSTRUCTURE
  1 ****   3 GROUP 4 **** **** 0

# MOE 2024.06 (io_trps.svl 2023.06)
