@<TRIPOS>MOLECULE
NONAME
44 46 1 0 0 
SMALL
USER_CHARGES


@<TRIPOS>ATOM
  1 O       -1.8740     0.1930     1.6260 O.2   1 <1>  -0.5700 
  2 C       -2.6010     1.0050     1.0810 C.2   1 <1>   0.5440 
  3 N       -3.8970     0.6400     0.7920 N.am  1 <1>  -0.6600 
  4 C       -2.0920     2.3090     0.7360 C.ar  1 <1>   0.0860 
  5 C       -4.4370    -0.6790     1.2390 C.3   1 <1>   0.3200 
  6 C       -4.7880     1.4180    -0.1220 C.3   1 <1>   0.1400 
  7 C       -1.2200     2.5080    -0.3450 C.ar  1 <1>   0.0000 
  8 C       -2.4350     3.4500     1.4320 C.ar  1 <1>  -0.1500 
  9 C       -3.9980    -1.7800     0.2900 C.2   1 <1>   0.0060 
 10 C       -4.5070     1.0800    -1.5910 C.3   1 <1>   0.1200 
 11 C       -0.8070     3.7910    -0.6360 C.ar  1 <1>   0.1050 
 12 C       -0.5880     1.7180    -1.3240 C.2   1 <1>   0.1080 
 13 C       -1.9470     4.7050     1.0530 C.ar  1 <1>   0.1660 
 14 N       -4.7720    -2.4190    -0.5290 N.2   1 <1>  -0.5650 
 15 N       -2.7100    -2.1740     0.2360 N.pl3 1 <1>   0.0330 
 16 O       -5.4920     1.6520    -2.3820 O.3   1 <1>  -0.6800 
 17 N       -1.1480     4.9050     0.0370 N.ar  1 <1>  -0.5670 
 18 N        0.0020     3.6880    -1.7280 N.pl3 1 <1>   0.3140 
 19 N        0.1300     2.4090    -2.1440 N.2   1 <1>  -0.7070 
 20 C       -0.6990     0.2130    -1.4430 C.3   1 <1>  -0.0590 
 21 C       -2.3480     5.9340     1.8420 C.3   1 <1>  -0.0970 
 22 C       -3.9390    -3.2780    -1.1500 C.2   1 <1>   0.0770 
 23 C       -2.6740    -3.1410    -0.6970 C.2   1 <1>  -0.3020 
 24 C        0.6760     4.8020    -2.4050 C.3   1 <1>   0.0160 
 25 H       -5.5120    -0.6480     1.2770 H     1 <1>   0.0800 
 26 H       -4.0800    -0.8990     2.2300 H     1 <1>   0.0800 
 27 H       -4.6400     2.4730     0.0280 H     1 <1>   0.0800 
 28 H       -5.8140     1.1910     0.1050 H     1 <1>   0.0800 
 29 H       -3.0900     3.3710     2.2790 H     1 <1>   0.1500 
 30 H       -4.5160     0.0170    -1.7620 H     1 <1>   0.0800 
 31 H       -3.5610     1.4910    -1.8970 H     1 <1>   0.0800 
 32 H       -1.9480    -1.7580     0.7920 H     1 <1>   0.2700 
 33 H       -6.2880     1.0850    -2.3980 H     1 <1>   0.4000 
 34 H       -0.2820    -0.2510    -0.5690 H     1 <1>   0.0800 
 35 H       -0.1540    -0.1260    -2.3050 H     1 <1>   0.0800 
 36 H       -1.7260    -0.0780    -1.5500 H     1 <1>   0.0800 
 37 H       -3.0020     5.6820     2.6560 H     1 <1>   0.0800 
 38 H       -2.8500     6.6290     1.1940 H     1 <1>   0.0800 
 39 H       -1.4680     6.4080     2.2390 H     1 <1>   0.0800 
 40 H       -4.3000    -3.9600    -1.9020 H     1 <1>   0.1500 
 41 H       -1.7770    -3.6620    -0.9780 H     1 <1>   0.1500 
 42 H        1.3020     5.3140    -1.6980 H     1 <1>   0.0800 
 43 H       -0.0650     5.4780    -2.7880 H     1 <1>   0.0800 
 44 H        1.2730     4.4190    -3.2110 H     1 <1>   0.0800 
@<TRIPOS>BOND
  1   1   2  2   
  2   2   3  am  
  3   2   4  1   
  4   3   5  1   
  5   3   6  1   
  6   4   7  ar  
  7   4   8  ar  
  8   5   9  1   
  9   5  25  1   
 10   5  26  1   
 11   6  10  1   
 12   6  27  1   
 13   6  28  1   
 14   7  11  ar  
 15   7  12  1   
 16   8  13  ar  
 17   8  29  1   
 18   9  14  2   
 19   9  15  1   
 20  10  16  1   
 21  10  30  1   
 22  10  31  1   
 23  11  17  ar  
 24  11  18  1   
 25  12  19  2   
 26  12  20  1   
 27  13  17  ar  
 28  13  21  1   
 29  14  22  1   
 30  15  23  1   
 31  15  32  1   
 32  16  33  1   
 33  18  19  1   
 34  18  24  1   
 35  20  34  1   
 36  20  35  1   
 37  20  36  1   
 38  21  37  1   
 39  21  38  1   
 40  21  39  1   
 41  22  23  2   
 42  22  40  1   
 43  23  41  1   
 44  24  42  1   
 45  24  43  1   
 46  24  44  1   
@<TRIPOS>SUBSTRUCTURE
  1 ****   2 GROUP 4 **** **** 0

# MOE 2024.06 (io_trps.svl 2023.06)
