@<TRIPOS>MOLECULE
NONAME
45 46 1 0 0 
SMALL
USER_CHARGES


@<TRIPOS>ATOM
  1 O        0.3860    -0.2890     0.4700 O.co2 1 <1>  -0.9000 
  2 C        1.3440    -0.8600    -0.0480 C.2   1 <1>   0.9060 
  3 O        1.6020    -0.8230    -1.2630 O.co2 1 <1>  -0.9000 
  4 C        2.3170    -1.6720     0.8130 C.3   1 <1>   0.2370 
  5 N        3.4740    -2.1830    -0.0350 N.4   1 <1>  -0.9590 
  6 C        3.6290    -3.6630     0.0310 C.3   1 <1>   0.5240 
  7 C        4.7490    -1.4500     0.1480 C.3   1 <1>   0.3430 
  8 C        2.3520    -4.4110    -0.3350 C.2   1 <1>   0.0460 
  9 C        4.5910     0.0370    -0.1730 C.3   1 <1>  -0.1600 
 10 N        2.0920    -5.6010     0.2390 N.2   1 <1>  -0.5650 
 11 C        1.3590    -4.0660    -1.1870 C.2   1 <1>  -0.3020 
 12 C        5.9470     0.7620    -0.2160 C.3   1 <1>   0.0630 
 13 C        0.9510    -5.9490    -0.2600 C.2   1 <1>   0.0060 
 14 N        0.4500    -5.0530    -1.1370 N.pl3 1 <1>   0.0330 
 15 C        5.7590     2.2760    -0.1940 C.ar  1 <1>  -0.1440 
 16 C        6.7700     0.3650    -1.4490 C.3   1 <1>  -0.2400 
 17 C        0.2330    -7.2320     0.0960 C.3   1 <1>  -0.0600 
 18 C        4.8830     2.9110    -1.0650 C.ar  1 <1>  -0.1500 
 19 C        6.4770     3.0460     0.7120 C.ar  1 <1>  -0.1500 
 20 C        4.7230     4.2850    -1.0270 C.ar  1 <1>  -0.1500 
 21 C        6.3190     4.4200     0.7500 C.ar  1 <1>  -0.1500 
 22 C        5.4410     5.0410    -0.1190 C.ar  1 <1>  -0.1500 
 23 H        1.7620    -2.4910     1.2330 H     1 <1>   0.0800 
 24 H        2.6680    -1.0450     1.6110 H     1 <1>   0.0800 
 25 H        3.0960    -1.9410    -0.9840 H     1 <1>   0.4500 
 26 H        3.9030    -3.9460     1.0330 H     1 <1>   0.0800 
 27 H        4.4120    -3.9840    -0.6330 H     1 <1>   0.0800 
 28 H        5.4890    -1.8690    -0.5130 H     1 <1>   0.0800 
 29 H        5.0960    -1.5650     1.1620 H     1 <1>   0.0800 
 30 H        3.9820     0.5040     0.5810 H     1 <1>   0.0800 
 31 H        4.0950     0.1500    -1.1210 H     1 <1>   0.0800 
 32 H        1.2340    -3.1950    -1.8100 H     1 <1>   0.1500 
 33 H        6.5040     0.4850     0.6630 H     1 <1>   0.0800 
 34 H       -0.4380    -5.1050    -1.6460 H     1 <1>   0.2700 
 35 H        6.2290     0.5930    -2.3510 H     1 <1>   0.0800 
 36 H        7.0110    -0.6820    -1.4420 H     1 <1>   0.0800 
 37 H        7.6900     0.9220    -1.4620 H     1 <1>   0.0800 
 38 H        0.8130    -7.7890     0.8100 H     1 <1>   0.0800 
 39 H        0.0960    -7.8360    -0.7820 H     1 <1>   0.0800 
 40 H       -0.7250    -7.0100     0.5300 H     1 <1>   0.0800 
 41 H        4.3130     2.3440    -1.7800 H     1 <1>   0.1500 
 42 H        7.1670     2.5830     1.3950 H     1 <1>   0.1500 
 43 H        4.0370     4.7630    -1.7040 H     1 <1>   0.1500 
 44 H        6.8790     5.0060     1.4570 H     1 <1>   0.1500 
 45 H        5.3160     6.1090    -0.0890 H     1 <1>   0.1500 
@<TRIPOS>BOND
  1   1   2  ar  
  2   2   3  ar  
  3   2   4  1   
  4   4   5  1   
  5   4  23  1   
  6   4  24  1   
  7   5   6  1   
  8   5   7  1   
  9   5  25  1   
 10   6   8  1   
 11   6  26  1   
 12   6  27  1   
 13   7   9  1   
 14   7  28  1   
 15   7  29  1   
 16   8  10  1   
 17   8  11  2   
 18   9  12  1   
 19   9  30  1   
 20   9  31  1   
 21  10  13  2   
 22  11  14  1   
 23  11  32  1   
 24  12  15  1   
 25  12  16  1   
 26  12  33  1   
 27  13  14  1   
 28  13  17  1   
 29  14  34  1   
 30  15  18  ar  
 31  15  19  ar  
 32  16  35  1   
 33  16  36  1   
 34  16  37  1   
 35  17  38  1   
 36  17  39  1   
 37  17  40  1   
 38  18  20  ar  
 39  18  41  1   
 40  19  21  ar  
 41  19  42  1   
 42  20  22  ar  
 43  20  43  1   
 44  21  22  ar  
 45  21  44  1   
 46  22  45  1   
@<TRIPOS>SUBSTRUCTURE
  1 ****   5 GROUP 4 **** **** 0

# MOE 2024.06 (io_trps.svl 2023.06)
