@<TRIPOS>MOLECULE
NONAME
44 46 1 0 0 
SMALL
USER_CHARGES


@<TRIPOS>ATOM
  1 O        0.7730     2.0230    -1.6030 O.2   1 <1>  -0.5700 
  2 C        0.1280     3.0140    -1.3530 C.2   1 <1>   0.5690 
  3 N       -0.9450     2.9950    -0.5050 N.am  1 <1>  -0.6600 
  4 C        0.5640     4.3280    -2.0070 C.3   1 <1>   0.1810 
  5 C       -1.7610     4.2240    -0.2530 C.3   1 <1>   0.3640 
  6 C       -1.4230     1.7510     0.1610 C.3   1 <1>   0.0600 
  7 O       -0.4220     5.3430    -1.9940 O.3   1 <1>  -0.5600 
  8 C       -3.1490     4.0850    -0.8950 C.ar  1 <1>  -0.1430 
  9 C       -1.0830     5.5290    -0.7470 C.3   1 <1>   0.2610 
 10 C       -4.3140     4.4180    -0.2030 C.ar  1 <1>  -0.1430 
 11 C       -3.2520     3.6310    -2.2050 C.ar  1 <1>  -0.1500 
 12 C       -0.1630     6.1610     0.3050 C.2   1 <1>   0.5690 
 13 C       -5.5450     4.2790    -0.8270 C.ar  1 <1>  -0.1500 
 14 C       -4.2920     4.9390     1.2300 C.3   1 <1>  -0.0960 
 15 C       -4.4830     3.4970    -2.8190 C.ar  1 <1>  -0.1500 
 16 O       -0.3850     5.9820     1.4820 O.2   1 <1>  -0.5700 
 17 N        0.8670     6.9390    -0.1300 N.am  1 <1>  -0.5790 
 18 C       -5.6330     3.8210    -2.1280 C.ar  1 <1>  -0.1500 
 19 C        1.8570     7.6350     0.6970 C.3   1 <1>   0.0540 
 20 C        1.3610     8.7310     1.5770 C.3   1 <1>  -0.2000 
 21 C        2.1350     9.0540     0.3320 C.3   1 <1>  -0.2000 
 22 C        2.9770     6.7080     1.1590 C.3   1 <1>  -0.1450 
 23 H        0.8160     4.1380    -3.0340 H     1 <1>   0.0800 
 24 H        1.4410     4.6910    -1.5040 H     1 <1>   0.0800 
 25 H       -1.8930     4.2910     0.8090 H     1 <1>   0.0800 
 26 H       -1.4470     1.8940     1.2270 H     1 <1>   0.0800 
 27 H       -0.7700     0.9250    -0.0610 H     1 <1>   0.0800 
 28 H       -2.4130     1.5080    -0.1870 H     1 <1>   0.0800 
 29 H       -1.8610     6.2480    -0.9250 H     1 <1>   0.0800 
 30 H       -2.3660     3.3760    -2.7610 H     1 <1>   0.1500 
 31 H       -6.4510     4.5290    -0.3030 H     1 <1>   0.1500 
 32 H       -5.2740     5.2420     1.5460 H     1 <1>   0.0800 
 33 H       -3.6420     5.7930     1.3110 H     1 <1>   0.0800 
 34 H       -3.9490     4.1690     1.8980 H     1 <1>   0.0800 
 35 H       -4.5430     3.1410    -3.8330 H     1 <1>   0.1500 
 36 H        0.9840     7.0500    -1.1400 H     1 <1>   0.3700 
 37 H       -6.5940     3.7180    -2.6000 H     1 <1>   0.1500 
 38 H        0.3020     8.9140     1.6100 H     1 <1>   0.1000 
 39 H        1.8360     8.8890     2.5290 H     1 <1>   0.1000 
 40 H        3.1300     9.4470     0.4500 H     1 <1>   0.1000 
 41 H        1.6080     9.5040    -0.4910 H     1 <1>   0.1000 
 42 H        3.6910     7.2510     1.7510 H     1 <1>   0.0800 
 43 H        3.4860     6.2860     0.3120 H     1 <1>   0.0800 
 44 H        2.5690     5.9170     1.7630 H     1 <1>   0.0800 
@<TRIPOS>BOND
  1   1   2  2   
  2   2   3  am  
  3   2   4  1   
  4   3   5  1   
  5   3   6  1   
  6   4   7  1   
  7   4  23  1   
  8   4  24  1   
  9   5   8  1   
 10   5   9  1   
 11   5  25  1   
 12   6  26  1   
 13   6  27  1   
 14   6  28  1   
 15   7   9  1   
 16   8  10  ar  
 17   8  11  ar  
 18   9  12  1   
 19   9  29  1   
 20  10  13  ar  
 21  10  14  1   
 22  11  15  ar  
 23  11  30  1   
 24  12  16  2   
 25  12  17  am  
 26  13  18  ar  
 27  13  31  1   
 28  14  32  1   
 29  14  33  1   
 30  14  34  1   
 31  15  18  ar  
 32  15  35  1   
 33  17  19  1   
 34  17  36  1   
 35  18  37  1   
 36  19  20  1   
 37  19  21  1   
 38  19  22  1   
 39  20  21  1   
 40  20  38  1   
 41  20  39  1   
 42  21  40  1   
 43  21  41  1   
 44  22  42  1   
 45  22  43  1   
 46  22  44  1   
@<TRIPOS>SUBSTRUCTURE
  1 ****   9 GROUP 4 **** **** 0

# MOE 2024.06 (io_trps.svl 2023.06)
