@<TRIPOS>MOLECULE
NONAME
50 52 1 0 0 
SMALL
USER_CHARGES


@<TRIPOS>ATOM
  1 S        0.5690     0.0350    -0.4360 S.o2  1 <1>   1.3330 
  2 O        1.9520     0.0600    -0.0150 O.2   1 <1>  -0.6500 
  3 O        0.2500     0.1100    -1.8440 O.2   1 <1>  -0.6500 
  4 N       -0.1460    -1.3660     0.2000 N.am  1 <1>  -0.8490 
  5 C       -0.3190     1.3540     0.3870 C.3   1 <1>  -0.0550 
  6 C        0.3860    -1.7460     1.5130 C.3   1 <1>   0.1160 
  7 C       -0.0520    -2.5020    -0.7220 C.3   1 <1>   0.1160 
  8 C        0.0740     2.7560    -0.1230 C.3   1 <1>  -0.0800 
  9 C       -0.7570     3.8960     0.4680 C.3   1 <1>   0.2000 
 10 C        1.5240     3.1530     0.1790 C.3   1 <1>   0.1400 
 11 O       -0.8730     3.7070     1.8380 O.3   1 <1>  -0.6800 
 12 C        0.1030     5.1350     0.2280 C.3   1 <1>   0.1400 
 13 N        1.5030     4.6340     0.2940 N.am  1 <1>  -0.6600 
 14 C        2.6530     5.4020     0.3010 C.2   1 <1>   0.7150 
 15 O        3.7110     4.8010     0.3850 O.2   1 <1>  -0.5700 
 16 C        2.6470     6.8520     0.2040 C.2   1 <1>   0.1010 
 17 N        1.6900     7.6460     0.6140 N.2   1 <1>  -0.3380 
 18 N        3.6500     7.5960    -0.3170 N.pl3 1 <1>   0.0480 
 19 N        2.0600     8.8950     0.3830 N.2   1 <1>  -0.3380 
 20 C        3.2250     8.8470    -0.1610 C.2   1 <1>   0.0060 
 21 C        4.9240     7.1980    -0.9660 C.3   1 <1>   0.0960 
 22 C        4.0170    10.0780    -0.5610 C.3   1 <1>   0.0200 
 23 C        6.1370     7.7000    -0.1720 C.3   1 <1>  -0.1600 
 24 C        5.3640    10.1530     0.1740 C.3   1 <1>  -0.1600 
 25 C        6.4360     9.1960    -0.3740 C.3   1 <1>  -0.1600 
 26 H       -1.3690     1.2150     0.2220 H     1 <1>   0.0800 
 27 H       -0.1450     1.2930     1.4430 H     1 <1>   0.0800 
 28 H       -0.1600    -2.5880     1.9030 H     1 <1>   0.0800 
 29 H        0.2870    -0.9280     2.2060 H     1 <1>   0.0800 
 30 H        1.4290    -2.0100     1.4360 H     1 <1>   0.0800 
 31 H       -0.5300    -3.3680    -0.2980 H     1 <1>   0.0800 
 32 H        0.9800    -2.7310    -0.9310 H     1 <1>   0.0800 
 33 H       -0.5480    -2.2660    -1.6490 H     1 <1>   0.0800 
 34 H       -0.0530     2.7780    -1.1920 H     1 <1>   0.0800 
 35 H       -1.7450     3.9740     0.0460 H     1 <1>   0.0800 
 36 H        2.1930     2.8370    -0.6050 H     1 <1>   0.0800 
 37 H        1.8560     2.7340     1.1150 H     1 <1>   0.0800 
 38 H       -0.0170     3.9300     2.2580 H     1 <1>   0.4000 
 39 H       -0.0960     5.8900     0.9690 H     1 <1>   0.0800 
 40 H       -0.0830     5.5350    -0.7530 H     1 <1>   0.0800 
 41 H        4.9740     6.1300    -1.0550 H     1 <1>   0.0800 
 42 H        4.9430     7.6010    -1.9630 H     1 <1>   0.0800 
 43 H        4.1640    10.0920    -1.6260 H     1 <1>   0.0800 
 44 H        3.4350    10.9470    -0.3040 H     1 <1>   0.0800 
 45 H        6.0050     7.4770     0.8730 H     1 <1>   0.0800 
 46 H        6.9980     7.1470    -0.5060 H     1 <1>   0.0800 
 47 H        5.7370    11.1580     0.0810 H     1 <1>   0.0800 
 48 H        5.2070     9.9670     1.2230 H     1 <1>   0.0800 
 49 H        7.3630     9.4180     0.1280 H     1 <1>   0.0800 
 50 H        6.5920     9.3940    -1.4210 H     1 <1>   0.0800 
@<TRIPOS>BOND
  1   1   2  2   
  2   1   3  2   
  3   1   4  am  
  4   1   5  1   
  5   4   6  1   
  6   4   7  1   
  7   5   8  1   
  8   5  26  1   
  9   5  27  1   
 10   6  28  1   
 11   6  29  1   
 12   6  30  1   
 13   7  31  1   
 14   7  32  1   
 15   7  33  1   
 16   8   9  1   
 17   8  10  1   
 18   8  34  1   
 19   9  11  1   
 20   9  12  1   
 21   9  35  1   
 22  10  13  1   
 23  10  36  1   
 24  10  37  1   
 25  11  38  1   
 26  12  13  1   
 27  12  39  1   
 28  12  40  1   
 29  13  14  am  
 30  14  15  2   
 31  14  16  1   
 32  16  17  2   
 33  16  18  1   
 34  17  19  1   
 35  18  20  1   
 36  18  21  1   
 37  19  20  2   
 38  20  22  1   
 39  21  23  1   
 40  21  41  1   
 41  21  42  1   
 42  22  24  1   
 43  22  43  1   
 44  22  44  1   
 45  23  25  1   
 46  23  45  1   
 47  23  46  1   
 48  24  25  1   
 49  24  47  1   
 50  24  48  1   
 51  25  49  1   
 52  25  50  1   
@<TRIPOS>SUBSTRUCTURE
  1 ****  13 GROUP 4 **** **** 0

# MOE 2024.06 (io_trps.svl 2023.06)
