@<TRIPOS>MOLECULE
NONAME
52 55 1 0 0 
SMALL
USER_CHARGES


@<TRIPOS>ATOM
  1 O        0.3150    -1.3450    -1.5070 O.3   1 <1>  -0.0190 
  2 N        1.6030    -1.2140    -1.4870 N.2   1 <1>  -0.4100 
  3 C        0.0350    -1.9450    -0.3780 C.2   1 <1>   0.2980 
  4 C        2.0350    -1.7300    -0.3920 C.2   1 <1>   0.4620 
  5 N        1.0390    -2.2230     0.3500 N.2   1 <1>  -0.5650 
  6 C       -1.4250    -2.2790    -0.0700 C.3   1 <1>   0.2900 
  7 C        3.4280    -1.7590     0.0200 C.ar  1 <1>   0.0540 
  8 N       -2.2520    -1.1240     0.3660 N.3   1 <1>  -0.8100 
  9 C        4.0740    -2.9010     0.5200 C.ar  1 <1>  -0.1430 
 10 C        4.1800    -0.5880    -0.0900 C.ar  1 <1>  -0.1500 
 11 C       -3.5760    -1.5280     0.9030 C.3   1 <1>   0.1100 
 12 C       -2.2760    -0.0110    -0.6020 C.3   1 <1>   0.1100 
 13 C        5.4060    -2.8410     0.9000 C.ar  1 <1>  -0.1500 
 14 C        3.3470    -4.2330     0.6540 C.3   1 <1>  -0.0970 
 15 C        5.5080    -0.5350     0.2870 C.ar  1 <1>  -0.1500 
 16 C       -4.7850    -1.1750    -0.0040 C.3   1 <1>   0.0000 
 17 C       -3.3790     0.9880    -0.2540 C.3   1 <1>  -0.1600 
 18 C        6.1240    -1.6650     0.7860 C.ar  1 <1>  -0.1500 
 19 C       -6.0840    -1.6370     0.6940 C.3   1 <1>   0.2000 
 20 C       -4.7800     0.3500    -0.2980 C.3   1 <1>  -0.1600 
 21 C       -4.7990    -2.0360    -1.2840 C.3   1 <1>  -0.1600 
 22 O       -7.1860    -1.0140     0.0960 O.3   1 <1>  -0.5600 
 23 C       -6.1760    -3.1430     0.4130 C.3   1 <1>  -0.1600 
 24 C       -5.3780    -3.3940    -0.8740 C.3   1 <1>  -0.1600 
 25 C       -8.3150    -0.9050     0.9050 C.3   1 <1>   0.0400 
 26 H       -1.4210    -3.0120     0.7180 H     1 <1>   0.0800 
 27 H       -1.8630    -2.7350    -0.9380 H     1 <1>   0.0800 
 28 H        3.7070     0.2980    -0.4770 H     1 <1>   0.1500 
 29 H       -3.5750    -2.5790     1.1330 H     1 <1>   0.0800 
 30 H       -3.7080    -1.0090     1.8370 H     1 <1>   0.0800 
 31 H       -1.3250     0.4950    -0.5820 H     1 <1>   0.0800 
 32 H       -2.4360    -0.3840    -1.5990 H     1 <1>   0.0800 
 33 H        5.8990    -3.7150     1.2890 H     1 <1>   0.1500 
 34 H        4.0390    -5.0370     0.8320 H     1 <1>   0.0800 
 35 H        2.8030    -4.4530    -0.2460 H     1 <1>   0.0800 
 36 H        2.6560    -4.1900     1.4770 H     1 <1>   0.0800 
 37 H        6.0600     0.3840     0.1920 H     1 <1>   0.1500 
 38 H       -3.1840     1.3690     0.7330 H     1 <1>   0.0800 
 39 H       -3.3410     1.8190    -0.9350 H     1 <1>   0.0800 
 40 H        7.1580    -1.6320     1.0830 H     1 <1>   0.1500 
 41 H       -6.0730    -1.4060     1.7460 H     1 <1>   0.0800 
 42 H       -5.2310     0.5340    -1.2570 H     1 <1>   0.0800 
 43 H       -5.3880     0.8580     0.4300 H     1 <1>   0.0800 
 44 H       -5.4730    -1.5930    -1.9970 H     1 <1>   0.0800 
 45 H       -3.8390    -2.1330    -1.7520 H     1 <1>   0.0800 
 46 H       -5.7200    -3.6840     1.2230 H     1 <1>   0.0800 
 47 H       -7.1950    -3.4710     0.3140 H     1 <1>   0.0800 
 48 H       -4.5850    -4.0960    -0.6840 H     1 <1>   0.0800 
 49 H       -6.0110    -3.7830    -1.6530 H     1 <1>   0.0800 
 50 H       -9.0950    -0.4430     0.3270 H     1 <1>   0.0800 
 51 H       -8.0820    -0.2880     1.7560 H     1 <1>   0.0800 
 52 H       -8.6290    -1.8840     1.2200 H     1 <1>   0.0800 
@<TRIPOS>BOND
  1   1   2  1   
  2   1   3  1   
  3   2   4  2   
  4   3   5  2   
  5   3   6  1   
  6   4   5  1   
  7   4   7  1   
  8   6   8  1   
  9   6  26  1   
 10   6  27  1   
 11   7   9  ar  
 12   7  10  ar  
 13   8  11  1   
 14   8  12  1   
 15   9  13  ar  
 16   9  14  1   
 17  10  15  ar  
 18  10  28  1   
 19  11  16  1   
 20  11  29  1   
 21  11  30  1   
 22  12  17  1   
 23  12  31  1   
 24  12  32  1   
 25  13  18  ar  
 26  13  33  1   
 27  14  34  1   
 28  14  35  1   
 29  14  36  1   
 30  15  18  ar  
 31  15  37  1   
 32  16  19  1   
 33  16  20  1   
 34  16  21  1   
 35  17  20  1   
 36  17  38  1   
 37  17  39  1   
 38  18  40  1   
 39  19  22  1   
 40  19  23  1   
 41  19  41  1   
 42  20  42  1   
 43  20  43  1   
 44  21  24  1   
 45  21  44  1   
 46  21  45  1   
 47  22  25  1   
 48  23  24  1   
 49  23  46  1   
 50  23  47  1   
 51  24  48  1   
 52  24  49  1   
 53  25  50  1   
 54  25  51  1   
 55  25  52  1   
@<TRIPOS>SUBSTRUCTURE
  1 ****   6 GROUP 4 **** **** 0

# MOE 2024.06 (io_trps.svl 2023.06)
