@<TRIPOS>MOLECULE
NONAME
51 53 1 0 0 
SMALL
USER_CHARGES


@<TRIPOS>ATOM
  1 O        0.6830     0.1110     0.7520 O.3   1 <1>  -0.2800 
  2 C        1.6790    -0.1810    -0.0640 C.2   1 <1>  -0.0400 
  3 C       -0.3670    -0.5890     0.3710 C.2   1 <1>  -0.0100 
  4 C        1.2780    -1.0790    -0.9920 C.2   1 <1>  -0.1500 
  5 C        3.0280     0.4840     0.1400 C.3   1 <1>   0.5230 
  6 C       -0.0660    -1.3460    -0.7050 C.2   1 <1>  -0.1500 
  7 N        2.8790     1.9570    -0.0260 N.4   1 <1>  -0.9590 
  8 C        4.1310     2.6060    -0.5310 C.3   1 <1>   0.3430 
  9 C        2.3630     2.6040     1.2130 C.3   1 <1>   0.3430 
 10 C        4.1260     4.1370    -0.3450 C.3   1 <1>  -0.0800 
 11 C        1.9030     4.0290     0.8820 C.3   1 <1>  -0.1600 
 12 C        2.6930     4.7000    -0.2590 C.3   1 <1>  -0.1600 
 13 C        4.9510     4.7930    -1.4630 C.3   1 <1>   0.2090 
 14 N        5.1320     6.2380    -1.1810 N.pl3 1 <1>  -0.8690 
 15 C        6.1680     6.8160    -0.5510 C.ar  1 <1>   0.4100 
 16 N        7.1090     6.0000    -0.0560 N.ar  1 <1>  -0.6200 
 17 C        6.2650     8.2140    -0.4150 C.ar  1 <1>  -0.1430 
 18 C        8.1320     6.5320     0.5410 C.ar  1 <1>   0.5270 
 19 C        7.3620     8.7180     0.2280 C.ar  1 <1>   0.2110 
 20 C        5.1550     9.1060    -0.9890 C.3   1 <1>  -0.0170 
 21 N        8.2900     7.8600     0.6990 N.ar  1 <1>  -0.1790 
 22 C        9.2040     5.6120     1.0890 C.3   1 <1>  -0.0970 
 23 C        5.3490    10.6130    -0.7780 C.3   1 <1>  -0.2400 
 24 H       -1.2900    -0.4940     0.9180 H     1 <1>   0.1500 
 25 H        1.8300    -1.5300    -1.8000 H     1 <1>   0.1500 
 26 H        3.7140     0.0980    -0.5960 H     1 <1>   0.0800 
 27 H        3.4100     0.2500     1.1200 H     1 <1>   0.0800 
 28 H       -0.7030    -2.0240    -1.2490 H     1 <1>   0.1500 
 29 H        2.1360     2.0820    -0.7270 H     1 <1>   0.4500 
 30 H        4.2400     2.3770    -1.5790 H     1 <1>   0.0800 
 31 H        4.9890     2.2040    -0.0160 H     1 <1>   0.0800 
 32 H        3.1470     2.6400     1.9520 H     1 <1>   0.0800 
 33 H        1.5370     2.0480     1.6250 H     1 <1>   0.0800 
 34 H        4.6320     4.3460     0.5820 H     1 <1>   0.0800 
 35 H        1.9960     4.6190     1.7780 H     1 <1>   0.0800 
 36 H        0.8570     4.0150     0.6300 H     1 <1>   0.0800 
 37 H        2.1860     4.5280    -1.1930 H     1 <1>   0.0800 
 38 H        2.7110     5.7650    -0.0930 H     1 <1>   0.0800 
 39 H        4.4570     4.6800    -2.4140 H     1 <1>   0.0800 
 40 H        5.9160     4.3200    -1.5370 H     1 <1>   0.0800 
 41 H        4.3880     6.8280    -1.5640 H     1 <1>   0.4000 
 42 H        7.5210     9.7730     0.3760 H     1 <1>   0.1500 
 43 H        4.2170     8.8230    -0.5400 H     1 <1>   0.0800 
 44 H        5.0770     8.9230    -2.0480 H     1 <1>   0.0800 
 45 H        9.1220     8.2040     1.1800 H     1 <1>   0.4570 
 46 H        8.9430     4.5850     0.9010 H     1 <1>   0.0800 
 47 H        9.3060     5.7440     2.1510 H     1 <1>   0.0800 
 48 H       10.1470     5.8090     0.6110 H     1 <1>   0.0800 
 49 H        5.3830    10.8550     0.2700 H     1 <1>   0.0800 
 50 H        4.5190    11.1450    -1.2110 H     1 <1>   0.0800 
 51 H        6.2480    10.9570    -1.2590 H     1 <1>   0.0800 
@<TRIPOS>BOND
  1   1   2  1   
  2   1   3  1   
  3   2   4  2   
  4   2   5  1   
  5   3   6  2   
  6   3  24  1   
  7   4   6  1   
  8   4  25  1   
  9   5   7  1   
 10   5  26  1   
 11   5  27  1   
 12   6  28  1   
 13   7   8  1   
 14   7   9  1   
 15   7  29  1   
 16   8  10  1   
 17   8  30  1   
 18   8  31  1   
 19   9  11  1   
 20   9  32  1   
 21   9  33  1   
 22  10  12  1   
 23  10  13  1   
 24  10  34  1   
 25  11  12  1   
 26  11  35  1   
 27  11  36  1   
 28  12  37  1   
 29  12  38  1   
 30  13  14  1   
 31  13  39  1   
 32  13  40  1   
 33  14  15  1   
 34  14  41  1   
 35  15  16  ar  
 36  15  17  ar  
 37  16  18  ar  
 38  17  19  ar  
 39  17  20  1   
 40  18  21  ar  
 41  18  22  1   
 42  19  21  ar  
 43  19  42  1   
 44  20  23  1   
 45  20  43  1   
 46  20  44  1   
 47  21  45  1   
 48  22  46  1   
 49  22  47  1   
 50  22  48  1   
 51  23  49  1   
 52  23  50  1   
 53  23  51  1   
@<TRIPOS>SUBSTRUCTURE
  1 ****  10 GROUP 4 **** **** 0

# MOE 2024.06 (io_trps.svl 2023.06)
