@<TRIPOS>MOLECULE
NONAME
45 48 1 0 0 
SMALL
USER_CHARGES


@<TRIPOS>ATOM
  1 O       -0.3400     0.6720    -1.2610 O.2   1 <1>  -0.5700 
  2 C       -0.1600     1.8690    -1.0920 C.2   1 <1>   0.7160 
  3 N       -1.2470     2.7150    -1.2040 N.am  1 <1>  -0.6600 
  4 C        1.1440     2.3670    -0.7840 C.2   1 <1>  -0.0860 
  5 C       -1.4180     3.9310    -0.3610 C.3   1 <1>   0.1400 
  6 C       -2.4790     2.3050    -1.9340 C.3   1 <1>   0.1400 
  7 C        2.1620     1.7990    -0.0600 C.2   1 <1>  -0.0680 
  8 C        1.6970     3.5940    -1.1780 C.2   1 <1>   0.1390 
  9 C       -2.5400     3.6880     0.6510 C.3   1 <1>  -0.1600 
 10 C       -3.6090     2.0580    -0.9320 C.3   1 <1>  -0.1600 
 11 N        3.1840     2.6680    -0.0540 N.pl3 1 <1>   0.6010 
 12 N        2.5080     0.6720     0.6580 N.pl3 1 <1>  -0.5530 
 13 N        2.9060     3.8000    -0.7470 N.2   1 <1>  -0.7070 
 14 C       -3.8480     3.2760    -0.0370 C.3   1 <1>   0.4180 
 15 C        4.2140     2.1000     0.6720 C.2   1 <1>  -0.1810 
 16 C        3.8040     0.8880     1.1010 C.2   1 <1>  -0.0500 
 17 C        1.6920    -0.5540     0.7930 C.3   1 <1>   0.1290 
 18 O       -4.2730     4.3130    -0.8890 O.3   1 <1>  -0.5600 
 19 C       -4.9290     2.9520     0.9910 C.2   1 <1>  -0.2880 
 20 C       -4.9650     5.3830    -0.3090 C.3   1 <1>   0.1200 
 21 C       -6.0450     3.6660     1.1550 C.2   1 <1>  -0.2760 
 22 C       -6.2850     4.9030     0.3100 C.3   1 <1>  -0.0220 
 23 C       -7.1450     3.3280     2.1460 C.3   1 <1>  -0.1020 
 24 H       -1.6670     4.7670    -0.9930 H     1 <1>   0.0800 
 25 H       -0.5120     4.1630     0.1700 H     1 <1>   0.0800 
 26 H       -2.3000     1.4140    -2.5110 H     1 <1>   0.0800 
 27 H       -2.7620     3.0900    -2.6160 H     1 <1>   0.0800 
 28 H        1.1680     4.3070    -1.7890 H     1 <1>   0.1500 
 29 H       -2.6960     4.5660     1.2480 H     1 <1>   0.0800 
 30 H       -2.2330     2.9040     1.3180 H     1 <1>   0.0800 
 31 H       -3.3490     1.2080    -0.3280 H     1 <1>   0.0800 
 32 H       -4.5160     1.8200    -1.4560 H     1 <1>   0.0800 
 33 H        5.1380     2.6280     0.8030 H     1 <1>   0.1500 
 34 H        4.3350     0.1550     1.6880 H     1 <1>   0.1500 
 35 H        0.7180    -0.2970     1.1690 H     1 <1>   0.0800 
 36 H        2.1680    -1.2410     1.4680 H     1 <1>   0.0800 
 37 H        1.5820    -1.0170    -0.1720 H     1 <1>   0.0800 
 38 H       -4.7020     2.0750     1.5690 H     1 <1>   0.1500 
 39 H       -5.1570     6.1090    -1.0790 H     1 <1>   0.0800 
 40 H       -4.3400     5.8330     0.4420 H     1 <1>   0.0800 
 41 H       -6.9930     4.6810    -0.4680 H     1 <1>   0.0800 
 42 H       -6.6880     5.6960     0.9150 H     1 <1>   0.0800 
 43 H       -7.2700     4.1310     2.8510 H     1 <1>   0.0800 
 44 H       -6.9010     2.4330     2.6890 H     1 <1>   0.0800 
 45 H       -8.0730     3.1700     1.6280 H     1 <1>   0.0800 
@<TRIPOS>BOND
  1   1   2  2   
  2   2   3  am  
  3   2   4  1   
  4   3   5  1   
  5   3   6  1   
  6   4   7  2   
  7   4   8  1   
  8   5   9  1   
  9   5  24  1   
 10   5  25  1   
 11   6  10  1   
 12   6  26  1   
 13   6  27  1   
 14   7  11  1   
 15   7  12  1   
 16   8  13  2   
 17   8  28  1   
 18   9  14  1   
 19   9  29  1   
 20   9  30  1   
 21  10  14  1   
 22  10  31  1   
 23  10  32  1   
 24  11  13  1   
 25  11  15  1   
 26  12  16  1   
 27  12  17  1   
 28  14  18  1   
 29  14  19  1   
 30  15  16  2   
 31  15  33  1   
 32  16  34  1   
 33  17  35  1   
 34  17  36  1   
 35  17  37  1   
 36  18  20  1   
 37  19  21  2   
 38  19  38  1   
 39  20  22  1   
 40  20  39  1   
 41  20  40  1   
 42  21  22  1   
 43  21  23  1   
 44  22  41  1   
 45  22  42  1   
 46  23  43  1   
 47  23  44  1   
 48  23  45  1   
@<TRIPOS>SUBSTRUCTURE
  1 ****   3 GROUP 4 **** **** 0

# MOE 2024.06 (io_trps.svl 2023.06)
