@<TRIPOS>MOLECULE
NONAME
46 49 1 0 0 
SMALL
USER_CHARGES


@<TRIPOS>ATOM
  1 CL      -0.0710    -0.7470     2.5010 Cl    1 <1>  -0.1770 
  2 C       -0.4120    -2.0880     1.4470 C.ar  1 <1>   0.1770 
  3 C       -1.0920    -3.1750     1.9320 C.ar  1 <1>  -0.1500 
  4 C        0.0140    -2.0340     0.1260 C.ar  1 <1>  -0.1500 
  5 C       -1.3670    -4.2530     1.0870 C.ar  1 <1>   0.3610 
  6 C       -0.2510    -3.0880    -0.7130 C.ar  1 <1>  -0.1500 
  7 N       -2.0520    -5.3630     1.5530 N.ar  1 <1>  -0.1790 
  8 C       -0.9470    -4.2250    -0.2600 C.ar  1 <1>   0.0000 
  9 C       -2.3460    -6.4300     0.8080 C.ar  1 <1>   0.4610 
 10 C       -1.2550    -5.3540    -1.0790 C.ar  1 <1>  -0.1430 
 11 N       -3.0100    -7.4480     1.3710 N.pl3 1 <1>  -0.8690 
 12 C       -1.9330    -6.4090    -0.5460 C.ar  1 <1>  -0.1500 
 13 C       -0.8310    -5.3790    -2.5430 C.3   1 <1>  -0.0970 
 14 C       -3.3930    -8.7630     0.7880 C.3   1 <1>   0.2890 
 15 C       -4.8960    -8.7650     0.5320 C.3   1 <1>  -0.0800 
 16 C       -3.2840    -9.8100     1.8880 C.3   1 <1>   0.1200 
 17 C       -5.4760    -9.1940     1.8920 C.3   1 <1>   0.1200 
 18 C       -5.2820    -9.7420    -0.5960 C.3   1 <1>  -0.0170 
 19 O       -4.3910    -9.5640     2.6930 O.3   1 <1>  -0.5600 
 20 C       -6.7840    -9.7470    -0.8380 C.ar  1 <1>  -0.1430 
 21 C       -7.5890   -10.7890    -0.4230 C.ar  1 <1>  -0.1500 
 22 C       -7.4210    -8.7090    -1.4890 C.ar  1 <1>  -0.1500 
 23 C       -8.9520   -10.7410    -0.6650 C.ar  1 <1>   0.1600 
 24 C       -8.7920    -8.7590    -1.6810 C.ar  1 <1>   0.1600 
 25 N       -9.5730    -9.7490    -1.2820 N.ar  1 <1>  -0.6200 
 26 H       -1.4040    -3.1770     2.9610 H     1 <1>   0.1500 
 27 H        0.5470    -1.1620    -0.2180 H     1 <1>   0.1500 
 28 H        0.0860    -3.0330    -1.7350 H     1 <1>   0.1500 
 29 H       -2.3400    -5.3740     2.5270 H     1 <1>   0.4570 
 30 H       -3.3490    -7.4390     2.3450 H     1 <1>   0.4000 
 31 H       -2.1730    -7.2580    -1.1570 H     1 <1>   0.1500 
 32 H       -1.1370    -6.2910    -3.0240 H     1 <1>   0.0800 
 33 H        0.2400    -5.3060    -2.6220 H     1 <1>   0.0800 
 34 H       -1.2760    -4.5570    -3.0760 H     1 <1>   0.0800 
 35 H       -2.8000    -9.0160    -0.0740 H     1 <1>   0.0800 
 36 H       -5.2450    -7.7830     0.2670 H     1 <1>   0.0800 
 37 H       -2.3830    -9.7200     2.4690 H     1 <1>   0.0800 
 38 H       -3.3690   -10.8090     1.4940 H     1 <1>   0.0800 
 39 H       -6.1400   -10.0370     1.8140 H     1 <1>   0.0800 
 40 H       -5.9900    -8.3820     2.3790 H     1 <1>   0.0800 
 41 H       -4.9560   -10.7390    -0.3570 H     1 <1>   0.0800 
 42 H       -4.7920    -9.4510    -1.5090 H     1 <1>   0.0800 
 43 H       -7.1760   -11.6400     0.0860 H     1 <1>   0.1500 
 44 H       -6.8690    -7.8620    -1.8520 H     1 <1>   0.1500 
 45 H       -9.5650   -11.5620    -0.3330 H     1 <1>   0.1500 
 46 H       -9.2720    -7.9410    -2.1910 H     1 <1>   0.1500 
@<TRIPOS>BOND
  1   1   2  1   
  2   2   3  ar  
  3   2   4  ar  
  4   3   5  ar  
  5   3  26  1   
  6   4   6  ar  
  7   4  27  1   
  8   5   7  ar  
  9   5   8  ar  
 10   6   8  ar  
 11   6  28  1   
 12   7   9  ar  
 13   7  29  1   
 14   8  10  ar  
 15   9  11  1   
 16   9  12  ar  
 17  10  12  ar  
 18  10  13  1   
 19  11  14  1   
 20  11  30  1   
 21  12  31  1   
 22  13  32  1   
 23  13  33  1   
 24  13  34  1   
 25  14  15  1   
 26  14  16  1   
 27  14  35  1   
 28  15  17  1   
 29  15  18  1   
 30  15  36  1   
 31  16  19  1   
 32  16  37  1   
 33  16  38  1   
 34  17  19  1   
 35  17  39  1   
 36  17  40  1   
 37  18  20  1   
 38  18  41  1   
 39  18  42  1   
 40  20  21  ar  
 41  20  22  ar  
 42  21  23  ar  
 43  21  43  1   
 44  22  24  ar  
 45  22  44  1   
 46  23  25  ar  
 47  23  45  1   
 48  24  25  ar  
 49  24  46  1   
@<TRIPOS>SUBSTRUCTURE
  1 ****  11 GROUP 4 **** **** 0

# MOE 2024.06 (io_trps.svl 2023.06)
