@<TRIPOS>MOLECULE
NONAME
47 48 1 0 0 
SMALL
USER_CHARGES


@<TRIPOS>ATOM
  1 S        0.1550     0.0270     0.6010 S.o2  1 <1>   1.3330 
  2 O        1.5850    -0.0050     0.8040 O.2   1 <1>  -0.6500 
  3 O       -0.7290     0.1640     1.7370 O.2   1 <1>  -0.6500 
  4 N       -0.2800    -1.3770    -0.2480 N.am  1 <1>  -0.8490 
  5 C       -0.2420     1.3300    -0.5620 C.3   1 <1>  -0.0550 
  6 C        0.7690    -1.8630    -1.1510 C.3   1 <1>   0.1160 
  7 C       -0.7080    -2.4580     0.6450 C.3   1 <1>   0.1160 
  8 C       -0.0420     2.7420     0.0130 C.3   1 <1>  -0.0800 
  9 C       -0.4590     3.8290    -0.9740 C.3   1 <1>   0.2000 
 10 C        1.4100     3.0880     0.3540 C.3   1 <1>   0.1400 
 11 O       -1.8290     4.0240    -0.9120 O.3   1 <1>  -0.6800 
 12 C        0.3180     5.0750    -0.5560 C.3   1 <1>   0.1400 
 13 N        1.5120     4.5520     0.1510 N.am  1 <1>  -0.6600 
 14 C        2.6190     5.2970     0.5240 C.2   1 <1>   0.7160 
 15 O        3.5540     4.6720     1.0030 O.2   1 <1>  -0.5700 
 16 C        2.7010     6.7530     0.3550 C.2   1 <1>   0.2030 
 17 N        1.6690     7.5790     0.2480 N.2   1 <1>  -0.7070 
 18 C        3.9000     7.4950     0.2840 C.2   1 <1>  -0.1810 
 19 N        2.1930     8.8020     0.1210 N.pl3 1 <1>   0.3000 
 20 C        3.5380     8.7870     0.1390 C.2   1 <1>  -0.3320 
 21 C        5.3120     6.9330     0.3510 C.3   1 <1>  -0.0590 
 22 C        4.3690    10.0530     0.0150 C.3   1 <1>   0.0200 
 23 C        4.3230    10.5810    -1.4180 C.3   1 <1>  -0.2400 
 24 H        0.3570     1.2160    -1.4440 H     1 <1>   0.0800 
 25 H       -1.2710     1.2260    -0.8500 H     1 <1>   0.0800 
 26 H        0.4050    -2.6950    -1.7280 H     1 <1>   0.0800 
 27 H        1.6340    -2.1780    -0.5890 H     1 <1>   0.0800 
 28 H        1.0650    -1.0830    -1.8310 H     1 <1>   0.0800 
 29 H       -0.9910    -3.3250     0.0740 H     1 <1>   0.0800 
 30 H       -1.5620    -2.1440     1.2210 H     1 <1>   0.0800 
 31 H        0.0880    -2.7220     1.3220 H     1 <1>   0.0800 
 32 H       -0.6160     2.8440     0.9190 H     1 <1>   0.0800 
 33 H       -0.1990     3.5640    -1.9840 H     1 <1>   0.0800 
 34 H        2.0980     2.5940    -0.3110 H     1 <1>   0.0800 
 35 H        1.6530     2.8250     1.3720 H     1 <1>   0.0800 
 36 H       -2.0930     4.2960    -0.0110 H     1 <1>   0.4000 
 37 H       -0.2560     5.6800     0.1250 H     1 <1>   0.0800 
 38 H        0.6090     5.6570    -1.4130 H     1 <1>   0.0800 
 39 H        1.6120     9.6430     0.0220 H     1 <1>   0.2700 
 40 H        5.4200     6.1290    -0.3550 H     1 <1>   0.0800 
 41 H        5.5060     6.5520     1.3380 H     1 <1>   0.0800 
 42 H        6.0430     7.6840     0.1210 H     1 <1>   0.0800 
 43 H        3.9970    10.8000     0.6950 H     1 <1>   0.0800 
 44 H        5.3910     9.8520     0.2860 H     1 <1>   0.0800 
 45 H        3.3160    10.8340    -1.6970 H     1 <1>   0.0800 
 46 H        4.6910     9.8310    -2.0970 H     1 <1>   0.0800 
 47 H        4.9370    11.4590    -1.5080 H     1 <1>   0.0800 
@<TRIPOS>BOND
  1   1   2  2   
  2   1   3  2   
  3   1   4  am  
  4   1   5  1   
  5   4   6  1   
  6   4   7  1   
  7   5   8  1   
  8   5  24  1   
  9   5  25  1   
 10   6  26  1   
 11   6  27  1   
 12   6  28  1   
 13   7  29  1   
 14   7  30  1   
 15   7  31  1   
 16   8   9  1   
 17   8  10  1   
 18   8  32  1   
 19   9  11  1   
 20   9  12  1   
 21   9  33  1   
 22  10  13  1   
 23  10  34  1   
 24  10  35  1   
 25  11  36  1   
 26  12  13  1   
 27  12  37  1   
 28  12  38  1   
 29  13  14  am  
 30  14  15  2   
 31  14  16  1   
 32  16  17  2   
 33  16  18  1   
 34  17  19  1   
 35  18  20  2   
 36  18  21  1   
 37  19  20  1   
 38  19  39  1   
 39  20  22  1   
 40  21  40  1   
 41  21  41  1   
 42  21  42  1   
 43  22  23  1   
 44  22  43  1   
 45  22  44  1   
 46  23  45  1   
 47  23  46  1   
 48  23  47  1   
@<TRIPOS>SUBSTRUCTURE
  1 ****  13 GROUP 4 **** **** 0

# MOE 2024.06 (io_trps.svl 2023.06)
