@<TRIPOS>MOLECULE
NONAME
44 45 1 0 0 
SMALL
USER_CHARGES


@<TRIPOS>ATOM
  1 CL       0.3500    -0.3170     1.1940 Cl    1 <1>  -0.1770 
  2 C        0.1300    -2.0440     1.0570 C.ar  1 <1>   0.1770 
  3 C        1.0460    -2.8160     0.3570 C.ar  1 <1>  -0.1440 
  4 C       -0.9730    -2.6160     1.6640 C.ar  1 <1>  -0.1500 
  5 C        0.8290    -4.1820     0.2710 C.ar  1 <1>  -0.1500 
  6 C        2.2660    -2.1870    -0.3000 C.3   1 <1>  -0.0960 
  7 C       -1.1710    -3.9810     1.5670 C.ar  1 <1>  -0.1500 
  8 C       -0.2800    -4.7910     0.8600 C.ar  1 <1>   0.0860 
  9 C       -0.4850    -6.2210     0.7410 C.2   1 <1>   0.5440 
 10 O        0.3720    -6.9880     1.1340 O.2   1 <1>  -0.5700 
 11 N       -1.6270    -6.7440     0.1790 N.am  1 <1>  -0.6600 
 12 C       -2.6380    -5.9820    -0.5980 C.3   1 <1>   0.1400 
 13 C       -1.8200    -8.2030    -0.0260 C.3   1 <1>   0.1400 
 14 C       -3.7450    -7.0000    -0.8620 C.3   1 <1>   0.2000 
 15 C       -2.9930    -8.3250    -1.0090 C.3   1 <1>  -0.0800 
 16 O       -4.5510    -7.0580     0.2650 O.3   1 <1>  -0.6800 
 17 C       -3.8770    -9.5770    -0.8100 C.3   1 <1>  -0.0550 
 18 S       -3.0680   -11.1260    -1.2170 S.o2  1 <1>   1.3330 
 19 O       -4.0070   -12.2090    -1.0360 O.2   1 <1>  -0.6500 
 20 O       -2.4060   -10.9560    -2.4910 O.2   1 <1>  -0.6500 
 21 N       -1.8750   -11.2800    -0.0170 N.am  1 <1>  -0.8490 
 22 C       -0.6940   -12.0110    -0.4870 C.3   1 <1>   0.1160 
 23 C       -2.3700   -11.8740     1.2290 C.3   1 <1>   0.1160 
 24 H       -1.6620    -1.9940     2.2070 H     1 <1>   0.1500 
 25 H        1.5280    -4.8080    -0.2580 H     1 <1>   0.1500 
 26 H        2.8670    -2.9310    -0.7920 H     1 <1>   0.0800 
 27 H        2.8710    -1.6970     0.4420 H     1 <1>   0.0800 
 28 H        1.9570    -1.4600    -1.0300 H     1 <1>   0.0800 
 29 H       -2.0210    -4.4330     2.0470 H     1 <1>   0.1500 
 30 H       -3.0100    -5.1260    -0.0630 H     1 <1>   0.0800 
 31 H       -2.1990    -5.6660    -1.5280 H     1 <1>   0.0800 
 32 H       -0.9260    -8.6550    -0.4230 H     1 <1>   0.0800 
 33 H       -2.0530    -8.6590     0.9210 H     1 <1>   0.0800 
 34 H       -4.3570    -6.7530    -1.7130 H     1 <1>   0.0800 
 35 H       -2.5790    -8.3540    -2.0020 H     1 <1>   0.0800 
 36 H       -3.9740    -7.1090     1.0550 H     1 <1>   0.4000 
 37 H       -4.7390    -9.4760    -1.4400 H     1 <1>   0.0800 
 38 H       -4.2290    -9.6160     0.2020 H     1 <1>   0.0800 
 39 H        0.0450   -12.0680     0.2940 H     1 <1>   0.0800 
 40 H       -0.2540   -11.5000    -1.3270 H     1 <1>   0.0800 
 41 H       -0.9680   -13.0070    -0.7930 H     1 <1>   0.0800 
 42 H       -1.5990   -11.8520     1.9810 H     1 <1>   0.0800 
 43 H       -2.6710   -12.8960     1.0650 H     1 <1>   0.0800 
 44 H       -3.2170   -11.3200     1.5950 H     1 <1>   0.0800 
@<TRIPOS>BOND
  1   1   2  1   
  2   2   3  ar  
  3   2   4  ar  
  4   3   5  ar  
  5   3   6  1   
  6   4   7  ar  
  7   4  24  1   
  8   5   8  ar  
  9   5  25  1   
 10   6  26  1   
 11   6  27  1   
 12   6  28  1   
 13   7   8  ar  
 14   7  29  1   
 15   8   9  1   
 16   9  10  2   
 17   9  11  am  
 18  11  12  1   
 19  11  13  1   
 20  12  14  1   
 21  12  30  1   
 22  12  31  1   
 23  13  15  1   
 24  13  32  1   
 25  13  33  1   
 26  14  15  1   
 27  14  16  1   
 28  14  34  1   
 29  15  17  1   
 30  15  35  1   
 31  16  36  1   
 32  17  18  1   
 33  17  37  1   
 34  17  38  1   
 35  18  19  2   
 36  18  20  2   
 37  18  21  am  
 38  21  22  1   
 39  21  23  1   
 40  22  39  1   
 41  22  40  1   
 42  22  41  1   
 43  23  42  1   
 44  23  43  1   
 45  23  44  1   
@<TRIPOS>SUBSTRUCTURE
  1 ****  11 GROUP 4 **** **** 0

# MOE 2024.06 (io_trps.svl 2023.06)
