@<TRIPOS>MOLECULE
NONAME
46 49 1 0 0 
SMALL
USER_CHARGES


@<TRIPOS>ATOM
  1 O       -2.0530     0.2010    -2.1380 O.2   1 <1>  -0.5700 
  2 C       -1.8730     0.2420    -0.9450 C.2   1 <1>   0.5690 
  3 N       -1.7310    -0.8980    -0.2230 N.am  1 <1>  -0.7300 
  4 C       -1.7980     1.5870    -0.2280 C.3   1 <1>  -0.0190 
  5 C       -1.8140    -2.2710    -0.7730 C.3   1 <1>   0.2200 
  6 C       -2.4550     1.6050     1.1730 C.3   1 <1>  -0.0220 
  7 C       -2.4210     2.7690    -1.0070 C.3   1 <1>  -0.0220 
  8 C       -3.1720    -2.9040    -0.4860 C.3   1 <1>  -0.0800 
  9 C       -0.9090    -3.1760     0.0500 C.3   1 <1>   0.1200 
 10 C       -3.0310     2.9960     1.2580 C.2   1 <1>  -0.2880 
 11 C       -3.0130     3.6210     0.0890 C.2   1 <1>  -0.2880 
 12 C       -3.0020    -3.4270     0.9470 C.3   1 <1>   0.1200 
 13 C       -4.3870    -1.9730    -0.6860 C.3   1 <1>  -0.0170 
 14 O       -1.6290    -3.4360     1.2160 O.3   1 <1>  -0.5600 
 15 C       -5.7730    -2.5970    -0.4940 C.ar  1 <1>  -0.1440 
 16 C       -6.9150    -1.7590    -0.4360 C.ar  1 <1>   0.0000 
 17 C       -5.9880    -3.9430    -0.3790 C.ar  1 <1>  -0.1500 
 18 C       -8.1770    -2.3670    -0.2270 C.ar  1 <1>   0.3100 
 19 C       -6.8790    -0.3500    -0.5780 C.ar  1 <1>  -0.1500 
 20 C       -7.2820    -4.4420    -0.1860 C.ar  1 <1>   0.1600 
 21 N       -8.3430    -3.7070    -0.1040 N.ar  1 <1>  -0.6200 
 22 C       -9.3210    -1.5560    -0.1460 C.ar  1 <1>  -0.1500 
 23 C       -8.0130     0.4110    -0.4980 C.ar  1 <1>  -0.1500 
 24 C       -9.2510    -0.1950    -0.2760 C.ar  1 <1>  -0.1500 
 25 H       -1.5910    -0.8690     0.7900 H     1 <1>   0.3700 
 26 H       -0.7570     1.8170    -0.0950 H     1 <1>   0.0800 
 27 H       -1.5610    -2.2790    -1.8210 H     1 <1>   0.0800 
 28 H       -3.2540     0.8880     1.2510 H     1 <1>   0.0800 
 29 H       -1.7270     1.4330     1.9450 H     1 <1>   0.0800 
 30 H       -1.6710     3.3000    -1.5660 H     1 <1>   0.0800 
 31 H       -3.2060     2.4460    -1.6700 H     1 <1>   0.0800 
 32 H       -3.2720    -3.7470    -1.1450 H     1 <1>   0.0800 
 33 H        0.0320    -2.7160     0.2970 H     1 <1>   0.0800 
 34 H       -0.7410    -4.1120    -0.4530 H     1 <1>   0.0800 
 35 H       -3.4030     3.3500     2.2060 H     1 <1>   0.1500 
 36 H       -3.3650     4.6100    -0.1560 H     1 <1>   0.1500 
 37 H       -3.3830    -4.4270     1.0600 H     1 <1>   0.0800 
 38 H       -3.4720    -2.7780     1.6660 H     1 <1>   0.0800 
 39 H       -4.3390    -1.5560    -1.6780 H     1 <1>   0.0800 
 40 H       -4.2990    -1.1600     0.0110 H     1 <1>   0.0800 
 41 H       -5.1970    -4.6640    -0.4310 H     1 <1>   0.1500 
 42 H       -5.9430     0.1440    -0.7600 H     1 <1>   0.1500 
 43 H       -7.4000    -5.5090    -0.0990 H     1 <1>   0.1500 
 44 H      -10.2620    -2.0460     0.0200 H     1 <1>   0.1500 
 45 H       -7.9670     1.4820    -0.6060 H     1 <1>   0.1500 
 46 H      -10.1360     0.4140    -0.2120 H     1 <1>   0.1500 
@<TRIPOS>BOND
  1   1   2  2   
  2   2   3  am  
  3   2   4  1   
  4   3   5  1   
  5   3  25  1   
  6   4   6  1   
  7   4   7  1   
  8   4  26  1   
  9   5   8  1   
 10   5   9  1   
 11   5  27  1   
 12   6  10  1   
 13   6  28  1   
 14   6  29  1   
 15   7  11  1   
 16   7  30  1   
 17   7  31  1   
 18   8  12  1   
 19   8  13  1   
 20   8  32  1   
 21   9  14  1   
 22   9  33  1   
 23   9  34  1   
 24  10  11  2   
 25  10  35  1   
 26  11  36  1   
 27  12  14  1   
 28  12  37  1   
 29  12  38  1   
 30  13  15  1   
 31  13  39  1   
 32  13  40  1   
 33  15  16  ar  
 34  15  17  ar  
 35  16  18  ar  
 36  16  19  ar  
 37  17  20  ar  
 38  17  41  1   
 39  18  21  ar  
 40  18  22  ar  
 41  19  23  ar  
 42  19  42  1   
 43  20  21  ar  
 44  20  43  1   
 45  22  24  ar  
 46  22  44  1   
 47  23  24  ar  
 48  23  45  1   
 49  24  46  1   
@<TRIPOS>SUBSTRUCTURE
  1 ****  13 GROUP 4 **** **** 0

# MOE 2024.06 (io_trps.svl 2023.06)
