@<TRIPOS>MOLECULE
NONAME
45 48 1 0 0 
SMALL
USER_CHARGES


@<TRIPOS>ATOM
  1 N       -0.1150     0.2680    -0.0050 N.ar  1 <1>  -0.6200 
  2 C       -1.3180     0.8240    -0.0030 C.ar  1 <1>   0.4100 
  3 C        0.8630     1.1560     0.0920 C.ar  1 <1>   0.1600 
  4 N       -2.3780    -0.0870    -0.1460 N.pl3 1 <1>  -0.8380 
  5 C       -1.5210     2.2500     0.1090 C.ar  1 <1>   0.4100 
  6 C        0.6710     2.5190     0.1840 C.ar  1 <1>   0.1600 
  7 C       -2.2010    -1.4790     0.3640 C.3   1 <1>   0.2090 
  8 C       -3.1510     0.0190    -1.4090 C.3   1 <1>   0.2090 
  9 N       -0.5150     3.1070     0.1930 N.ar  1 <1>  -0.6200 
 10 N       -2.8010     2.8380     0.1520 N.pl3 1 <1>  -0.8380 
 11 C       -3.5560    -2.1890     0.5140 C.3   1 <1>   0.1000 
 12 C       -4.5270    -0.6270    -1.2260 C.3   1 <1>  -0.1600 
 13 C       -3.7150     2.3980     1.2390 C.3   1 <1>   0.1290 
 14 C       -2.9750     4.2610    -0.2530 C.3   1 <1>   0.1290 
 15 C       -3.3770    -3.6350     0.9590 C.2   1 <1>   0.0060 
 16 C       -4.4130    -2.0880    -0.7620 C.3   1 <1>  -0.1600 
 17 N       -3.8550    -4.0870     2.0730 N.2   1 <1>  -0.3380 
 18 N       -2.7220    -4.5860     0.2730 N.pl3 1 <1>   0.3340 
 19 N       -3.5260    -5.3680     2.1640 N.2   1 <1>  -0.3380 
 20 C       -2.8470    -5.6640     1.0870 C.2   1 <1>   0.1420 
 21 C       -2.0310    -4.6810    -0.9370 C.2   1 <1>  -0.1810 
 22 C       -2.2660    -6.9000     0.7030 C.2   1 <1>  -0.1050 
 23 C       -1.4710    -5.8610    -1.3150 C.2   1 <1>  -0.1500 
 24 C       -1.5890    -6.9990    -0.4750 C.2   1 <1>  -0.1500 
 25 H        1.8670     0.7700     0.0960 H     1 <1>   0.1500 
 26 H        1.5300     3.1620     0.2550 H     1 <1>   0.1500 
 27 H       -1.7110    -1.4470     1.3220 H     1 <1>   0.0800 
 28 H       -1.5630    -2.0130    -0.3160 H     1 <1>   0.0800 
 29 H       -2.6090    -0.4770    -2.1960 H     1 <1>   0.0800 
 30 H       -3.2700     1.0530    -1.6850 H     1 <1>   0.0800 
 31 H       -4.0820    -1.6750     1.3010 H     1 <1>   0.0800 
 32 H       -5.0640    -0.5820    -2.1560 H     1 <1>   0.0800 
 33 H       -5.0790    -0.0550    -0.5010 H     1 <1>   0.0800 
 34 H       -3.3370     1.5110     1.7180 H     1 <1>   0.0800 
 35 H       -4.6840     2.1800     0.8280 H     1 <1>   0.0800 
 36 H       -3.8070     3.1720     1.9800 H     1 <1>   0.0800 
 37 H       -2.3760     4.4680    -1.1230 H     1 <1>   0.0800 
 38 H       -2.6630     4.9090     0.5470 H     1 <1>   0.0800 
 39 H       -4.0060     4.4530    -0.4900 H     1 <1>   0.0800 
 40 H       -5.3940    -2.4830    -0.5640 H     1 <1>   0.0800 
 41 H       -3.9750    -2.6690    -1.5520 H     1 <1>   0.0800 
 42 H       -1.9690    -3.7940    -1.5370 H     1 <1>   0.1500 
 43 H       -2.3830    -7.7320     1.3740 H     1 <1>   0.1500 
 44 H       -0.9320    -5.9650    -2.2420 H     1 <1>   0.1500 
 45 H       -1.1380    -7.9250    -0.7910 H     1 <1>   0.1500 
@<TRIPOS>BOND
  1   1   2  ar  
  2   1   3  ar  
  3   2   4  1   
  4   2   5  ar  
  5   3   6  ar  
  6   3  25  1   
  7   4   7  1   
  8   4   8  1   
  9   5   9  ar  
 10   5  10  1   
 11   6   9  ar  
 12   6  26  1   
 13   7  11  1   
 14   7  27  1   
 15   7  28  1   
 16   8  12  1   
 17   8  29  1   
 18   8  30  1   
 19  10  13  1   
 20  10  14  1   
 21  11  15  1   
 22  11  16  1   
 23  11  31  1   
 24  12  16  1   
 25  12  32  1   
 26  12  33  1   
 27  13  34  1   
 28  13  35  1   
 29  13  36  1   
 30  14  37  1   
 31  14  38  1   
 32  14  39  1   
 33  15  17  2   
 34  15  18  1   
 35  16  40  1   
 36  16  41  1   
 37  17  19  1   
 38  18  20  1   
 39  18  21  1   
 40  19  20  2   
 41  20  22  1   
 42  21  23  2   
 43  21  42  1   
 44  22  24  2   
 45  22  43  1   
 46  23  24  1   
 47  23  44  1   
 48  24  45  1   
@<TRIPOS>SUBSTRUCTURE
  1 ****   7 GROUP 4 **** **** 0

# MOE 2024.06 (io_trps.svl 2023.06)
