@<TRIPOS>MOLECULE
NONAME
40 41 1 0 0 
SMALL
USER_CHARGES


@<TRIPOS>ATOM
  1 CL       0.4640     1.9010     1.9940 Cl    1 <1>  -0.1770 
  2 C        2.0130     2.1440     1.2200 C.ar  1 <1>   0.1770 
  3 C        2.5150     3.4070     1.0250 C.ar  1 <1>   0.1600 
  4 C        2.7670     1.0810     0.7880 C.ar  1 <1>   0.1600 
  5 N        3.6800     3.6150     0.4430 N.ar  1 <1>  -0.6200 
  6 N        3.9330     1.2580     0.2060 N.ar  1 <1>  -0.6200 
  7 C        4.3420     2.5170     0.0550 C.ar  1 <1>   0.7200 
  8 N        5.5680     2.7130    -0.5530 N.pl3 1 <1>  -0.8380 
  9 C        5.9170     4.0220    -1.1650 C.3   1 <1>   0.2090 
 10 C        6.4190     1.5510    -0.9610 C.3   1 <1>   0.1290 
 11 C        6.4360     4.9770    -0.0720 C.3   1 <1>   0.3430 
 12 N        6.0850     6.4240    -0.3110 N.4   1 <1>  -0.9590 
 13 C        6.8680     7.3320     0.5760 C.3   1 <1>   0.4230 
 14 C        4.6100     6.6050    -0.0960 C.3   1 <1>   0.2630 
 15 C        6.6040     8.8110     0.2490 C.3   1 <1>  -0.1600 
 16 C        8.3780     7.1370     0.3890 C.3   1 <1>  -0.1600 
 17 C        7.9570     9.4530    -0.0730 C.3   1 <1>  -0.1600 
 18 C        8.9920     8.5240     0.5460 C.3   1 <1>  -0.1600 
 19 H        1.9380     4.2530     1.3570 H     1 <1>   0.1500 
 20 H        2.4040     0.0770     0.9260 H     1 <1>   0.1500 
 21 H        5.0390     4.4200    -1.6410 H     1 <1>   0.0800 
 22 H        6.6720     3.8880    -1.9210 H     1 <1>   0.0800 
 23 H        6.3900     0.7810    -0.2090 H     1 <1>   0.0800 
 24 H        7.4430     1.8570    -1.0860 H     1 <1>   0.0800 
 25 H        6.0550     1.1410    -1.8880 H     1 <1>   0.0800 
 26 H        7.5030     4.8540    -0.0060 H     1 <1>   0.0800 
 27 H        6.0110     4.6670     0.8690 H     1 <1>   0.0800 
 28 H        6.3250     6.6770    -1.2780 H     1 <1>   0.4500 
 29 H        6.6150     7.1520     1.6090 H     1 <1>   0.0800 
 30 H        4.3470     6.3420     0.9160 H     1 <1>   0.0800 
 31 H        4.0490     5.9700    -0.7620 H     1 <1>   0.0800 
 32 H        4.3180     7.6260    -0.2750 H     1 <1>   0.0800 
 33 H        6.1940     9.2850     1.1230 H     1 <1>   0.0800 
 34 H        5.9300     8.9580    -0.5760 H     1 <1>   0.0800 
 35 H        8.5970     6.7850    -0.6040 H     1 <1>   0.0800 
 36 H        8.7850     6.4560     1.1150 H     1 <1>   0.0800 
 37 H        8.0340    10.4550     0.3170 H     1 <1>   0.0800 
 38 H        8.1000     9.4860    -1.1400 H     1 <1>   0.0800 
 39 H        9.9500     8.6060     0.0600 H     1 <1>   0.0800 
 40 H        9.1090     8.7580     1.5910 H     1 <1>   0.0800 
@<TRIPOS>BOND
  1   1   2  1   
  2   2   3  ar  
  3   2   4  ar  
  4   3   5  ar  
  5   3  19  1   
  6   4   6  ar  
  7   4  20  1   
  8   5   7  ar  
  9   6   7  ar  
 10   7   8  1   
 11   8   9  1   
 12   8  10  1   
 13   9  11  1   
 14   9  21  1   
 15   9  22  1   
 16  10  23  1   
 17  10  24  1   
 18  10  25  1   
 19  11  12  1   
 20  11  26  1   
 21  11  27  1   
 22  12  13  1   
 23  12  14  1   
 24  12  28  1   
 25  13  15  1   
 26  13  16  1   
 27  13  29  1   
 28  14  30  1   
 29  14  31  1   
 30  14  32  1   
 31  15  17  1   
 32  15  33  1   
 33  15  34  1   
 34  16  18  1   
 35  16  35  1   
 36  16  36  1   
 37  17  18  1   
 38  17  37  1   
 39  17  38  1   
 40  18  39  1   
 41  18  40  1   
@<TRIPOS>SUBSTRUCTURE
  1 ****  11 GROUP 4 **** **** 0

# MOE 2024.06 (io_trps.svl 2023.06)
