@<TRIPOS>MOLECULE
NONAME
44 46 1 0 0 
SMALL
USER_CHARGES


@<TRIPOS>ATOM
  1 F       -1.1190     0.3110    -1.8600 F     1 <1>  -0.1900 
  2 C       -1.9310     0.9890    -1.0890 C.ar  1 <1>   0.1900 
  3 C       -1.6040     2.2750    -0.6930 C.ar  1 <1>   0.1900 
  4 C       -3.1110     0.3990    -0.6830 C.ar  1 <1>  -0.1500 
  5 F       -0.4870     2.8280    -1.0830 F     1 <1>  -0.1900 
  6 C       -2.4570     2.9940     0.1230 C.ar  1 <1>  -0.1500 
  7 C       -3.9990     1.1050     0.1320 C.ar  1 <1>   0.0860 
  8 C       -3.6430     2.4010     0.5300 C.ar  1 <1>  -0.1500 
  9 C       -5.2440     0.4950     0.5590 C.2   1 <1>   0.5440 
 10 O       -5.2200    -0.6190     1.0460 O.2   1 <1>  -0.5700 
 11 N       -6.4580     1.1340     0.4200 N.am  1 <1>  -0.6600 
 12 C       -7.6780     0.5670     1.0690 C.3   1 <1>   0.1400 
 13 C       -6.6630     2.2930    -0.5020 C.3   1 <1>   0.1400 
 14 C       -8.7250     1.6630     1.2750 C.3   1 <1>  -0.1600 
 15 C       -8.0560     2.2140    -1.1230 C.3   1 <1>  -0.1600 
 16 C       -9.1610     2.3320    -0.0560 C.3   1 <1>   0.2800 
 17 O       -9.2980     3.7090     0.1790 O.3   1 <1>  -0.5600 
 18 C      -10.4900     1.7600    -0.6210 C.3   1 <1>  -0.1600 
 19 C      -10.2860     4.1400     1.0810 C.3   1 <1>   0.1200 
 20 C      -11.6790     2.7180    -0.5010 C.3   1 <1>   0.2800 
 21 C      -11.6300     3.4310     0.8470 C.3   1 <1>  -0.1600 
 22 O      -11.5350     3.6730    -1.4740 O.3   1 <1>  -0.6800 
 23 C      -13.0160     2.0260    -0.7530 C.3   1 <1>  -0.2400 
 24 H       -3.3470    -0.6040    -0.9910 H     1 <1>   0.1500 
 25 H       -2.1940     3.9900     0.4320 H     1 <1>   0.1500 
 26 H       -4.3130     2.9450     1.1750 H     1 <1>   0.1500 
 27 H       -7.4110     0.1390     2.0220 H     1 <1>   0.0800 
 28 H       -8.0740    -0.2190     0.4490 H     1 <1>   0.0800 
 29 H       -5.9240     2.2790    -1.2850 H     1 <1>   0.0800 
 30 H       -6.5660     3.2130     0.0490 H     1 <1>   0.0800 
 31 H       -8.2790     2.3940     1.9250 H     1 <1>   0.0800 
 32 H       -9.5720     1.2490     1.7890 H     1 <1>   0.0800 
 33 H       -8.1270     1.2710    -1.6360 H     1 <1>   0.0800 
 34 H       -8.1790     2.9890    -1.8580 H     1 <1>   0.0800 
 35 H      -10.7230     0.8490    -0.1010 H     1 <1>   0.0800 
 36 H      -10.3860     1.4810    -1.6540 H     1 <1>   0.0800 
 37 H      -10.4030     5.2000     0.9290 H     1 <1>   0.0800 
 38 H       -9.9370     3.9820     2.0870 H     1 <1>   0.0800 
 39 H      -12.4350     4.1400     0.9240 H     1 <1>   0.0800 
 40 H      -11.7750     2.7090     1.6290 H     1 <1>   0.0800 
 41 H      -10.6670     4.1010    -1.3140 H     1 <1>   0.4000 
 42 H      -13.1910     1.2710    -0.0100 H     1 <1>   0.0800 
 43 H      -13.0150     1.5600    -1.7220 H     1 <1>   0.0800 
 44 H      -13.8180     2.7410    -0.7090 H     1 <1>   0.0800 
@<TRIPOS>BOND
  1   1   2  1   
  2   2   3  ar  
  3   2   4  ar  
  4   3   5  1   
  5   3   6  ar  
  6   4   7  ar  
  7   4  24  1   
  8   6   8  ar  
  9   6  25  1   
 10   7   8  ar  
 11   7   9  1   
 12   8  26  1   
 13   9  10  2   
 14   9  11  am  
 15  11  12  1   
 16  11  13  1   
 17  12  14  1   
 18  12  27  1   
 19  12  28  1   
 20  13  15  1   
 21  13  29  1   
 22  13  30  1   
 23  14  16  1   
 24  14  31  1   
 25  14  32  1   
 26  15  16  1   
 27  15  33  1   
 28  15  34  1   
 29  16  17  1   
 30  16  18  1   
 31  17  19  1   
 32  18  20  1   
 33  18  35  1   
 34  18  36  1   
 35  19  21  1   
 36  19  37  1   
 37  19  38  1   
 38  20  21  1   
 39  20  22  1   
 40  20  23  1   
 41  21  39  1   
 42  21  40  1   
 43  22  41  1   
 44  23  42  1   
 45  23  43  1   
 46  23  44  1   
@<TRIPOS>SUBSTRUCTURE
  1 ****  13 GROUP 4 **** **** 0

# MOE 2024.06 (io_trps.svl 2023.06)
