@<TRIPOS>MOLECULE
NONAME
57 59 1 0 0 
SMALL
USER_CHARGES


@<TRIPOS>ATOM
  1 O       -2.4640     0.5010    -0.6250 O.2   1 <1>  -0.5700 
  2 C       -1.8360     1.4280    -0.1690 C.2   1 <1>   0.5690 
  3 N       -2.2750     2.7220    -0.2590 N.am  1 <1>  -0.6600 
  4 C       -0.4900     1.1230     0.4980 C.3   1 <1>   0.1810 
  5 C       -1.4680     3.8490     0.3130 C.3   1 <1>   0.3640 
  6 C       -3.6440     3.0720    -0.7350 C.3   1 <1>   0.0600 
  7 O       -0.0400     2.1460     1.3550 O.3   1 <1>  -0.5600 
  8 C       -1.3510     5.0370    -0.6590 C.ar  1 <1>  -0.1430 
  9 C       -0.0500     3.4350     0.7720 C.3   1 <1>   0.2610 
 10 C       -1.0020     4.9400    -2.0110 C.ar  1 <1>  -0.1430 
 11 C       -1.5880     6.2960    -0.1190 C.ar  1 <1>  -0.1500 
 12 C        0.4990     4.5050     1.7350 C.2   1 <1>   0.5690 
 13 C       -0.9120     6.0950    -2.7750 C.ar  1 <1>  -0.1500 
 14 C       -0.7160     3.6220    -2.7240 C.3   1 <1>  -0.0960 
 15 C       -1.4900     7.4390    -0.8890 C.ar  1 <1>  -0.1500 
 16 O       -0.1920     4.8090     2.6840 O.2   1 <1>  -0.5700 
 17 N        1.6970     5.1510     1.5050 N.am  1 <1>  -0.6600 
 18 C       -1.1520     7.3380    -2.2220 C.ar  1 <1>  -0.1500 
 19 C        2.6670     4.8540     0.4190 C.3   1 <1>   0.1400 
 20 C        2.0280     6.4150     2.2190 C.3   1 <1>   0.1400 
 21 C        2.5650     5.9610    -0.6340 C.3   1 <1>  -0.1600 
 22 C        1.9460     7.5760     1.2210 C.3   1 <1>  -0.1600 
 23 C        2.8370     7.3470    -0.0180 C.3   1 <1>  -0.0800 
 24 C        2.6310     8.4470    -1.0680 C.3   1 <1>   0.1200 
 25 O        2.9840     9.6750    -0.5150 O.3   1 <1>  -0.5600 
 26 C        2.8140    10.7510    -1.3720 C.3   1 <1>   0.1200 
 27 C        3.2360    12.0070    -0.6190 C.3   1 <1>  -0.2400 
 28 H        0.2550     0.9620    -0.2590 H     1 <1>   0.0800 
 29 H       -0.5840     0.2280     1.0850 H     1 <1>   0.0800 
 30 H       -2.0040     4.1800     1.1850 H     1 <1>   0.0800 
 31 H       -3.5860     3.7630    -1.5570 H     1 <1>   0.0800 
 32 H       -4.2030     3.5240     0.0660 H     1 <1>   0.0800 
 33 H       -4.1690     2.1910    -1.0650 H     1 <1>   0.0800 
 34 H        0.5700     3.3890    -0.0950 H     1 <1>   0.0800 
 35 H       -1.8470     6.4000     0.9230 H     1 <1>   0.1500 
 36 H       -0.6550     6.0360    -3.8190 H     1 <1>   0.1500 
 37 H       -0.1940     3.7900    -3.6480 H     1 <1>   0.0800 
 38 H       -1.6400     3.1210    -2.9500 H     1 <1>   0.0800 
 39 H       -0.1110     2.9720    -2.1240 H     1 <1>   0.0800 
 40 H       -1.6760     8.4030    -0.4480 H     1 <1>   0.1500 
 41 H       -1.0790     8.2240    -2.8290 H     1 <1>   0.1500 
 42 H        3.6600     4.8430     0.8360 H     1 <1>   0.0800 
 43 H        2.4970     3.8900    -0.0190 H     1 <1>   0.0800 
 44 H        1.3480     6.5890     3.0350 H     1 <1>   0.0800 
 45 H        3.0220     6.3450     2.6250 H     1 <1>   0.0800 
 46 H        3.2760     5.7680    -1.4180 H     1 <1>   0.0800 
 47 H        1.5800     5.9400    -1.0680 H     1 <1>   0.0800 
 48 H        0.9210     7.6930     0.9170 H     1 <1>   0.0800 
 49 H        2.2420     8.4840     1.7160 H     1 <1>   0.0800 
 50 H        3.8680     7.3770     0.2920 H     1 <1>   0.0800 
 51 H        1.5980     8.4870    -1.3700 H     1 <1>   0.0800 
 52 H        3.2550     8.2690    -1.9270 H     1 <1>   0.0800 
 53 H        3.4300    10.6050    -2.2430 H     1 <1>   0.0800 
 54 H        1.7770    10.8090    -1.6560 H     1 <1>   0.0800 
 55 H        4.2680    11.9310    -0.3280 H     1 <1>   0.0800 
 56 H        2.6250    12.1330     0.2560 H     1 <1>   0.0800 
 57 H        3.1180    12.8680    -1.2510 H     1 <1>   0.0800 
@<TRIPOS>BOND
  1   1   2  2   
  2   2   3  am  
  3   2   4  1   
  4   3   5  1   
  5   3   6  1   
  6   4   7  1   
  7   4  28  1   
  8   4  29  1   
  9   5   8  1   
 10   5   9  1   
 11   5  30  1   
 12   6  31  1   
 13   6  32  1   
 14   6  33  1   
 15   7   9  1   
 16   8  10  ar  
 17   8  11  ar  
 18   9  12  1   
 19   9  34  1   
 20  10  13  ar  
 21  10  14  1   
 22  11  15  ar  
 23  11  35  1   
 24  12  16  2   
 25  12  17  am  
 26  13  18  ar  
 27  13  36  1   
 28  14  37  1   
 29  14  38  1   
 30  14  39  1   
 31  15  18  ar  
 32  15  40  1   
 33  17  19  1   
 34  17  20  1   
 35  18  41  1   
 36  19  21  1   
 37  19  42  1   
 38  19  43  1   
 39  20  22  1   
 40  20  44  1   
 41  20  45  1   
 42  21  23  1   
 43  21  46  1   
 44  21  47  1   
 45  22  23  1   
 46  22  48  1   
 47  22  49  1   
 48  23  24  1   
 49  23  50  1   
 50  24  25  1   
 51  24  51  1   
 52  24  52  1   
 53  25  26  1   
 54  26  27  1   
 55  26  53  1   
 56  26  54  1   
 57  27  55  1   
 58  27  56  1   
 59  27  57  1   
@<TRIPOS>SUBSTRUCTURE
  1 ****   8 GROUP 4 **** **** 0

# MOE 2024.06 (io_trps.svl 2023.06)
