@<TRIPOS>MOLECULE
NONAME
57 60 1 0 0 
SMALL
USER_CHARGES


@<TRIPOS>ATOM
  1 O       -1.3770    -1.5260     0.6330 O.3   1 <1>  -0.3630 
  2 C       -0.7460    -0.8890    -0.3890 C.ar  1 <1>   0.0820 
  3 C       -2.1660    -2.6650     0.4030 C.3   1 <1>   0.1200 
  4 C       -0.1110     0.3170    -0.1050 C.ar  1 <1>  -0.1440 
  5 C       -0.7140    -1.3920    -1.6890 C.ar  1 <1>  -0.1500 
  6 C       -2.7270    -3.1170     1.7530 C.3   1 <1>   0.3430 
  7 C        0.5390     1.0040    -1.1180 C.ar  1 <1>  -0.1500 
  8 C       -0.1200     0.8920     1.3040 C.3   1 <1>  -0.0960 
  9 C       -0.0610    -0.6950    -2.6890 C.ar  1 <1>  -0.1500 
 10 N       -3.6340    -4.2920     1.5880 N.4   1 <1>  -0.9590 
 11 C        0.5670     0.5070    -2.4100 C.ar  1 <1>  -0.1430 
 12 C       -4.9930    -3.9730     1.0390 C.3   1 <1>   0.3430 
 13 C       -3.8600    -5.1140     2.8080 C.3   1 <1>   0.3430 
 14 C        1.2850     1.2690    -3.5090 C.3   1 <1>  -0.0970 
 15 C       -5.9670    -4.9600     1.7080 C.3   1 <1>   0.2000 
 16 C       -5.0960    -5.9600     2.4800 C.3   1 <1>  -0.0800 
 17 O       -6.7630    -4.2710     2.6140 O.3   1 <1>  -0.6800 
 18 C       -4.7540    -7.2490     1.6770 C.3   1 <1>  -0.0170 
 19 C       -3.7510    -6.9990     0.5490 C.ar  1 <1>  -0.1430 
 20 C       -4.1290    -6.5230    -0.7300 C.ar  1 <1>   0.0000 
 21 C       -2.4160    -7.1490     0.7960 C.ar  1 <1>  -0.1500 
 22 C       -3.1000    -6.0550    -1.5820 C.ar  1 <1>   0.3100 
 23 C       -5.4580    -6.4670    -1.2110 C.ar  1 <1>  -0.1500 
 24 C       -1.4730    -6.7100    -0.1400 C.ar  1 <1>   0.1600 
 25 N       -1.7880    -6.1260    -1.2510 N.ar  1 <1>  -0.6200 
 26 C       -3.4420    -5.4790    -2.8150 C.ar  1 <1>  -0.1500 
 27 C       -5.7590    -5.9050    -2.4220 C.ar  1 <1>  -0.1500 
 28 C       -4.7420    -5.3940    -3.2300 C.ar  1 <1>  -0.1500 
 29 H       -2.9520    -2.3910    -0.2770 H     1 <1>   0.0800 
 30 H       -1.5380    -3.4300    -0.0210 H     1 <1>   0.0800 
 31 H       -1.1810    -2.3210    -1.9500 H     1 <1>   0.1500 
 32 H       -3.2610    -2.3010     2.2120 H     1 <1>   0.0800 
 33 H       -1.8980    -3.3870     2.3870 H     1 <1>   0.0800 
 34 H        1.0320     1.9350    -0.9020 H     1 <1>   0.1500 
 35 H        0.4330     1.8120     1.3510 H     1 <1>   0.0800 
 36 H        0.3250     0.1910     1.9870 H     1 <1>   0.0800 
 37 H       -1.1320     1.0850     1.6120 H     1 <1>   0.0800 
 38 H       -0.0400    -1.0930    -3.6890 H     1 <1>   0.1500 
 39 H       -3.1930    -4.9350     0.9040 H     1 <1>   0.4500 
 40 H       -5.2840    -2.9620     1.2710 H     1 <1>   0.0800 
 41 H       -4.9990    -4.1080    -0.0310 H     1 <1>   0.0800 
 42 H       -3.0050    -5.7290     3.0390 H     1 <1>   0.0800 
 43 H       -4.0720    -4.4710     3.6470 H     1 <1>   0.0800 
 44 H        0.8220     1.0830    -4.4610 H     1 <1>   0.0800 
 45 H        2.3130     0.9580    -3.5540 H     1 <1>   0.0800 
 46 H        1.2500     2.3270    -3.3170 H     1 <1>   0.0800 
 47 H       -6.6290    -5.4240     1.0000 H     1 <1>   0.0800 
 48 H       -5.5930    -6.2660     3.3850 H     1 <1>   0.0800 
 49 H       -6.2700    -3.8940     3.3680 H     1 <1>   0.4000 
 50 H       -5.6520    -7.7100     1.3040 H     1 <1>   0.0800 
 51 H       -4.3230    -7.9630     2.3590 H     1 <1>   0.0800 
 52 H       -2.0480    -7.5730     1.7150 H     1 <1>   0.1500 
 53 H       -6.2570    -6.8860    -0.6300 H     1 <1>   0.1500 
 54 H       -0.4270    -6.8410     0.0870 H     1 <1>   0.1500 
 55 H       -2.6420    -5.1130    -3.4340 H     1 <1>   0.1500 
 56 H       -6.7760    -5.8620    -2.7770 H     1 <1>   0.1500 
 57 H       -4.9930    -4.9540    -4.1810 H     1 <1>   0.1500 
@<TRIPOS>BOND
  1   1   2  1   
  2   1   3  1   
  3   2   4  ar  
  4   2   5  ar  
  5   3   6  1   
  6   3  29  1   
  7   3  30  1   
  8   4   7  ar  
  9   4   8  1   
 10   5   9  ar  
 11   5  31  1   
 12   6  10  1   
 13   6  32  1   
 14   6  33  1   
 15   7  11  ar  
 16   7  34  1   
 17   8  35  1   
 18   8  36  1   
 19   8  37  1   
 20   9  11  ar  
 21   9  38  1   
 22  10  12  1   
 23  10  13  1   
 24  10  39  1   
 25  11  14  1   
 26  12  15  1   
 27  12  40  1   
 28  12  41  1   
 29  13  16  1   
 30  13  42  1   
 31  13  43  1   
 32  14  44  1   
 33  14  45  1   
 34  14  46  1   
 35  15  16  1   
 36  15  17  1   
 37  15  47  1   
 38  16  18  1   
 39  16  48  1   
 40  17  49  1   
 41  18  19  1   
 42  18  50  1   
 43  18  51  1   
 44  19  20  ar  
 45  19  21  ar  
 46  20  22  ar  
 47  20  23  ar  
 48  21  24  ar  
 49  21  52  1   
 50  22  25  ar  
 51  22  26  ar  
 52  23  27  ar  
 53  23  53  1   
 54  24  25  ar  
 55  24  54  1   
 56  26  28  ar  
 57  26  55  1   
 58  27  28  ar  
 59  27  56  1   
 60  28  57  1   
@<TRIPOS>SUBSTRUCTURE
  1 ****   3 GROUP 4 **** **** 0

# MOE 2024.06 (io_trps.svl 2023.06)
