@<TRIPOS>MOLECULE
NONAME
51 53 1 0 0 
SMALL
USER_CHARGES


@<TRIPOS>ATOM
  1 O        1.2700     0.5010     0.0470 O.2   1 <1>  -0.5700 
  2 C        2.0360    -0.4610     0.0250 C.2   1 <1>   0.6160 
  3 N        1.5380    -1.7190     0.3640 N.am  1 <1>  -0.4690 
  4 C        3.4160    -0.3170    -0.3470 C.2   1 <1>   0.0290 
  5 C        2.3380    -2.8470     0.2710 C.2   1 <1>  -0.0290 
  6 C        0.1100    -1.8300     0.8120 C.3   1 <1>   0.0600 
  7 C        3.9870     0.9790    -0.6520 C.2   1 <1>   0.6160 
  8 C        4.1780    -1.4570    -0.4030 C.2   1 <1>  -0.1500 
  9 C        3.6490    -2.7270    -0.1000 C.2   1 <1>  -0.1380 
 10 C        1.7020    -4.2020     0.5870 C.3   1 <1>  -0.1020 
 11 O        5.1650     1.0540    -0.9620 O.2   1 <1>  -0.5700 
 12 N        3.2580     2.1480    -0.6000 N.am  1 <1>  -0.4940 
 13 C        4.6050    -3.9100    -0.2130 C.3   1 <1>  -0.1020 
 14 C        3.5240     3.4750    -1.0230 C.2   1 <1>  -0.0880 
 15 N        4.6710     4.2050    -0.9040 N.pl3 1 <1>   0.3140 
 16 C        2.6270     4.2860    -1.6310 C.2   1 <1>  -0.1500 
 17 N        4.5220     5.4450    -1.4350 N.2   1 <1>  -0.7070 
 18 C        5.9520     3.8200    -0.2590 C.3   1 <1>   0.1760 
 19 C        3.2990     5.4770    -1.8630 C.2   1 <1>   0.1390 
 20 C        6.4300     4.8870     0.7400 C.3   1 <1>  -0.1600 
 21 C        7.0220     3.5850    -1.3350 C.3   1 <1>  -0.1600 
 22 C        7.7750     4.4930     1.3410 C.3   1 <1>   0.3430 
 23 C        8.3450     3.1950    -0.6930 C.3   1 <1>   0.3430 
 24 N        8.7710     4.2710     0.2510 N.4   1 <1>  -0.9590 
 25 C       10.1250     3.9810     0.8120 C.3   1 <1>   0.2630 
 26 H       -0.2970    -0.8730     1.0840 H     1 <1>   0.0800 
 27 H        0.0400    -2.4640     1.6770 H     1 <1>   0.0800 
 28 H       -0.4840    -2.2420     0.0160 H     1 <1>   0.0800 
 29 H        5.2150    -1.3970    -0.6890 H     1 <1>   0.1500 
 30 H        0.8130    -4.3400    -0.0010 H     1 <1>   0.0800 
 31 H        1.4480    -4.2550     1.6300 H     1 <1>   0.0800 
 32 H        2.3530    -5.0250     0.3680 H     1 <1>   0.0800 
 33 H        2.2640     1.9650    -0.3900 H     1 <1>   0.3700 
 34 H        5.6160    -3.5870    -0.3880 H     1 <1>   0.0800 
 35 H        4.3090    -4.5440    -1.0300 H     1 <1>   0.0800 
 36 H        4.5980    -4.4820     0.6980 H     1 <1>   0.0800 
 37 H        1.6060     4.0750    -1.8950 H     1 <1>   0.1500 
 38 H        5.7870     2.9180     0.2960 H     1 <1>   0.0800 
 39 H        2.8610     6.3370    -2.3440 H     1 <1>   0.1500 
 40 H        5.7050     4.9850     1.5280 H     1 <1>   0.0800 
 41 H        6.5260     5.8440     0.2560 H     1 <1>   0.0800 
 42 H        7.1550     4.4720    -1.9300 H     1 <1>   0.0800 
 43 H        6.7080     2.7940    -1.9930 H     1 <1>   0.0800 
 44 H        7.6600     3.5900     1.9200 H     1 <1>   0.0800 
 45 H        8.1150     5.2770     2.0000 H     1 <1>   0.0800 
 46 H        9.0890     3.0580    -1.4620 H     1 <1>   0.0800 
 47 H        8.2270     2.2620    -0.1640 H     1 <1>   0.0800 
 48 H        8.8230     5.1460    -0.2940 H     1 <1>   0.4500 
 49 H       10.1060     3.0700     1.3870 H     1 <1>   0.0800 
 50 H       10.4450     4.7870     1.4530 H     1 <1>   0.0800 
 51 H       10.8440     3.8720     0.0160 H     1 <1>   0.0800 
@<TRIPOS>BOND
  1   1   2  2   
  2   2   3  am  
  3   2   4  1   
  4   3   5  1   
  5   3   6  1   
  6   4   7  1   
  7   4   8  2   
  8   5   9  2   
  9   5  10  1   
 10   6  26  1   
 11   6  27  1   
 12   6  28  1   
 13   7  11  2   
 14   7  12  am  
 15   8   9  1   
 16   8  29  1   
 17   9  13  1   
 18  10  30  1   
 19  10  31  1   
 20  10  32  1   
 21  12  14  1   
 22  12  33  1   
 23  13  34  1   
 24  13  35  1   
 25  13  36  1   
 26  14  15  1   
 27  14  16  2   
 28  15  17  1   
 29  15  18  1   
 30  16  19  1   
 31  16  37  1   
 32  17  19  2   
 33  18  20  1   
 34  18  21  1   
 35  18  38  1   
 36  19  39  1   
 37  20  22  1   
 38  20  40  1   
 39  20  41  1   
 40  21  23  1   
 41  21  42  1   
 42  21  43  1   
 43  22  24  1   
 44  22  44  1   
 45  22  45  1   
 46  23  24  1   
 47  23  46  1   
 48  23  47  1   
 49  24  25  1   
 50  24  48  1   
 51  25  49  1   
 52  25  50  1   
 53  25  51  1   
@<TRIPOS>SUBSTRUCTURE
  1 ****   7 GROUP 4 **** **** 0

# MOE 2024.06 (io_trps.svl 2023.06)
