@<TRIPOS>MOLECULE
NONAME
50 52 1 0 0 
SMALL
USER_CHARGES


@<TRIPOS>ATOM
  1 O       -0.5320     0.4520    -1.2680 O.2   1 <1>  -0.5700 
  2 C       -0.3860     1.5880    -0.8820 C.2   1 <1>   0.5690 
  3 N       -1.4490     2.3950    -0.5670 N.am  1 <1>  -0.6600 
  4 C        1.0440     2.1310    -0.7810 C.3   1 <1>   0.1810 
  5 C       -1.2350     3.7950    -0.0750 C.3   1 <1>   0.3640 
  6 C       -2.8510     1.8850    -0.5290 C.3   1 <1>   0.0600 
  7 O        1.1550     3.2870     0.0150 O.3   1 <1>  -0.5600 
  8 C       -2.2060     4.7610    -0.7740 C.ar  1 <1>  -0.1430 
  9 C        0.2110     4.2900    -0.2990 C.3   1 <1>   0.2610 
 10 C       -3.0400     5.6280    -0.0670 C.ar  1 <1>  -0.1430 
 11 C       -2.2370     4.7800    -2.1640 C.ar  1 <1>  -0.1500 
 12 C        0.4290     5.5660     0.5190 C.2   1 <1>   0.5690 
 13 C       -3.8650     6.5000    -0.7620 C.ar  1 <1>  -0.1500 
 14 C       -3.0890     5.6620     1.4560 C.3   1 <1>  -0.0960 
 15 C       -3.0640     5.6510    -2.8470 C.ar  1 <1>  -0.1500 
 16 O        0.4050     5.5170     1.7280 O.2   1 <1>  -0.5700 
 17 N        0.5860     6.7490    -0.1390 N.am  1 <1>  -0.7300 
 18 C       -3.8780     6.5160    -2.1440 C.ar  1 <1>  -0.1500 
 19 C        0.6460     8.0700     0.5030 C.3   1 <1>   0.2200 
 20 C       -0.6580     8.8160     0.2030 C.3   1 <1>  -0.1600 
 21 C        1.8610     8.8300    -0.0380 C.3   1 <1>  -0.1600 
 22 C       -0.6170    10.2490     0.7520 C.3   1 <1>  -0.1600 
 23 C        1.9070    10.2630     0.5120 C.3   1 <1>  -0.1600 
 24 C        0.6010    11.0140     0.2150 C.3   1 <1>  -0.1600 
 25 H        1.4080     2.3610    -1.7650 H     1 <1>   0.0800 
 26 H        1.6760     1.3780    -0.3470 H     1 <1>   0.0800 
 27 H       -1.4140     3.7880     0.9840 H     1 <1>   0.0800 
 28 H       -3.2910     2.0960     0.4300 H     1 <1>   0.0800 
 29 H       -2.8750     0.8210    -0.6910 H     1 <1>   0.0800 
 30 H       -3.4360     2.3610    -1.2970 H     1 <1>   0.0800 
 31 H        0.3460     4.5330    -1.3350 H     1 <1>   0.0800 
 32 H       -1.6170     4.1060    -2.7290 H     1 <1>   0.1500 
 33 H       -4.5100     7.1780    -0.2300 H     1 <1>   0.1500 
 34 H       -3.8500     6.3360     1.8030 H     1 <1>   0.0800 
 35 H       -2.1480     5.9930     1.8560 H     1 <1>   0.0800 
 36 H       -3.3130     4.6850     1.8450 H     1 <1>   0.0800 
 37 H       -3.0780     5.6540    -3.9240 H     1 <1>   0.1500 
 38 H        0.5340     6.7830    -1.1570 H     1 <1>   0.3700 
 39 H       -4.5250     7.1980    -2.6690 H     1 <1>   0.1500 
 40 H        0.7500     7.9540     1.5700 H     1 <1>   0.0800 
 41 H       -0.8180     8.8520    -0.8610 H     1 <1>   0.0800 
 42 H       -1.4800     8.2870     0.6510 H     1 <1>   0.0800 
 43 H        2.7600     8.3110     0.2470 H     1 <1>   0.0800 
 44 H        1.8140     8.8700    -1.1120 H     1 <1>   0.0800 
 45 H       -1.5190    10.7670     0.4760 H     1 <1>   0.0800 
 46 H       -0.5710    10.2160     1.8270 H     1 <1>   0.0800 
 47 H        2.0640    10.2300     1.5770 H     1 <1>   0.0800 
 48 H        2.7360    10.7930     0.0740 H     1 <1>   0.0800 
 49 H        0.6380    11.9920     0.6640 H     1 <1>   0.0800 
 50 H        0.4990    11.1440    -0.8490 H     1 <1>   0.0800 
@<TRIPOS>BOND
  1   1   2  2   
  2   2   3  am  
  3   2   4  1   
  4   3   5  1   
  5   3   6  1   
  6   4   7  1   
  7   4  25  1   
  8   4  26  1   
  9   5   8  1   
 10   5   9  1   
 11   5  27  1   
 12   6  28  1   
 13   6  29  1   
 14   6  30  1   
 15   7   9  1   
 16   8  10  ar  
 17   8  11  ar  
 18   9  12  1   
 19   9  31  1   
 20  10  13  ar  
 21  10  14  1   
 22  11  15  ar  
 23  11  32  1   
 24  12  16  2   
 25  12  17  am  
 26  13  18  ar  
 27  13  33  1   
 28  14  34  1   
 29  14  35  1   
 30  14  36  1   
 31  15  18  ar  
 32  15  37  1   
 33  17  19  1   
 34  17  38  1   
 35  18  39  1   
 36  19  20  1   
 37  19  21  1   
 38  19  40  1   
 39  20  22  1   
 40  20  41  1   
 41  20  42  1   
 42  21  23  1   
 43  21  43  1   
 44  21  44  1   
 45  22  24  1   
 46  22  45  1   
 47  22  46  1   
 48  23  24  1   
 49  23  47  1   
 50  23  48  1   
 51  24  49  1   
 52  24  50  1   
@<TRIPOS>SUBSTRUCTURE
  1 ****  12 GROUP 4 **** **** 0

# MOE 2024.06 (io_trps.svl 2023.06)
