@<TRIPOS>MOLECULE
NONAME
55 58 1 0 0 
SMALL
USER_CHARGES


@<TRIPOS>ATOM
  1 F        1.2400     0.7650    -0.6360 F     1 <1>  -0.1900 
  2 C        2.2650     1.4100    -0.1480 C.ar  1 <1>   0.1900 
  3 C        3.3080     0.7000     0.4240 C.ar  1 <1>   0.1600 
  4 C        2.2880     2.7820    -0.2180 C.ar  1 <1>  -0.1500 
  5 N        4.3840     1.2790     0.9430 N.ar  1 <1>  -0.6200 
  6 C        3.4070     3.4100     0.3110 C.ar  1 <1>   0.0860 
  7 C        4.3940     2.6050     0.8830 C.ar  1 <1>   0.1600 
  8 C        3.5650     4.8440     0.2800 C.2   1 <1>   0.5440 
  9 O        2.8040     5.5320     0.9290 O.2   1 <1>  -0.5700 
 10 N        4.5610     5.4460    -0.4590 N.am  1 <1>  -0.6600 
 11 C        5.4410     4.7330    -1.4440 C.3   1 <1>   0.1400 
 12 C        4.7650     6.9210    -0.4230 C.3   1 <1>   0.1400 
 13 C        6.8940     4.6120    -0.9570 C.3   1 <1>   0.1400 
 14 C        5.7610     7.3110     0.6770 C.3   1 <1>  -0.1600 
 15 N        7.4630     5.9310    -0.5400 N.am  1 <1>  -0.6600 
 16 C        7.0070     6.4220     0.7900 C.3   1 <1>   0.1400 
 17 C        8.2650     6.6690    -1.3820 C.2   1 <1>   0.7160 
 18 O        8.4200     6.2930    -2.5290 O.2   1 <1>  -0.5700 
 19 C        8.8870     7.8870    -0.9330 C.2   1 <1>  -0.0860 
 20 C       10.0610     8.1410    -0.2810 C.2   1 <1>  -0.3320 
 21 C        8.3250     9.1540    -1.0990 C.2   1 <1>   0.1390 
 22 N       10.1230     9.4700    -0.0900 N.pl3 1 <1>   0.3000 
 23 C       11.1660     7.1950     0.1700 C.3   1 <1>   0.1000 
 24 N        9.0450    10.1000    -0.5870 N.2   1 <1>  -0.7070 
 25 C       11.7000     6.3690    -1.0100 C.3   1 <1>  -0.1600 
 26 C       10.6790     6.2760     1.2990 C.3   1 <1>  -0.1600 
 27 C       12.8120     5.4090    -0.5610 C.3   1 <1>  -0.1600 
 28 C       11.7890     5.3190     1.7580 C.3   1 <1>  -0.1600 
 29 C       12.3320     4.5000     0.5790 C.3   1 <1>  -0.1600 
 30 H        3.2490    -0.3740     0.4540 H     1 <1>   0.1500 
 31 H        1.4810     3.3420    -0.6570 H     1 <1>   0.1500 
 32 H        5.2450     3.1000     1.3180 H     1 <1>   0.1500 
 33 H        5.4350     5.2710    -2.3760 H     1 <1>   0.0800 
 34 H        5.0570     3.7500    -1.6490 H     1 <1>   0.0800 
 35 H        3.8260     7.4210    -0.2530 H     1 <1>   0.0800 
 36 H        5.1380     7.2530    -1.3770 H     1 <1>   0.0800 
 37 H        7.4910     4.1920    -1.7490 H     1 <1>   0.0800 
 38 H        6.9430     3.9260    -0.1310 H     1 <1>   0.0800 
 39 H        5.2470     7.2990     1.6220 H     1 <1>   0.0800 
 40 H        6.0680     8.3270     0.5110 H     1 <1>   0.0800 
 41 H        6.7750     5.5750     1.4130 H     1 <1>   0.0800 
 42 H        7.7960     6.9700     1.2770 H     1 <1>   0.0800 
 43 H        7.3870     9.3280    -1.5980 H     1 <1>   0.1500 
 44 H       10.8880     9.9840     0.3660 H     1 <1>   0.2700 
 45 H       11.9840     7.7820     0.5510 H     1 <1>   0.0800 
 46 H       12.0770     7.0300    -1.7700 H     1 <1>   0.0800 
 47 H       10.9010     5.7940    -1.4430 H     1 <1>   0.0800 
 48 H        9.8460     5.6930     0.9500 H     1 <1>   0.0800 
 49 H       10.3460     6.8710     2.1310 H     1 <1>   0.0800 
 50 H       13.6650     5.9770    -0.2310 H     1 <1>   0.0800 
 51 H       13.1230     4.8050    -1.3960 H     1 <1>   0.0800 
 52 H       11.4020     4.6530     2.5100 H     1 <1>   0.0800 
 53 H       12.5910     5.8850     2.2000 H     1 <1>   0.0800 
 54 H       13.1470     3.8810     0.9140 H     1 <1>   0.0800 
 55 H       11.5560     3.8510     0.2100 H     1 <1>   0.0800 
@<TRIPOS>BOND
  1   1   2  1   
  2   2   3  ar  
  3   2   4  ar  
  4   3   5  ar  
  5   3  30  1   
  6   4   6  ar  
  7   4  31  1   
  8   5   7  ar  
  9   6   7  ar  
 10   6   8  1   
 11   7  32  1   
 12   8   9  2   
 13   8  10  am  
 14  10  11  1   
 15  10  12  1   
 16  11  13  1   
 17  11  33  1   
 18  11  34  1   
 19  12  14  1   
 20  12  35  1   
 21  12  36  1   
 22  13  15  1   
 23  13  37  1   
 24  13  38  1   
 25  14  16  1   
 26  14  39  1   
 27  14  40  1   
 28  15  16  1   
 29  15  17  am  
 30  16  41  1   
 31  16  42  1   
 32  17  18  2   
 33  17  19  1   
 34  19  20  2   
 35  19  21  1   
 36  20  22  1   
 37  20  23  1   
 38  21  24  2   
 39  21  43  1   
 40  22  24  1   
 41  22  44  1   
 42  23  25  1   
 43  23  26  1   
 44  23  45  1   
 45  25  27  1   
 46  25  46  1   
 47  25  47  1   
 48  26  28  1   
 49  26  48  1   
 50  26  49  1   
 51  27  29  1   
 52  27  50  1   
 53  27  51  1   
 54  28  29  1   
 55  28  52  1   
 56  28  53  1   
 57  29  54  1   
 58  29  55  1   
@<TRIPOS>SUBSTRUCTURE
  1 ****  15 GROUP 4 **** **** 0

# MOE 2024.06 (io_trps.svl 2023.06)
