@<TRIPOS>MOLECULE
NONAME
53 56 1 0 0 
SMALL
USER_CHARGES


@<TRIPOS>ATOM
  1 O        2.7890     4.0980    -0.3190 O.co2 1 <1>  -0.9000 
  2 C        2.9100     3.1390     0.4600 C.2   1 <1>   0.9060 
  3 O        3.3710     3.3560     1.5850 O.co2 1 <1>  -0.9000 
  4 C        2.6820     1.6890    -0.0090 C.3   1 <1>  -0.1060 
  5 C        3.8870     0.8570     0.4830 C.3   1 <1>   0.2000 
  6 C        2.6610     1.5840    -1.5580 C.3   1 <1>  -0.1600 
  7 C        1.3750     1.1450     0.6210 C.3   1 <1>  -0.0160 
  8 O        3.8050    -0.4530     0.0250 O.3   1 <1>  -0.6800 
  9 C        5.2010     1.4310    -0.0630 C.3   1 <1>   0.1100 
 10 C        3.9600     2.0820    -2.2060 C.3   1 <1>   0.1100 
 11 C        0.0970     1.7330     0.0280 C.ar  1 <1>  -0.1430 
 12 N        5.2180     1.6260    -1.5510 N.3   1 <1>  -0.8100 
 13 C       -0.6740     0.9850    -0.8490 C.ar  1 <1>  -0.1500 
 14 C       -0.3090     3.0170     0.3580 C.ar  1 <1>  -0.1500 
 15 C        6.3500     2.4930    -1.9720 C.3   1 <1>   0.2780 
 16 C       -1.8320     1.5140    -1.3920 C.ar  1 <1>  -0.1500 
 17 C       -1.4660     3.5480    -0.1840 C.ar  1 <1>  -0.1500 
 18 C        6.4670     3.8190    -1.1950 C.2   1 <1>   0.1820 
 19 C       -2.2300     2.7970    -1.0600 C.ar  1 <1>  -0.1500 
 20 N        5.3980     4.5610    -0.7710 N.pl3 1 <1>  -0.7000 
 21 C        7.5700     4.4470    -0.7360 C.2   1 <1>   0.2000 
 22 C        5.8210     5.5540     0.0010 C.cat 1 <1>   0.7910 
 23 N        7.1770     5.5530    -0.0030 N.pl3 1 <1>  -0.6290 
 24 C        5.0980     6.4870     0.7550 C.2   1 <1>  -0.1410 
 25 C        7.8630     6.5070     0.7150 C.2   1 <1>   0.2290 
 26 C        5.7720     7.4370     1.4730 C.2   1 <1>  -0.1500 
 27 C        7.1850     7.4470     1.4450 C.2   1 <1>  -0.1380 
 28 C        7.9070     8.5150     2.2500 C.3   1 <1>  -0.1020 
 29 H        3.9130     0.8300     1.5590 H     1 <1>   0.0800 
 30 H        1.8550     2.1830    -1.9450 H     1 <1>   0.0800 
 31 H        2.4690     0.5740    -1.8710 H     1 <1>   0.0800 
 32 H        1.3390     0.0770     0.5100 H     1 <1>   0.0800 
 33 H        1.3890     1.3440     1.6790 H     1 <1>   0.0800 
 34 H        4.0250    -0.4180    -0.9290 H     1 <1>   0.4000 
 35 H        6.0030     0.7710     0.2160 H     1 <1>   0.0800 
 36 H        5.3740     2.3530     0.4570 H     1 <1>   0.0800 
 37 H        3.9220     3.1550    -2.2360 H     1 <1>   0.0800 
 38 H        3.9720     1.7560    -3.2320 H     1 <1>   0.0800 
 39 H       -0.3700    -0.0120    -1.1150 H     1 <1>   0.1500 
 40 H        0.2830     3.6130     1.0320 H     1 <1>   0.1500 
 41 H        7.2630     1.9390    -1.8430 H     1 <1>   0.0800 
 42 H        6.2540     2.7090    -3.0220 H     1 <1>   0.0800 
 43 H       -2.4220     0.9270    -2.0730 H     1 <1>   0.1500 
 44 H       -1.7640     4.5480     0.0760 H     1 <1>   0.1500 
 45 H       -3.1270     3.2110    -1.4820 H     1 <1>   0.1500 
 46 H        4.3780     4.3200    -0.7790 H     1 <1>   0.4500 
 47 H        8.6030     4.1700    -0.8560 H     1 <1>   0.1500 
 48 H        4.0250     6.4050     0.7490 H     1 <1>   0.1500 
 49 H        8.9400     6.4800     0.6820 H     1 <1>   0.1500 
 50 H        5.2410     8.1660     2.0620 H     1 <1>   0.1500 
 51 H        7.6160     9.4930     1.9090 H     1 <1>   0.0800 
 52 H        8.9740     8.4230     2.1510 H     1 <1>   0.0800 
 53 H        7.6520     8.4240     3.2920 H     1 <1>   0.0800 
@<TRIPOS>BOND
  1   1   2  ar  
  2   2   3  ar  
  3   2   4  1   
  4   4   5  1   
  5   4   6  1   
  6   4   7  1   
  7   5   8  1   
  8   5   9  1   
  9   5  29  1   
 10   6  10  1   
 11   6  30  1   
 12   6  31  1   
 13   7  11  1   
 14   7  32  1   
 15   7  33  1   
 16   8  34  1   
 17   9  12  1   
 18   9  35  1   
 19   9  36  1   
 20  10  12  1   
 21  10  37  1   
 22  10  38  1   
 23  11  13  ar  
 24  11  14  ar  
 25  12  15  1   
 26  13  16  ar  
 27  13  39  1   
 28  14  17  ar  
 29  14  40  1   
 30  15  18  1   
 31  15  41  1   
 32  15  42  1   
 33  16  19  ar  
 34  16  43  1   
 35  17  19  ar  
 36  17  44  1   
 37  18  20  1   
 38  18  21  2   
 39  19  45  1   
 40  20  22  ar  
 41  20  46  1   
 42  21  23  1   
 43  21  47  1   
 44  22  23  ar  
 45  22  24  1   
 46  23  25  1   
 47  24  26  2   
 48  24  48  1   
 49  25  27  2   
 50  25  49  1   
 51  26  27  1   
 52  26  50  1   
 53  27  28  1   
 54  28  51  1   
 55  28  52  1   
 56  28  53  1   
@<TRIPOS>SUBSTRUCTURE
  1 ****   2 GROUP 4 **** **** 0

# MOE 2024.06 (io_trps.svl 2023.06)
