@<TRIPOS>MOLECULE
NONAME
41 44 1 0 0 
SMALL
USER_CHARGES


@<TRIPOS>ATOM
  1 S       -0.3590     0.7920     2.0870 S.3   1 <1>  -0.0800 
  2 C       -0.1400     1.8560     0.7140 C.2   1 <1>  -0.1400 
  3 C        1.0750     1.4580     2.8560 C.2   1 <1>  -0.1100 
  4 C        0.9430     2.6320     0.8500 C.2   1 <1>  -0.1810 
  5 C       -1.0820     1.8700    -0.4590 C.3   1 <1>   0.0200 
  6 C        1.6400     2.4070     2.0840 C.2   1 <1>  -0.1500 
  7 C        1.3370     3.6290    -0.2410 C.3   1 <1>   0.4610 
  8 C       -0.8500     3.1900    -1.2100 C.3   1 <1>   0.1200 
  9 O        0.5250     3.4450    -1.3870 O.3   1 <1>  -0.5600 
 10 C        1.1800     5.0770     0.2480 C.3   1 <1>  -0.1600 
 11 C        2.7770     3.3750    -0.7020 C.3   1 <1>  -0.1600 
 12 C        1.6450     6.0780    -0.8110 C.3   1 <1>   0.1400 
 13 C        3.2320     4.4060    -1.7370 C.3   1 <1>   0.1400 
 14 N        3.0600     5.7760    -1.1700 N.am  1 <1>  -0.6600 
 15 C        4.1330     6.6310    -1.0380 C.2   1 <1>   0.5690 
 16 O        5.2410     6.3040    -1.4000 O.2   1 <1>  -0.5700 
 17 C        3.9640     8.0290    -0.4140 C.3   1 <1>   0.2810 
 18 N        5.1580     8.9140    -0.5350 N.am  1 <1>  -0.7300 
 19 C        3.7550     7.9470     1.1110 C.3   1 <1>   0.1400 
 20 C        5.6020     9.2720     0.6750 C.2   1 <1>   0.6900 
 21 N        4.7710     8.8740     1.6460 N.am  1 <1>  -0.7300 
 22 O        6.6790     9.7820     0.8830 O.2   1 <1>  -0.5700 
 23 H        1.3460     1.0600     3.8180 H     1 <1>   0.1500 
 24 H       -2.1020     1.8140    -0.1240 H     1 <1>   0.0800 
 25 H       -0.8810     1.0320    -1.1020 H     1 <1>   0.0800 
 26 H        2.5270     2.9600     2.3370 H     1 <1>   0.1500 
 27 H       -1.2830     4.0100    -0.6660 H     1 <1>   0.0800 
 28 H       -1.3040     3.1470    -2.1850 H     1 <1>   0.0800 
 29 H        1.7680     5.2130     1.1370 H     1 <1>   0.0800 
 30 H        0.1570     5.2650     0.5140 H     1 <1>   0.0800 
 31 H        2.8450     2.3860    -1.1170 H     1 <1>   0.0800 
 32 H        3.4450     3.4210     0.1370 H     1 <1>   0.0800 
 33 H        1.5330     7.0790    -0.4390 H     1 <1>   0.0800 
 34 H        1.0330     5.9840    -1.6940 H     1 <1>   0.0800 
 35 H        2.6400     4.3150    -2.6330 H     1 <1>   0.0800 
 36 H        4.2590     4.2210    -2.0010 H     1 <1>   0.0800 
 37 H        3.1300     8.5230    -0.8780 H     1 <1>   0.0800 
 38 H        5.8750     8.6140    -1.1990 H     1 <1>   0.3700 
 39 H        3.9350     6.9500     1.4750 H     1 <1>   0.0800 
 40 H        2.7650     8.2670     1.3870 H     1 <1>   0.0800 
 41 H        5.1510     8.7840     2.5880 H     1 <1>   0.3700 
@<TRIPOS>BOND
  1   1   2  1   
  2   1   3  1   
  3   2   4  2   
  4   2   5  1   
  5   3   6  2   
  6   3  23  1   
  7   4   6  1   
  8   4   7  1   
  9   5   8  1   
 10   5  24  1   
 11   5  25  1   
 12   6  26  1   
 13   7   9  1   
 14   7  10  1   
 15   7  11  1   
 16   8   9  1   
 17   8  27  1   
 18   8  28  1   
 19  10  12  1   
 20  10  29  1   
 21  10  30  1   
 22  11  13  1   
 23  11  31  1   
 24  11  32  1   
 25  12  14  1   
 26  12  33  1   
 27  12  34  1   
 28  13  14  1   
 29  13  35  1   
 30  13  36  1   
 31  14  15  am  
 32  15  16  2   
 33  15  17  1   
 34  17  18  1   
 35  17  19  1   
 36  17  37  1   
 37  18  20  am  
 38  18  38  1   
 39  19  21  1   
 40  19  39  1   
 41  19  40  1   
 42  20  21  am  
 43  20  22  2   
 44  21  41  1   
@<TRIPOS>SUBSTRUCTURE
  1 ****  10 GROUP 4 **** **** 0

# MOE 2024.06 (io_trps.svl 2023.06)
