@<TRIPOS>MOLECULE
NONAME
51 53 1 0 0 
SMALL
USER_CHARGES


@<TRIPOS>ATOM
  1 O        1.2250    -0.2910    -2.3600 O.2   1 <1>  -0.5700 
  2 C        1.7740    -0.8890    -1.4610 C.2   1 <1>   0.9370 
  3 N        2.6290    -0.1900    -0.5960 N.pl3 1 <1>  -0.5760 
  4 C        1.5730    -2.2720    -1.2660 C.2   1 <1>  -0.1360 
  5 C        3.2470    -0.8530     0.4170 C.cat 1 <1>   0.7390 
  6 C        2.8500     1.1570    -0.7600 C.2   1 <1>   0.1910 
  7 C        2.1870    -2.9190    -0.2560 C.2   1 <1>   0.2030 
  8 N        3.0170    -2.1810     0.5640 N.pl3 1 <1>  -0.6450 
  9 C        4.1110    -0.1600     1.2940 C.2   1 <1>  -0.1680 
 10 C        3.6800     1.8460     0.0760 C.2   1 <1>  -0.1500 
 11 C        2.0310    -4.4170     0.0290 C.3   1 <1>   0.2480 
 12 C        4.3250     1.1840     1.1230 C.2   1 <1>  -0.1500 
 13 C        4.8220    -0.8760     2.4430 C.3   1 <1>  -0.1020 
 14 N        0.8830    -4.9780    -0.7020 N.3   1 <1>  -0.8100 
 15 C        1.0550    -6.3790    -1.1700 C.3   1 <1>   0.1100 
 16 C       -0.4270    -4.8120    -0.0500 C.3   1 <1>   0.1100 
 17 C        0.5870    -7.4850    -0.1730 C.3   1 <1>  -0.1060 
 18 C       -0.5420    -5.6430     1.2350 C.3   1 <1>  -0.1600 
 19 C       -0.7290    -8.0880    -0.7100 C.2   1 <1>   0.9060 
 20 C        0.3780    -6.8710     1.2360 C.3   1 <1>   0.2000 
 21 C        1.6380    -8.6370    -0.1350 C.3   1 <1>  -0.1600 
 22 O       -1.6820    -8.2980     0.0570 O.co2 1 <1>  -0.9000 
 23 O       -0.8020    -8.3980    -1.9050 O.co2 1 <1>  -0.9000 
 24 O       -0.1540    -7.8000     2.1030 O.3   1 <1>  -0.6800 
 25 C        3.0070    -8.2980     0.4850 C.3   1 <1>  -0.1600 
 26 C        3.9840    -9.4640     0.3110 C.3   1 <1>  -0.2400 
 27 H        0.9150    -2.7620    -1.9600 H     1 <1>   0.1500 
 28 H        2.3530     1.6730    -1.5700 H     1 <1>   0.1500 
 29 H        3.4940    -2.6460     1.3400 H     1 <1>   0.4500 
 30 H        3.8470     2.9020    -0.0610 H     1 <1>   0.1500 
 31 H        1.9100    -4.5740     1.0850 H     1 <1>   0.0800 
 32 H        2.9330    -4.9140    -0.2810 H     1 <1>   0.0800 
 33 H        4.9770     1.7490     1.7720 H     1 <1>   0.1500 
 34 H        5.4580    -1.6580     2.0670 H     1 <1>   0.0800 
 35 H        4.1070    -1.2960     3.1290 H     1 <1>   0.0800 
 36 H        5.4400    -0.1900     2.9970 H     1 <1>   0.0800 
 37 H        0.5000    -6.4720    -2.0880 H     1 <1>   0.0800 
 38 H        2.0790    -6.5370    -1.4510 H     1 <1>   0.0800 
 39 H       -0.6190    -3.7750     0.1600 H     1 <1>   0.0800 
 40 H       -1.1870    -5.1480    -0.7390 H     1 <1>   0.0800 
 41 H       -1.5690    -5.9550     1.3280 H     1 <1>   0.0800 
 42 H       -0.3120    -5.0310     2.0870 H     1 <1>   0.0800 
 43 H        1.3260    -6.5810     1.6450 H     1 <1>   0.0800 
 44 H        1.2130    -9.4600     0.4160 H     1 <1>   0.0800 
 45 H        1.7810    -8.9880    -1.1440 H     1 <1>   0.0800 
 46 H       -0.9210    -8.2030     1.5970 H     1 <1>   0.4000 
 47 H        3.4280    -7.4230     0.0270 H     1 <1>   0.0800 
 48 H        2.8900    -8.1090     1.5380 H     1 <1>   0.0800 
 49 H        4.1400    -9.6700    -0.7340 H     1 <1>   0.0800 
 50 H        3.5920   -10.3480     0.7820 H     1 <1>   0.0800 
 51 H        4.9310    -9.2260     0.7610 H     1 <1>   0.0800 
@<TRIPOS>BOND
  1   1   2  2   
  2   2   3  1   
  3   2   4  1   
  4   3   5  ar  
  5   3   6  1   
  6   4   7  2   
  7   4  27  1   
  8   5   8  ar  
  9   5   9  1   
 10   6  10  2   
 11   6  28  1   
 12   7   8  1   
 13   7  11  1   
 14   8  29  1   
 15   9  12  2   
 16   9  13  1   
 17  10  12  1   
 18  10  30  1   
 19  11  14  1   
 20  11  31  1   
 21  11  32  1   
 22  12  33  1   
 23  13  34  1   
 24  13  35  1   
 25  13  36  1   
 26  14  15  1   
 27  14  16  1   
 28  15  17  1   
 29  15  37  1   
 30  15  38  1   
 31  16  18  1   
 32  16  39  1   
 33  16  40  1   
 34  17  19  1   
 35  17  20  1   
 36  17  21  1   
 37  18  20  1   
 38  18  41  1   
 39  18  42  1   
 40  19  22  ar  
 41  19  23  ar  
 42  20  24  1   
 43  20  43  1   
 44  21  25  1   
 45  21  44  1   
 46  21  45  1   
 47  24  46  1   
 48  25  26  1   
 49  25  47  1   
 50  25  48  1   
 51  26  49  1   
 52  26  50  1   
 53  26  51  1   
@<TRIPOS>SUBSTRUCTURE
  1 ****  11 GROUP 4 **** **** 0

# MOE 2024.06 (io_trps.svl 2023.06)
