@<TRIPOS>MOLECULE
NONAME
42 44 1 0 0 
SMALL
USER_CHARGES


@<TRIPOS>ATOM
  1 O       -0.3960     0.2810     0.8460 O.2   1 <1>  -0.5700 
  2 C       -1.4280     0.9200     0.7380 C.2   1 <1>   0.7160 
  3 N       -2.5750     0.2060     0.4410 N.am  1 <1>  -0.6600 
  4 C       -1.4020     2.3730     0.9120 C.2   1 <1>   0.1410 
  5 C       -3.9030     0.7740     0.1030 C.3   1 <1>   0.1400 
  6 C       -2.5910    -1.2720     0.3110 C.3   1 <1>   0.1400 
  7 N       -2.5000     3.1490     1.1930 N.2   1 <1>  -0.5650 
  8 C       -0.3360     3.2130     0.8440 C.2   1 <1>  -0.0400 
  9 C       -4.6990    -0.3990    -0.4670 C.3   1 <1>   0.2000 
 10 C       -4.0630    -1.6470     0.1380 C.3   1 <1>  -0.0800 
 11 C       -2.0310     4.3360     1.2730 C.2   1 <1>   0.3280 
 12 O       -0.7430     4.4270     1.0710 O.3   1 <1>  -0.2800 
 13 C        1.1460     2.9990     0.5700 C.3   1 <1>   0.0200 
 14 O       -6.0390    -0.3280    -0.1230 O.3   1 <1>  -0.6800 
 15 C       -4.2820    -2.9100    -0.7080 C.3   1 <1>   0.0210 
 16 C        1.5640     3.6640    -0.7450 C.3   1 <1>  -0.2400 
 17 C       -3.5220    -4.0910    -0.1360 C.2   1 <1>   0.1080 
 18 N       -3.7340    -4.5530     1.0570 N.2   1 <1>  -0.7070 
 19 C       -2.5230    -4.7930    -0.8010 C.2   1 <1>  -0.1500 
 20 N       -2.8680    -5.5750     1.1850 N.pl3 1 <1>   0.3000 
 21 C       -2.1210    -5.7390     0.0720 C.2   1 <1>  -0.3320 
 22 C       -1.0550    -6.8070    -0.0890 C.3   1 <1>  -0.0600 
 23 H       -4.3640     1.1500     1.0000 H     1 <1>   0.0800 
 24 H       -3.8060     1.5620    -0.6240 H     1 <1>   0.0800 
 25 H       -2.0140    -1.5540    -0.5540 H     1 <1>   0.0800 
 26 H       -2.1690    -1.7410     1.1850 H     1 <1>   0.0800 
 27 H       -4.6230    -0.3990    -1.5410 H     1 <1>   0.0800 
 28 H       -4.4610    -1.8140     1.1250 H     1 <1>   0.0800 
 29 H       -2.5840     5.2360     1.4830 H     1 <1>   0.1500 
 30 H        1.7130     3.4180     1.3820 H     1 <1>   0.0800 
 31 H        1.3770     1.9510     0.5190 H     1 <1>   0.0800 
 32 H       -6.1430    -0.4240     0.8440 H     1 <1>   0.4000 
 33 H       -3.9600    -2.7380    -1.7190 H     1 <1>   0.0800 
 34 H       -5.3300    -3.1510    -0.7270 H     1 <1>   0.0800 
 35 H        1.3790     4.7230    -0.7010 H     1 <1>   0.0800 
 36 H        1.0040     3.2480    -1.5630 H     1 <1>   0.0800 
 37 H        2.6110     3.5030    -0.9240 H     1 <1>   0.0800 
 38 H       -2.1660    -4.6000    -1.7970 H     1 <1>   0.1500 
 39 H       -2.8110    -6.1400     2.0410 H     1 <1>   0.2700 
 40 H       -0.6020    -6.7320    -1.0620 H     1 <1>   0.0800 
 41 H       -1.4890    -7.7850     0.0120 H     1 <1>   0.0800 
 42 H       -0.2880    -6.6830     0.6550 H     1 <1>   0.0800 
@<TRIPOS>BOND
  1   1   2  2   
  2   2   3  am  
  3   2   4  1   
  4   3   5  1   
  5   3   6  1   
  6   4   7  1   
  7   4   8  2   
  8   5   9  1   
  9   5  23  1   
 10   5  24  1   
 11   6  10  1   
 12   6  25  1   
 13   6  26  1   
 14   7  11  2   
 15   8  12  1   
 16   8  13  1   
 17   9  10  1   
 18   9  14  1   
 19   9  27  1   
 20  10  15  1   
 21  10  28  1   
 22  11  12  1   
 23  11  29  1   
 24  13  16  1   
 25  13  30  1   
 26  13  31  1   
 27  14  32  1   
 28  15  17  1   
 29  15  33  1   
 30  15  34  1   
 31  16  35  1   
 32  16  36  1   
 33  16  37  1   
 34  17  18  2   
 35  17  19  1   
 36  18  20  1   
 37  19  21  2   
 38  19  38  1   
 39  20  21  1   
 40  20  39  1   
 41  21  22  1   
 42  22  40  1   
 43  22  41  1   
 44  22  42  1   
@<TRIPOS>SUBSTRUCTURE
  1 ****   6 GROUP 4 **** **** 0

# MOE 2024.06 (io_trps.svl 2023.06)
