@<TRIPOS>MOLECULE
NONAME
40 42 1 0 0 
SMALL
USER_CHARGES


@<TRIPOS>ATOM
  1 F        0.3770     0.2810     1.7110 F     1 <1>  -0.1900 
  2 C        1.3040     0.7750     0.9340 C.ar  1 <1>   0.1900 
  3 C        2.1610    -0.1000     0.2900 C.ar  1 <1>  -0.1440 
  4 C        1.3820     2.1480     0.7780 C.ar  1 <1>  -0.1500 
  5 C        3.1140     0.4630    -0.5380 C.ar  1 <1>   0.1900 
  6 C        2.0590    -1.5940     0.4930 C.3   1 <1>   0.4860 
  7 C        2.3540     2.6780    -0.0580 C.ar  1 <1>  -0.1500 
  8 F        3.9300    -0.3290    -1.1790 F     1 <1>  -0.1900 
  9 C        3.2290     1.8310    -0.7240 C.ar  1 <1>  -0.1500 
 10 N        1.5180    -2.2430    -0.7370 N.4   1 <1>  -0.9590 
 11 C        0.1580    -1.7440    -1.1230 C.3   1 <1>   0.3430 
 12 C        1.3560    -3.7090    -0.5440 C.3   1 <1>   0.3430 
 13 C       -0.8570    -2.7350    -0.5350 C.3   1 <1>   0.2000 
 14 C       -0.0440    -3.8940     0.0490 C.3   1 <1>  -0.0800 
 15 O       -1.6140    -2.1460     0.4670 O.3   1 <1>  -0.6800 
 16 C       -0.6690    -5.2680    -0.2600 C.3   1 <1>  -0.0160 
 17 C        0.1350    -6.4170     0.3340 C.ar  1 <1>   0.1670 
 18 N        1.3530    -6.5970    -0.1540 N.ar  1 <1>  -0.6200 
 19 C       -0.4210    -7.2180     1.3310 C.ar  1 <1>   0.1600 
 20 C        1.9640    -7.6320     0.4040 C.ar  1 <1>   0.1600 
 21 N        0.1970    -8.2390     1.8990 N.ar  1 <1>  -0.6200 
 22 C        1.4050    -8.4250     1.3990 C.ar  1 <1>   0.1600 
 23 H        0.6950     2.7920     1.3010 H     1 <1>   0.1500 
 24 H        1.4190    -1.8040     1.3350 H     1 <1>   0.0800 
 25 H        3.0390    -1.9880     0.7120 H     1 <1>   0.0800 
 26 H        2.4300     3.7450    -0.1900 H     1 <1>   0.1500 
 27 H        3.9880     2.2260    -1.3770 H     1 <1>   0.1500 
 28 H        2.1920    -2.0520    -1.4940 H     1 <1>   0.4500 
 29 H       -0.0280    -0.7420    -0.7710 H     1 <1>   0.0800 
 30 H        0.0680    -1.7570    -2.1960 H     1 <1>   0.0800 
 31 H        1.4040    -4.2100    -1.4980 H     1 <1>   0.0800 
 32 H        2.1160    -4.1250     0.0990 H     1 <1>   0.0800 
 33 H       -1.5360    -3.0590    -1.3060 H     1 <1>   0.0800 
 34 H        0.0370    -3.7890     1.1170 H     1 <1>   0.0800 
 35 H       -1.0840    -1.8090     1.2170 H     1 <1>   0.4000 
 36 H       -0.7350    -5.4160    -1.3240 H     1 <1>   0.0800 
 37 H       -1.6720    -5.2910     0.1300 H     1 <1>   0.0800 
 38 H       -1.4190    -7.0110     1.6770 H     1 <1>   0.1500 
 39 H        2.9570    -7.8680     0.0610 H     1 <1>   0.1500 
 40 H        1.9800    -9.2440     1.7940 H     1 <1>   0.1500 
@<TRIPOS>BOND
  1   1   2  1   
  2   2   3  ar  
  3   2   4  ar  
  4   3   5  ar  
  5   3   6  1   
  6   4   7  ar  
  7   4  23  1   
  8   5   8  1   
  9   5   9  ar  
 10   6  10  1   
 11   6  24  1   
 12   6  25  1   
 13   7   9  ar  
 14   7  26  1   
 15   9  27  1   
 16  10  11  1   
 17  10  12  1   
 18  10  28  1   
 19  11  13  1   
 20  11  29  1   
 21  11  30  1   
 22  12  14  1   
 23  12  31  1   
 24  12  32  1   
 25  13  14  1   
 26  13  15  1   
 27  13  33  1   
 28  14  16  1   
 29  14  34  1   
 30  15  35  1   
 31  16  17  1   
 32  16  36  1   
 33  16  37  1   
 34  17  18  ar  
 35  17  19  ar  
 36  18  20  ar  
 37  19  21  ar  
 38  19  38  1   
 39  20  22  ar  
 40  20  39  1   
 41  21  22  ar  
 42  22  40  1   
@<TRIPOS>SUBSTRUCTURE
  1 ****  10 GROUP 4 **** **** 0

# MOE 2024.06 (io_trps.svl 2023.06)
