@<TRIPOS>MOLECULE
NONAME
40 41 1 0 0 
SMALL
USER_CHARGES


@<TRIPOS>ATOM
  1 S        0.1280    -0.3410     0.6050 S.3   1 <1>  -0.0800 
  2 C       -1.2620    -0.9940    -0.1990 C.2   1 <1>   0.4420 
  3 C       -0.1430     1.1330    -0.2640 C.2   1 <1>   0.1980 
  4 N       -1.8000    -0.1470    -0.9980 N.2   1 <1>  -0.3380 
  5 N       -1.6010    -2.2890     0.1100 N.am  1 <1>  -0.4940 
  6 N       -1.1570     1.0600    -1.0320 N.2   1 <1>  -0.3380 
  7 C        0.8400     2.2780     0.0020 C.3   1 <1>   0.3800 
  8 C       -2.6270    -3.0820    -0.3280 C.2   1 <1>   0.7160 
  9 O        0.2870     3.5370    -0.2570 O.3   1 <1>  -0.5600 
 10 C        2.0770     2.1610    -0.8850 C.3   1 <1>  -0.2400 
 11 O       -3.4470    -2.6650    -1.1230 O.2   1 <1>  -0.5700 
 12 C       -2.6820    -4.4290     0.2050 C.2   1 <1>   0.2030 
 13 C       -0.7590     3.9220     0.5820 C.3   1 <1>   0.0400 
 14 N       -1.8200    -4.9280     1.0770 N.2   1 <1>  -0.7070 
 15 C       -3.6480    -5.3870    -0.1250 C.2   1 <1>  -0.1500 
 16 N       -2.2340    -6.1870     1.2960 N.pl3 1 <1>   0.3000 
 17 C       -3.3350    -6.4910     0.5800 C.2   1 <1>  -0.3320 
 18 C       -4.0420    -7.8370     0.6210 C.3   1 <1>   0.0200 
 19 C       -3.3960    -8.8800    -0.3090 C.3   1 <1>  -0.0800 
 20 C       -4.2430   -10.1590    -0.3320 C.3   1 <1>  -0.2400 
 21 C       -1.9570    -9.2310     0.0980 C.3   1 <1>  -0.2400 
 22 H       -1.0080    -2.7840     0.7760 H     1 <1>   0.3700 
 23 H        1.1400     2.2610     1.0350 H     1 <1>   0.0800 
 24 H        1.7860     2.1920    -1.9200 H     1 <1>   0.0800 
 25 H        2.5810     1.2310    -0.6960 H     1 <1>   0.0800 
 26 H        2.7550     2.9690    -0.6790 H     1 <1>   0.0800 
 27 H       -1.0400     4.9270     0.3220 H     1 <1>   0.0800 
 28 H       -0.4300     3.8920     1.6060 H     1 <1>   0.0800 
 29 H       -1.6020     3.2690     0.4340 H     1 <1>   0.0800 
 30 H       -4.4600    -5.2260    -0.8130 H     1 <1>   0.1500 
 31 H       -1.7490    -6.8280     1.9360 H     1 <1>   0.2700 
 32 H       -5.0620    -7.6850     0.3110 H     1 <1>   0.0800 
 33 H       -4.0680    -8.2050     1.6320 H     1 <1>   0.0800 
 34 H       -3.3760    -8.4730    -1.3070 H     1 <1>   0.0800 
 35 H       -4.2870   -10.6060     0.6450 H     1 <1>   0.0800 
 36 H       -3.8210   -10.8750    -1.0160 H     1 <1>   0.0800 
 37 H       -5.2450    -9.9400    -0.6570 H     1 <1>   0.0800 
 38 H       -1.9190    -9.5690     1.1180 H     1 <1>   0.0800 
 39 H       -1.3110    -8.3790    -0.0170 H     1 <1>   0.0800 
 40 H       -1.5740   -10.0130    -0.5340 H     1 <1>   0.0800 
@<TRIPOS>BOND
  1   1   2  1   
  2   1   3  1   
  3   2   4  2   
  4   2   5  1   
  5   3   6  2   
  6   3   7  1   
  7   4   6  1   
  8   5   8  am  
  9   5  22  1   
 10   7   9  1   
 11   7  10  1   
 12   7  23  1   
 13   8  11  2   
 14   8  12  1   
 15   9  13  1   
 16  10  24  1   
 17  10  25  1   
 18  10  26  1   
 19  12  14  2   
 20  12  15  1   
 21  13  27  1   
 22  13  28  1   
 23  13  29  1   
 24  14  16  1   
 25  15  17  2   
 26  15  30  1   
 27  16  17  1   
 28  16  31  1   
 29  17  18  1   
 30  18  19  1   
 31  18  32  1   
 32  18  33  1   
 33  19  20  1   
 34  19  21  1   
 35  19  34  1   
 36  20  35  1   
 37  20  36  1   
 38  20  37  1   
 39  21  38  1   
 40  21  39  1   
 41  21  40  1   
@<TRIPOS>SUBSTRUCTURE
  1 ****   5 GROUP 4 **** **** 0

# MOE 2024.06 (io_trps.svl 2023.06)
