@<TRIPOS>MOLECULE
NONAME
50 53 1 0 0 
SMALL
USER_CHARGES


@<TRIPOS>ATOM
  1 O       -4.1270     3.7200     1.5900 O.2   1 <1>  -0.5700 
  2 C       -3.7210     3.3140     0.5290 C.2   1 <1>   0.5690 
  3 N       -4.5140     2.5210    -0.2680 N.am  1 <1>  -0.6600 
  4 C       -2.2780     3.6290     0.1590 C.3   1 <1>   0.0440 
  5 C       -5.7900     1.9490     0.2640 C.3   1 <1>   0.1400 
  6 C       -4.0550     1.8010    -1.4940 C.3   1 <1>   0.1400 
  7 C       -1.4220     2.3660     0.2170 C.ar  1 <1>  -0.1440 
  8 C       -5.6640     0.4210     0.5110 C.3   1 <1>   0.4230 
  9 C       -3.7850     0.3090    -1.1860 C.3   1 <1>   0.3430 
 10 C       -1.3560     1.6360     1.3940 C.ar  1 <1>  -0.1500 
 11 C       -0.7080     1.9310    -0.8900 C.ar  1 <1>  -0.1500 
 12 N       -4.2850    -0.1230     0.1740 N.4   1 <1>  -0.9590 
 13 C       -6.7590    -0.3570    -0.2520 C.3   1 <1>   0.1200 
 14 C       -0.6030     0.4780     1.4590 C.ar  1 <1>  -0.1500 
 15 C        0.0380     0.7670    -0.8260 C.ar  1 <1>  -0.1500 
 16 C       -4.2480    -1.6050     0.3930 C.3   1 <1>   0.5180 
 17 O       -6.6440    -1.7300    -0.0120 O.3   1 <1>  -0.5600 
 18 C        0.0920     0.0330     0.3460 C.ar  1 <1>  -0.1430 
 19 C       -2.8500    -2.1480     0.0410 C.3   1 <1>  -0.1950 
 20 C       -5.4100    -2.3000    -0.3590 C.3   1 <1>   0.1200 
 21 C        0.9300    -1.2320     0.4200 C.3   1 <1>  -0.0970 
 22 C       -2.4010    -2.5480    -1.3350 C.3   1 <1>  -0.2000 
 23 C       -2.5770    -3.5900    -0.2670 C.3   1 <1>  -0.2000 
 24 H       -2.2490     4.0780    -0.8160 H     1 <1>   0.0800 
 25 H       -1.8870     4.3480     0.8570 H     1 <1>   0.0800 
 26 H       -6.0690     2.4270     1.1870 H     1 <1>   0.0800 
 27 H       -6.5810     2.1540    -0.4360 H     1 <1>   0.0800 
 28 H       -4.8250     1.8700    -2.2430 H     1 <1>   0.0800 
 29 H       -3.1780     2.2560    -1.9140 H     1 <1>   0.0800 
 30 H       -5.8490     0.2590     1.5600 H     1 <1>   0.0800 
 31 H       -2.7210     0.1400    -1.2380 H     1 <1>   0.0800 
 32 H       -4.2420    -0.2900    -1.9550 H     1 <1>   0.0800 
 33 H       -1.8800     1.9780     2.2730 H     1 <1>   0.1500 
 34 H       -0.7180     2.4970    -1.8060 H     1 <1>   0.1500 
 35 H       -3.6320     0.3140     0.8410 H     1 <1>   0.4500 
 36 H       -6.6970    -0.1860    -1.3130 H     1 <1>   0.0800 
 37 H       -7.7340    -0.0520     0.0860 H     1 <1>   0.0800 
 38 H       -0.5470    -0.0700     2.3840 H     1 <1>   0.1500 
 39 H        0.5930     0.4430    -1.6900 H     1 <1>   0.1500 
 40 H       -4.4060    -1.7980     1.4420 H     1 <1>   0.0800 
 41 H       -2.1140    -1.6990     0.6820 H     1 <1>   0.1000 
 42 H       -5.4540    -3.3400    -0.0880 H     1 <1>   0.0800 
 43 H       -5.2880    -2.2320    -1.4250 H     1 <1>   0.0800 
 44 H        0.5150    -1.9230     1.1310 H     1 <1>   0.0800 
 45 H        1.9310    -0.9840     0.7250 H     1 <1>   0.0800 
 46 H        0.9730    -1.7150    -0.5390 H     1 <1>   0.0800 
 47 H       -3.0810    -2.5850    -2.1680 H     1 <1>   0.1000 
 48 H       -1.3980    -2.3060    -1.6450 H     1 <1>   0.1000 
 49 H       -1.6930    -4.0510     0.1430 H     1 <1>   0.1000 
 50 H       -3.3760    -4.3020    -0.3900 H     1 <1>   0.1000 
@<TRIPOS>BOND
  1   1   2  2   
  2   2   3  am  
  3   2   4  1   
  4   3   5  1   
  5   3   6  1   
  6   4   7  1   
  7   4  24  1   
  8   4  25  1   
  9   5   8  1   
 10   5  26  1   
 11   5  27  1   
 12   6   9  1   
 13   6  28  1   
 14   6  29  1   
 15   7  10  ar  
 16   7  11  ar  
 17   8  12  1   
 18   8  13  1   
 19   8  30  1   
 20   9  12  1   
 21   9  31  1   
 22   9  32  1   
 23  10  14  ar  
 24  10  33  1   
 25  11  15  ar  
 26  11  34  1   
 27  12  16  1   
 28  12  35  1   
 29  13  17  1   
 30  13  36  1   
 31  13  37  1   
 32  14  18  ar  
 33  14  38  1   
 34  15  18  ar  
 35  15  39  1   
 36  16  19  1   
 37  16  20  1   
 38  16  40  1   
 39  17  20  1   
 40  18  21  1   
 41  19  22  1   
 42  19  23  1   
 43  19  41  1   
 44  20  42  1   
 45  20  43  1   
 46  21  44  1   
 47  21  45  1   
 48  21  46  1   
 49  22  23  1   
 50  22  47  1   
 51  22  48  1   
 52  23  49  1   
 53  23  50  1   
@<TRIPOS>SUBSTRUCTURE
  1 ****  12 GROUP 4 **** **** 0

# MOE 2024.06 (io_trps.svl 2023.06)
