@<TRIPOS>MOLECULE
NONAME
46 49 1 0 0 
SMALL
USER_CHARGES


@<TRIPOS>ATOM
  1 S       -0.7090    -0.4670     1.1280 S.3   1 <1>  -0.0800 
  2 C       -1.5510    -0.9370    -0.3450 C.2   1 <1>  -0.0450 
  3 C       -0.0490     1.0020     0.4120 C.2   1 <1>  -0.0450 
  4 C       -2.3270    -2.1470    -0.3540 C.2   1 <1>   0.7150 
  5 C       -1.3070     0.0040    -1.2950 C.2   1 <1>  -0.1500 
  6 C        0.7870     1.8800     1.1800 C.2   1 <1>   0.5940 
  7 C       -0.4780     1.0740    -0.8750 C.2   1 <1>  -0.1500 
  8 O       -2.3820    -2.9050     0.6020 O.2   1 <1>  -0.5700 
  9 N       -3.1180    -2.4710    -1.4290 N.am  1 <1>  -0.6600 
 10 O        1.2390     2.9010     0.7290 O.2   1 <1>  -0.5700 
 11 C        1.1340     1.5450     2.6160 C.3   1 <1>  -0.1790 
 12 C       -4.5120    -1.9290    -1.4170 C.3   1 <1>   0.1400 
 13 C       -3.0580    -3.8820    -1.9400 C.3   1 <1>   0.1400 
 14 C       -5.4440    -2.7840    -0.5110 C.3   1 <1>   0.4230 
 15 C       -4.1790    -4.7710    -1.3480 C.3   1 <1>   0.3430 
 16 N       -4.8180    -4.1150    -0.1540 N.4   1 <1>  -0.9590 
 17 C       -6.8340    -2.9800    -1.1600 C.3   1 <1>   0.1200 
 18 C       -5.7690    -4.9580     0.6310 C.3   1 <1>   0.5180 
 19 O       -7.6510    -3.7820    -0.3540 O.3   1 <1>  -0.5600 
 20 C       -5.1510    -6.3350     0.9010 C.3   1 <1>  -0.1950 
 21 C       -7.1430    -5.0590    -0.0670 C.3   1 <1>   0.1200 
 22 C       -5.3120    -6.9780     2.2440 C.3   1 <1>  -0.2000 
 23 C       -3.9630    -6.4940     1.8010 C.3   1 <1>  -0.2000 
 24 H       -1.6930    -0.0290    -2.2990 H     1 <1>   0.1500 
 25 H       -0.2170     1.8780    -1.5430 H     1 <1>   0.1500 
 26 H        1.6410     0.5990     2.6590 H     1 <1>   0.0800 
 27 H        0.2400     1.5010     3.2080 H     1 <1>   0.0800 
 28 H        1.7810     2.3020     3.0220 H     1 <1>   0.0800 
 29 H       -4.5080    -0.9120    -1.0620 H     1 <1>   0.0800 
 30 H       -4.8840    -1.9110    -2.4270 H     1 <1>   0.0800 
 31 H       -3.1230    -3.8810    -3.0150 H     1 <1>   0.0800 
 32 H       -2.1030    -4.3110    -1.6820 H     1 <1>   0.0800 
 33 H       -5.6000    -2.2300     0.4000 H     1 <1>   0.0800 
 34 H       -3.7510    -5.7200    -1.0700 H     1 <1>   0.0800 
 35 H       -4.9240    -4.9570    -2.1040 H     1 <1>   0.0800 
 36 H       -4.0160    -3.8860     0.4680 H     1 <1>   0.4500 
 37 H       -6.7540    -3.4400    -2.1300 H     1 <1>   0.0800 
 38 H       -7.3280    -2.0300    -1.2730 H     1 <1>   0.0800 
 39 H       -5.9300    -4.4820     1.5840 H     1 <1>   0.0800 
 40 H       -5.2370    -7.0030     0.0610 H     1 <1>   0.1000 
 41 H       -7.8470    -5.5520     0.5820 H     1 <1>   0.0800 
 42 H       -7.0750    -5.6190    -0.9830 H     1 <1>   0.0800 
 43 H       -5.7970    -6.4500     3.0490 H     1 <1>   0.1000 
 44 H       -5.4760    -8.0420     2.3020 H     1 <1>   0.1000 
 45 H       -3.2140    -7.2320     1.5640 H     1 <1>   0.1000 
 46 H       -3.5430    -5.6400     2.3080 H     1 <1>   0.1000 
@<TRIPOS>BOND
  1   1   2  1   
  2   1   3  1   
  3   2   4  1   
  4   2   5  2   
  5   3   6  1   
  6   3   7  2   
  7   4   8  2   
  8   4   9  am  
  9   5   7  1   
 10   5  24  1   
 11   6  10  2   
 12   6  11  1   
 13   7  25  1   
 14   9  12  1   
 15   9  13  1   
 16  11  26  1   
 17  11  27  1   
 18  11  28  1   
 19  12  14  1   
 20  12  29  1   
 21  12  30  1   
 22  13  15  1   
 23  13  31  1   
 24  13  32  1   
 25  14  16  1   
 26  14  17  1   
 27  14  33  1   
 28  15  16  1   
 29  15  34  1   
 30  15  35  1   
 31  16  18  1   
 32  16  36  1   
 33  17  19  1   
 34  17  37  1   
 35  17  38  1   
 36  18  20  1   
 37  18  21  1   
 38  18  39  1   
 39  19  21  1   
 40  20  22  1   
 41  20  23  1   
 42  20  40  1   
 43  21  41  1   
 44  21  42  1   
 45  22  23  1   
 46  22  43  1   
 47  22  44  1   
 48  23  45  1   
 49  23  46  1   
@<TRIPOS>SUBSTRUCTURE
  1 ****   4 GROUP 4 **** **** 0

# MOE 2024.06 (io_trps.svl 2023.06)
