@<TRIPOS>MOLECULE
NONAME
42 44 1 0 0 
SMALL
USER_CHARGES


@<TRIPOS>ATOM
  1 F        1.3590     0.3690    -0.3130 F     1 <1>  -0.1900 
  2 C        2.4650     0.9320     0.1030 C.ar  1 <1>   0.1900 
  3 C        3.5490     0.9740    -0.7400 C.ar  1 <1>  -0.1500 
  4 C        2.4790     1.4650     1.3960 C.ar  1 <1>  -0.1500 
  5 C        4.7070     1.5830    -0.2640 C.ar  1 <1>   0.2270 
  6 C        3.6280     2.0660     1.8630 C.ar  1 <1>  -0.1500 
  7 N        5.9060     1.7630    -0.8850 N.2   1 <1>  -0.5650 
  8 C        4.7390     2.1150     1.0150 C.ar  1 <1>  -0.1520 
  9 C        6.6280     2.3790    -0.0140 C.2   1 <1>   0.0060 
 10 N        5.9890     2.6230     1.1580 N.pl3 1 <1>   0.0330 
 11 C        8.0630     2.8250    -0.2410 C.3   1 <1>   0.3000 
 12 O        8.2170     4.1590     0.1530 O.3   1 <1>  -0.5600 
 13 C        7.6060     5.0870    -0.7240 C.3   1 <1>   0.1810 
 14 C        7.7790     6.5300    -0.2470 C.2   1 <1>   0.5690 
 15 O        7.1520     7.4050    -0.7950 O.2   1 <1>  -0.5700 
 16 N        8.6380     6.7960     0.7720 N.am  1 <1>  -0.7300 
 17 C        8.8850     8.1270     1.3600 C.3   1 <1>   0.1400 
 18 C       10.1250     8.7400     0.7120 C.3   1 <1>  -0.1600 
 19 C       10.3600    10.1720     1.2110 C.3   1 <1>   0.0200 
 20 C       11.5920    10.7830     0.5720 C.2   1 <1>   0.0060 
 21 N       12.6800    11.0480     1.2190 N.2   1 <1>  -0.5650 
 22 N       11.6530    11.1070    -0.7380 N.pl3 1 <1>   0.0330 
 23 C       13.4950    11.5730     0.2840 C.2   1 <1>   0.0770 
 24 C       12.8840    11.6170    -0.9200 C.2   1 <1>  -0.3020 
 25 H        3.5250     0.5620    -1.7300 H     1 <1>   0.1500 
 26 H        1.5930     1.3970     2.0010 H     1 <1>   0.1500 
 27 H        3.6760     2.4880     2.8520 H     1 <1>   0.1500 
 28 H        6.3660     3.1330     1.9610 H     1 <1>   0.2700 
 29 H        8.3380     2.7220    -1.2770 H     1 <1>   0.0800 
 30 H        8.7280     2.2270     0.3560 H     1 <1>   0.0800 
 31 H        6.5540     4.8720    -0.7910 H     1 <1>   0.0800 
 32 H        8.0500     4.9880    -1.6970 H     1 <1>   0.0800 
 33 H        9.1540     6.0040     1.1660 H     1 <1>   0.3700 
 34 H        9.0220     8.0310     2.4240 H     1 <1>   0.0800 
 35 H        8.0290     8.7580     1.1820 H     1 <1>   0.0800 
 36 H        9.9900     8.7550    -0.3550 H     1 <1>   0.0800 
 37 H       10.9880     8.1410     0.9430 H     1 <1>   0.0800 
 38 H       10.4960    10.1630     2.2790 H     1 <1>   0.0800 
 39 H        9.5070    10.7880     0.9910 H     1 <1>   0.0800 
 40 H       10.9140    10.9850    -1.4370 H     1 <1>   0.2700 
 41 H       14.4920    11.8950     0.5320 H     1 <1>   0.1500 
 42 H       13.2490    11.9730    -1.8660 H     1 <1>   0.1500 
@<TRIPOS>BOND
  1   1   2  1   
  2   2   3  ar  
  3   2   4  ar  
  4   3   5  ar  
  5   3  25  1   
  6   4   6  ar  
  7   4  26  1   
  8   5   7  1   
  9   5   8  ar  
 10   6   8  ar  
 11   6  27  1   
 12   7   9  2   
 13   8  10  1   
 14   9  10  1   
 15   9  11  1   
 16  10  28  1   
 17  11  12  1   
 18  11  29  1   
 19  11  30  1   
 20  12  13  1   
 21  13  14  1   
 22  13  31  1   
 23  13  32  1   
 24  14  15  2   
 25  14  16  am  
 26  16  17  1   
 27  16  33  1   
 28  17  18  1   
 29  17  34  1   
 30  17  35  1   
 31  18  19  1   
 32  18  36  1   
 33  18  37  1   
 34  19  20  1   
 35  19  38  1   
 36  19  39  1   
 37  20  21  2   
 38  20  22  1   
 39  21  23  1   
 40  22  24  1   
 41  22  40  1   
 42  23  24  2   
 43  23  41  1   
 44  24  42  1   
@<TRIPOS>SUBSTRUCTURE
  1 ****  13 GROUP 4 **** **** 0

# MOE 2024.06 (io_trps.svl 2023.06)
