@<TRIPOS>MOLECULE
NONAME
53 56 1 0 0 
SMALL
USER_CHARGES


@<TRIPOS>ATOM
  1 F       -0.2920    -0.8980     0.6140 F     1 <1>  -0.3400 
  2 C        0.7390    -1.5250     0.0670 C.3   1 <1>   1.1640 
  3 F        1.7890    -1.2670     0.8370 F     1 <1>  -0.3400 
  4 F        0.9720    -0.9380    -1.0970 F     1 <1>  -0.3400 
  5 C        0.4810    -3.0370    -0.0900 C.ar  1 <1>  -0.1440 
  6 C        1.2920    -3.9990     0.4750 C.ar  1 <1>  -0.1500 
  7 C       -0.6120    -3.4670    -0.8510 C.ar  1 <1>  -0.1500 
  8 C        1.0330    -5.3690     0.3120 C.ar  1 <1>   0.3610 
  9 C       -0.8890    -4.8020    -0.9990 C.ar  1 <1>  -0.1500 
 10 N        1.9240    -6.3060     0.7850 N.ar  1 <1>  -0.1790 
 11 C       -0.1170    -5.8020    -0.3760 C.ar  1 <1>   0.0000 
 12 C        1.7400    -7.6250     0.6100 C.ar  1 <1>   0.2180 
 13 C       -0.3980    -7.2070    -0.4560 C.ar  1 <1>   0.1000 
 14 C        0.6000    -8.0760    -0.0040 C.ar  1 <1>  -0.1500 
 15 C        2.8080    -8.5800     1.1190 C.3   1 <1>  -0.0970 
 16 N       -1.5780    -7.7180    -0.9030 N.pl3 1 <1>  -0.8380 
 17 C       -1.6700    -8.9420    -1.7440 C.3   1 <1>   0.2090 
 18 C       -2.9060    -7.1360    -0.5730 C.3   1 <1>   0.2090 
 19 C       -2.4520   -10.0100    -0.9850 C.3   1 <1>  -0.1600 
 20 C       -3.7240    -8.1730     0.1950 C.3   1 <1>  -0.1600 
 21 C       -3.8420    -9.4950    -0.5780 C.3   1 <1>   0.4230 
 22 N       -4.5430   -10.5220     0.2570 N.4   1 <1>  -0.9590 
 23 C       -4.6800   -11.8780    -0.3900 C.3   1 <1>   0.3430 
 24 C       -5.8890   -10.0970     0.7900 C.3   1 <1>   0.3430 
 25 C       -5.3920   -12.8910     0.5360 C.3   1 <1>   0.1200 
 26 C       -6.5190   -11.1850     1.6910 C.3   1 <1>   0.1200 
 27 O       -5.6920   -12.3130     1.7760 O.3   1 <1>  -0.5600 
 28 H        2.1540    -3.7000     1.0480 H     1 <1>   0.1500 
 29 H       -1.2430    -2.7340    -1.3340 H     1 <1>   0.1500 
 30 H       -1.7150    -5.0890    -1.6240 H     1 <1>   0.1500 
 31 H        2.7640    -5.9690     1.2580 H     1 <1>   0.4570 
 32 H        0.4510    -9.1340    -0.1100 H     1 <1>   0.1500 
 33 H        3.7470    -8.3890     0.6300 H     1 <1>   0.0800 
 34 H        2.5320    -9.6010     0.9220 H     1 <1>   0.0800 
 35 H        2.9360    -8.4690     2.1820 H     1 <1>   0.0800 
 36 H       -0.6880    -9.3030    -2.0000 H     1 <1>   0.0800 
 37 H       -2.1710    -8.6970    -2.6660 H     1 <1>   0.0800 
 38 H       -3.4110    -6.8470    -1.4800 H     1 <1>   0.0800 
 39 H       -2.7910    -6.2630     0.0480 H     1 <1>   0.0800 
 40 H       -1.8890   -10.2930    -0.1150 H     1 <1>   0.0800 
 41 H       -2.5380   -10.8600    -1.6360 H     1 <1>   0.0800 
 42 H       -4.6930    -7.7450     0.3650 H     1 <1>   0.0800 
 43 H       -3.2470    -8.3390     1.1450 H     1 <1>   0.0800 
 44 H       -4.4140    -9.3150    -1.4750 H     1 <1>   0.0800 
 45 H       -3.9770   -10.6940     1.1020 H     1 <1>   0.4500 
 46 H       -3.7080   -12.2730    -0.6340 H     1 <1>   0.0800 
 47 H       -5.2350   -11.7950    -1.3090 H     1 <1>   0.0800 
 48 H       -6.5600    -9.8870    -0.0260 H     1 <1>   0.0800 
 49 H       -5.7930    -9.1960     1.3720 H     1 <1>   0.0800 
 50 H       -4.7560   -13.7410     0.7160 H     1 <1>   0.0800 
 51 H       -6.3050   -13.2440     0.0880 H     1 <1>   0.0800 
 52 H       -7.4800   -11.4880     1.3100 H     1 <1>   0.0800 
 53 H       -6.6580   -10.8060     2.6890 H     1 <1>   0.0800 
@<TRIPOS>BOND
  1   1   2  1   
  2   2   3  1   
  3   2   4  1   
  4   2   5  1   
  5   5   6  ar  
  6   5   7  ar  
  7   6   8  ar  
  8   6  28  1   
  9   7   9  ar  
 10   7  29  1   
 11   8  10  ar  
 12   8  11  ar  
 13   9  11  ar  
 14   9  30  1   
 15  10  12  ar  
 16  10  31  1   
 17  11  13  ar  
 18  12  14  ar  
 19  12  15  1   
 20  13  14  ar  
 21  13  16  1   
 22  14  32  1   
 23  15  33  1   
 24  15  34  1   
 25  15  35  1   
 26  16  17  1   
 27  16  18  1   
 28  17  19  1   
 29  17  36  1   
 30  17  37  1   
 31  18  20  1   
 32  18  38  1   
 33  18  39  1   
 34  19  21  1   
 35  19  40  1   
 36  19  41  1   
 37  20  21  1   
 38  20  42  1   
 39  20  43  1   
 40  21  22  1   
 41  21  44  1   
 42  22  23  1   
 43  22  24  1   
 44  22  45  1   
 45  23  25  1   
 46  23  46  1   
 47  23  47  1   
 48  24  26  1   
 49  24  48  1   
 50  24  49  1   
 51  25  27  1   
 52  25  50  1   
 53  25  51  1   
 54  26  27  1   
 55  26  52  1   
 56  26  53  1   
@<TRIPOS>SUBSTRUCTURE
  1 ****  13 GROUP 4 **** **** 0

# MOE 2024.06 (io_trps.svl 2023.06)
