@<TRIPOS>MOLECULE
NONAME
51 54 1 0 0 
SMALL
USER_CHARGES


@<TRIPOS>ATOM
  1 O       -3.0470     0.3490    -1.8700 O.2   1 <1>  -0.5700 
  2 C       -2.3830     0.5270    -0.8610 C.2   1 <1>   0.7160 
  3 N       -2.0290    -0.5850    -0.1430 N.am  1 <1>  -0.7300 
  4 C       -1.9800     1.8510    -0.4010 C.2   1 <1>   0.2030 
  5 C       -2.4740    -1.9570    -0.4650 C.3   1 <1>   0.2200 
  6 N       -2.6060     2.9930    -0.6230 N.2   1 <1>  -0.7070 
  7 C       -0.8370     2.0860     0.3760 C.2   1 <1>  -0.1500 
  8 C       -3.8520    -2.1870     0.1340 C.3   1 <1>  -0.0800 
  9 C       -1.6300    -2.9720     0.2940 C.3   1 <1>   0.1200 
 10 N       -1.8860     3.9410    -0.0090 N.pl3 1 <1>   0.3140 
 11 C       -0.8090     3.4120     0.6050 C.2   1 <1>  -0.3020 
 12 C       -3.5340    -2.6870     1.5490 C.3   1 <1>   0.1200 
 13 C       -4.6570    -3.2100    -0.6900 C.3   1 <1>  -0.0160 
 14 O       -2.1780    -3.0290     1.5750 O.3   1 <1>  -0.5600 
 15 C       -2.2840     5.3750    -0.0500 C.3   1 <1>   0.1760 
 16 C       -6.0860    -3.3430    -0.1750 C.ar  1 <1>  -0.1430 
 17 C       -1.2170     6.2150    -0.7650 C.3   1 <1>  -0.2400 
 18 C       -2.5500     5.9090     1.3640 C.3   1 <1>  -0.2400 
 19 C       -7.0670    -2.3510    -0.4140 C.ar  1 <1>   0.0000 
 20 C       -6.4600    -4.4410     0.5430 C.ar  1 <1>  -0.1500 
 21 C       -8.3600    -2.5630     0.1240 C.ar  1 <1>   0.3100 
 22 C       -6.8460    -1.1650    -1.1550 C.ar  1 <1>  -0.1500 
 23 C       -7.7690    -4.5560     1.0250 C.ar  1 <1>   0.1600 
 24 N       -8.6930    -3.6680     0.8400 N.ar  1 <1>  -0.6200 
 25 C       -9.3530    -1.5930    -0.0870 C.ar  1 <1>  -0.1500 
 26 C       -7.8370    -0.2400    -1.3420 C.ar  1 <1>  -0.1500 
 27 C       -9.1070    -0.4530    -0.8020 C.ar  1 <1>  -0.1500 
 28 H       -1.6930    -0.4650     0.8140 H     1 <1>   0.3700 
 29 H       -2.4390    -2.1140    -1.5310 H     1 <1>   0.0800 
 30 H       -0.1340     1.3410     0.7050 H     1 <1>   0.1500 
 31 H       -4.4070    -1.2680     0.1850 H     1 <1>   0.0800 
 32 H       -0.5930    -2.6930     0.3530 H     1 <1>   0.0800 
 33 H       -1.7220    -3.9500    -0.1460 H     1 <1>   0.0800 
 34 H       -0.0990     4.0020     1.1550 H     1 <1>   0.1500 
 35 H       -4.1130    -3.5510     1.8250 H     1 <1>   0.0800 
 36 H       -3.6880    -1.9080     2.2750 H     1 <1>   0.0800 
 37 H       -4.1670    -4.1680    -0.6570 H     1 <1>   0.0800 
 38 H       -4.6860    -2.9090    -1.7230 H     1 <1>   0.0800 
 39 H       -3.1990     5.4310    -0.6150 H     1 <1>   0.0800 
 40 H       -0.2890     6.1980    -0.2230 H     1 <1>   0.0800 
 41 H       -1.5470     7.2350    -0.8470 H     1 <1>   0.0800 
 42 H       -1.0550     5.8320    -1.7570 H     1 <1>   0.0800 
 43 H       -1.6530     5.8870     1.9570 H     1 <1>   0.0800 
 44 H       -3.3070     5.3130     1.8440 H     1 <1>   0.0800 
 45 H       -2.9010     6.9240     1.3140 H     1 <1>   0.0800 
 46 H       -5.7710    -5.2370     0.7580 H     1 <1>   0.1500 
 47 H       -5.8800    -0.9750    -1.5860 H     1 <1>   0.1500 
 48 H       -8.0220    -5.4380     1.5870 H     1 <1>   0.1500 
 49 H      -10.3230    -1.7800     0.3370 H     1 <1>   0.1500 
 50 H       -7.6480     0.6590    -1.9050 H     1 <1>   0.1500 
 51 H       -9.8770     0.2830    -0.9560 H     1 <1>   0.1500 
@<TRIPOS>BOND
  1   1   2  2   
  2   2   3  am  
  3   2   4  1   
  4   3   5  1   
  5   3  28  1   
  6   4   6  2   
  7   4   7  1   
  8   5   8  1   
  9   5   9  1   
 10   5  29  1   
 11   6  10  1   
 12   7  11  2   
 13   7  30  1   
 14   8  12  1   
 15   8  13  1   
 16   8  31  1   
 17   9  14  1   
 18   9  32  1   
 19   9  33  1   
 20  10  11  1   
 21  10  15  1   
 22  11  34  1   
 23  12  14  1   
 24  12  35  1   
 25  12  36  1   
 26  13  16  1   
 27  13  37  1   
 28  13  38  1   
 29  15  17  1   
 30  15  18  1   
 31  15  39  1   
 32  16  19  ar  
 33  16  20  ar  
 34  17  40  1   
 35  17  41  1   
 36  17  42  1   
 37  18  43  1   
 38  18  44  1   
 39  18  45  1   
 40  19  21  ar  
 41  19  22  ar  
 42  20  23  ar  
 43  20  46  1   
 44  21  24  ar  
 45  21  25  ar  
 46  22  26  ar  
 47  22  47  1   
 48  23  24  ar  
 49  23  48  1   
 50  25  27  ar  
 51  25  49  1   
 52  26  27  ar  
 53  26  50  1   
 54  27  51  1   
@<TRIPOS>SUBSTRUCTURE
  1 ****   8 GROUP 4 **** **** 0

# MOE 2024.06 (io_trps.svl 2023.06)
