@<TRIPOS>MOLECULE
NONAME
49 50 1 0 0 
SMALL
USER_CHARGES


@<TRIPOS>ATOM
  1 S        1.2510     0.2880     0.8870 S.o2  1 <1>   1.3330 
  2 O        1.6090    -1.1120     0.9540 O.2   1 <1>  -0.6500 
  3 O        1.0650     1.0320     2.1120 O.2   1 <1>  -0.6500 
  4 N       -0.1760     0.4080    -0.0260 N.am  1 <1>  -0.8490 
  5 C        2.4570     1.1520    -0.1170 C.3   1 <1>  -0.0550 
  6 C       -0.2480    -0.5570    -1.1280 C.3   1 <1>   0.1160 
  7 C       -1.3760     0.3040     0.8090 C.3   1 <1>   0.1160 
  8 C        3.8180     1.3350     0.5780 C.3   1 <1>  -0.0800 
  9 C        4.8500     1.9600    -0.3360 C.3   1 <1>   0.2200 
 10 C        4.5130     0.0400     0.9870 C.3   1 <1>   0.1200 
 11 N        4.7210     3.4290    -0.3620 N.am  1 <1>  -0.7300 
 12 C        6.1680     1.4820     0.2620 C.3   1 <1>   0.1200 
 13 O        5.8830     0.3110     0.9700 O.3   1 <1>  -0.5600 
 14 C        4.0540     4.1400    -1.3040 C.2   1 <1>   0.5690 
 15 O        3.5000     3.5970    -2.2310 O.2   1 <1>  -0.5700 
 16 C        4.0120     5.6580    -1.1870 C.3   1 <1>   0.1810 
 17 O        3.8470     6.0520     0.1700 O.3   1 <1>  -0.3630 
 18 C        4.6710     7.0200     0.6380 C.ar  1 <1>   0.0820 
 19 C        6.0400     6.8000     0.8270 C.ar  1 <1>   0.0820 
 20 C        4.1090     8.2470     0.9440 C.ar  1 <1>  -0.1500 
 21 O        6.5460     5.5650     0.5420 O.3   1 <1>  -0.3620 
 22 C        6.8280     7.8450     1.3050 C.ar  1 <1>  -0.1500 
 23 C        4.9020     9.2760     1.4210 C.ar  1 <1>  -0.1500 
 24 C        7.9230     5.2850     0.6820 C.3   1 <1>   0.0400 
 25 C        6.2600     9.0740     1.5980 C.ar  1 <1>  -0.1500 
 26 H        2.5970     0.6220    -1.0380 H     1 <1>   0.0800 
 27 H        2.0690     2.1230    -0.3600 H     1 <1>   0.0800 
 28 H       -1.1310    -0.3780    -1.7170 H     1 <1>   0.0800 
 29 H       -0.2780    -1.5640    -0.7470 H     1 <1>   0.0800 
 30 H        0.6110    -0.4540    -1.7690 H     1 <1>   0.0800 
 31 H       -2.2610     0.4050     0.2050 H     1 <1>   0.0800 
 32 H       -1.3810     1.0910     1.5450 H     1 <1>   0.0800 
 33 H       -1.3970    -0.6450     1.3180 H     1 <1>   0.0800 
 34 H        3.6960     1.9380     1.4620 H     1 <1>   0.0800 
 35 H        4.7610     1.5650    -1.3350 H     1 <1>   0.0800 
 36 H        4.3280    -0.7490     0.2780 H     1 <1>   0.0800 
 37 H        4.2290    -0.2850     1.9740 H     1 <1>   0.0800 
 38 H        5.1390     3.9590     0.4150 H     1 <1>   0.3700 
 39 H        6.5600     2.1960     0.9650 H     1 <1>   0.0800 
 40 H        6.8950     1.2600    -0.4980 H     1 <1>   0.0800 
 41 H        3.1790     6.0440    -1.7440 H     1 <1>   0.0800 
 42 H        4.9230     6.0730    -1.5760 H     1 <1>   0.0800 
 43 H        3.0520     8.3930     0.8080 H     1 <1>   0.1500 
 44 H        7.8830     7.7260     1.4620 H     1 <1>   0.1500 
 45 H        4.4630    10.2310     1.6550 H     1 <1>   0.1500 
 46 H        8.0900     4.2650     0.3870 H     1 <1>   0.0800 
 47 H        8.2040     5.4180     1.7120 H     1 <1>   0.0800 
 48 H        8.4810     5.9460     0.0420 H     1 <1>   0.0800 
 49 H        6.8750     9.8770     1.9670 H     1 <1>   0.1500 
@<TRIPOS>BOND
  1   1   2  2   
  2   1   3  2   
  3   1   4  am  
  4   1   5  1   
  5   4   6  1   
  6   4   7  1   
  7   5   8  1   
  8   5  26  1   
  9   5  27  1   
 10   6  28  1   
 11   6  29  1   
 12   6  30  1   
 13   7  31  1   
 14   7  32  1   
 15   7  33  1   
 16   8   9  1   
 17   8  10  1   
 18   8  34  1   
 19   9  11  1   
 20   9  12  1   
 21   9  35  1   
 22  10  13  1   
 23  10  36  1   
 24  10  37  1   
 25  11  14  am  
 26  11  38  1   
 27  12  13  1   
 28  12  39  1   
 29  12  40  1   
 30  14  15  2   
 31  14  16  1   
 32  16  17  1   
 33  16  41  1   
 34  16  42  1   
 35  17  18  1   
 36  18  19  ar  
 37  18  20  ar  
 38  19  21  1   
 39  19  22  ar  
 40  20  23  ar  
 41  20  43  1   
 42  21  24  1   
 43  22  25  ar  
 44  22  44  1   
 45  23  25  ar  
 46  23  45  1   
 47  24  46  1   
 48  24  47  1   
 49  24  48  1   
 50  25  49  1   
@<TRIPOS>SUBSTRUCTURE
  1 ****  11 GROUP 4 **** **** 0

# MOE 2024.06 (io_trps.svl 2023.06)
