@<TRIPOS>MOLECULE
NONAME
56 58 1 0 0 
SMALL
USER_CHARGES


@<TRIPOS>ATOM
  1 O        0.7330     0.4380     0.0180 O.3   1 <1>  -0.3630 
  2 C        0.5520    -0.9020    -0.0910 C.ar  1 <1>   0.0830 
  3 C        1.2800     1.1880    -1.0360 C.3   1 <1>   0.1200 
  4 C        0.1510    -1.5710     1.0530 C.ar  1 <1>  -0.1500 
  5 C        0.7490    -1.6170    -1.2700 C.ar  1 <1>  -0.1500 
  6 C        1.4460     2.6220    -0.5330 C.3   1 <1>  -0.1600 
  7 C       -0.0470    -2.9410     1.0410 C.ar  1 <1>   0.0830 
  8 C        0.5510    -2.9870    -1.2880 C.ar  1 <1>  -0.1500 
  9 C        2.3630     3.4260    -1.4530 C.3   1 <1>   0.2090 
 10 O       -0.4340    -3.5120     2.2090 O.3   1 <1>  -0.3630 
 11 C        0.1550    -3.6520    -0.1390 C.ar  1 <1>  -0.1500 
 12 N        2.5110     4.8130    -0.9240 N.pl3 1 <1>  -0.8380 
 13 C       -0.6650    -4.8990     2.3060 C.3   1 <1>   0.0400 
 14 C        3.4360     5.2330    -0.0160 C.ar  1 <1>   0.7710 
 15 C        1.5880     5.7910    -1.5950 C.3   1 <1>   0.1290 
 16 N        3.6330     6.5310     0.1620 N.ar  1 <1>  -0.6200 
 17 N        4.1270     4.3140     0.6830 N.ar  1 <1>  -0.1790 
 18 C        4.5480     6.9260     1.0270 C.ar  1 <1>   0.4100 
 19 C        5.0570     4.6700     1.6000 C.ar  1 <1>   0.2110 
 20 N        4.7610     8.2620     1.1620 N.pl3 1 <1>  -0.8380 
 21 C        5.2800     5.9920     1.7860 C.ar  1 <1>  -0.1500 
 22 C        6.0950     8.8740     1.4820 C.3   1 <1>   0.2090 
 23 C        3.7200     9.2800     0.8150 C.3   1 <1>   0.2090 
 24 C        6.5820     9.7530     0.3150 C.3   1 <1>   0.2000 
 25 C        4.1890    10.1120    -0.3830 C.3   1 <1>  -0.1600 
 26 O        7.7340    10.4220     0.6890 O.3   1 <1>  -0.6800 
 27 C        5.5400    10.7930    -0.1100 C.3   1 <1>  -0.1600 
 28 H        0.6080     1.1450    -1.8770 H     1 <1>   0.0800 
 29 H        2.2300     0.7510    -1.2930 H     1 <1>   0.0800 
 30 H       -0.0080    -1.0240     1.9630 H     1 <1>   0.1500 
 31 H        1.0510    -1.1330    -2.1780 H     1 <1>   0.1500 
 32 H        1.8520     2.5940     0.4610 H     1 <1>   0.0800 
 33 H        0.4750     3.0860    -0.4960 H     1 <1>   0.0800 
 34 H        0.7040    -3.5400    -2.1990 H     1 <1>   0.1500 
 35 H        1.9420     3.4590    -2.4460 H     1 <1>   0.0800 
 36 H        3.3280     2.9540    -1.5330 H     1 <1>   0.0800 
 37 H        0.0100    -4.7140    -0.1830 H     1 <1>   0.1500 
 38 H       -0.9590    -5.1190     3.3160 H     1 <1>   0.0800 
 39 H        0.2450    -5.4210     2.0680 H     1 <1>   0.0800 
 40 H       -1.4550    -5.1690     1.6270 H     1 <1>   0.0800 
 41 H        0.6170     5.3480    -1.7420 H     1 <1>   0.0800 
 42 H        1.9910     6.0760    -2.5520 H     1 <1>   0.0800 
 43 H        1.4550     6.6790    -1.0000 H     1 <1>   0.0800 
 44 H        3.8690     3.3500     0.5060 H     1 <1>   0.4570 
 45 H        5.5780     3.9040     2.1520 H     1 <1>   0.1500 
 46 H        5.9890     6.3420     2.5110 H     1 <1>   0.1500 
 47 H        6.8350     8.1160     1.6560 H     1 <1>   0.0800 
 48 H        5.9950     9.4740     2.3700 H     1 <1>   0.0800 
 49 H        3.5620     9.9230     1.6650 H     1 <1>   0.0800 
 50 H        2.7790     8.8100     0.5860 H     1 <1>   0.0800 
 51 H        6.8340     9.1190    -0.5170 H     1 <1>   0.0800 
 52 H        3.4480    10.8590    -0.6060 H     1 <1>   0.0800 
 53 H        4.2700     9.4660    -1.2400 H     1 <1>   0.0800 
 54 H        7.5170    11.1870     1.2560 H     1 <1>   0.4000 
 55 H        5.8750    11.2950    -1.0020 H     1 <1>   0.0800 
 56 H        5.4090    11.5210     0.6710 H     1 <1>   0.0800 
@<TRIPOS>BOND
  1   1   2  1   
  2   1   3  1   
  3   2   4  ar  
  4   2   5  ar  
  5   3   6  1   
  6   3  28  1   
  7   3  29  1   
  8   4   7  ar  
  9   4  30  1   
 10   5   8  ar  
 11   5  31  1   
 12   6   9  1   
 13   6  32  1   
 14   6  33  1   
 15   7  10  1   
 16   7  11  ar  
 17   8  11  ar  
 18   8  34  1   
 19   9  12  1   
 20   9  35  1   
 21   9  36  1   
 22  10  13  1   
 23  11  37  1   
 24  12  14  1   
 25  12  15  1   
 26  13  38  1   
 27  13  39  1   
 28  13  40  1   
 29  14  16  ar  
 30  14  17  ar  
 31  15  41  1   
 32  15  42  1   
 33  15  43  1   
 34  16  18  ar  
 35  17  19  ar  
 36  17  44  1   
 37  18  20  1   
 38  18  21  ar  
 39  19  21  ar  
 40  19  45  1   
 41  20  22  1   
 42  20  23  1   
 43  21  46  1   
 44  22  24  1   
 45  22  47  1   
 46  22  48  1   
 47  23  25  1   
 48  23  49  1   
 49  23  50  1   
 50  24  26  1   
 51  24  27  1   
 52  24  51  1   
 53  25  27  1   
 54  25  52  1   
 55  25  53  1   
 56  26  54  1   
 57  27  55  1   
 58  27  56  1   
@<TRIPOS>SUBSTRUCTURE
  1 ****  17 GROUP 4 **** **** 0

# MOE 2024.06 (io_trps.svl 2023.06)
