@<TRIPOS>MOLECULE
NONAME
46 49 1 0 0 
SMALL
USER_CHARGES


@<TRIPOS>ATOM
  1 O       -1.6450    -4.2130    -0.1780 O.2   1 <1>  -0.5700 
  2 C       -0.4440    -4.2820    -0.2170 C.2   1 <1>   0.5690 
  3 N        0.1860    -5.3950    -0.6470 N.am  1 <1>  -0.7300 
  4 C        0.4170    -3.1210     0.2310 C.3   1 <1>  -0.0990 
  5 C        1.6560    -5.5340    -0.6770 C.3   1 <1>   0.1400 
  6 C        1.5960    -2.9140    -0.7400 C.3   1 <1>  -0.0800 
  7 C        2.2990    -4.2240    -1.1770 C.3   1 <1>  -0.0800 
  8 C        2.6880    -1.9950    -0.1740 C.3   1 <1>  -0.1600 
  9 C        3.7640    -4.0780    -0.7460 C.3   1 <1>  -0.1600 
 10 C        3.9940    -2.5690    -0.7120 C.3   1 <1>   0.2200 
 11 N        5.1830    -2.1430     0.0870 N.am  1 <1>  -0.6600 
 12 C        6.0400    -1.1750    -0.4070 C.2   1 <1>   0.5440 
 13 C        5.3810    -2.7410     1.4440 C.3   1 <1>   0.0600 
 14 O        5.7230    -0.5540    -1.4050 O.2   1 <1>  -0.5700 
 15 C        7.2940    -0.8620     0.2450 C.ar  1 <1>   0.0860 
 16 C        8.3530    -1.8140     0.3130 C.ar  1 <1>   0.0000 
 17 C        7.4650     0.3750     0.8280 C.ar  1 <1>  -0.1500 
 18 C        9.5240    -1.4880     1.0350 C.ar  1 <1>   0.0000 
 19 C        8.3000    -3.0790    -0.3150 C.ar  1 <1>  -0.1500 
 20 C        8.6310     0.7030     1.5200 C.ar  1 <1>  -0.1500 
 21 C        9.6360    -0.2160     1.6260 C.ar  1 <1>  -0.1500 
 22 C       10.5580    -2.4410     1.1370 C.ar  1 <1>  -0.1500 
 23 C        9.3210    -3.9830    -0.2080 C.ar  1 <1>  -0.1500 
 24 C       10.4620    -3.6630     0.5320 C.ar  1 <1>  -0.1500 
 25 H       -0.3950    -6.1910    -0.9180 H     1 <1>   0.3700 
 26 H       -0.1810    -2.2290     0.2840 H     1 <1>   0.0800 
 27 H        0.7770    -3.3460     1.2180 H     1 <1>   0.0800 
 28 H        1.9920    -5.7590     0.3220 H     1 <1>   0.0800 
 29 H        1.9340    -6.3500    -1.3220 H     1 <1>   0.0800 
 30 H        1.2010    -2.4560    -1.6330 H     1 <1>   0.0800 
 31 H        2.2800    -4.2500    -2.2540 H     1 <1>   0.0800 
 32 H        2.6830    -2.0280     0.9000 H     1 <1>   0.0800 
 33 H        2.5570    -0.9780    -0.4980 H     1 <1>   0.0800 
 34 H        4.4320    -4.5580    -1.4390 H     1 <1>   0.0800 
 35 H        3.8900    -4.5030     0.2320 H     1 <1>   0.0800 
 36 H        4.1030    -2.2400    -1.7330 H     1 <1>   0.0800 
 37 H        4.4350    -2.9180     1.9220 H     1 <1>   0.0800 
 38 H        5.9510    -2.0800     2.0730 H     1 <1>   0.0800 
 39 H        5.9090    -3.6740     1.3550 H     1 <1>   0.0800 
 40 H        6.6810     1.1080     0.7530 H     1 <1>   0.1500 
 41 H        7.4340    -3.3370    -0.8980 H     1 <1>   0.1500 
 42 H        8.7230     1.6800     1.9630 H     1 <1>   0.1500 
 43 H       10.5360     0.0260     2.1640 H     1 <1>   0.1500 
 44 H       11.4370    -2.1860     1.7010 H     1 <1>   0.1500 
 45 H        9.2620    -4.9430    -0.6900 H     1 <1>   0.1500 
 46 H       11.2560    -4.3860     0.6120 H     1 <1>   0.1500 
@<TRIPOS>BOND
  1   1   2  2   
  2   2   3  am  
  3   2   4  1   
  4   3   5  1   
  5   3  25  1   
  6   4   6  1   
  7   4  26  1   
  8   4  27  1   
  9   5   7  1   
 10   5  28  1   
 11   5  29  1   
 12   6   7  1   
 13   6   8  1   
 14   6  30  1   
 15   7   9  1   
 16   7  31  1   
 17   8  10  1   
 18   8  32  1   
 19   8  33  1   
 20   9  10  1   
 21   9  34  1   
 22   9  35  1   
 23  10  11  1   
 24  10  36  1   
 25  11  12  am  
 26  11  13  1   
 27  12  14  2   
 28  12  15  1   
 29  13  37  1   
 30  13  38  1   
 31  13  39  1   
 32  15  16  ar  
 33  15  17  ar  
 34  16  18  ar  
 35  16  19  ar  
 36  17  20  ar  
 37  17  40  1   
 38  18  21  ar  
 39  18  22  ar  
 40  19  23  ar  
 41  19  41  1   
 42  20  21  ar  
 43  20  42  1   
 44  21  43  1   
 45  22  24  ar  
 46  22  44  1   
 47  23  24  ar  
 48  23  45  1   
 49  24  46  1   
@<TRIPOS>SUBSTRUCTURE
  1 ****  11 GROUP 4 **** **** 0

# MOE 2024.06 (io_trps.svl 2023.06)
