@<TRIPOS>MOLECULE
Untitled Document
48 50 1 0 0 
SMALL
USER_CHARGES


@<TRIPOS>ATOM
  1 O        0.3620    -0.1260     0.0570 O.2   1 <1>  -0.5700 
  2 C        1.1370    -1.0500     0.1080 C.2   1 <1>   0.5690 
  3 N        0.8160    -2.3710     0.0690 N.am  1 <1>  -0.6600 
  4 C        2.6210    -0.8500     0.2390 C.3   1 <1>  -0.0990 
  5 C        2.0170    -3.2250     0.1840 C.3   1 <1>   0.1400 
  6 C       -0.5080    -3.0540    -0.0940 C.3   1 <1>   0.1400 
  7 C        3.1490    -2.2570     0.5500 C.3   1 <1>  -0.1600 
  8 C       -1.7300    -2.1250    -0.2560 C.3   1 <1>   0.2000 
  9 O       -1.8690    -1.3170     0.8730 O.3   1 <1>  -0.6800 
 10 C       -3.0460    -2.9040    -0.4590 C.3   1 <1>   0.3430 
 11 N       -4.2110    -2.0510    -0.0730 N.4   1 <1>  -0.9590 
 12 C       -5.4290    -2.8410     0.3290 C.3   1 <1>   0.3430 
 13 C       -4.5350    -0.9970    -1.1040 C.3   1 <1>   0.3430 
 14 C       -6.6040    -1.9360     0.7600 C.3   1 <1>   0.2090 
 15 C       -5.7070    -0.0910    -0.6710 C.3   1 <1>   0.2090 
 16 N       -6.8930    -0.9090    -0.2820 N.pl3 1 <1>  -0.8380 
 17 C       -8.0910    -0.2190    -0.1370 C.ar  1 <1>   0.1000 
 18 C       -9.1350    -0.4650    -1.0180 C.ar  1 <1>  -0.1500 
 19 C       -8.2750     0.7180     0.8750 C.ar  1 <1>  -0.1500 
 20 C      -10.3380     0.2070    -0.8950 C.ar  1 <1>  -0.1500 
 21 C       -9.4760     1.3920     1.0010 C.ar  1 <1>  -0.1500 
 22 C      -10.5100     1.1380     0.1160 C.ar  1 <1>  -0.1500 
 23 H        2.8440    -0.1540     1.0270 H     1 <1>   0.0800 
 24 H        3.0090    -0.4860    -0.6940 H     1 <1>   0.0800 
 25 H        2.2140    -3.7000    -0.7620 H     1 <1>   0.0800 
 26 H        1.8860    -3.9730     0.9490 H     1 <1>   0.0800 
 27 H       -0.6690    -3.6910     0.7590 H     1 <1>   0.0800 
 28 H       -0.4440    -3.6860    -0.9630 H     1 <1>   0.0800 
 29 H        3.3540    -2.3430     1.6030 H     1 <1>   0.0800 
 30 H        4.0500    -2.4800     0.0060 H     1 <1>   0.0800 
 31 H       -1.5690    -1.4800    -1.1030 H     1 <1>   0.0800 
 32 H       -1.0590    -0.7350     0.9070 H     1 <1>   0.4000 
 33 H       -3.0180    -3.7740     0.1750 H     1 <1>   0.0800 
 34 H       -3.1340    -3.2370    -1.4800 H     1 <1>   0.0800 
 35 H       -3.8530    -1.5370     0.7570 H     1 <1>   0.4500 
 36 H       -5.1840    -3.5060     1.1400 H     1 <1>   0.0800 
 37 H       -5.7600    -3.4390    -0.5040 H     1 <1>   0.0800 
 38 H       -4.8070    -1.4720    -2.0320 H     1 <1>   0.0800 
 39 H       -3.6690    -0.3820    -1.2830 H     1 <1>   0.0800 
 40 H       -6.3680    -1.4510     1.6910 H     1 <1>   0.0800 
 41 H       -7.4830    -2.5400     0.9140 H     1 <1>   0.0800 
 42 H       -5.9770     0.5590    -1.4860 H     1 <1>   0.0800 
 43 H       -5.4020     0.5260     0.1560 H     1 <1>   0.0800 
 44 H       -8.9990    -1.1870    -1.8010 H     1 <1>   0.1500 
 45 H       -7.4780     0.9200     1.5640 H     1 <1>   0.1500 
 46 H      -11.1400     0.0080    -1.5840 H     1 <1>   0.1500 
 47 H       -9.6090     2.1160     1.7860 H     1 <1>   0.1500 
 48 H      -11.4450     1.6620     0.2130 H     1 <1>   0.1500 
@<TRIPOS>BOND
  1   1   2  2   
  2   2   3  am  
  3   2   4  1   
  4   3   5  1   
  5   3   6  1   
  6   4   7  1   
  7   4  23  1   
  8   4  24  1   
  9   5   7  1   
 10   5  25  1   
 11   5  26  1   
 12   6   8  1   
 13   6  27  1   
 14   6  28  1   
 15   7  29  1   
 16   7  30  1   
 17   8   9  1   
 18   8  10  1   
 19   8  31  1   
 20   9  32  1   
 21  10  11  1   
 22  10  33  1   
 23  10  34  1   
 24  11  12  1   
 25  11  13  1   
 26  11  35  1   
 27  12  14  1   
 28  12  36  1   
 29  12  37  1   
 30  13  15  1   
 31  13  38  1   
 32  13  39  1   
 33  14  16  1   
 34  14  40  1   
 35  14  41  1   
 36  15  16  1   
 37  15  42  1   
 38  15  43  1   
 39  16  17  1   
 40  17  18  ar  
 41  17  19  ar  
 42  18  20  ar  
 43  18  44  1   
 44  19  21  ar  
 45  19  45  1   
 46  20  22  ar  
 47  20  46  1   
 48  21  22  ar  
 49  21  47  1   
 50  22  48  1   
@<TRIPOS>SUBSTRUCTURE
  1 ****  11 GROUP 4 **** **** 0

# MOE 2024.06 (io_trps.svl 2023.06)
