@<TRIPOS>MOLECULE
NONAME
48 51 1 0 0 
SMALL
USER_CHARGES


@<TRIPOS>ATOM
  1 O       -2.2570     0.9510    -2.5760 O.2   1 <1>  -0.5700 
  2 C       -1.9950     1.1890    -1.4120 C.2   1 <1>   0.5440 
  3 N       -2.4440     0.3190    -0.4410 N.am  1 <1>  -0.6600 
  4 C       -1.2550     2.3910    -1.0830 C.ar  1 <1>   0.0860 
  5 C       -3.1370    -0.9550    -0.8120 C.3   1 <1>   0.1400 
  6 C       -2.5860     0.6920     0.9950 C.3   1 <1>   0.1400 
  7 C       -0.0670     2.3350    -0.3460 C.ar  1 <1>  -0.1500 
  8 C       -1.7170     3.6460    -1.5060 C.ar  1 <1>  -0.1500 
  9 C       -4.6620    -0.7850    -0.9220 C.3   1 <1>   0.1400 
 10 C       -3.7760     1.6350     1.2150 C.3   1 <1>  -0.1600 
 11 C        0.5890     3.5080    -0.0440 C.ar  1 <1>   0.0830 
 12 C       -1.0440     4.8200    -1.1970 C.ar  1 <1>  -0.1500 
 13 N       -5.2610    -0.1530     0.3010 N.am  1 <1>  -0.6600 
 14 C       -5.0250     1.3150     0.3830 C.3   1 <1>   0.1400 
 15 O        1.7210     3.6690     0.6500 O.3   1 <1>  -0.3630 
 16 C        0.1160     4.7200    -0.4560 C.ar  1 <1>   0.0830 
 17 C       -6.0060    -0.7920     1.2640 C.2   1 <1>   0.5690 
 18 C        1.9920     5.0700     0.6710 C.3   1 <1>   0.4000 
 19 O        0.9260     5.6950    -0.0400 O.3   1 <1>  -0.3630 
 20 O       -6.4130    -0.1980     2.2370 O.2   1 <1>  -0.5700 
 21 C       -6.3240    -2.2780     1.1910 C.3   1 <1>   0.0810 
 22 C       -7.5460    -2.5580     0.3360 C.2   1 <1>  -0.0400 
 23 O       -7.4820    -2.4530    -0.9640 O.3   1 <1>  -0.0190 
 24 C       -8.7940    -2.9310     0.6570 C.2   1 <1>  -0.1500 
 25 N       -8.6170    -2.7370    -1.5310 N.2   1 <1>  -0.4100 
 26 C       -9.4290    -3.0260    -0.5780 C.2   1 <1>   0.1080 
 27 C      -10.8760    -3.4150    -0.7810 C.3   1 <1>  -0.0590 
 28 H       -2.9130    -1.7100    -0.0810 H     1 <1>   0.0800 
 29 H       -2.7590    -1.3060    -1.7570 H     1 <1>   0.0800 
 30 H       -1.6840     1.1510     1.3570 H     1 <1>   0.0800 
 31 H       -2.7410    -0.2020     1.5750 H     1 <1>   0.0800 
 32 H        0.3330     1.3920    -0.0200 H     1 <1>   0.1500 
 33 H       -2.6200     3.6900    -2.0900 H     1 <1>   0.1500 
 34 H       -5.1010    -1.7450    -1.1120 H     1 <1>   0.0800 
 35 H       -4.8790    -0.1720    -1.7810 H     1 <1>   0.0800 
 36 H       -3.4730     2.6430     1.0020 H     1 <1>   0.0800 
 37 H       -4.0440     1.6050     2.2560 H     1 <1>   0.0800 
 38 H       -1.4000     5.7820    -1.5210 H     1 <1>   0.1500 
 39 H       -4.9030     1.7110    -0.6110 H     1 <1>   0.0800 
 40 H       -5.8830     1.7990     0.8180 H     1 <1>   0.0800 
 41 H        2.9240     5.2650     0.1700 H     1 <1>   0.0800 
 42 H        2.0040     5.4220     1.6880 H     1 <1>   0.0800 
 43 H       -6.5180    -2.6250     2.1890 H     1 <1>   0.0800 
 44 H       -5.4790    -2.8240     0.8210 H     1 <1>   0.0800 
 45 H       -9.2330    -3.1150     1.6200 H     1 <1>   0.1500 
 46 H      -11.5150    -2.7170    -0.2720 H     1 <1>   0.0800 
 47 H      -11.0470    -4.4020    -0.3930 H     1 <1>   0.0800 
 48 H      -11.1160    -3.4060    -1.8290 H     1 <1>   0.0800 
@<TRIPOS>BOND
  1   1   2  2   
  2   2   3  am  
  3   2   4  1   
  4   3   5  1   
  5   3   6  1   
  6   4   7  ar  
  7   4   8  ar  
  8   5   9  1   
  9   5  28  1   
 10   5  29  1   
 11   6  10  1   
 12   6  30  1   
 13   6  31  1   
 14   7  11  ar  
 15   7  32  1   
 16   8  12  ar  
 17   8  33  1   
 18   9  13  1   
 19   9  34  1   
 20   9  35  1   
 21  10  14  1   
 22  10  36  1   
 23  10  37  1   
 24  11  15  1   
 25  11  16  ar  
 26  12  16  ar  
 27  12  38  1   
 28  13  14  1   
 29  13  17  am  
 30  14  39  1   
 31  14  40  1   
 32  15  18  1   
 33  16  19  1   
 34  17  20  2   
 35  17  21  1   
 36  18  19  1   
 37  18  41  1   
 38  18  42  1   
 39  21  22  1   
 40  21  43  1   
 41  21  44  1   
 42  22  23  1   
 43  22  24  2   
 44  23  25  1   
 45  24  26  1   
 46  24  45  1   
 47  25  26  2   
 48  26  27  1   
 49  27  46  1   
 50  27  47  1   
 51  27  48  1   
@<TRIPOS>SUBSTRUCTURE
  1 ****   3 GROUP 4 **** **** 0

# MOE 2024.06 (io_trps.svl 2023.06)
