@<TRIPOS>MOLECULE
NONAME
45 47 1 0 0 
SMALL
USER_CHARGES


@<TRIPOS>ATOM
  1 O       -0.4190     0.0250     0.9730 O.2   1 <1>  -0.5700 
  2 C       -1.3430     0.6730     0.5410 C.2   1 <1>   0.5690 
  3 N       -2.4540     0.0350     0.0400 N.am  1 <1>  -0.6600 
  4 C       -1.1760     2.2010     0.5840 C.3   1 <1>  -0.0190 
  5 C       -3.7090     0.6190    -0.4960 C.3   1 <1>   0.1400 
  6 C       -2.5080    -1.4480    -0.0390 C.3   1 <1>   0.1400 
  7 C       -2.2570     2.9500     1.3920 C.3   1 <1>  -0.1600 
  8 C       -0.9760     2.8290    -0.8120 C.3   1 <1>  -0.1600 
  9 C       -4.4800    -0.5630    -1.0820 C.3   1 <1>   0.2000 
 10 C       -3.9700    -1.7900    -0.3330 C.3   1 <1>  -0.0800 
 11 C       -1.9330     4.4490     1.4930 C.3   1 <1>  -0.1600 
 12 C       -0.6710     4.3330    -0.7100 C.3   1 <1>  -0.1600 
 13 O       -5.8470    -0.4260    -0.8960 O.3   1 <1>  -0.6800 
 14 C       -4.1690    -3.0930    -1.1270 C.3   1 <1>  -0.0170 
 15 C       -1.7480     5.0600     0.1010 C.3   1 <1>   0.2000 
 16 C       -3.6900    -4.3070    -0.3480 C.ar  1 <1>   0.1670 
 17 O       -1.3640     6.3720     0.2520 O.3   1 <1>  -0.6800 
 18 N       -2.3970    -4.5780    -0.4110 N.ar  1 <1>  -0.6200 
 19 C       -4.6000    -5.0670     0.3860 C.ar  1 <1>   0.1600 
 20 C       -2.0760    -5.6430     0.3050 C.ar  1 <1>   0.1600 
 21 N       -4.2820    -6.1330     1.1020 N.ar  1 <1>  -0.6200 
 22 C       -2.9870    -6.3940     1.0360 C.ar  1 <1>   0.1600 
 23 H       -0.2520     2.3630     1.1130 H     1 <1>   0.0800 
 24 H       -4.2690     1.0570     0.3110 H     1 <1>   0.0800 
 25 H       -3.5090     1.3470    -1.2590 H     1 <1>   0.0800 
 26 H       -1.8660    -1.7790    -0.8380 H     1 <1>   0.0800 
 27 H       -2.1770    -1.8980     0.8830 H     1 <1>   0.0800 
 28 H       -3.2160     2.8480     0.9230 H     1 <1>   0.0800 
 29 H       -2.3220     2.5270     2.3800 H     1 <1>   0.0800 
 30 H       -0.1600     2.3330    -1.3100 H     1 <1>   0.0800 
 31 H       -1.8550     2.6940    -1.4120 H     1 <1>   0.0800 
 32 H       -4.2850    -0.6390    -2.1380 H     1 <1>   0.0800 
 33 H       -4.4740    -1.8670     0.6140 H     1 <1>   0.0800 
 34 H       -1.0320     4.5740     2.0680 H     1 <1>   0.0800 
 35 H       -2.7360     4.9540     2.0000 H     1 <1>   0.0800 
 36 H       -0.6230     4.7550    -1.6980 H     1 <1>   0.0800 
 37 H        0.2870     4.4610    -0.2360 H     1 <1>   0.0800 
 38 H       -6.0600    -0.3730     0.0560 H     1 <1>   0.4000 
 39 H       -3.6320    -3.0420    -2.0590 H     1 <1>   0.0800 
 40 H       -5.2120    -3.2070    -1.3630 H     1 <1>   0.0800 
 41 H       -2.6830     5.0530    -0.4350 H     1 <1>   0.0800 
 42 H       -0.5160     6.4170     0.7310 H     1 <1>   0.4000 
 43 H       -5.6360    -4.7800     0.3830 H     1 <1>   0.1500 
 44 H       -1.0410    -5.9350     0.3130 H     1 <1>   0.1500 
 45 H       -2.6300    -7.2450     1.5880 H     1 <1>   0.1500 
@<TRIPOS>BOND
  1   1   2  2   
  2   2   3  am  
  3   2   4  1   
  4   3   5  1   
  5   3   6  1   
  6   4   7  1   
  7   4   8  1   
  8   4  23  1   
  9   5   9  1   
 10   5  24  1   
 11   5  25  1   
 12   6  10  1   
 13   6  26  1   
 14   6  27  1   
 15   7  11  1   
 16   7  28  1   
 17   7  29  1   
 18   8  12  1   
 19   8  30  1   
 20   8  31  1   
 21   9  10  1   
 22   9  13  1   
 23   9  32  1   
 24  10  14  1   
 25  10  33  1   
 26  11  15  1   
 27  11  34  1   
 28  11  35  1   
 29  12  15  1   
 30  12  36  1   
 31  12  37  1   
 32  13  38  1   
 33  14  16  1   
 34  14  39  1   
 35  14  40  1   
 36  15  17  1   
 37  15  41  1   
 38  16  18  ar  
 39  16  19  ar  
 40  17  42  1   
 41  18  20  ar  
 42  19  21  ar  
 43  19  43  1   
 44  20  22  ar  
 45  20  44  1   
 46  21  22  ar  
 47  22  45  1   
@<TRIPOS>SUBSTRUCTURE
  1 ****   3 GROUP 4 **** **** 0

# MOE 2024.06 (io_trps.svl 2023.06)
