@<TRIPOS>MOLECULE
NONAME
48 49 1 0 0 
SMALL
USER_CHARGES


@<TRIPOS>ATOM
  1 O       -3.1580     0.6800     1.1900 O.2   1 <1>  -0.5700 
  2 C       -2.9370     1.1640     0.0960 C.2   1 <1>   0.5440 
  3 N       -3.5340     0.5430    -0.9650 N.am  1 <1>  -0.6600 
  4 C       -2.1550     2.3790    -0.0580 C.ar  1 <1>   0.0860 
  5 C       -3.1010    -0.8340    -1.3500 C.3   1 <1>   0.3210 
  6 C       -4.7350     1.1260    -1.6400 C.3   1 <1>   0.1400 
  7 C       -1.7510     2.8460    -1.3130 C.ar  1 <1>  -0.1500 
  8 C       -1.7770     3.1390     1.0520 C.ar  1 <1>  -0.1500 
  9 C       -4.0510    -1.9250    -0.8600 C.2   1 <1>   0.0460 
 10 C       -6.0580     0.6720    -0.9870 C.3   1 <1>   0.3430 
 11 C       -1.0260     4.0140    -1.4490 C.ar  1 <1>  -0.1500 
 12 C       -1.0510     4.3080     0.9240 C.ar  1 <1>  -0.1500 
 13 N       -5.1560    -2.2590    -1.5620 N.2   1 <1>  -0.5650 
 14 C       -3.9250    -2.7130     0.2350 C.2   1 <1>  -0.3320 
 15 N       -5.9430     0.5930     0.5030 N.4   1 <1>  -0.9590 
 16 C       -0.6720     4.7580    -0.3370 C.ar  1 <1>   0.0830 
 17 C       -5.6480    -3.2630    -0.9110 C.2   1 <1>   0.0360 
 18 N       -4.9480    -3.5860     0.1960 N.pl3 1 <1>   0.0330 
 19 C       -2.8730    -2.7330     1.3330 C.3   1 <1>  -0.0600 
 20 C       -6.8220    -0.4670     1.0610 C.3   1 <1>   0.2630 
 21 C       -6.1250     1.9050     1.1860 C.3   1 <1>   0.2630 
 22 O        0.0330     5.8890    -0.5550 O.3   1 <1>  -0.3630 
 23 C        0.4720     6.7100     0.5040 C.3   1 <1>   0.0400 
 24 H       -2.1240    -1.0200    -0.9390 H     1 <1>   0.0800 
 25 H       -3.0160    -0.8990    -2.4200 H     1 <1>   0.0800 
 26 H       -4.7380     0.8470    -2.6800 H     1 <1>   0.0800 
 27 H       -4.6790     2.1990    -1.5930 H     1 <1>   0.0800 
 28 H       -2.0000     2.2880    -2.1980 H     1 <1>   0.1500 
 29 H       -2.0550     2.8030     2.0370 H     1 <1>   0.1500 
 30 H       -6.3050    -0.3000    -1.3760 H     1 <1>   0.0800 
 31 H       -6.8570     1.3370    -1.2690 H     1 <1>   0.0800 
 32 H       -0.7240     4.3620    -2.4210 H     1 <1>   0.1500 
 33 H       -0.7860     4.8550     1.8100 H     1 <1>   0.1500 
 34 H       -4.9520     0.2910     0.6720 H     1 <1>   0.4500 
 35 H       -6.5270    -3.8090    -1.2090 H     1 <1>   0.1500 
 36 H       -5.1360    -4.3580     0.8450 H     1 <1>   0.2700 
 37 H       -2.1620    -1.9380     1.1970 H     1 <1>   0.0800 
 38 H       -2.3430    -3.6690     1.3250 H     1 <1>   0.0800 
 39 H       -3.3360    -2.6030     2.2950 H     1 <1>   0.0800 
 40 H       -7.8580    -0.2210     0.8990 H     1 <1>   0.0800 
 41 H       -6.6470    -0.5750     2.1190 H     1 <1>   0.0800 
 42 H       -6.6080    -1.4080     0.5810 H     1 <1>   0.0800 
 43 H       -7.1260     2.2730     1.0350 H     1 <1>   0.0800 
 44 H       -5.4230     2.6250     0.7980 H     1 <1>   0.0800 
 45 H       -5.9470     1.7960     2.2440 H     1 <1>   0.0800 
 46 H        1.0130     7.5380     0.0830 H     1 <1>   0.0800 
 47 H        1.1210     6.1370     1.1430 H     1 <1>   0.0800 
 48 H       -0.3840     7.0700     1.0460 H     1 <1>   0.0800 
@<TRIPOS>BOND
  1   1   2  2   
  2   2   3  am  
  3   2   4  1   
  4   3   5  1   
  5   3   6  1   
  6   4   7  ar  
  7   4   8  ar  
  8   5   9  1   
  9   5  24  1   
 10   5  25  1   
 11   6  10  1   
 12   6  26  1   
 13   6  27  1   
 14   7  11  ar  
 15   7  28  1   
 16   8  12  ar  
 17   8  29  1   
 18   9  13  1   
 19   9  14  2   
 20  10  15  1   
 21  10  30  1   
 22  10  31  1   
 23  11  16  ar  
 24  11  32  1   
 25  12  16  ar  
 26  12  33  1   
 27  13  17  2   
 28  14  18  1   
 29  14  19  1   
 30  15  20  1   
 31  15  21  1   
 32  15  34  1   
 33  16  22  1   
 34  17  18  1   
 35  17  35  1   
 36  18  36  1   
 37  19  37  1   
 38  19  38  1   
 39  19  39  1   
 40  20  40  1   
 41  20  41  1   
 42  20  42  1   
 43  21  43  1   
 44  21  44  1   
 45  21  45  1   
 46  22  23  1   
 47  23  46  1   
 48  23  47  1   
 49  23  48  1   
@<TRIPOS>SUBSTRUCTURE
  1 ****   2 GROUP 4 **** **** 0

# MOE 2024.06 (io_trps.svl 2023.06)
