@<TRIPOS>MOLECULE
NONAME
44 46 1 0 0 
SMALL
USER_CHARGES


@<TRIPOS>ATOM
  1 O       -0.2980    -0.2520    -0.3090 O.2   1 <1>  -0.5700 
  2 C       -0.3350    -1.3830     0.1390 C.2   1 <1>   0.7800 
  3 O        0.7660    -2.1370     0.1830 O.3   1 <1>  -0.4300 
  4 N       -1.4880    -1.9310     0.6190 N.am  1 <1>  -0.6600 
  5 C        2.0590    -1.8050    -0.2670 C.3   1 <1>   0.2800 
  6 C       -2.7920    -1.2050     0.4830 C.3   1 <1>   0.3210 
  7 C       -1.5650    -3.3040     1.2320 C.3   1 <1>   0.1400 
  8 C        2.0430    -1.5420    -1.7780 C.3   1 <1>  -0.2400 
  9 C        2.9100    -3.0430     0.0200 C.3   1 <1>  -0.2400 
 10 C        2.6100    -0.6160     0.5300 C.3   1 <1>  -0.2400 
 11 C       -3.9030    -2.1740     0.1120 C.2   1 <1>   0.0460 
 12 C       -2.4680    -4.2430     0.4110 C.3   1 <1>  -0.0060 
 13 N       -5.1470    -1.8260    -0.2260 N.2   1 <1>  -0.2270 
 14 C       -3.7710    -3.5030     0.0790 C.2   1 <1>  -0.3320 
 15 C       -2.6390    -5.5690     1.1450 C.2   1 <1>   0.9060 
 16 N       -5.7950    -2.9140    -0.4750 N.2   1 <1>  -0.4180 
 17 N       -4.9710    -3.9670    -0.2940 N.pl3 1 <1>   0.3140 
 18 O       -2.5860    -5.6100     2.3790 O.co2 1 <1>  -0.9000 
 19 O       -2.8460    -6.5860     0.4710 O.co2 1 <1>  -0.9000 
 20 C       -5.3620    -5.3890    -0.4870 C.3   1 <1>   0.1910 
 21 C       -6.7570    -5.5640    -1.1150 C.3   1 <1>  -0.1950 
 22 C       -7.9940    -5.5420    -0.2740 C.3   1 <1>  -0.2000 
 23 C       -7.5330    -6.8260    -0.9050 C.3   1 <1>  -0.2000 
 24 H       -2.7240    -0.4500    -0.2810 H     1 <1>   0.0800 
 25 H       -3.0340    -0.7300     1.4160 H     1 <1>   0.0800 
 26 H       -1.9740    -3.2070     2.2240 H     1 <1>   0.0800 
 27 H       -0.5890    -3.7470     1.3290 H     1 <1>   0.0800 
 28 H        1.5820    -2.3650    -2.2930 H     1 <1>   0.0800 
 29 H        3.0480    -1.4300    -2.1420 H     1 <1>   0.0800 
 30 H        1.5110    -0.6380    -2.0080 H     1 <1>   0.0800 
 31 H        2.5190    -3.8930    -0.5090 H     1 <1>   0.0800 
 32 H        2.9090    -3.2580     1.0740 H     1 <1>   0.0800 
 33 H        3.9250    -2.8830    -0.2940 H     1 <1>   0.0800 
 34 H        2.0750     0.2860     0.2980 H     1 <1>   0.0800 
 35 H        3.6430    -0.4550     0.2820 H     1 <1>   0.0800 
 36 H        2.5370    -0.8100     1.5850 H     1 <1>   0.0800 
 37 H       -1.9650    -4.4700    -0.5090 H     1 <1>   0.0800 
 38 H       -5.3300    -5.8730     0.4720 H     1 <1>   0.0800 
 39 H       -4.6280    -5.8530    -1.1190 H     1 <1>   0.0800 
 40 H       -6.8150    -5.1170    -2.0920 H     1 <1>   0.1000 
 41 H       -8.8600    -5.0380    -0.6660 H     1 <1>   0.1000 
 42 H       -7.8890    -5.4110     0.7890 H     1 <1>   0.1000 
 43 H       -7.1190    -7.5930    -0.2710 H     1 <1>   0.1000 
 44 H       -8.0940    -7.2300    -1.7290 H     1 <1>   0.1000 
@<TRIPOS>BOND
  1   1   2  2   
  2   2   3  1   
  3   2   4  am  
  4   3   5  1   
  5   4   6  1   
  6   4   7  1   
  7   5   8  1   
  8   5   9  1   
  9   5  10  1   
 10   6  11  1   
 11   6  24  1   
 12   6  25  1   
 13   7  12  1   
 14   7  26  1   
 15   7  27  1   
 16   8  28  1   
 17   8  29  1   
 18   8  30  1   
 19   9  31  1   
 20   9  32  1   
 21   9  33  1   
 22  10  34  1   
 23  10  35  1   
 24  10  36  1   
 25  11  13  1   
 26  11  14  2   
 27  12  14  1   
 28  12  15  1   
 29  12  37  1   
 30  13  16  2   
 31  14  17  1   
 32  15  18  ar  
 33  15  19  ar  
 34  16  17  1   
 35  17  20  1   
 36  20  21  1   
 37  20  38  1   
 38  20  39  1   
 39  21  22  1   
 40  21  23  1   
 41  21  40  1   
 42  22  23  1   
 43  22  41  1   
 44  22  42  1   
 45  23  43  1   
 46  23  44  1   
@<TRIPOS>SUBSTRUCTURE
  1 ****  12 GROUP 4 **** **** 0

# MOE 2024.06 (io_trps.svl 2023.06)
