@<TRIPOS>MOLECULE
NONAME
44 45 1 0 0 
SMALL
USER_CHARGES


@<TRIPOS>ATOM
  1 F       -0.9470    -1.3560     1.3000 F     1 <1>  -0.3400 
  2 C       -1.1990    -1.4980     0.0060 C.3   1 <1>   1.0200 
  3 F       -0.0390    -1.3840    -0.6230 F     1 <1>  -0.3400 
  4 F       -1.9310    -0.4510    -0.3480 F     1 <1>  -0.3400 
  5 C       -1.9000    -2.8200    -0.3040 C.3   1 <1>  -0.1600 
  6 C       -3.2610    -2.9840     0.4130 C.3   1 <1>  -0.0990 
  7 C       -3.9780    -4.2900     0.0880 C.2   1 <1>   0.5690 
  8 O       -3.3950    -5.1010    -0.5920 O.2   1 <1>  -0.5700 
  9 N       -5.2510    -4.5150     0.5500 N.am  1 <1>  -0.6600 
 10 C       -5.9680    -5.7870     0.2280 C.3   1 <1>   0.1400 
 11 C       -6.0490    -3.5450     1.3500 C.3   1 <1>   0.1400 
 12 C       -7.2050    -5.5450    -0.6500 C.3   1 <1>   0.1400 
 13 C       -6.9820    -2.7690     0.4140 C.3   1 <1>  -0.1600 
 14 N       -8.3220    -4.9210     0.1290 N.am  1 <1>  -0.6600 
 15 C       -8.3530    -3.4270     0.2020 C.3   1 <1>   0.1400 
 16 C       -9.3370    -5.6830     0.7000 C.2   1 <1>   0.5440 
 17 O      -10.2530    -5.0920     1.2510 O.2   1 <1>  -0.5700 
 18 C       -9.3680    -7.1490     0.6330 C.ar  1 <1>   0.3960 
 19 N       -8.3610    -7.8390     1.2010 N.ar  1 <1>  -0.6200 
 20 C      -10.4260    -7.8050    -0.0220 C.ar  1 <1>  -0.1440 
 21 C       -8.4130    -9.1540     1.1350 C.ar  1 <1>   0.1600 
 22 C      -10.4540    -9.1830    -0.0810 C.ar  1 <1>  -0.1500 
 23 C      -11.5630    -7.0300    -0.6830 C.3   1 <1>  -0.0970 
 24 C       -9.4200    -9.8670     0.5160 C.ar  1 <1>  -0.1500 
 25 H       -1.2440    -3.6220    -0.0150 H     1 <1>   0.0800 
 26 H       -2.0460    -2.8800    -1.3670 H     1 <1>   0.0800 
 27 H       -3.9040    -2.1700     0.1320 H     1 <1>   0.0800 
 28 H       -3.1080    -2.9470     1.4760 H     1 <1>   0.0800 
 29 H       -6.2580    -6.2750     1.1410 H     1 <1>   0.0800 
 30 H       -5.3110    -6.4590    -0.2960 H     1 <1>   0.0800 
 31 H       -5.3980    -2.8600     1.8610 H     1 <1>   0.0800 
 32 H       -6.6190    -4.0670     2.1020 H     1 <1>   0.0800 
 33 H       -7.5300    -6.4890    -1.0510 H     1 <1>   0.0800 
 34 H       -6.9400    -4.9210    -1.4850 H     1 <1>   0.0800 
 35 H       -6.5030    -2.6090    -0.5350 H     1 <1>   0.0800 
 36 H       -7.1600    -1.7980     0.8390 H     1 <1>   0.0800 
 37 H       -8.8010    -3.0440    -0.6980 H     1 <1>   0.0800 
 38 H       -8.9850    -3.1290     1.0220 H     1 <1>   0.0800 
 39 H       -7.6080    -9.6980     1.6000 H     1 <1>   0.1500 
 40 H      -11.2520    -9.7150    -0.5700 H     1 <1>   0.1500 
 41 H      -11.1720    -6.2600    -1.3240 H     1 <1>   0.0800 
 42 H      -12.1780    -6.5700     0.0710 H     1 <1>   0.0800 
 43 H      -12.1830    -7.6780    -1.2760 H     1 <1>   0.0800 
 44 H       -9.3940   -10.9420     0.5030 H     1 <1>   0.1500 
@<TRIPOS>BOND
  1   1   2  1   
  2   2   3  1   
  3   2   4  1   
  4   2   5  1   
  5   5   6  1   
  6   5  25  1   
  7   5  26  1   
  8   6   7  1   
  9   6  27  1   
 10   6  28  1   
 11   7   8  2   
 12   7   9  am  
 13   9  10  1   
 14   9  11  1   
 15  10  12  1   
 16  10  29  1   
 17  10  30  1   
 18  11  13  1   
 19  11  31  1   
 20  11  32  1   
 21  12  14  1   
 22  12  33  1   
 23  12  34  1   
 24  13  15  1   
 25  13  35  1   
 26  13  36  1   
 27  14  15  1   
 28  14  16  am  
 29  15  37  1   
 30  15  38  1   
 31  16  17  2   
 32  16  18  1   
 33  18  19  ar  
 34  18  20  ar  
 35  19  21  ar  
 36  20  22  ar  
 37  20  23  1   
 38  21  24  ar  
 39  21  39  1   
 40  22  24  ar  
 41  22  40  1   
 42  23  41  1   
 43  23  42  1   
 44  23  43  1   
 45  24  44  1   
@<TRIPOS>SUBSTRUCTURE
  1 ****  10 GROUP 4 **** **** 0

# MOE 2024.06 (io_trps.svl 2023.06)
