@<TRIPOS>MOLECULE
NONAME
41 43 1 0 0 
SMALL
USER_CHARGES


@<TRIPOS>ATOM
  1 O        2.5840    -0.6380     2.6950 O.2   1 <1>  -0.5700 
  2 C        2.3800    -0.9580     1.5470 C.2   1 <1>   0.5690 
  3 N        2.3120    -0.0660     0.5100 N.am  1 <1>  -0.4940 
  4 C        2.1860    -2.4390     1.2360 C.3   1 <1>   0.2610 
  5 C        2.5040     1.3350     0.4160 C.2   1 <1>  -0.0880 
  6 O        2.0920    -2.6450    -0.1750 O.3   1 <1>  -0.3630 
  7 C        0.9270    -2.9730     1.9330 C.3   1 <1>   0.1200 
  8 N        2.3320     2.2880     1.3770 N.pl3 1 <1>   0.3140 
  9 C        2.8980     1.9940    -0.7020 C.2   1 <1>  -0.1810 
 10 C        1.5760    -3.8270    -0.5950 C.ar  1 <1>   0.0820 
 11 O        0.6970    -4.3250     1.5820 O.3   1 <1>  -0.3620 
 12 N        2.6090     3.5210     0.9000 N.2   1 <1>  -0.7070 
 13 C        1.8290     2.1490     2.7490 C.3   1 <1>   0.0160 
 14 C        2.9500     3.3350    -0.3330 C.2   1 <1>   0.1080 
 15 C        3.2230     1.4130    -2.0680 C.3   1 <1>   0.0210 
 16 C        0.8910    -4.6700     0.2840 C.ar  1 <1>   0.0820 
 17 C        1.7420    -4.1960    -1.9180 C.ar  1 <1>  -0.1500 
 18 C        3.3480     4.4860    -1.2290 C.3   1 <1>  -0.0590 
 19 C        4.6940     1.0000    -2.1350 C.3   1 <1>  -0.2400 
 20 C        0.3930    -5.8800    -0.1670 C.ar  1 <1>  -0.1500 
 21 C        1.2370    -5.4060    -2.3660 C.ar  1 <1>  -0.1500 
 22 C        0.5660    -6.2470    -1.4920 C.ar  1 <1>  -0.1500 
 23 H        2.2080    -0.5300    -0.3960 H     1 <1>   0.3700 
 24 H        3.0460    -2.9790     1.5870 H     1 <1>   0.0800 
 25 H        0.0640    -2.4000     1.6420 H     1 <1>   0.0800 
 26 H        1.0360    -2.9230     3.0010 H     1 <1>   0.0800 
 27 H        1.0290     1.4350     2.7640 H     1 <1>   0.0800 
 28 H        1.4690     3.1010     3.0910 H     1 <1>   0.0800 
 29 H        2.6300     1.8190     3.3820 H     1 <1>   0.0800 
 30 H        3.0110     2.1390    -2.8320 H     1 <1>   0.0800 
 31 H        2.6000     0.5560    -2.2530 H     1 <1>   0.0800 
 32 H        2.2660    -3.5430    -2.5920 H     1 <1>   0.1500 
 33 H        4.2270     4.2320    -1.7910 H     1 <1>   0.0800 
 34 H        3.5600     5.3540    -0.6310 H     1 <1>   0.0800 
 35 H        2.5440     4.7150    -1.9020 H     1 <1>   0.0800 
 36 H        5.3260     1.8530    -1.9640 H     1 <1>   0.0800 
 37 H        4.9220     0.5860    -3.1010 H     1 <1>   0.0800 
 38 H        4.9060     0.2620    -1.3810 H     1 <1>   0.0800 
 39 H       -0.1270    -6.5250     0.5170 H     1 <1>   0.1500 
 40 H        1.3660    -5.6950    -3.3950 H     1 <1>   0.1500 
 41 H        0.1770    -7.1880    -1.8420 H     1 <1>   0.1500 
@<TRIPOS>BOND
  1   1   2  2   
  2   2   3  am  
  3   2   4  1   
  4   3   5  1   
  5   3  23  1   
  6   4   6  1   
  7   4   7  1   
  8   4  24  1   
  9   5   8  1   
 10   5   9  2   
 11   6  10  1   
 12   7  11  1   
 13   7  25  1   
 14   7  26  1   
 15   8  12  1   
 16   8  13  1   
 17   9  14  1   
 18   9  15  1   
 19  10  16  ar  
 20  10  17  ar  
 21  11  16  1   
 22  12  14  2   
 23  13  27  1   
 24  13  28  1   
 25  13  29  1   
 26  14  18  1   
 27  15  19  1   
 28  15  30  1   
 29  15  31  1   
 30  16  20  ar  
 31  17  21  ar  
 32  17  32  1   
 33  18  33  1   
 34  18  34  1   
 35  18  35  1   
 36  19  36  1   
 37  19  37  1   
 38  19  38  1   
 39  20  22  ar  
 40  20  39  1   
 41  21  22  ar  
 42  21  40  1   
 43  22  41  1   
@<TRIPOS>SUBSTRUCTURE
  1 ****   3 GROUP 4 **** **** 0

# MOE 2024.06 (io_trps.svl 2023.06)
