@<TRIPOS>MOLECULE
NONAME
43 44 1 0 0 
SMALL
USER_CHARGES


@<TRIPOS>ATOM
  1 O       -1.0880     0.1970     1.9870 O.2   1 <1>  -0.5700 
  2 C       -1.3550     0.6980     0.9220 C.2   1 <1>   0.5690 
  3 N       -1.7810    -0.0460    -0.1340 N.am  1 <1>  -0.7300 
  4 C       -1.2270     2.2110     0.7640 C.3   1 <1>  -0.0190 
  5 C       -1.9740    -1.5080    -0.1130 C.3   1 <1>   0.1400 
  6 C       -2.5720     2.8650     0.3910 C.3   1 <1>  -0.1600 
  7 C       -0.1110     2.5990    -0.2370 C.3   1 <1>  -0.1600 
  8 C       -3.4690    -1.8080    -0.1920 C.3   1 <1>  -0.1600 
  9 C       -2.4880     4.4050     0.3830 C.3   1 <1>   0.2000 
 10 C       -0.2820     4.0070    -0.8410 C.3   1 <1>  -0.1600 
 11 C       -3.7310    -3.3140    -0.0780 C.3   1 <1>   0.0960 
 12 O       -3.3620     4.8790    -0.6120 O.3   1 <1>  -0.5600 
 13 C       -1.0560     4.9330     0.1000 C.3   1 <1>   0.2000 
 14 N       -5.1770    -3.5900    -0.1780 N.pl3 1 <1>   0.0480 
 15 C       -4.6990     4.9730    -0.2280 C.3   1 <1>   0.0400 
 16 O       -1.1410     6.1740    -0.4970 O.3   1 <1>  -0.6800 
 17 C       -5.8780    -3.9630    -1.2720 C.2   1 <1>   0.0360 
 18 C       -6.0930    -3.5160     0.8040 C.2   1 <1>  -0.3020 
 19 N       -7.1430    -4.1270    -1.0570 N.2   1 <1>  -0.5650 
 20 C       -7.2810    -3.8460     0.2520 C.2   1 <1>   0.0770 
 21 H       -2.0090     0.4280    -1.0090 H     1 <1>   0.3700 
 22 H       -0.9450     2.5960     1.7300 H     1 <1>   0.0800 
 23 H       -1.4520    -1.9490    -0.9460 H     1 <1>   0.0800 
 24 H       -1.5640    -1.9160     0.7980 H     1 <1>   0.0800 
 25 H       -3.3240     2.5570     1.0950 H     1 <1>   0.0800 
 26 H       -2.8620     2.5220    -0.5870 H     1 <1>   0.0800 
 27 H        0.8340     2.5440     0.2770 H     1 <1>   0.0800 
 28 H       -0.0690     1.8910    -1.0470 H     1 <1>   0.0800 
 29 H       -3.8570    -1.4460    -1.1270 H     1 <1>   0.0800 
 30 H       -3.9680    -1.3050     0.6180 H     1 <1>   0.0800 
 31 H       -2.7970     4.8000     1.3370 H     1 <1>   0.0800 
 32 H       -0.8270     3.9290    -1.7660 H     1 <1>   0.0800 
 33 H        0.6860     4.4280    -1.0550 H     1 <1>   0.0800 
 34 H       -3.3770    -3.6840     0.8680 H     1 <1>   0.0800 
 35 H       -3.2250    -3.8430    -0.8650 H     1 <1>   0.0800 
 36 H       -0.5090     5.0460     1.0200 H     1 <1>   0.0800 
 37 H       -5.2620     5.3460    -1.0660 H     1 <1>   0.0800 
 38 H       -4.7840     5.6600     0.5970 H     1 <1>   0.0800 
 39 H       -5.0660     4.0000     0.0490 H     1 <1>   0.0800 
 40 H       -1.9820     6.1680    -1.0080 H     1 <1>   0.4000 
 41 H       -5.4090    -4.1060    -2.2290 H     1 <1>   0.1500 
 42 H       -5.8600    -3.2400     1.8160 H     1 <1>   0.1500 
 43 H       -8.2430    -3.8970     0.7340 H     1 <1>   0.1500 
@<TRIPOS>BOND
  1   1   2  2   
  2   2   3  am  
  3   2   4  1   
  4   3   5  1   
  5   3  21  1   
  6   4   6  1   
  7   4   7  1   
  8   4  22  1   
  9   5   8  1   
 10   5  23  1   
 11   5  24  1   
 12   6   9  1   
 13   6  25  1   
 14   6  26  1   
 15   7  10  1   
 16   7  27  1   
 17   7  28  1   
 18   8  11  1   
 19   8  29  1   
 20   8  30  1   
 21   9  12  1   
 22   9  13  1   
 23   9  31  1   
 24  10  13  1   
 25  10  32  1   
 26  10  33  1   
 27  11  14  1   
 28  11  34  1   
 29  11  35  1   
 30  12  15  1   
 31  13  16  1   
 32  13  36  1   
 33  14  17  1   
 34  14  18  1   
 35  15  37  1   
 36  15  38  1   
 37  15  39  1   
 38  16  40  1   
 39  17  19  2   
 40  17  41  1   
 41  18  20  2   
 42  18  42  1   
 43  19  20  1   
 44  20  43  1   
@<TRIPOS>SUBSTRUCTURE
  1 ****   3 GROUP 4 **** **** 0

# MOE 2024.06 (io_trps.svl 2023.06)
