@<TRIPOS>MOLECULE
NONAME
49 52 1 0 0 
SMALL
USER_CHARGES


@<TRIPOS>ATOM
  1 S       -0.3990    -0.2480     1.4740 S.3   1 <1>  -0.0800 
  2 C        0.8050    -1.5120     1.3360 C.2   1 <1>   0.1980 
  3 C        0.8740     0.8820     1.8300 C.2   1 <1>  -0.1100 
  4 N        2.0000    -1.1230     1.5320 N.2   1 <1>  -0.5650 
  5 C        0.3250    -2.9060     1.0010 C.3   1 <1>   0.0200 
  6 C        2.0470     0.2310     1.8130 C.2   1 <1>   0.0460 
  7 C        0.0360    -3.0150    -0.4940 C.3   1 <1>   0.1400 
  8 C        3.4120     0.8280     2.0710 C.3   1 <1>  -0.0590 
  9 N       -0.3970    -4.3920    -0.8320 N.am  1 <1>  -0.7300 
 10 C       -1.6750    -4.8520    -0.7740 C.2   1 <1>   0.5690 
 11 O       -2.5750    -4.1440    -0.3900 O.2   1 <1>  -0.5700 
 12 C       -1.9740    -6.3000    -1.1800 C.3   1 <1>   0.2610 
 13 O       -0.7620    -7.0130    -1.3790 O.3   1 <1>  -0.5600 
 14 C       -2.8960    -6.9620    -0.1180 C.3   1 <1>   0.3640 
 15 C       -0.9380    -8.3660    -1.7130 C.3   1 <1>   0.1810 
 16 N       -2.5940    -8.4040     0.1480 N.am  1 <1>  -0.5090 
 17 C       -4.3610    -6.8260    -0.5380 C.ar  1 <1>  -0.1430 
 18 C       -1.7430    -9.1150    -0.6560 C.2   1 <1>   0.5690 
 19 C       -3.3680    -9.0290     1.2480 C.3   1 <1>   0.0490 
 20 C       -5.1500    -5.8290     0.0190 C.ar  1 <1>   0.1600 
 21 C       -4.9340    -7.6750    -1.4690 C.ar  1 <1>  -0.1500 
 22 O       -1.6120   -10.3150    -0.5900 O.2   1 <1>  -0.5700 
 23 C       -3.1990    -8.4940     2.6370 C.3   1 <1>  -0.2000 
 24 C       -2.6570    -9.8410     2.2830 C.3   1 <1>  -0.2000 
 25 N       -6.4270    -5.6240    -0.2620 N.ar  1 <1>  -0.6200 
 26 C       -6.2620    -7.4720    -1.7760 C.ar  1 <1>  -0.1500 
 27 C       -6.9530    -6.4480    -1.1520 C.ar  1 <1>   0.1600 
 28 H        0.6060     1.9060     2.0130 H     1 <1>   0.1500 
 29 H        1.0920    -3.6080     1.2730 H     1 <1>   0.0800 
 30 H       -0.5640    -3.1200     1.5660 H     1 <1>   0.0800 
 31 H        0.9190    -2.7670    -1.0590 H     1 <1>   0.0800 
 32 H       -0.7430    -2.3200    -0.7620 H     1 <1>   0.0800 
 33 H        3.3310     1.8790     2.2770 H     1 <1>   0.0800 
 34 H        4.0360     0.6860     1.2080 H     1 <1>   0.0800 
 35 H        3.8660     0.3380     2.9130 H     1 <1>   0.0800 
 36 H        0.3310    -5.0590    -1.1120 H     1 <1>   0.3700 
 37 H       -2.4840    -6.2710    -2.1260 H     1 <1>   0.0800 
 38 H       -2.7590    -6.4350     0.8100 H     1 <1>   0.0800 
 39 H       -1.4340    -8.4280    -2.6650 H     1 <1>   0.0800 
 40 H        0.0370    -8.8120    -1.7980 H     1 <1>   0.0800 
 41 H       -4.3470    -9.3530     0.9350 H     1 <1>   0.1000 
 42 H       -4.7120    -5.1540     0.7370 H     1 <1>   0.1500 
 43 H       -4.3810    -8.4720    -1.9360 H     1 <1>   0.1500 
 44 H       -2.4910    -7.7090     2.8320 H     1 <1>   0.1000 
 45 H       -4.0590    -8.4490     3.2820 H     1 <1>   0.1000 
 46 H       -3.1490   -10.7140     2.6740 H     1 <1>   0.1000 
 47 H       -1.5940    -9.9770     2.1850 H     1 <1>   0.1000 
 48 H       -6.7620    -8.1010    -2.4890 H     1 <1>   0.1500 
 49 H       -7.9900    -6.2990    -1.3980 H     1 <1>   0.1500 
@<TRIPOS>BOND
  1   1   2  1   
  2   1   3  1   
  3   2   4  2   
  4   2   5  1   
  5   3   6  2   
  6   3  28  1   
  7   4   6  1   
  8   5   7  1   
  9   5  29  1   
 10   5  30  1   
 11   6   8  1   
 12   7   9  1   
 13   7  31  1   
 14   7  32  1   
 15   8  33  1   
 16   8  34  1   
 17   8  35  1   
 18   9  10  am  
 19   9  36  1   
 20  10  11  2   
 21  10  12  1   
 22  12  13  1   
 23  12  14  1   
 24  12  37  1   
 25  13  15  1   
 26  14  16  1   
 27  14  17  1   
 28  14  38  1   
 29  15  18  1   
 30  15  39  1   
 31  15  40  1   
 32  16  18  am  
 33  16  19  1   
 34  17  20  ar  
 35  17  21  ar  
 36  18  22  2   
 37  19  23  1   
 38  19  24  1   
 39  19  41  1   
 40  20  25  ar  
 41  20  42  1   
 42  21  26  ar  
 43  21  43  1   
 44  23  24  1   
 45  23  44  1   
 46  23  45  1   
 47  24  46  1   
 48  24  47  1   
 49  25  27  ar  
 50  26  27  ar  
 51  26  48  1   
 52  27  49  1   
@<TRIPOS>SUBSTRUCTURE
  1 ****  10 GROUP 4 **** **** 0

# MOE 2024.06 (io_trps.svl 2023.06)
