@<TRIPOS>MOLECULE
NONAME
48 50 1 0 0 
SMALL
USER_CHARGES


@<TRIPOS>ATOM
  1 CL       0.9520     1.0030    -0.5610 Cl    1 <1>  -0.1770 
  2 C        2.1650    -0.2040    -0.2080 C.ar  1 <1>   0.1770 
  3 C        3.2440     0.1270     0.5920 C.ar  1 <1>  -0.1440 
  4 C        2.0260    -1.4620    -0.7590 C.ar  1 <1>  -0.1500 
  5 C        4.2010    -0.8440     0.8380 C.ar  1 <1>  -0.1500 
  6 C        3.3850     1.5170     1.1760 C.3   1 <1>   0.4870 
  7 C        2.9910    -2.4370    -0.5190 C.ar  1 <1>   0.0830 
  8 C        4.0910    -2.1160     0.2990 C.ar  1 <1>   0.0830 
  9 N        4.4880     2.2220     0.4710 N.4   1 <1>  -0.9590 
 10 O        2.8900    -3.6760    -1.0780 O.3   1 <1>  -0.3620 
 11 O        5.1180    -2.9450     0.6380 O.3   1 <1>  -0.3620 
 12 C        4.9650     3.4390     1.2230 C.3   1 <1>   0.3430 
 13 C        4.2060     2.4130    -0.9930 C.3   1 <1>   0.3430 
 14 C        1.7750    -4.0780    -1.8460 C.3   1 <1>   0.0400 
 15 C        5.0110    -4.3500     0.5940 C.3   1 <1>   0.1200 
 16 C        6.2820     4.0740     0.6910 C.3   1 <1>   0.2200 
 17 C        5.4430     2.7700    -1.8300 C.3   1 <1>  -0.0190 
 18 C        6.1780    -4.9360     1.3820 C.3   1 <1>  -0.2400 
 19 N        6.0300     4.8080    -0.5710 N.am  1 <1>  -0.7300 
 20 C        7.4310     3.0530     0.5000 C.3   1 <1>   0.1200 
 21 C        5.6670     4.2550    -1.7410 C.2   1 <1>   0.5690 
 22 C        6.7380     1.9810    -1.5320 C.3   1 <1>   0.1200 
 23 O        7.0210     1.8820    -0.1610 O.3   1 <1>  -0.5600 
 24 O        5.4890     4.9430    -2.7080 O.2   1 <1>  -0.5700 
 25 H        1.1650    -1.6510    -1.3720 H     1 <1>   0.1500 
 26 H        5.0570    -0.6380     1.4580 H     1 <1>   0.1500 
 27 H        3.6150     1.4300     2.2260 H     1 <1>   0.0800 
 28 H        2.4650     2.0690     1.0770 H     1 <1>   0.0800 
 29 H        5.3090     1.5820     0.4700 H     1 <1>   0.4500 
 30 H        4.1950     4.1930     1.2210 H     1 <1>   0.0800 
 31 H        5.1370     3.1570     2.2480 H     1 <1>   0.0800 
 32 H        3.8080     1.4930    -1.3920 H     1 <1>   0.0800 
 33 H        3.4520     3.1730    -1.1270 H     1 <1>   0.0800 
 34 H        1.9220    -5.1040    -2.1350 H     1 <1>   0.0800 
 35 H        1.7110    -3.4610    -2.7240 H     1 <1>   0.0800 
 36 H        0.8860    -3.9940    -1.2460 H     1 <1>   0.0800 
 37 H        4.0710    -4.6390     1.0330 H     1 <1>   0.0800 
 38 H        5.0540    -4.6630    -0.4340 H     1 <1>   0.0800 
 39 H        6.6110     4.8020     1.4130 H     1 <1>   0.0800 
 40 H        5.1910     2.5750    -2.8570 H     1 <1>   0.0800 
 41 H        6.1360    -4.6080     2.4050 H     1 <1>   0.0800 
 42 H        7.1110    -4.6320     0.9430 H     1 <1>   0.0800 
 43 H        6.1250    -6.0090     1.3640 H     1 <1>   0.0800 
 44 H        6.2180     5.8170    -0.5910 H     1 <1>   0.3700 
 45 H        7.7960     2.7480     1.4650 H     1 <1>   0.0800 
 46 H        8.2540     3.4930    -0.0390 H     1 <1>   0.0800 
 47 H        7.5840     2.4270    -2.0300 H     1 <1>   0.0800 
 48 H        6.6330     0.9740    -1.8980 H     1 <1>   0.0800 
@<TRIPOS>BOND
  1   1   2  1   
  2   2   3  ar  
  3   2   4  ar  
  4   3   5  ar  
  5   3   6  1   
  6   4   7  ar  
  7   4  25  1   
  8   5   8  ar  
  9   5  26  1   
 10   6   9  1   
 11   6  27  1   
 12   6  28  1   
 13   7   8  ar  
 14   7  10  1   
 15   8  11  1   
 16   9  12  1   
 17   9  13  1   
 18   9  29  1   
 19  10  14  1   
 20  11  15  1   
 21  12  16  1   
 22  12  30  1   
 23  12  31  1   
 24  13  17  1   
 25  13  32  1   
 26  13  33  1   
 27  14  34  1   
 28  14  35  1   
 29  14  36  1   
 30  15  18  1   
 31  15  37  1   
 32  15  38  1   
 33  16  19  1   
 34  16  20  1   
 35  16  39  1   
 36  17  21  1   
 37  17  22  1   
 38  17  40  1   
 39  18  41  1   
 40  18  42  1   
 41  18  43  1   
 42  19  21  am  
 43  19  44  1   
 44  20  23  1   
 45  20  45  1   
 46  20  46  1   
 47  21  24  2   
 48  22  23  1   
 49  22  47  1   
 50  22  48  1   
@<TRIPOS>SUBSTRUCTURE
  1 ****   3 GROUP 4 **** **** 0

# MOE 2024.06 (io_trps.svl 2023.06)
