@<TRIPOS>MOLECULE
NONAME
56 59 1 0 0 
SMALL
USER_CHARGES


@<TRIPOS>ATOM
  1 S       -0.0340    -1.2300     1.2490 S.o2  1 <1>   1.4470 
  2 O        0.9170    -2.3050     1.4440 O.2   1 <1>  -0.6500 
  3 O       -0.9380    -0.9530     2.3470 O.2   1 <1>  -0.6500 
  4 N       -0.9580    -1.6800    -0.1060 N.am  1 <1>  -0.8490 
  5 C        0.8870     0.2390     0.7140 C.ar  1 <1>  -0.0090 
  6 C       -2.0320    -0.7510    -0.4590 C.3   1 <1>   0.1960 
  7 C       -1.6180    -2.9710     0.0700 C.3   1 <1>   0.1960 
  8 C        0.3960     1.5340     0.8700 C.ar  1 <1>   0.0820 
  9 C        2.1280     0.0960     0.1030 C.ar  1 <1>  -0.1500 
 10 C       -3.2590    -1.2000     0.3310 C.3   1 <1>  -0.0800 
 11 C       -3.0110    -2.6850     0.6460 C.3   1 <1>  -0.0800 
 12 O       -0.8150     1.7530     1.4210 O.3   1 <1>  -0.3630 
 13 C        1.1190     2.6360     0.4350 C.ar  1 <1>  -0.1500 
 14 C        2.8650     1.1870    -0.3300 C.ar  1 <1>   0.0820 
 15 C       -4.6150    -0.8520    -0.3180 C.3   1 <1>   0.4240 
 16 C       -4.0910    -3.6460     0.1160 C.3   1 <1>  -0.1600 
 17 C       -0.8310     2.2060     2.7550 C.3   1 <1>   0.0400 
 18 C        2.3540     2.4690    -0.1610 C.ar  1 <1>  -0.1500 
 19 O        4.0650     0.9210    -0.9060 O.3   1 <1>  -0.3630 
 20 O       -4.6240    -1.3080    -1.6250 O.3   1 <1>  -0.6800 
 21 C       -4.8660     0.6710    -0.3000 C.ar  1 <1>  -0.1440 
 22 C       -5.7260    -1.6350     0.4020 C.3   1 <1>  -0.1600 
 23 C       -5.5220    -3.1710     0.4390 C.3   1 <1>  -0.1600 
 24 C        4.8930     1.9580    -1.3820 C.3   1 <1>   0.0400 
 25 C       -4.9730     1.4240    -1.4670 C.ar  1 <1>  -0.1500 
 26 C       -4.9840     1.3390     0.9160 C.ar  1 <1>  -0.1500 
 27 C       -5.1900     2.7900    -1.4200 C.ar  1 <1>  -0.1500 
 28 C       -5.2010     2.7050     0.9670 C.ar  1 <1>  -0.1500 
 29 C       -5.3050     3.4340    -0.2030 C.ar  1 <1>  -0.1500 
 30 H       -1.7810     0.2750    -0.2590 H     1 <1>   0.0800 
 31 H       -2.2150    -0.8420    -1.5160 H     1 <1>   0.0800 
 32 H       -1.7100    -3.4290    -0.8990 H     1 <1>   0.0800 
 33 H       -1.0530    -3.6350     0.7040 H     1 <1>   0.0800 
 34 H        2.5380    -0.8880    -0.0420 H     1 <1>   0.1500 
 35 H       -3.2230    -0.6820     1.2710 H     1 <1>   0.0800 
 36 H       -2.9600    -2.7960     1.7170 H     1 <1>   0.0800 
 37 H        0.7060     3.6210     0.5590 H     1 <1>   0.1500 
 38 H       -3.9860    -3.7480    -0.9500 H     1 <1>   0.0800 
 39 H       -3.9380    -4.6250     0.5360 H     1 <1>   0.0800 
 40 H       -1.8570     2.2960     3.0650 H     1 <1>   0.0800 
 41 H       -0.3410     3.1610     2.8110 H     1 <1>   0.0800 
 42 H       -0.3260     1.4840     3.3740 H     1 <1>   0.0800 
 43 H        2.8950     3.3360    -0.4880 H     1 <1>   0.1500 
 44 H       -4.6820    -2.2780    -1.5930 H     1 <1>   0.4000 
 45 H       -5.7690    -1.2900     1.4190 H     1 <1>   0.0800 
 46 H       -6.6760    -1.3950    -0.0430 H     1 <1>   0.0800 
 47 H       -5.7910    -3.5210     1.4210 H     1 <1>   0.0800 
 48 H       -6.2030    -3.6360    -0.2540 H     1 <1>   0.0800 
 49 H        5.7820     1.5130    -1.7920 H     1 <1>   0.0800 
 50 H        5.1530     2.6030    -0.5620 H     1 <1>   0.0800 
 51 H        4.3690     2.5000    -2.1500 H     1 <1>   0.0800 
 52 H       -4.8870     0.9570    -2.4320 H     1 <1>   0.1500 
 53 H       -4.9050     0.8040     1.8450 H     1 <1>   0.1500 
 54 H       -5.2700     3.3510    -2.3350 H     1 <1>   0.1500 
 55 H       -5.2880     3.2010     1.9170 H     1 <1>   0.1500 
 56 H       -5.4750     4.4960    -0.1670 H     1 <1>   0.1500 
@<TRIPOS>BOND
  1   1   2  2   
  2   1   3  2   
  3   1   4  am  
  4   1   5  1   
  5   4   6  1   
  6   4   7  1   
  7   5   8  ar  
  8   5   9  ar  
  9   6  10  1   
 10   6  30  1   
 11   6  31  1   
 12   7  11  1   
 13   7  32  1   
 14   7  33  1   
 15   8  12  1   
 16   8  13  ar  
 17   9  14  ar  
 18   9  34  1   
 19  10  11  1   
 20  10  15  1   
 21  10  35  1   
 22  11  16  1   
 23  11  36  1   
 24  12  17  1   
 25  13  18  ar  
 26  13  37  1   
 27  14  18  ar  
 28  14  19  1   
 29  15  20  1   
 30  15  21  1   
 31  15  22  1   
 32  16  23  1   
 33  16  38  1   
 34  16  39  1   
 35  17  40  1   
 36  17  41  1   
 37  17  42  1   
 38  18  43  1   
 39  19  24  1   
 40  20  44  1   
 41  21  25  ar  
 42  21  26  ar  
 43  22  23  1   
 44  22  45  1   
 45  22  46  1   
 46  23  47  1   
 47  23  48  1   
 48  24  49  1   
 49  24  50  1   
 50  24  51  1   
 51  25  27  ar  
 52  25  52  1   
 53  26  28  ar  
 54  26  53  1   
 55  27  29  ar  
 56  27  54  1   
 57  28  29  ar  
 58  28  55  1   
 59  29  56  1   
@<TRIPOS>SUBSTRUCTURE
  1 ****   6 GROUP 4 **** **** 0

# MOE 2024.06 (io_trps.svl 2023.06)
