@<TRIPOS>MOLECULE
NONAME
53 56 1 0 0 
SMALL
USER_CHARGES


@<TRIPOS>ATOM
  1 O       -0.5180     0.7520    -1.3430 O.2   1 <1>  -0.5700 
  2 C       -1.5720     1.1270    -0.8520 C.2   1 <1>   0.5440 
  3 N       -2.6130     0.2100    -0.8120 N.am  1 <1>  -0.6600 
  4 C       -1.6480     2.4910    -0.3200 C.ar  1 <1>   0.3960 
  5 C       -2.5120    -1.0790    -1.5620 C.3   1 <1>   0.1400 
  6 C       -3.8430     0.4170     0.0110 C.3   1 <1>   0.1400 
  7 N       -2.7940     3.1950    -0.3400 N.ar  1 <1>  -0.6200 
  8 C       -0.4770     3.0500     0.2080 C.ar  1 <1>   0.1600 
  9 C       -3.8950    -1.5970    -1.9640 C.3   1 <1>  -0.1600 
 10 C       -4.4230    -0.9280     0.4440 C.3   1 <1>  -0.1600 
 11 C       -2.6760     4.4060     0.1710 C.ar  1 <1>   0.1600 
 12 N       -0.3620     4.2610     0.7300 N.ar  1 <1>  -0.6200 
 13 C       -4.8720    -1.7520    -0.7780 C.3   1 <1>   0.4240 
 14 C       -1.4980     4.9300     0.6950 C.ar  1 <1>   0.1670 
 15 O       -6.0790    -1.1900    -1.2370 O.3   1 <1>  -0.5600 
 16 C       -5.0380    -3.2430    -0.4070 C.ar  1 <1>  -0.1430 
 17 C       -1.4590     6.3330     1.2650 C.3   1 <1>  -0.0970 
 18 C       -7.2680    -1.6070    -0.6400 C.3   1 <1>   0.1200 
 19 C       -6.2710    -3.8770    -0.4860 C.ar  1 <1>  -0.1430 
 20 C       -3.9440    -3.9880     0.0120 C.ar  1 <1>  -0.1500 
 21 C       -7.4810    -3.0870    -0.9400 C.3   1 <1>  -0.0170 
 22 C       -6.3990    -5.2160    -0.1520 C.ar  1 <1>  -0.1500 
 23 C       -4.0500    -5.3280     0.3430 C.ar  1 <1>   0.0820 
 24 C       -5.3020    -5.9600     0.2740 C.ar  1 <1>   0.0820 
 25 O       -2.8780    -5.9130     0.7220 O.3   1 <1>  -0.3630 
 26 O       -5.4290    -7.2700     0.6360 O.3   1 <1>  -0.3630 
 27 C       -2.6280    -7.2800     0.4810 C.3   1 <1>   0.0400 
 28 C       -6.6860    -7.9010     0.7500 C.3   1 <1>   0.0400 
 29 H       -2.0050    -1.8000    -0.9460 H     1 <1>   0.0800 
 30 H       -1.9210    -0.9340    -2.4510 H     1 <1>   0.0800 
 31 H       -4.5700     0.9610    -0.5700 H     1 <1>   0.0800 
 32 H       -3.6040     0.9950     0.8870 H     1 <1>   0.0800 
 33 H        0.4140     2.4480     0.1920 H     1 <1>   0.1500 
 34 H       -3.7830    -2.5400    -2.4670 H     1 <1>   0.0800 
 35 H       -4.2980    -0.9030    -2.6810 H     1 <1>   0.0800 
 36 H       -5.2440    -0.7750     1.1160 H     1 <1>   0.0800 
 37 H       -3.6650    -1.4540     0.9940 H     1 <1>   0.0800 
 38 H       -3.5610     5.0180     0.1770 H     1 <1>   0.1500 
 39 H       -2.4200     6.8090     1.2000 H     1 <1>   0.0800 
 40 H       -0.7420     6.9210     0.7200 H     1 <1>   0.0800 
 41 H       -1.1580     6.2940     2.2960 H     1 <1>   0.0800 
 42 H       -8.0680    -1.0200    -1.0550 H     1 <1>   0.0800 
 43 H       -7.2160    -1.4330     0.4200 H     1 <1>   0.0800 
 44 H       -2.9730    -3.5370     0.0870 H     1 <1>   0.1500 
 45 H       -7.6270    -3.2200    -1.9970 H     1 <1>   0.0800 
 46 H       -8.3630    -3.4270    -0.4280 H     1 <1>   0.0800 
 47 H       -7.3700    -5.6640    -0.2310 H     1 <1>   0.1500 
 48 H       -1.5670    -7.4390     0.5260 H     1 <1>   0.0800 
 49 H       -3.0000    -7.5390    -0.4950 H     1 <1>   0.0800 
 50 H       -3.1160    -7.8610     1.2430 H     1 <1>   0.0800 
 51 H       -6.5260    -8.8980     1.1180 H     1 <1>   0.0800 
 52 H       -7.1470    -7.9400    -0.2200 H     1 <1>   0.0800 
 53 H       -7.2910    -7.3480     1.4470 H     1 <1>   0.0800 
@<TRIPOS>BOND
  1   1   2  2   
  2   2   3  am  
  3   2   4  1   
  4   3   5  1   
  5   3   6  1   
  6   4   7  ar  
  7   4   8  ar  
  8   5   9  1   
  9   5  29  1   
 10   5  30  1   
 11   6  10  1   
 12   6  31  1   
 13   6  32  1   
 14   7  11  ar  
 15   8  12  ar  
 16   8  33  1   
 17   9  13  1   
 18   9  34  1   
 19   9  35  1   
 20  10  13  1   
 21  10  36  1   
 22  10  37  1   
 23  11  14  ar  
 24  11  38  1   
 25  12  14  ar  
 26  13  15  1   
 27  13  16  1   
 28  14  17  1   
 29  15  18  1   
 30  16  19  ar  
 31  16  20  ar  
 32  17  39  1   
 33  17  40  1   
 34  17  41  1   
 35  18  21  1   
 36  18  42  1   
 37  18  43  1   
 38  19  21  1   
 39  19  22  ar  
 40  20  23  ar  
 41  20  44  1   
 42  21  45  1   
 43  21  46  1   
 44  22  24  ar  
 45  22  47  1   
 46  23  24  ar  
 47  23  25  1   
 48  24  26  1   
 49  25  27  1   
 50  26  28  1   
 51  27  48  1   
 52  27  49  1   
 53  27  50  1   
 54  28  51  1   
 55  28  52  1   
 56  28  53  1   
@<TRIPOS>SUBSTRUCTURE
  1 ****  10 GROUP 4 **** **** 0

# MOE 2024.06 (io_trps.svl 2023.06)
