@<TRIPOS>MOLECULE
NONAME
57 59 1 0 0 
SMALL
USER_CHARGES


@<TRIPOS>ATOM
  1 O       -0.6940     0.1040    -2.2110 O.2   1 <1>  -0.5700 
  2 C       -1.2960     0.7410    -1.3770 C.2   1 <1>   0.5690 
  3 N       -2.0750     0.1290    -0.4280 N.am  1 <1>  -0.6600 
  4 C       -1.1270     2.2700    -1.4220 C.3   1 <1>   0.1710 
  5 C       -2.7770     0.8280     0.6910 C.3   1 <1>   0.1400 
  6 C       -2.2440    -1.3560    -0.3860 C.3   1 <1>   0.1400 
  7 N       -0.4060     2.8950    -0.2640 N.3   1 <1>  -0.8100 
  8 C       -4.2260     0.3180     0.8390 C.3   1 <1>   0.2000 
  9 C       -3.7230    -1.7390    -0.1730 C.3   1 <1>   0.2000 
 10 C       -0.2910     4.3610    -0.4210 C.3   1 <1>   0.1100 
 11 C        0.7990     2.1210     0.0810 C.3   1 <1>   0.1100 
 12 O       -4.2400    -1.0740     0.9420 O.3   1 <1>  -0.5600 
 13 C       -4.9000     0.8620     2.0950 C.3   1 <1>  -0.2400 
 14 C       -3.8960    -3.2340     0.0820 C.3   1 <1>  -0.2400 
 15 C        1.0510     4.8650    -0.9820 C.3   1 <1>   0.3430 
 16 C        1.6750     2.7970     1.1330 C.3   1 <1>  -0.1600 
 17 N        2.0810     5.0480     0.1000 N.4   1 <1>  -0.9590 
 18 C        2.6930     3.7510     0.5150 C.3   1 <1>   0.3430 
 19 C        3.1180     6.0410    -0.3030 C.3   1 <1>   0.4230 
 20 C        4.1660     6.2530     0.7930 C.3   1 <1>  -0.1600 
 21 C        2.5110     7.4320    -0.5480 C.3   1 <1>  -0.1600 
 22 C        4.6190     7.7000     0.6350 C.3   1 <1>  -0.1600 
 23 C        3.3480     8.4420     0.2430 C.3   1 <1>  -0.1600 
 24 H       -2.1090     2.7010    -1.5020 H     1 <1>   0.0800 
 25 H       -0.6000     2.5030    -2.3290 H     1 <1>   0.0800 
 26 H       -2.2440     0.6430     1.6060 H     1 <1>   0.0800 
 27 H       -2.7950     1.8900     0.5320 H     1 <1>   0.0800 
 28 H       -1.8940    -1.8000    -1.3020 H     1 <1>   0.0800 
 29 H       -1.6540    -1.7530     0.4210 H     1 <1>   0.0800 
 30 H       -4.8020     0.5980    -0.0270 H     1 <1>   0.0800 
 31 H       -4.3000    -1.4530    -1.0360 H     1 <1>   0.0800 
 32 H       -1.0770     4.7020    -1.0730 H     1 <1>   0.0800 
 33 H       -0.4690     4.8240     0.5340 H     1 <1>   0.0800 
 34 H        0.4790     1.1720     0.4830 H     1 <1>   0.0800 
 35 H        1.3750     1.9110    -0.8060 H     1 <1>   0.0800 
 36 H       -4.3550     0.5610     2.9720 H     1 <1>   0.0800 
 37 H       -5.9060     0.4870     2.1590 H     1 <1>   0.0800 
 38 H       -4.9380     1.9360     2.0610 H     1 <1>   0.0800 
 39 H       -3.3530    -3.5280     0.9620 H     1 <1>   0.0800 
 40 H       -3.5280    -3.7960    -0.7570 H     1 <1>   0.0800 
 41 H       -4.9380    -3.4610     0.2150 H     1 <1>   0.0800 
 42 H        0.8630     5.8150    -1.4520 H     1 <1>   0.0800 
 43 H        1.4070     4.1900    -1.7410 H     1 <1>   0.0800 
 44 H        2.2380     2.0170     1.6130 H     1 <1>   0.0800 
 45 H        1.0820     3.2690     1.8960 H     1 <1>   0.0800 
 46 H        1.6070     5.4350     0.9240 H     1 <1>   0.4500 
 47 H        3.1630     3.2770    -0.3330 H     1 <1>   0.0800 
 48 H        3.4580     3.9360     1.2510 H     1 <1>   0.0800 
 49 H        3.6170     5.7160    -1.2020 H     1 <1>   0.0800 
 50 H        3.7240     6.1420     1.7690 H     1 <1>   0.0800 
 51 H        4.9990     5.5800     0.6890 H     1 <1>   0.0800 
 52 H        2.5760     7.6620    -1.5980 H     1 <1>   0.0800 
 53 H        1.4840     7.5040    -0.2350 H     1 <1>   0.0800 
 54 H        5.0540     8.0930     1.5390 H     1 <1>   0.0800 
 55 H        5.3420     7.7740    -0.1610 H     1 <1>   0.0800 
 56 H        3.5660     9.3280    -0.3310 H     1 <1>   0.0800 
 57 H        2.8180     8.7340     1.1350 H     1 <1>   0.0800 
@<TRIPOS>BOND
  1   1   2  2   
  2   2   3  am  
  3   2   4  1   
  4   3   5  1   
  5   3   6  1   
  6   4   7  1   
  7   4  24  1   
  8   4  25  1   
  9   5   8  1   
 10   5  26  1   
 11   5  27  1   
 12   6   9  1   
 13   6  28  1   
 14   6  29  1   
 15   7  10  1   
 16   7  11  1   
 17   8  12  1   
 18   8  13  1   
 19   8  30  1   
 20   9  12  1   
 21   9  14  1   
 22   9  31  1   
 23  10  15  1   
 24  10  32  1   
 25  10  33  1   
 26  11  16  1   
 27  11  34  1   
 28  11  35  1   
 29  13  36  1   
 30  13  37  1   
 31  13  38  1   
 32  14  39  1   
 33  14  40  1   
 34  14  41  1   
 35  15  17  1   
 36  15  42  1   
 37  15  43  1   
 38  16  18  1   
 39  16  44  1   
 40  16  45  1   
 41  17  18  1   
 42  17  19  1   
 43  17  46  1   
 44  18  47  1   
 45  18  48  1   
 46  19  20  1   
 47  19  21  1   
 48  19  49  1   
 49  20  22  1   
 50  20  50  1   
 51  20  51  1   
 52  21  23  1   
 53  21  52  1   
 54  21  53  1   
 55  22  23  1   
 56  22  54  1   
 57  22  55  1   
 58  23  56  1   
 59  23  57  1   
@<TRIPOS>SUBSTRUCTURE
  1 ****   7 GROUP 4 **** **** 0

# MOE 2024.06 (io_trps.svl 2023.06)
