@<TRIPOS>MOLECULE
NONAME
41 43 1 0 0 
SMALL
USER_CHARGES


@<TRIPOS>ATOM
  1 F        0.1030    -0.5630     0.9580 F     1 <1>  -0.3400 
  2 C        0.6060    -1.6840     0.4480 C.3   1 <1>   1.2010 
  3 F        0.2730    -1.6740    -0.8420 F     1 <1>  -0.3400 
  4 F        1.9290    -1.5530     0.4810 F     1 <1>  -0.3400 
  5 C        0.1010    -2.9640     1.1740 C.2   1 <1>   0.1080 
  6 N        0.2280    -3.2320     2.4560 N.2   1 <1>  -0.7070 
  7 C       -0.5610    -4.0010     0.5220 C.2   1 <1>  -0.1500 
  8 N       -0.3430    -4.4360     2.6200 N.pl3 1 <1>   0.3000 
  9 C       -0.8460    -4.9340     1.4730 C.2   1 <1>  -0.2370 
 10 C       -1.4950    -6.2090     1.4470 C.2   1 <1>   0.7150 
 11 O       -1.4900    -6.8990     2.4500 O.2   1 <1>  -0.5700 
 12 N       -2.1510    -6.6460     0.3290 N.am  1 <1>  -0.6600 
 13 C       -2.1380    -8.1180     0.0340 C.3   1 <1>   0.3640 
 14 C       -3.3230    -5.8720    -0.1600 C.3   1 <1>   0.1400 
 15 C       -0.6750    -8.5440    -0.1360 C.ar  1 <1>  -0.1430 
 16 C       -2.9470    -8.5340    -1.2340 C.3   1 <1>   0.2000 
 17 C       -3.7740    -6.3530    -1.5390 C.3   1 <1>   0.1200 
 18 C        0.1390    -7.9430    -1.0880 C.ar  1 <1>  -0.1500 
 19 C       -0.1410    -9.5400     0.6700 C.ar  1 <1>  -0.1500 
 20 O       -4.0610    -7.7120    -1.4730 O.3   1 <1>  -0.5600 
 21 C       -3.4920    -9.9720    -1.1630 C.3   1 <1>   0.1200 
 22 C        1.4560    -8.3390    -1.2410 C.ar  1 <1>  -0.1500 
 23 C        1.1760    -9.9370     0.5190 C.ar  1 <1>  -0.1500 
 24 O       -2.5170   -10.8930    -0.7930 O.3   1 <1>  -0.6800 
 25 C        1.9750    -9.3390    -0.4380 C.ar  1 <1>  -0.1500 
 26 H       -0.7900    -4.0520    -0.5280 H     1 <1>   0.1500 
 27 H       -0.3830    -4.9310     3.5230 H     1 <1>   0.2700 
 28 H       -2.5600    -8.6320     0.8810 H     1 <1>   0.0800 
 29 H       -4.1380    -5.9900     0.5350 H     1 <1>   0.0800 
 30 H       -3.0800    -4.8250    -0.2100 H     1 <1>   0.0800 
 31 H       -2.3170    -8.4560    -2.1010 H     1 <1>   0.0800 
 32 H       -3.0140    -6.1840    -2.2820 H     1 <1>   0.0800 
 33 H       -4.6740    -5.8420    -1.8350 H     1 <1>   0.0800 
 34 H       -0.2500    -7.1580    -1.7130 H     1 <1>   0.1500 
 35 H       -0.7520   -10.0120     1.4210 H     1 <1>   0.1500 
 36 H       -3.8800   -10.2660    -2.1220 H     1 <1>   0.0800 
 37 H       -4.2790   -10.0300    -0.4310 H     1 <1>   0.0800 
 38 H        2.0790    -7.8690    -1.9820 H     1 <1>   0.1500 
 39 H        1.5770   -10.7120     1.1500 H     1 <1>   0.1500 
 40 H       -1.7030   -10.7920    -1.3290 H     1 <1>   0.4000 
 41 H        2.9990    -9.6480    -0.5540 H     1 <1>   0.1500 
@<TRIPOS>BOND
  1   1   2  1   
  2   2   3  1   
  3   2   4  1   
  4   2   5  1   
  5   5   6  2   
  6   5   7  1   
  7   6   8  1   
  8   7   9  2   
  9   7  26  1   
 10   8   9  1   
 11   8  27  1   
 12   9  10  1   
 13  10  11  2   
 14  10  12  am  
 15  12  13  1   
 16  12  14  1   
 17  13  15  1   
 18  13  16  1   
 19  13  28  1   
 20  14  17  1   
 21  14  29  1   
 22  14  30  1   
 23  15  18  ar  
 24  15  19  ar  
 25  16  20  1   
 26  16  21  1   
 27  16  31  1   
 28  17  20  1   
 29  17  32  1   
 30  17  33  1   
 31  18  22  ar  
 32  18  34  1   
 33  19  23  ar  
 34  19  35  1   
 35  21  24  1   
 36  21  36  1   
 37  21  37  1   
 38  22  25  ar  
 39  22  38  1   
 40  23  25  ar  
 41  23  39  1   
 42  24  40  1   
 43  25  41  1   
@<TRIPOS>SUBSTRUCTURE
  1 ****  12 GROUP 4 **** **** 0

# MOE 2024.06 (io_trps.svl 2023.06)
