@<TRIPOS>MOLECULE
NONAME
33 33 1 0 0 
SMALL
USER_CHARGES


@<TRIPOS>ATOM
  1 BR       2.3540    -0.8060     2.3210 Br    1 <1>  -0.1110 
  2 C        2.5860     0.3510     0.7910 C.ar  1 <1>   0.1110 
  3 C        3.3110    -0.1140    -0.3040 C.ar  1 <1>   0.1170 
  4 C        2.0140     1.6070     0.8520 C.ar  1 <1>  -0.1500 
  5 N        3.8580    -1.4140    -0.2730 N.am  1 <1>  -0.5470 
  6 C        3.4480     0.7600    -1.3790 C.ar  1 <1>  -0.1500 
  7 C        2.1670     2.4590    -0.2360 C.ar  1 <1>   0.0830 
  8 C        4.5970    -2.1390    -1.1620 C.2   1 <1>   0.7800 
  9 C        2.8830     2.0260    -1.3420 C.ar  1 <1>  -0.1500 
 10 O        1.6510     3.7140    -0.2910 O.3   1 <1>  -0.3620 
 11 O        4.9340    -1.7200    -2.2460 O.2   1 <1>  -0.5700 
 12 O        4.9800    -3.3770    -0.8460 O.3   1 <1>  -0.4300 
 13 C        0.9070     4.2420     0.7850 C.3   1 <1>   0.0400 
 14 C        4.7580    -4.1470     0.3160 C.3   1 <1>   0.2800 
 15 C        5.4620    -5.4770     0.0450 C.3   1 <1>  -0.2400 
 16 C        3.2580    -4.4060     0.5060 C.3   1 <1>  -0.2400 
 17 C        5.4060    -3.4770     1.5340 C.3   1 <1>  -0.2400 
 18 H        1.4700     1.8920     1.7310 H     1 <1>   0.1500 
 19 H        3.6700    -1.9260     0.5820 H     1 <1>   0.3700 
 20 H        3.9940     0.4680    -2.2570 H     1 <1>   0.1500 
 21 H        2.9970     2.6900    -2.1800 H     1 <1>   0.1500 
 22 H        0.6020     5.2390     0.5220 H     1 <1>   0.0800 
 23 H        1.5310     4.2710     1.6610 H     1 <1>   0.0800 
 24 H        0.0410     3.6270     0.9470 H     1 <1>   0.0800 
 25 H        5.0430    -5.9510    -0.8240 H     1 <1>   0.0800 
 26 H        5.3500    -6.1420     0.8820 H     1 <1>   0.0800 
 27 H        6.5130    -5.3160    -0.1210 H     1 <1>   0.0800 
 28 H        2.8340    -4.8060    -0.3980 H     1 <1>   0.0800 
 29 H        2.7200    -3.5210     0.7850 H     1 <1>   0.0800 
 30 H        3.1120    -5.1280     1.2900 H     1 <1>   0.0800 
 31 H        6.4360    -3.2480     1.3250 H     1 <1>   0.0800 
 32 H        5.3770    -4.1480     2.3740 H     1 <1>   0.0800 
 33 H        4.8990    -2.5790     1.8270 H     1 <1>   0.0800 
@<TRIPOS>BOND
  1   1   2  1   
  2   2   3  ar  
  3   2   4  ar  
  4   3   5  1   
  5   3   6  ar  
  6   4   7  ar  
  7   4  18  1   
  8   5   8  am  
  9   5  19  1   
 10   6   9  ar  
 11   6  20  1   
 12   7   9  ar  
 13   7  10  1   
 14   8  11  2   
 15   8  12  1   
 16   9  21  1   
 17  10  13  1   
 18  12  14  1   
 19  13  22  1   
 20  13  23  1   
 21  13  24  1   
 22  14  15  1   
 23  14  16  1   
 24  14  17  1   
 25  15  25  1   
 26  15  26  1   
 27  15  27  1   
 28  16  28  1   
 29  16  29  1   
 30  16  30  1   
 31  17  31  1   
 32  17  32  1   
 33  17  33  1   
@<TRIPOS>SUBSTRUCTURE
  1 ****   3 GROUP 4 **** **** 0

# MOE 2024.06 (io_trps.svl 2023.06)
