@<TRIPOS>MOLECULE
NONAME
46 48 1 0 0 
SMALL
USER_CHARGES


@<TRIPOS>ATOM
  1 O       -0.6030     0.2330     1.4880 O.2   1 <1>  -0.5700 
  2 C       -1.5620     0.8990     1.1380 C.2   1 <1>   0.7160 
  3 N       -2.7680     0.2650     0.9370 N.am  1 <1>  -0.6600 
  4 C       -1.4300     2.3240     0.9080 C.2   1 <1>  -0.0860 
  5 C       -3.8370     0.8070     0.0600 C.3   1 <1>   0.1400 
  6 C       -2.9640    -1.1900     1.1160 C.3   1 <1>   0.1400 
  7 C       -0.4730     3.0280     0.2140 C.2   1 <1>  -0.3320 
  8 C       -2.3230     3.3020     1.3910 C.2   1 <1>  -0.1500 
  9 C       -4.7160    -0.3920    -0.3290 C.3   1 <1>   0.2000 
 10 C       -3.8160    -1.6080    -0.0820 C.3   1 <1>  -0.0800 
 11 N       -0.7470     4.3550     0.2510 N.pl3 1 <1>   0.0480 
 12 C        0.7420     2.4600    -0.5050 C.3   1 <1>  -0.0600 
 13 C       -1.8850     4.5130     0.9730 C.2   1 <1>  -0.3020 
 14 O       -5.8220    -0.4710     0.5270 O.3   1 <1>  -0.5600 
 15 C       -4.5660    -2.9350     0.1290 C.3   1 <1>   0.0200 
 16 C        0.0350     5.4460    -0.3540 C.3   1 <1>   0.0160 
 17 C       -6.9140     0.3130     0.1590 C.3   1 <1>   0.0400 
 18 C       -3.6390    -4.1390     0.1960 C.2   1 <1>  -0.0400 
 19 O       -4.1500    -5.3110     0.4640 O.3   1 <1>  -0.0190 
 20 C       -2.3160    -4.3000     0.0280 C.2   1 <1>  -0.1500 
 21 N       -3.2440    -6.2450     0.4880 N.2   1 <1>  -0.4100 
 22 C       -2.1280    -5.6640     0.2290 C.2   1 <1>   0.1080 
 23 C       -0.7950    -6.3750     0.1570 C.3   1 <1>  -0.0590 
 24 H       -4.4060     1.5600     0.5740 H     1 <1>   0.0800 
 25 H       -3.3860     1.2330    -0.8200 H     1 <1>   0.0800 
 26 H       -2.0270    -1.7190     1.1480 H     1 <1>   0.0800 
 27 H       -3.4980    -1.3560     2.0360 H     1 <1>   0.0800 
 28 H       -3.1890     3.0880     1.9940 H     1 <1>   0.1500 
 29 H       -5.0580    -0.3460    -1.3490 H     1 <1>   0.0800 
 30 H       -3.1630    -1.7090    -0.9310 H     1 <1>   0.0800 
 31 H        0.7540     1.3870    -0.4440 H     1 <1>   0.0800 
 32 H        1.6440     2.8320    -0.0530 H     1 <1>   0.0800 
 33 H        0.7260     2.7400    -1.5430 H     1 <1>   0.0800 
 34 H       -2.3200     5.4790     1.1590 H     1 <1>   0.1500 
 35 H       -5.2580    -3.0860    -0.6800 H     1 <1>   0.0800 
 36 H       -5.1360    -2.8910     1.0410 H     1 <1>   0.0800 
 37 H       -0.4290     6.3890    -0.1320 H     1 <1>   0.0800 
 38 H        0.0720     5.3060    -1.4190 H     1 <1>   0.0800 
 39 H        1.0300     5.4320     0.0490 H     1 <1>   0.0800 
 40 H       -7.6850     0.1740     0.8960 H     1 <1>   0.0800 
 41 H       -7.2730    -0.0080    -0.8040 H     1 <1>   0.0800 
 42 H       -6.6250     1.3480     0.1310 H     1 <1>   0.0800 
 43 H       -1.5500    -3.5860    -0.2060 H     1 <1>   0.1500 
 44 H       -0.1040    -5.9240     0.8440 H     1 <1>   0.0800 
 45 H       -0.4010    -6.3080    -0.8400 H     1 <1>   0.0800 
 46 H       -0.9170    -7.4110     0.4150 H     1 <1>   0.0800 
@<TRIPOS>BOND
  1   1   2  2   
  2   2   3  am  
  3   2   4  1   
  4   3   5  1   
  5   3   6  1   
  6   4   7  2   
  7   4   8  1   
  8   5   9  1   
  9   5  24  1   
 10   5  25  1   
 11   6  10  1   
 12   6  26  1   
 13   6  27  1   
 14   7  11  1   
 15   7  12  1   
 16   8  13  2   
 17   8  28  1   
 18   9  10  1   
 19   9  14  1   
 20   9  29  1   
 21  10  15  1   
 22  10  30  1   
 23  11  13  1   
 24  11  16  1   
 25  12  31  1   
 26  12  32  1   
 27  12  33  1   
 28  13  34  1   
 29  14  17  1   
 30  15  18  1   
 31  15  35  1   
 32  15  36  1   
 33  16  37  1   
 34  16  38  1   
 35  16  39  1   
 36  17  40  1   
 37  17  41  1   
 38  17  42  1   
 39  18  19  1   
 40  18  20  2   
 41  19  21  1   
 42  20  22  1   
 43  20  43  1   
 44  21  22  2   
 45  22  23  1   
 46  23  44  1   
 47  23  45  1   
 48  23  46  1   
@<TRIPOS>SUBSTRUCTURE
  1 ****   3 GROUP 4 **** **** 0

# MOE 2024.06 (io_trps.svl 2023.06)
