@<TRIPOS>MOLECULE
NONAME
49 52 1 0 0 
SMALL
USER_CHARGES


@<TRIPOS>ATOM
  1 S       -0.1320     0.2610    -1.0720 S.3   1 <1>  -0.0800 
  2 C       -1.2270     1.2940    -0.1800 C.2   1 <1>  -0.0450 
  3 C       -0.8690    -1.1420    -0.3470 C.2   1 <1>   0.1980 
  4 C       -2.0310     0.4820     0.5460 C.2   1 <1>   0.0460 
  5 C       -1.1650     2.7250    -0.3390 C.2   1 <1>   0.7150 
  6 N       -1.8160    -0.8770     0.4570 N.2   1 <1>  -0.5650 
  7 C       -0.3260    -2.4980    -0.7320 C.3   1 <1>  -0.0600 
  8 C       -3.1580     0.9190     1.4590 C.3   1 <1>  -0.0590 
  9 O       -2.1930     3.3270    -0.5920 O.2   1 <1>  -0.5700 
 10 N        0.0030     3.4510    -0.1800 N.am  1 <1>  -0.6600 
 11 C        1.1800     2.9020     0.5680 C.3   1 <1>   0.1400 
 12 C       -0.0170     4.9190    -0.4740 C.3   1 <1>   0.1400 
 13 C        2.3560     2.5890    -0.3670 C.3   1 <1>   0.1400 
 14 C        1.3500     5.5710    -0.7200 C.3   1 <1>  -0.1600 
 15 N        3.0810     3.8260    -0.7750 N.am  1 <1>  -0.6600 
 16 C        2.2890     4.7600    -1.6170 C.3   1 <1>   0.1400 
 17 C        4.3000     4.1630    -0.1970 C.2   1 <1>   0.7160 
 18 O        4.5990     3.5780     0.8360 O.2   1 <1>  -0.5700 
 19 C        5.2140     5.1780    -0.7260 C.2   1 <1>   0.2030 
 20 N        5.3230     5.6210    -1.9760 N.2   1 <1>  -0.7070 
 21 C        6.1650     5.8380     0.0660 C.2   1 <1>  -0.1810 
 22 N        6.3180     6.5300    -1.9640 N.pl3 1 <1>   0.3000 
 23 C        6.8260     6.6650    -0.7300 C.2   1 <1>  -0.3320 
 24 C        6.6650     5.8890     1.4830 C.3   1 <1>   0.0210 
 25 C        7.9030     7.4570    -0.0450 C.3   1 <1>   0.0200 
 26 C        7.7230     7.0220     1.4310 C.3   1 <1>  -0.1600 
 27 H        0.7120    -2.5650    -0.4670 H     1 <1>   0.0800 
 28 H       -0.4350    -2.6460    -1.7900 H     1 <1>   0.0800 
 29 H       -0.8710    -3.2660    -0.2130 H     1 <1>   0.0800 
 30 H       -3.2460     1.9900     1.4810 H     1 <1>   0.0800 
 31 H       -2.9740     0.5640     2.4560 H     1 <1>   0.0800 
 32 H       -4.0840     0.5040     1.1080 H     1 <1>   0.0800 
 33 H        0.8970     1.9960     1.0740 H     1 <1>   0.0800 
 34 H        1.4960     3.5980     1.3260 H     1 <1>   0.0800 
 35 H       -0.5090     5.4260     0.3390 H     1 <1>   0.0800 
 36 H       -0.6180     5.0740    -1.3550 H     1 <1>   0.0800 
 37 H        2.0070     2.0770    -1.2450 H     1 <1>   0.0800 
 38 H        3.0330     1.9240     0.1410 H     1 <1>   0.0800 
 39 H        1.8310     5.7920     0.2160 H     1 <1>   0.0800 
 40 H        1.1670     6.5150    -1.1990 H     1 <1>   0.0800 
 41 H        2.9340     5.4340    -2.1460 H     1 <1>   0.0800 
 42 H        1.7300     4.2090    -2.3530 H     1 <1>   0.0800 
 43 H        6.6270     7.0310    -2.8050 H     1 <1>   0.2700 
 44 H        7.1100     4.9460     1.7480 H     1 <1>   0.0800 
 45 H        5.8650     6.1210     2.1640 H     1 <1>   0.0800 
 46 H        7.7480     8.5150    -0.1650 H     1 <1>   0.0800 
 47 H        8.8720     7.1750    -0.4180 H     1 <1>   0.0800 
 48 H        8.6570     6.6840     1.8440 H     1 <1>   0.0800 
 49 H        7.3740     7.8590     2.0090 H     1 <1>   0.0800 
@<TRIPOS>BOND
  1   1   2  1   
  2   1   3  1   
  3   2   4  2   
  4   2   5  1   
  5   3   6  2   
  6   3   7  1   
  7   4   6  1   
  8   4   8  1   
  9   5   9  2   
 10   5  10  am  
 11   7  27  1   
 12   7  28  1   
 13   7  29  1   
 14   8  30  1   
 15   8  31  1   
 16   8  32  1   
 17  10  11  1   
 18  10  12  1   
 19  11  13  1   
 20  11  33  1   
 21  11  34  1   
 22  12  14  1   
 23  12  35  1   
 24  12  36  1   
 25  13  15  1   
 26  13  37  1   
 27  13  38  1   
 28  14  16  1   
 29  14  39  1   
 30  14  40  1   
 31  15  16  1   
 32  15  17  am  
 33  16  41  1   
 34  16  42  1   
 35  17  18  2   
 36  17  19  1   
 37  19  20  2   
 38  19  21  1   
 39  20  22  1   
 40  21  23  2   
 41  21  24  1   
 42  22  23  1   
 43  22  43  1   
 44  23  25  1   
 45  24  26  1   
 46  24  44  1   
 47  24  45  1   
 48  25  26  1   
 49  25  46  1   
 50  25  47  1   
 51  26  48  1   
 52  26  49  1   
@<TRIPOS>SUBSTRUCTURE
  1 ****  13 GROUP 4 **** **** 0

# MOE 2024.06 (io_trps.svl 2023.06)
