@<TRIPOS>MOLECULE
NONAME
50 51 1 0 0 
SMALL
USER_CHARGES


@<TRIPOS>ATOM
  1 S        0.9290    -0.5380    -1.0330 S.o2  1 <1>   1.3330 
  2 O        0.6210    -0.7430    -2.4290 O.2   1 <1>  -0.6500 
  3 O        2.1420    -1.0980    -0.4790 O.2   1 <1>  -0.6500 
  4 N       -0.3810    -1.1530    -0.1420 N.am  1 <1>  -0.8490 
  5 C        0.8690     1.2240    -0.6760 C.3   1 <1>  -0.0550 
  6 C       -1.6670    -1.0360    -0.8390 C.3   1 <1>   0.1160 
  7 C       -0.1690    -2.5460     0.2670 C.3   1 <1>   0.1160 
  8 C        1.4770     1.7020     0.6620 C.3   1 <1>  -0.0800 
  9 C        2.9980     1.5350     0.7330 C.3   1 <1>   0.2200 
 10 C        0.9740     1.0260     1.9430 C.3   1 <1>   0.1200 
 11 N        3.6270     2.8720     0.8390 N.am  1 <1>  -0.7300 
 12 C        3.2010     0.7390     2.0200 C.3   1 <1>   0.1200 
 13 O        2.0750     1.0110     2.7900 O.3   1 <1>  -0.5600 
 14 C        3.8830     3.6770    -0.2350 C.2   1 <1>   0.5440 
 15 O        3.5560     3.2810    -1.3360 O.2   1 <1>  -0.5700 
 16 C        4.4910     4.9730    -0.0810 C.ar  1 <1>   0.0860 
 17 C        5.2040     5.3520     1.0430 C.ar  1 <1>   0.1600 
 18 C        4.4020     5.9420    -1.0650 C.ar  1 <1>   0.1600 
 19 N        5.7420     6.5370     1.1930 N.ar  1 <1>  -0.6200 
 20 N        4.9280     7.1370    -0.9510 N.ar  1 <1>  -0.6200 
 21 C        5.5770     7.3800     0.1830 C.ar  1 <1>   0.7200 
 22 N        6.1400     8.5880     0.3660 N.pl3 1 <1>  -0.8690 
 23 C        6.1830     9.7120    -0.5690 C.3   1 <1>   0.2890 
 24 C        7.6370     9.9360    -0.9660 C.3   1 <1>  -0.2400 
 25 C        5.6060    10.9320     0.1370 C.3   1 <1>  -0.2400 
 26 H        1.3920     1.7370    -1.4610 H     1 <1>   0.0800 
 27 H       -0.1500     1.5500    -0.7240 H     1 <1>   0.0800 
 28 H       -2.4680    -1.3510    -0.1930 H     1 <1>   0.0800 
 29 H       -1.6730    -1.6480    -1.7270 H     1 <1>   0.0800 
 30 H       -1.8450    -0.0140    -1.1260 H     1 <1>   0.0800 
 31 H       -1.0120    -2.9020     0.8330 H     1 <1>   0.0800 
 32 H        0.7070    -2.6190     0.8900 H     1 <1>   0.0800 
 33 H       -0.0300    -3.1730    -0.5980 H     1 <1>   0.0800 
 34 H        1.2330     2.7460     0.7520 H     1 <1>   0.0800 
 35 H        3.4130     1.0080    -0.1100 H     1 <1>   0.0800 
 36 H        0.6780     0.0040     1.7910 H     1 <1>   0.0800 
 37 H        0.1750     1.5710     2.4130 H     1 <1>   0.0800 
 38 H        3.6210     3.2480     1.7900 H     1 <1>   0.3700 
 39 H        4.0890     1.0200     2.5560 H     1 <1>   0.0800 
 40 H        3.2140    -0.3180     1.8130 H     1 <1>   0.0800 
 41 H        5.3370     4.6470     1.8450 H     1 <1>   0.1500 
 42 H        3.8720     5.7110    -1.9750 H     1 <1>   0.1500 
 43 H        6.6420     8.7000     1.2420 H     1 <1>   0.4000 
 44 H        5.5980     9.4950    -1.4480 H     1 <1>   0.0800 
 45 H        8.2380    10.1570    -0.1030 H     1 <1>   0.0800 
 46 H        7.7050    10.7570    -1.6550 H     1 <1>   0.0800 
 47 H        8.0190     9.0550    -1.4500 H     1 <1>   0.0800 
 48 H        6.1770    11.1690     1.0160 H     1 <1>   0.0800 
 49 H        4.5860    10.7380     0.4170 H     1 <1>   0.0800 
 50 H        5.6210    11.7780    -0.5240 H     1 <1>   0.0800 
@<TRIPOS>BOND
  1   1   2  2   
  2   1   3  2   
  3   1   4  am  
  4   1   5  1   
  5   4   6  1   
  6   4   7  1   
  7   5   8  1   
  8   5  26  1   
  9   5  27  1   
 10   6  28  1   
 11   6  29  1   
 12   6  30  1   
 13   7  31  1   
 14   7  32  1   
 15   7  33  1   
 16   8   9  1   
 17   8  10  1   
 18   8  34  1   
 19   9  11  1   
 20   9  12  1   
 21   9  35  1   
 22  10  13  1   
 23  10  36  1   
 24  10  37  1   
 25  11  14  am  
 26  11  38  1   
 27  12  13  1   
 28  12  39  1   
 29  12  40  1   
 30  14  15  2   
 31  14  16  1   
 32  16  17  ar  
 33  16  18  ar  
 34  17  19  ar  
 35  17  41  1   
 36  18  20  ar  
 37  18  42  1   
 38  19  21  ar  
 39  20  21  ar  
 40  21  22  1   
 41  22  23  1   
 42  22  43  1   
 43  23  24  1   
 44  23  25  1   
 45  23  44  1   
 46  24  45  1   
 47  24  46  1   
 48  24  47  1   
 49  25  48  1   
 50  25  49  1   
 51  25  50  1   
@<TRIPOS>SUBSTRUCTURE
  1 ****  14 GROUP 4 **** **** 0

# MOE 2024.06 (io_trps.svl 2023.06)
