@<TRIPOS>MOLECULE
NONAME
49 50 1 0 0 
SMALL
USER_CHARGES


@<TRIPOS>ATOM
  1 O        0.2370    -0.0850     0.0130 O.3   1 <1>  -0.6800 
  2 C        1.4680    -0.7210     0.1820 C.3   1 <1>   0.2000 
  3 C        1.2370    -2.1300     0.7580 C.3   1 <1>   0.3430 
  4 C        2.3560     0.1700     1.0690 C.3   1 <1>   0.2090 
  5 N        0.0050    -2.7280     0.1550 N.4   1 <1>  -0.9590 
  6 N        2.2640     1.5850     0.6150 N.pl3 1 <1>  -0.8690 
  7 C       -0.6590    -3.6840     1.0780 C.3   1 <1>   0.3430 
  8 C        0.2510    -3.2310    -1.2250 C.3   1 <1>   0.3430 
  9 C        3.1530     2.0510    -0.3460 C.ar  1 <1>   0.4100 
 10 C       -2.0700    -4.0500     0.6130 C.3   1 <1>  -0.1600 
 11 C       -1.0130    -3.0580    -2.0650 C.3   1 <1>  -0.1600 
 12 N        3.4380     1.2260    -1.3380 N.ar  1 <1>  -0.6200 
 13 C        3.7060     3.3650    -0.2160 C.ar  1 <1>   0.4100 
 14 C       -2.0850    -4.9590    -0.6250 C.3   1 <1>  -0.1600 
 15 C       -2.0310    -4.2070    -1.9630 C.3   1 <1>  -0.1600 
 16 C        4.2880     1.7730    -2.2030 C.ar  1 <1>   0.1600 
 17 N        4.5520     3.8810    -1.0890 N.ar  1 <1>  -0.6200 
 18 N        3.3530     4.1760     0.8710 N.pl3 1 <1>  -0.8380 
 19 C        4.8210     3.0440    -2.0830 C.ar  1 <1>   0.1600 
 20 C        4.4710     4.8860     1.5530 C.3   1 <1>   0.1290 
 21 C        2.1850     5.0600     0.6220 C.3   1 <1>   0.1290 
 22 H        0.4560     0.8740    -0.1100 H     1 <1>   0.4000 
 23 H        1.9220    -0.8020    -0.7890 H     1 <1>   0.0800 
 24 H        1.1040    -2.0370     1.8230 H     1 <1>   0.0800 
 25 H        2.0960    -2.7560     0.5810 H     1 <1>   0.0800 
 26 H        3.3800    -0.1640     1.0210 H     1 <1>   0.0800 
 27 H        2.0310     0.1100     2.0940 H     1 <1>   0.0800 
 28 H       -0.6090    -1.8960     0.0460 H     1 <1>   0.4500 
 29 H        2.2770     2.2690     1.3890 H     1 <1>   0.4000 
 30 H       -0.7330    -3.2340     2.0550 H     1 <1>   0.0800 
 31 H       -0.0660    -4.5800     1.1680 H     1 <1>   0.0800 
 32 H        0.5620    -4.2620    -1.2110 H     1 <1>   0.0800 
 33 H        1.0330    -2.6460    -1.6800 H     1 <1>   0.0800 
 34 H       -2.6640    -3.1670     0.4540 H     1 <1>   0.0800 
 35 H       -2.5310    -4.5950     1.4180 H     1 <1>   0.0800 
 36 H       -0.7180    -2.9790    -3.0970 H     1 <1>   0.0800 
 37 H       -1.4850    -2.1230    -1.8130 H     1 <1>   0.0800 
 38 H       -2.9950    -5.5360    -0.6160 H     1 <1>   0.0800 
 39 H       -1.2740    -5.6650    -0.5690 H     1 <1>   0.0800 
 40 H       -1.8180    -4.9280    -2.7340 H     1 <1>   0.0800 
 41 H       -3.0080    -3.8080    -2.1790 H     1 <1>   0.0800 
 42 H        4.5720     1.1730    -3.0490 H     1 <1>   0.1500 
 43 H        5.5020     3.3960    -2.8380 H     1 <1>   0.1500 
 44 H        5.3190     4.2300     1.6440 H     1 <1>   0.0800 
 45 H        4.1640     5.1970     2.5370 H     1 <1>   0.0800 
 46 H        4.7640     5.7500     0.9810 H     1 <1>   0.0800 
 47 H        1.4140     4.5140     0.1050 H     1 <1>   0.0800 
 48 H        2.4830     5.8970     0.0130 H     1 <1>   0.0800 
 49 H        1.7890     5.4200     1.5550 H     1 <1>   0.0800 
@<TRIPOS>BOND
  1   1   2  1   
  2   1  22  1   
  3   2   3  1   
  4   2   4  1   
  5   2  23  1   
  6   3   5  1   
  7   3  24  1   
  8   3  25  1   
  9   4   6  1   
 10   4  26  1   
 11   4  27  1   
 12   5   7  1   
 13   5   8  1   
 14   5  28  1   
 15   6   9  1   
 16   6  29  1   
 17   7  10  1   
 18   7  30  1   
 19   7  31  1   
 20   8  11  1   
 21   8  32  1   
 22   8  33  1   
 23   9  12  ar  
 24   9  13  ar  
 25  10  14  1   
 26  10  34  1   
 27  10  35  1   
 28  11  15  1   
 29  11  36  1   
 30  11  37  1   
 31  12  16  ar  
 32  13  17  ar  
 33  13  18  1   
 34  14  15  1   
 35  14  38  1   
 36  14  39  1   
 37  15  40  1   
 38  15  41  1   
 39  16  19  ar  
 40  16  42  1   
 41  17  19  ar  
 42  18  20  1   
 43  18  21  1   
 44  19  43  1   
 45  20  44  1   
 46  20  45  1   
 47  20  46  1   
 48  21  47  1   
 49  21  48  1   
 50  21  49  1   
@<TRIPOS>SUBSTRUCTURE
  1 ****   2 GROUP 4 **** **** 0

# MOE 2024.06 (io_trps.svl 2023.06)
