@<TRIPOS>MOLECULE
NONAME
45 47 1 0 0 
SMALL
USER_CHARGES


@<TRIPOS>ATOM
  1 S        1.8680     1.2800    -0.5590 S.3   1 <1>  -0.0800 
  2 C        1.1200     2.0390     0.8070 C.2   1 <1>   0.4420 
  3 C        0.8180    -0.0700    -0.2900 C.2   1 <1>   0.1980 
  4 N        0.2170     1.3000     1.3410 N.2   1 <1>  -0.3380 
  5 N        1.5730     3.2960     1.1360 N.am  1 <1>  -0.4940 
  6 N        0.0500     0.0980     0.7100 N.2   1 <1>  -0.3380 
  7 C        0.9220    -1.2710    -1.2140 C.3   1 <1>   0.3000 
  8 C        1.1900     4.1540     2.1220 C.2   1 <1>   0.5690 
  9 O        0.8940    -0.8640    -2.5520 O.3   1 <1>  -0.5600 
 10 O        0.3320     3.9240     2.9360 O.2   1 <1>  -0.5700 
 11 C        1.9290     5.4920     2.1750 C.3   1 <1>   0.1710 
 12 C        0.9210    -1.9120    -3.4680 C.3   1 <1>   0.0400 
 13 N        2.5850     5.8680     0.8830 N.3   1 <1>  -0.8100 
 14 C        3.6140     6.9140     1.1110 C.3   1 <1>   0.2910 
 15 C        1.5750     6.3480    -0.0820 C.3   1 <1>   0.0300 
 16 C        4.5750     7.0740    -0.0630 C.2   1 <1>   0.0460 
 17 N        5.3600     8.2130    -0.0760 N.2   1 <1>  -0.5650 
 18 C        4.7470     6.2210    -1.0830 C.2   1 <1>  -0.1100 
 19 C        6.1440     8.2640    -1.0990 C.2   1 <1>   0.3250 
 20 S        5.9570     6.8590    -2.1470 S.3   1 <1>  -0.0800 
 21 C        7.1000     9.2970    -1.4470 C.ar  1 <1>   0.0530 
 22 C        7.2450    10.4170    -0.6250 C.ar  1 <1>  -0.1500 
 23 C        7.9100     9.2440    -2.5860 C.ar  1 <1>  -0.1500 
 24 C        8.1430    11.4270    -0.9160 C.ar  1 <1>  -0.1500 
 25 C        8.8110    10.2510    -2.8840 C.ar  1 <1>  -0.1500 
 26 C        8.9300    11.3460    -2.0490 C.ar  1 <1>  -0.1500 
 27 H        2.2810     3.7060     0.5250 H     1 <1>   0.3700 
 28 H        0.0930    -1.9330    -1.0360 H     1 <1>   0.0800 
 29 H        1.8470    -1.7890    -1.0320 H     1 <1>   0.0800 
 30 H        2.6760     5.3980     2.9440 H     1 <1>   0.0800 
 31 H        1.2400     6.2600     2.4800 H     1 <1>   0.0800 
 32 H        0.9010    -1.4910    -4.4580 H     1 <1>   0.0800 
 33 H        0.0540    -2.5340    -3.3240 H     1 <1>   0.0800 
 34 H        1.8250    -2.4810    -3.3350 H     1 <1>   0.0800 
 35 H        4.2070     6.6630     1.9740 H     1 <1>   0.0800 
 36 H        3.1350     7.8590     1.3050 H     1 <1>   0.0800 
 37 H        0.8350     5.5880    -0.2660 H     1 <1>   0.0800 
 38 H        2.0390     6.5960    -1.0220 H     1 <1>   0.0800 
 39 H        1.0780     7.2270     0.2950 H     1 <1>   0.0800 
 40 H        4.2930     5.2790    -1.3270 H     1 <1>   0.1500 
 41 H        6.6390    10.4940     0.2610 H     1 <1>   0.1500 
 42 H        7.8470     8.4090    -3.2590 H     1 <1>   0.1500 
 43 H        8.2290    12.2760    -0.2600 H     1 <1>   0.1500 
 44 H        9.4220    10.1830    -3.7680 H     1 <1>   0.1500 
 45 H        9.6300    12.1310    -2.2790 H     1 <1>   0.1500 
@<TRIPOS>BOND
  1   1   2  1   
  2   1   3  1   
  3   2   4  2   
  4   2   5  1   
  5   3   6  2   
  6   3   7  1   
  7   4   6  1   
  8   5   8  am  
  9   5  27  1   
 10   7   9  1   
 11   7  28  1   
 12   7  29  1   
 13   8  10  2   
 14   8  11  1   
 15   9  12  1   
 16  11  13  1   
 17  11  30  1   
 18  11  31  1   
 19  12  32  1   
 20  12  33  1   
 21  12  34  1   
 22  13  14  1   
 23  13  15  1   
 24  14  16  1   
 25  14  35  1   
 26  14  36  1   
 27  15  37  1   
 28  15  38  1   
 29  15  39  1   
 30  16  17  1   
 31  16  18  2   
 32  17  19  2   
 33  18  20  1   
 34  18  40  1   
 35  19  20  1   
 36  19  21  1   
 37  21  22  ar  
 38  21  23  ar  
 39  22  24  ar  
 40  22  41  1   
 41  23  25  ar  
 42  23  42  1   
 43  24  26  ar  
 44  24  43  1   
 45  25  26  ar  
 46  25  44  1   
 47  26  45  1   
@<TRIPOS>SUBSTRUCTURE
  1 ****  18 GROUP 4 **** **** 0

# MOE 2024.06 (io_trps.svl 2023.06)
