@<TRIPOS>MOLECULE
NONAME
44 46 1 0 0 
SMALL
USER_CHARGES


@<TRIPOS>ATOM
  1 CL       0.8230     0.9560    -0.7320 Cl    1 <1>  -0.1770 
  2 C        2.0500    -0.0340     0.0240 C.ar  1 <1>   0.1770 
  3 C        3.2620     0.5190     0.4190 C.ar  1 <1>  -0.1440 
  4 C        1.7660    -1.3780     0.2000 C.ar  1 <1>  -0.1500 
  5 C        4.1930    -0.3410     0.9920 C.ar  1 <1>   0.1770 
  6 C        3.5540     2.0070     0.2210 C.3   1 <1>  -0.0160 
  7 C        2.7070    -2.2110     0.7800 C.ar  1 <1>  -0.1500 
  8 CL       5.7590     0.2410     1.5040 Cl    1 <1>  -0.1770 
  9 C        3.9260    -1.6870     1.1750 C.ar  1 <1>  -0.1500 
 10 C        4.0950     2.2690    -1.1840 C.3   1 <1>   0.2090 
 11 N        4.2450     3.7310    -1.3980 N.pl3 1 <1>  -0.8690 
 12 C        5.4010     4.4330    -1.1790 C.ar  1 <1>   0.4100 
 13 N        6.4020     3.8000    -0.5830 N.ar  1 <1>  -0.6200 
 14 C        5.4850     5.7650    -1.5780 C.ar  1 <1>  -0.1500 
 15 C        7.5030     4.5020    -0.3820 C.ar  1 <1>   0.1600 
 16 C        6.6350     6.4820    -1.3540 C.ar  1 <1>  -0.1500 
 17 C        7.6930     5.8390    -0.7190 C.ar  1 <1>   0.0860 
 18 C        8.9430     6.4960    -0.4250 C.2   1 <1>   0.5440 
 19 O        9.9830     5.9680    -0.7710 O.2   1 <1>  -0.5700 
 20 N        9.0050     7.7010     0.2440 N.am  1 <1>  -0.6600 
 21 C       10.2760     8.4790     0.3420 C.3   1 <1>   0.1400 
 22 C        7.9190     8.2530     1.1080 C.3   1 <1>   0.1400 
 23 C       10.0040     9.9830     0.1770 C.3   1 <1>   0.1200 
 24 C        7.7750     9.7680     0.8870 C.3   1 <1>   0.1200 
 25 O        9.0050    10.4120     1.0610 O.3   1 <1>  -0.5600 
 26 H        0.8140    -1.7650    -0.1180 H     1 <1>   0.1500 
 27 H        4.2730     2.3550     0.9400 H     1 <1>   0.0800 
 28 H        2.6570     2.5800     0.3710 H     1 <1>   0.0800 
 29 H        2.4940    -3.2570     0.9210 H     1 <1>   0.1500 
 30 H        4.6730    -2.3180     1.6250 H     1 <1>   0.1500 
 31 H        3.4160     1.8740    -1.9200 H     1 <1>   0.0800 
 32 H        5.0450     1.7760    -1.3060 H     1 <1>   0.0800 
 33 H        3.4800     4.1860    -1.8990 H     1 <1>   0.4000 
 34 H        4.6410     6.2170    -2.0620 H     1 <1>   0.1500 
 35 H        8.3250     3.9880     0.0880 H     1 <1>   0.1500 
 36 H        6.7280     7.5090    -1.6610 H     1 <1>   0.1500 
 37 H       10.9700     8.1600    -0.4160 H     1 <1>   0.0800 
 38 H       10.7280     8.3000     1.3020 H     1 <1>   0.0800 
 39 H        8.1690     8.0760     2.1390 H     1 <1>   0.0800 
 40 H        6.9800     7.7690     0.9120 H     1 <1>   0.0800 
 41 H        9.6900    10.2000    -0.8290 H     1 <1>   0.0800 
 42 H       10.8950    10.5460     0.3900 H     1 <1>   0.0800 
 43 H        7.0850    10.1840     1.6010 H     1 <1>   0.0800 
 44 H        7.4140     9.9770    -0.1050 H     1 <1>   0.0800 
@<TRIPOS>BOND
  1   1   2  1   
  2   2   3  ar  
  3   2   4  ar  
  4   3   5  ar  
  5   3   6  1   
  6   4   7  ar  
  7   4  26  1   
  8   5   8  1   
  9   5   9  ar  
 10   6  10  1   
 11   6  27  1   
 12   6  28  1   
 13   7   9  ar  
 14   7  29  1   
 15   9  30  1   
 16  10  11  1   
 17  10  31  1   
 18  10  32  1   
 19  11  12  1   
 20  11  33  1   
 21  12  13  ar  
 22  12  14  ar  
 23  13  15  ar  
 24  14  16  ar  
 25  14  34  1   
 26  15  17  ar  
 27  15  35  1   
 28  16  17  ar  
 29  16  36  1   
 30  17  18  1   
 31  18  19  2   
 32  18  20  am  
 33  20  21  1   
 34  20  22  1   
 35  21  23  1   
 36  21  37  1   
 37  21  38  1   
 38  22  24  1   
 39  22  39  1   
 40  22  40  1   
 41  23  25  1   
 42  23  41  1   
 43  23  42  1   
 44  24  25  1   
 45  24  43  1   
 46  24  44  1   
@<TRIPOS>SUBSTRUCTURE
  1 ****  13 GROUP 4 **** **** 0

# MOE 2024.06 (io_trps.svl 2023.06)
