@<TRIPOS>MOLECULE
NONAME
45 46 1 0 0 
SMALL
USER_CHARGES


@<TRIPOS>ATOM
  1 S        0.7840     0.4140    -0.4530 S.3   1 <1>  -0.3320 
  2 C        0.2750     2.1010    -0.1910 C.ar  1 <1>   0.7720 
  3 C       -0.6540    -0.7130    -0.1360 C.3   1 <1>  -0.0100 
  4 N        1.1560     3.0260    -0.3730 N.ar  1 <1>  -0.6200 
  5 N       -1.0010     2.3110     0.1830 N.ar  1 <1>  -0.1790 
  6 C        0.7690     4.2930    -0.1750 C.ar  1 <1>   0.4100 
  7 C       -1.4400     3.5600     0.3920 C.ar  1 <1>   0.4610 
  8 N        1.7800     5.1530    -0.4010 N.pl3 1 <1>  -0.8690 
  9 C       -0.5310     4.5820     0.2070 C.ar  1 <1>  -0.1500 
 10 N       -2.7210     3.7680     0.7660 N.pl3 1 <1>  -0.9000 
 11 C        2.0510     6.6220    -0.3300 C.3   1 <1>   0.2890 
 12 C        3.3150     6.8530     0.5150 C.3   1 <1>   0.1400 
 13 C        0.8870     7.4580     0.2220 C.3   1 <1>  -0.1600 
 14 N        3.6440     8.3120     0.5870 N.am  1 <1>  -0.6600 
 15 C        1.2770     8.9410     0.3670 C.3   1 <1>  -0.1600 
 16 C        4.7980     8.7980     0.0150 C.2   1 <1>   0.5690 
 17 C        2.5560     9.1280     1.1910 C.3   1 <1>   0.1400 
 18 O        5.5060     8.0770    -0.6510 O.2   1 <1>  -0.5700 
 19 C        5.2220    10.2680     0.1860 C.3   1 <1>  -0.0190 
 20 C        4.6000    11.1580    -0.9040 C.3   1 <1>  -0.2400 
 21 C        6.7520    10.4510     0.1800 C.3   1 <1>  -0.2400 
 22 H       -0.3090    -1.7190    -0.3060 H     1 <1>   0.0800 
 23 H       -1.4410    -0.4740    -0.8290 H     1 <1>   0.0800 
 24 H       -0.9630    -0.6010     0.8880 H     1 <1>   0.0800 
 25 H       -1.6160     1.5200     0.3010 H     1 <1>   0.4570 
 26 H        2.6210     4.6670    -0.7350 H     1 <1>   0.4000 
 27 H       -0.8590     5.5840     0.3620 H     1 <1>   0.1500 
 28 H       -3.0870     4.7170     0.9290 H     1 <1>   0.4000 
 29 H       -3.4490     3.0610     0.9220 H     1 <1>   0.4000 
 30 H        2.2690     6.9610    -1.3300 H     1 <1>   0.0800 
 31 H        4.1340     6.3030     0.0860 H     1 <1>   0.0800 
 32 H        3.1530     6.4860     1.5120 H     1 <1>   0.0800 
 33 H        0.6110     7.0850     1.1920 H     1 <1>   0.0800 
 34 H        0.0520     7.3970    -0.4520 H     1 <1>   0.0800 
 35 H        0.4730     9.4810     0.8360 H     1 <1>   0.0800 
 36 H        1.4300     9.3710    -0.6080 H     1 <1>   0.0800 
 37 H        2.8080    10.1720     1.2150 H     1 <1>   0.0800 
 38 H        2.3940     8.8020     2.2050 H     1 <1>   0.0800 
 39 H        4.8850    10.6070     1.1470 H     1 <1>   0.0800 
 40 H        4.9490    10.8490    -1.8740 H     1 <1>   0.0800 
 41 H        4.8700    12.1880    -0.7510 H     1 <1>   0.0800 
 42 H        3.5280    11.0790    -0.8900 H     1 <1>   0.0800 
 43 H        7.1610    10.1620    -0.7730 H     1 <1>   0.0800 
 44 H        7.1980     9.8340     0.9400 H     1 <1>   0.0800 
 45 H        7.0120    11.4760     0.3710 H     1 <1>   0.0800 
@<TRIPOS>BOND
  1   1   2  1   
  2   1   3  1   
  3   2   4  ar  
  4   2   5  ar  
  5   3  22  1   
  6   3  23  1   
  7   3  24  1   
  8   4   6  ar  
  9   5   7  ar  
 10   5  25  1   
 11   6   8  1   
 12   6   9  ar  
 13   7   9  ar  
 14   7  10  1   
 15   8  11  1   
 16   8  26  1   
 17   9  27  1   
 18  10  28  1   
 19  10  29  1   
 20  11  12  1   
 21  11  13  1   
 22  11  30  1   
 23  12  14  1   
 24  12  31  1   
 25  12  32  1   
 26  13  15  1   
 27  13  33  1   
 28  13  34  1   
 29  14  16  am  
 30  14  17  1   
 31  15  17  1   
 32  15  35  1   
 33  15  36  1   
 34  16  18  2   
 35  16  19  1   
 36  17  37  1   
 37  17  38  1   
 38  19  20  1   
 39  19  21  1   
 40  19  39  1   
 41  20  40  1   
 42  20  41  1   
 43  20  42  1   
 44  21  43  1   
 45  21  44  1   
 46  21  45  1   
@<TRIPOS>SUBSTRUCTURE
  1 ****  11 GROUP 4 **** **** 0

# MOE 2024.06 (io_trps.svl 2023.06)
