@<TRIPOS>MOLECULE
NONAME
47 49 1 0 0 
SMALL
USER_CHARGES


@<TRIPOS>ATOM
  1 O       -4.5630    -3.4760     0.7150 O.co2 1 <1>  -0.9000 
  2 C       -4.8540    -3.0980    -0.4200 C.2   1 <1>   0.9060 
  3 O       -5.6810    -3.7330    -1.0880 O.co2 1 <1>  -0.9000 
  4 C       -4.4590    -1.7070    -0.8750 C.3   1 <1>   0.0140 
  5 O       -5.6190    -0.9300    -1.1860 O.3   1 <1>  -0.3630 
  6 C       -6.0530     0.0020    -0.3110 C.ar  1 <1>   0.0830 
  7 C       -6.7170    -0.3130     0.8780 C.ar  1 <1>  -0.1440 
  8 C       -5.8580     1.3250    -0.6740 C.ar  1 <1>  -0.1500 
  9 C       -7.1640     0.7280     1.6820 C.ar  1 <1>  -0.1500 
 10 C       -6.9800    -1.7330     1.3650 C.3   1 <1>   0.4870 
 11 C       -6.3100     2.3480     0.1370 C.ar  1 <1>  -0.1500 
 12 C       -6.9640     2.0480     1.3170 C.ar  1 <1>  -0.1500 
 13 N       -7.6860    -2.5740     0.3610 N.4   1 <1>  -0.9590 
 14 C       -8.7060    -1.9350    -0.5080 C.3   1 <1>   0.3430 
 15 C       -8.1990    -3.8560     0.8820 C.3   1 <1>   0.3430 
 16 C       -9.8570    -2.9450    -0.6140 C.3   1 <1>   0.2000 
 17 C       -9.2940    -4.2730    -0.1020 C.3   1 <1>  -0.0800 
 18 O      -10.8910    -2.5530     0.2290 O.3   1 <1>  -0.6800 
 19 C       -8.7100    -5.1330    -1.2370 C.3   1 <1>   0.0200 
 20 C       -8.0600    -6.3730    -0.6580 C.2   1 <1>  -0.0400 
 21 O       -8.7840    -7.2960    -0.0840 O.3   1 <1>  -0.0190 
 22 C       -6.7750    -6.7440    -0.5760 C.2   1 <1>  -0.1500 
 23 N       -8.0500    -8.2630     0.3860 N.2   1 <1>  -0.4100 
 24 C       -6.8340    -7.9570     0.1020 C.2   1 <1>   0.1080 
 25 C       -5.6280    -8.7950     0.4620 C.3   1 <1>  -0.0590 
 26 H       -3.8670    -1.7890    -1.7660 H     1 <1>   0.0800 
 27 H       -3.8930    -1.2140    -0.1070 H     1 <1>   0.0800 
 28 H       -5.3530     1.5460    -1.5980 H     1 <1>   0.1500 
 29 H       -7.6740     0.5250     2.6090 H     1 <1>   0.1500 
 30 H       -7.5820    -1.6780     2.2540 H     1 <1>   0.0800 
 31 H       -6.0480    -2.1950     1.6430 H     1 <1>   0.0800 
 32 H       -6.1530     3.3740    -0.1500 H     1 <1>   0.1500 
 33 H       -7.3150     2.8440     1.9510 H     1 <1>   0.1500 
 34 H       -6.9240    -2.8860    -0.2930 H     1 <1>   0.4500 
 35 H       -9.0550    -1.0030    -0.0960 H     1 <1>   0.0800 
 36 H       -8.2730    -1.7560    -1.4790 H     1 <1>   0.0800 
 37 H       -7.4070    -4.5880     0.9440 H     1 <1>   0.0800 
 38 H       -8.6260    -3.7110     1.8600 H     1 <1>   0.0800 
 39 H      -10.2530    -3.0050    -1.6140 H     1 <1>   0.0800 
 40 H      -10.0490    -4.8530     0.3990 H     1 <1>   0.0800 
 41 H      -10.6160    -2.5460     1.1650 H     1 <1>   0.4000 
 42 H       -7.9740    -4.5820    -1.7960 H     1 <1>   0.0800 
 43 H       -9.4880    -5.4320    -1.9160 H     1 <1>   0.0800 
 44 H       -5.8890    -6.2380    -0.9230 H     1 <1>   0.1500 
 45 H       -4.8950    -8.1820     0.9540 H     1 <1>   0.0800 
 46 H       -5.1990    -9.2130    -0.4300 H     1 <1>   0.0800 
 47 H       -5.9180    -9.5930     1.1200 H     1 <1>   0.0800 
@<TRIPOS>BOND
  1   1   2  ar  
  2   2   3  ar  
  3   2   4  1   
  4   4   5  1   
  5   4  26  1   
  6   4  27  1   
  7   5   6  1   
  8   6   7  ar  
  9   6   8  ar  
 10   7   9  ar  
 11   7  10  1   
 12   8  11  ar  
 13   8  28  1   
 14   9  12  ar  
 15   9  29  1   
 16  10  13  1   
 17  10  30  1   
 18  10  31  1   
 19  11  12  ar  
 20  11  32  1   
 21  12  33  1   
 22  13  14  1   
 23  13  15  1   
 24  13  34  1   
 25  14  16  1   
 26  14  35  1   
 27  14  36  1   
 28  15  17  1   
 29  15  37  1   
 30  15  38  1   
 31  16  17  1   
 32  16  18  1   
 33  16  39  1   
 34  17  19  1   
 35  17  40  1   
 36  18  41  1   
 37  19  20  1   
 38  19  42  1   
 39  19  43  1   
 40  20  21  1   
 41  20  22  2   
 42  21  23  1   
 43  22  24  1   
 44  22  44  1   
 45  23  24  2   
 46  24  25  1   
 47  25  45  1   
 48  25  46  1   
 49  25  47  1   
@<TRIPOS>SUBSTRUCTURE
  1 ****  13 GROUP 4 **** **** 0

# MOE 2024.06 (io_trps.svl 2023.06)
