@<TRIPOS>MOLECULE
NONAME
49 52 1 0 0 
SMALL
USER_CHARGES


@<TRIPOS>ATOM
  1 O        0.8100     5.2490    -3.0830 O.2   1 <1>  -0.5700 
  2 C        0.9480     4.5250    -2.1160 C.2   1 <1>   0.7800 
  3 O        1.2330     3.2260    -2.2220 O.3   1 <1>  -0.2320 
  4 N        0.7920     4.8860    -0.8100 N.am  1 <1>  -0.4770 
  5 C        1.2320     2.7250    -0.9710 C.ar  1 <1>   0.0830 
  6 C        0.9620     3.7320    -0.0700 C.ar  1 <1>   0.1170 
  7 C        0.2060     6.1690    -0.3300 C.3   1 <1>   0.2010 
  8 C        1.4430     1.4190    -0.5700 C.ar  1 <1>  -0.1500 
  9 C        0.8990     3.4560     1.2870 C.ar  1 <1>  -0.1500 
 10 C       -1.1230     5.9720     0.4000 C.2   1 <1>   0.5690 
 11 C        1.3770     1.1390     0.7870 C.ar  1 <1>  -0.1500 
 12 C        1.1070     2.1510     1.7070 C.ar  1 <1>  -0.1500 
 13 O       -1.1130     6.1370     1.6000 O.2   1 <1>  -0.5700 
 14 N       -2.2690     5.6050    -0.2650 N.am  1 <1>  -0.6600 
 15 C       -3.4810     5.1550     0.4800 C.3   1 <1>   0.1400 
 16 C       -2.4110     5.4490    -1.7390 C.3   1 <1>   0.1400 
 17 C       -3.7220     3.6520     0.2410 C.3   1 <1>   0.0000 
 18 C       -2.6450     3.9730    -2.0780 C.3   1 <1>  -0.1600 
 19 C       -4.9620     3.1800     1.0210 C.3   1 <1>   0.2000 
 20 C       -3.8290     3.3840    -1.2880 C.3   1 <1>  -0.1600 
 21 C       -2.6210     2.7770     0.8700 C.3   1 <1>  -0.1600 
 22 O       -6.1470     3.4900     0.3510 O.3   1 <1>  -0.5600 
 23 C       -4.7870     1.6690     1.1910 C.3   1 <1>  -0.1600 
 24 C       -3.2730     1.4190     1.1560 C.3   1 <1>  -0.1600 
 25 C       -7.3060     3.3580     1.1120 C.3   1 <1>   0.0400 
 26 H        0.9020     6.6290     0.3460 H     1 <1>   0.0800 
 27 H        0.0620     6.8380    -1.1580 H     1 <1>   0.0800 
 28 H        1.6490     0.6530    -1.2950 H     1 <1>   0.1500 
 29 H        0.6860     4.2380     1.9950 H     1 <1>   0.1500 
 30 H        1.5360     0.1330     1.1340 H     1 <1>   0.1500 
 31 H        1.0590     1.9150     2.7570 H     1 <1>   0.1500 
 32 H       -3.3730     5.3460     1.5330 H     1 <1>   0.0800 
 33 H       -4.3340     5.7130     0.1330 H     1 <1>   0.0800 
 34 H       -3.2590     6.0280    -2.0660 H     1 <1>   0.0800 
 35 H       -1.5480     5.8170    -2.2610 H     1 <1>   0.0800 
 36 H       -2.8400     3.8830    -3.1320 H     1 <1>   0.0800 
 37 H       -1.7490     3.4170    -1.8750 H     1 <1>   0.0800 
 38 H       -4.9720     3.6550     1.9880 H     1 <1>   0.0800 
 39 H       -3.9040     2.3290    -1.4830 H     1 <1>   0.0800 
 40 H       -4.7290     3.8410    -1.6610 H     1 <1>   0.0800 
 41 H       -1.7530     2.6740     0.2460 H     1 <1>   0.0800 
 42 H       -2.3080     3.2150     1.8030 H     1 <1>   0.0800 
 43 H       -5.2110     1.3360     2.1220 H     1 <1>   0.0800 
 44 H       -5.2550     1.1520     0.3720 H     1 <1>   0.0800 
 45 H       -2.9170     1.0170     2.0890 H     1 <1>   0.0800 
 46 H       -3.0380     0.7250     0.3670 H     1 <1>   0.0800 
 47 H       -8.1410     3.6510     0.5010 H     1 <1>   0.0800 
 48 H       -7.2430     4.0030     1.9710 H     1 <1>   0.0800 
 49 H       -7.4230     2.3320     1.4140 H     1 <1>   0.0800 
@<TRIPOS>BOND
  1   1   2  2   
  2   2   3  1   
  3   2   4  am  
  4   3   5  1   
  5   4   6  1   
  6   4   7  1   
  7   5   6  ar  
  8   5   8  ar  
  9   6   9  ar  
 10   7  10  1   
 11   7  26  1   
 12   7  27  1   
 13   8  11  ar  
 14   8  28  1   
 15   9  12  ar  
 16   9  29  1   
 17  10  13  2   
 18  10  14  am  
 19  11  12  ar  
 20  11  30  1   
 21  12  31  1   
 22  14  15  1   
 23  14  16  1   
 24  15  17  1   
 25  15  32  1   
 26  15  33  1   
 27  16  18  1   
 28  16  34  1   
 29  16  35  1   
 30  17  19  1   
 31  17  20  1   
 32  17  21  1   
 33  18  20  1   
 34  18  36  1   
 35  18  37  1   
 36  19  22  1   
 37  19  23  1   
 38  19  38  1   
 39  20  39  1   
 40  20  40  1   
 41  21  24  1   
 42  21  41  1   
 43  21  42  1   
 44  22  25  1   
 45  23  24  1   
 46  23  43  1   
 47  23  44  1   
 48  24  45  1   
 49  24  46  1   
 50  25  47  1   
 51  25  48  1   
 52  25  49  1   
@<TRIPOS>SUBSTRUCTURE
  1 ****  21 GROUP 4 **** **** 0

# MOE 2024.06 (io_trps.svl 2023.06)
