@<TRIPOS>MOLECULE
NONAME
56 58 1 0 0 
SMALL
USER_CHARGES


@<TRIPOS>ATOM
  1 F       -0.5940    -1.1360     1.3070 F     1 <1>  -0.1900 
  2 C       -1.7970    -1.5110     0.9540 C.ar  1 <1>   0.1900 
  3 C       -2.3800    -0.9250    -0.1530 C.ar  1 <1>  -0.1500 
  4 C       -2.4380    -2.4800     1.6990 C.ar  1 <1>  -0.1500 
  5 C       -3.6540    -1.3150    -0.5370 C.ar  1 <1>  -0.1440 
  6 C       -3.7090    -2.8650     1.3140 C.ar  1 <1>  -0.1500 
  7 C       -4.3290    -2.2950     0.2050 C.ar  1 <1>   0.1000 
  8 C       -4.2740    -0.6570    -1.7620 C.3   1 <1>  -0.0960 
  9 N       -5.6110    -2.7410    -0.1120 N.pl3 1 <1>  -0.8380 
 10 C       -5.7680    -3.8030    -1.1140 C.3   1 <1>   0.2090 
 11 C       -6.7600    -1.8440     0.0760 C.3   1 <1>   0.2090 
 12 C       -6.9120    -4.6970    -0.6480 C.3   1 <1>  -0.1600 
 13 C       -7.9240    -2.6990     0.5670 C.3   1 <1>  -0.1600 
 14 C       -8.1970    -3.8890    -0.3760 C.3   1 <1>   0.4230 
 15 N       -9.2470    -4.7920     0.2160 N.4   1 <1>  -0.9590 
 16 C       -9.6300    -5.9120    -0.6990 C.3   1 <1>   0.3430 
 17 C      -10.4810    -4.0570     0.6570 C.3   1 <1>   0.2630 
 18 C      -10.2860    -7.0500     0.0840 C.3   1 <1>  -0.1600 
 19 C      -10.4990    -8.2620    -0.8360 C.3   1 <1>  -0.1600 
 20 C      -11.0830    -9.4720    -0.1030 C.3   1 <1>   0.2000 
 21 O      -11.1840   -10.5060    -1.0130 O.3   1 <1>  -0.5600 
 22 C      -12.5010    -9.2930     0.4210 C.3   1 <1>  -0.1600 
 23 C      -12.1360   -11.4350    -0.5990 C.3   1 <1>   0.1200 
 24 C      -13.0490   -10.7090     0.3860 C.3   1 <1>  -0.1600 
 25 H       -1.8340    -0.1760    -0.6960 H     1 <1>   0.1500 
 26 H       -1.9540    -2.9140     2.5540 H     1 <1>   0.1500 
 27 H       -4.2360    -3.6140     1.8740 H     1 <1>   0.1500 
 28 H       -3.5390    -0.0930    -2.3080 H     1 <1>   0.0800 
 29 H       -5.0580     0.0110    -1.4600 H     1 <1>   0.0800 
 30 H       -4.6780    -1.4020    -2.4210 H     1 <1>   0.0800 
 31 H       -4.8540    -4.3690    -1.1920 H     1 <1>   0.0800 
 32 H       -5.9860    -3.3680    -2.0750 H     1 <1>   0.0800 
 33 H       -7.0040    -1.3640    -0.8570 H     1 <1>   0.0800 
 34 H       -6.5150    -1.0850     0.8020 H     1 <1>   0.0800 
 35 H       -6.5930    -5.1990     0.2470 H     1 <1>   0.0800 
 36 H       -7.0630    -5.4270    -1.4190 H     1 <1>   0.0800 
 37 H       -8.7780    -2.0530     0.6320 H     1 <1>   0.0800 
 38 H       -7.6780    -3.0550     1.5520 H     1 <1>   0.0800 
 39 H       -8.5540    -3.4950    -1.3140 H     1 <1>   0.0800 
 40 H       -8.8120    -5.2140     1.0490 H     1 <1>   0.4500 
 41 H       -8.7590    -6.3140    -1.1850 H     1 <1>   0.0800 
 42 H      -10.3000    -5.5550    -1.4660 H     1 <1>   0.0800 
 43 H      -10.9300    -3.5450    -0.1790 H     1 <1>   0.0800 
 44 H      -10.2410    -3.3340     1.4180 H     1 <1>   0.0800 
 45 H      -11.2040    -4.7420     1.0680 H     1 <1>   0.0800 
 46 H      -11.2380    -6.7380     0.4740 H     1 <1>   0.0800 
 47 H       -9.6490    -7.3450     0.8990 H     1 <1>   0.0800 
 48 H       -9.5540    -8.5620    -1.2570 H     1 <1>   0.0800 
 49 H      -11.1580    -7.9980    -1.6460 H     1 <1>   0.0800 
 50 H      -10.4280    -9.8040     0.6860 H     1 <1>   0.0800 
 51 H      -13.0650    -8.6670    -0.2480 H     1 <1>   0.0800 
 52 H      -12.5180    -8.8710     1.4100 H     1 <1>   0.0800 
 53 H      -11.6240   -12.2580    -0.1290 H     1 <1>   0.0800 
 54 H      -12.6700   -11.7800    -1.4670 H     1 <1>   0.0800 
 55 H      -14.0750   -10.7350     0.0620 H     1 <1>   0.0800 
 56 H      -12.9760   -11.1750     1.3530 H     1 <1>   0.0800 
@<TRIPOS>BOND
  1   1   2  1   
  2   2   3  ar  
  3   2   4  ar  
  4   3   5  ar  
  5   3  25  1   
  6   4   6  ar  
  7   4  26  1   
  8   5   7  ar  
  9   5   8  1   
 10   6   7  ar  
 11   6  27  1   
 12   7   9  1   
 13   8  28  1   
 14   8  29  1   
 15   8  30  1   
 16   9  10  1   
 17   9  11  1   
 18  10  12  1   
 19  10  31  1   
 20  10  32  1   
 21  11  13  1   
 22  11  33  1   
 23  11  34  1   
 24  12  14  1   
 25  12  35  1   
 26  12  36  1   
 27  13  14  1   
 28  13  37  1   
 29  13  38  1   
 30  14  15  1   
 31  14  39  1   
 32  15  16  1   
 33  15  17  1   
 34  15  40  1   
 35  16  18  1   
 36  16  41  1   
 37  16  42  1   
 38  17  43  1   
 39  17  44  1   
 40  17  45  1   
 41  18  19  1   
 42  18  46  1   
 43  18  47  1   
 44  19  20  1   
 45  19  48  1   
 46  19  49  1   
 47  20  21  1   
 48  20  22  1   
 49  20  50  1   
 50  21  23  1   
 51  22  24  1   
 52  22  51  1   
 53  22  52  1   
 54  23  24  1   
 55  23  53  1   
 56  23  54  1   
 57  24  55  1   
 58  24  56  1   
@<TRIPOS>SUBSTRUCTURE
  1 ****  12 GROUP 4 **** **** 0

# MOE 2024.06 (io_trps.svl 2023.06)
