@<TRIPOS>MOLECULE
NONAME
48 50 1 0 0 
SMALL
USER_CHARGES


@<TRIPOS>ATOM
  1 F        1.9040    -1.6390    -1.5850 F     1 <1>  -0.3400 
  2 C        1.0400    -1.8410    -0.5950 C.3   1 <1>   1.1640 
  3 F        1.6490    -1.4010     0.5050 F     1 <1>  -0.3400 
  4 F        0.0310    -1.0000    -0.8020 F     1 <1>  -0.3400 
  5 C        0.5760    -3.3260    -0.4860 C.ar  1 <1>   0.1660 
  6 N       -0.0460    -3.8880    -1.5300 N.ar  1 <1>  -0.6200 
  7 C        0.8140    -4.0410     0.6870 C.ar  1 <1>  -0.1500 
  8 C       -0.4190    -5.1510    -1.4010 C.ar  1 <1>   0.1600 
  9 C        0.4090    -5.3530     0.8020 C.ar  1 <1>  -0.1500 
 10 C       -0.2410    -5.9430    -0.2710 C.ar  1 <1>   0.0860 
 11 C       -0.7050    -7.3160    -0.2290 C.2   1 <1>   0.5440 
 12 O       -0.1060    -8.1460     0.4290 O.2   1 <1>  -0.5700 
 13 N       -1.8430    -7.7320    -0.8870 N.am  1 <1>  -0.6600 
 14 C       -2.0240    -9.1880    -1.1580 C.3   1 <1>   0.1400 
 15 C       -3.1190    -6.9790    -0.7490 C.3   1 <1>   0.1400 
 16 C       -2.7860    -9.8080     0.0280 C.3   1 <1>   0.4230 
 17 C       -3.9660    -7.6230     0.3650 C.3   1 <1>  -0.1600 
 18 N       -2.7270   -11.3230     0.1040 N.4   1 <1>  -0.9590 
 19 C       -4.1950    -9.1540     0.1990 C.3   1 <1>   0.0000 
 20 C       -3.8130   -11.9160     0.9460 C.3   1 <1>   0.3430 
 21 C       -2.6910   -12.0190    -1.2210 C.3   1 <1>   0.2630 
 22 C       -4.8820    -9.6850     1.4930 C.3   1 <1>  -0.1600 
 23 C       -5.1390    -9.3310    -1.0270 C.3   1 <1>   0.1200 
 24 C       -4.2300   -10.9590     2.0610 C.3   1 <1>  -0.1600 
 25 O       -5.4650   -10.6590    -1.2600 O.3   1 <1>  -0.6800 
 26 H        1.3190    -3.5830     1.5210 H     1 <1>   0.1500 
 27 H       -0.9010    -5.5950    -2.2560 H     1 <1>   0.1500 
 28 H        0.5930    -5.9170     1.7020 H     1 <1>   0.1500 
 29 H       -2.5590    -9.3180    -2.0810 H     1 <1>   0.0800 
 30 H       -1.0570    -9.6520    -1.2550 H     1 <1>   0.0800 
 31 H       -2.9250    -5.9500    -0.4960 H     1 <1>   0.0800 
 32 H       -3.6450    -6.9890    -1.6890 H     1 <1>   0.0800 
 33 H       -2.2350    -9.4720     0.8920 H     1 <1>   0.0800 
 34 H       -3.4590    -7.4340     1.2970 H     1 <1>   0.0800 
 35 H       -4.9130    -7.1120     0.4210 H     1 <1>   0.0800 
 36 H       -1.8390   -11.5260     0.5830 H     1 <1>   0.4500 
 37 H       -4.6770   -12.1230     0.3340 H     1 <1>   0.0800 
 38 H       -3.4780   -12.8490     1.3700 H     1 <1>   0.0800 
 39 H       -3.5760   -11.7920    -1.7920 H     1 <1>   0.0800 
 40 H       -2.6430   -13.0860    -1.0800 H     1 <1>   0.0800 
 41 H       -1.8270   -11.7120    -1.7870 H     1 <1>   0.0800 
 42 H       -4.8770    -8.9410     2.2720 H     1 <1>   0.0800 
 43 H       -5.9190    -9.8940     1.2910 H     1 <1>   0.0800 
 44 H       -4.7060    -8.9410    -1.9310 H     1 <1>   0.0800 
 45 H       -6.0630    -8.8040    -0.8480 H     1 <1>   0.0800 
 46 H       -4.9350   -11.4550     2.7050 H     1 <1>   0.0800 
 47 H       -3.3710   -10.7100     2.6600 H     1 <1>   0.0800 
 48 H       -6.2290   -10.7200    -1.8740 H     1 <1>   0.4000 
@<TRIPOS>BOND
  1   1   2  1   
  2   2   3  1   
  3   2   4  1   
  4   2   5  1   
  5   5   6  ar  
  6   5   7  ar  
  7   6   8  ar  
  8   7   9  ar  
  9   7  26  1   
 10   8  10  ar  
 11   8  27  1   
 12   9  10  ar  
 13   9  28  1   
 14  10  11  1   
 15  11  12  2   
 16  11  13  am  
 17  13  14  1   
 18  13  15  1   
 19  14  16  1   
 20  14  29  1   
 21  14  30  1   
 22  15  17  1   
 23  15  31  1   
 24  15  32  1   
 25  16  18  1   
 26  16  19  1   
 27  16  33  1   
 28  17  19  1   
 29  17  34  1   
 30  17  35  1   
 31  18  20  1   
 32  18  21  1   
 33  18  36  1   
 34  19  22  1   
 35  19  23  1   
 36  20  24  1   
 37  20  37  1   
 38  20  38  1   
 39  21  39  1   
 40  21  40  1   
 41  21  41  1   
 42  22  24  1   
 43  22  42  1   
 44  22  43  1   
 45  23  25  1   
 46  23  44  1   
 47  23  45  1   
 48  24  46  1   
 49  24  47  1   
 50  25  48  1   
@<TRIPOS>SUBSTRUCTURE
  1 ****  13 GROUP 4 **** **** 0

# MOE 2024.06 (io_trps.svl 2023.06)
