@<TRIPOS>MOLECULE
NONAME
42 44 1 0 0 
SMALL
USER_CHARGES


@<TRIPOS>ATOM
  1 CL      -2.7420    -0.1740    -0.8920 Cl    1 <1>  -0.1770 
  2 C       -2.6410    -1.9090    -0.7480 C.ar  1 <1>   0.1770 
  3 C       -3.5820    -2.7030    -1.3740 C.ar  1 <1>  -0.1500 
  4 C       -1.6190    -2.4730    -0.0090 C.ar  1 <1>  -0.1500 
  5 C       -3.4940    -4.0790    -1.2570 C.ar  1 <1>  -0.1500 
  6 C       -1.5440    -3.8500     0.1010 C.ar  1 <1>  -0.1500 
  7 C       -2.4770    -4.6900    -0.5180 C.ar  1 <1>   0.0530 
  8 C       -2.3740    -6.1270    -0.3940 C.2   1 <1>   0.0870 
  9 O       -1.2780    -6.6670     0.0930 O.3   1 <1>  -0.0190 
 10 C       -3.2150    -7.1590    -0.6700 C.2   1 <1>  -0.2330 
 11 N       -1.3300    -7.9730     0.1550 N.2   1 <1>  -0.4100 
 12 C       -2.4760    -8.2850    -0.3250 C.2   1 <1>   0.3720 
 13 C       -4.5760    -7.2480    -1.0760 C.2   1 <1>   1.0330 
 14 N       -2.9450    -9.5860    -0.4500 N.pl3 1 <1>  -0.8520 
 15 O       -5.4440    -6.5270    -0.5700 O.co2 1 <1>  -0.9000 
 16 O       -4.9880    -8.2410    -1.7110 O.co2 1 <1>  -0.9000 
 17 C       -3.3550   -10.2320     0.8250 C.3   1 <1>   0.2090 
 18 C       -4.6130    -9.5900     1.4600 C.3   1 <1>   0.3430 
 19 N       -5.7970    -9.5240     0.5450 N.4   1 <1>  -0.9590 
 20 C       -6.8640    -8.5950     1.0390 C.3   1 <1>   0.3430 
 21 C       -6.3530   -10.8240     0.0660 C.3   1 <1>   0.3430 
 22 C       -8.0140    -8.4930     0.0200 C.3   1 <1>   0.1200 
 23 C       -7.5290   -10.5870    -0.9020 C.3   1 <1>   0.1200 
 24 O       -8.4940    -9.7730    -0.2980 O.3   1 <1>  -0.5600 
 25 H       -4.3730    -2.2500    -1.9430 H     1 <1>   0.1500 
 26 H       -0.8960    -1.8390     0.4710 H     1 <1>   0.1500 
 27 H       -4.2340    -4.6820    -1.7510 H     1 <1>   0.1500 
 28 H       -0.7450    -4.2820     0.6790 H     1 <1>   0.1500 
 29 H       -3.7190    -9.5510    -1.1410 H     1 <1>   0.4000 
 30 H       -2.5380   -10.1590     1.5230 H     1 <1>   0.0800 
 31 H       -3.5300   -11.2770     0.6460 H     1 <1>   0.0800 
 32 H       -4.3490    -8.5880     1.7590 H     1 <1>   0.0800 
 33 H       -4.8760   -10.1360     2.3500 H     1 <1>   0.0800 
 34 H       -5.4850    -9.0390    -0.3320 H     1 <1>   0.4500 
 35 H       -6.4500    -7.6100     1.1880 H     1 <1>   0.0800 
 36 H       -7.2580    -8.9450     1.9770 H     1 <1>   0.0800 
 37 H       -6.7020   -11.4060     0.9020 H     1 <1>   0.0800 
 38 H       -5.5870   -11.3830    -0.4450 H     1 <1>   0.0800 
 39 H       -7.6760    -8.0060    -0.8820 H     1 <1>   0.0800 
 40 H       -8.8270    -7.9230     0.4310 H     1 <1>   0.0800 
 41 H       -7.9980   -11.5200    -1.1580 H     1 <1>   0.0800 
 42 H       -7.1870   -10.1100    -1.8060 H     1 <1>   0.0800 
@<TRIPOS>BOND
  1   1   2  1   
  2   2   3  ar  
  3   2   4  ar  
  4   3   5  ar  
  5   3  25  1   
  6   4   6  ar  
  7   4  26  1   
  8   5   7  ar  
  9   5  27  1   
 10   6   7  ar  
 11   6  28  1   
 12   7   8  1   
 13   8   9  1   
 14   8  10  2   
 15   9  11  1   
 16  10  12  1   
 17  10  13  1   
 18  11  12  2   
 19  12  14  1   
 20  13  15  ar  
 21  13  16  ar  
 22  14  17  1   
 23  14  29  1   
 24  17  18  1   
 25  17  30  1   
 26  17  31  1   
 27  18  19  1   
 28  18  32  1   
 29  18  33  1   
 30  19  20  1   
 31  19  21  1   
 32  19  34  1   
 33  20  22  1   
 34  20  35  1   
 35  20  36  1   
 36  21  23  1   
 37  21  37  1   
 38  21  38  1   
 39  22  24  1   
 40  22  39  1   
 41  22  40  1   
 42  23  24  1   
 43  23  41  1   
 44  23  42  1   
@<TRIPOS>SUBSTRUCTURE
  1 ****  10 GROUP 4 **** **** 0

# MOE 2024.06 (io_trps.svl 2023.06)
