@<TRIPOS>MOLECULE
NONAME
51 53 1 0 0 
SMALL
USER_CHARGES


@<TRIPOS>ATOM
  1 F       -1.9690    -1.1110     1.1460 F     1 <1>  -0.1900 
  2 C       -1.9630    -2.3790     0.8190 C.ar  1 <1>   0.1900 
  3 C       -1.1010    -2.8900    -0.1570 C.ar  1 <1>   0.0830 
  4 C       -2.8540    -3.1910     1.4910 C.ar  1 <1>  -0.1500 
  5 O       -0.1830    -2.1940    -0.8880 O.3   1 <1>  -0.3630 
  6 C       -1.1690    -4.2470    -0.4270 C.ar  1 <1>  -0.1500 
  7 C       -2.8960    -4.5410     1.1960 C.ar  1 <1>  -0.1500 
  8 C       -0.0250    -0.7960    -0.7940 C.3   1 <1>   0.0400 
  9 C       -2.0570    -5.1050     0.2300 C.ar  1 <1>   0.0530 
 10 C       -2.0930    -6.5160    -0.0840 C.2   1 <1>   0.0870 
 11 O       -1.1530    -7.0490    -0.8350 O.3   1 <1>  -0.0190 
 12 C       -2.9500    -7.5240     0.2230 C.2   1 <1>  -0.2330 
 13 N       -1.3300    -8.3290    -1.0500 N.2   1 <1>  -0.4100 
 14 C       -2.3940    -8.6320    -0.4040 C.2   1 <1>   0.3720 
 15 C       -4.2040    -7.6030     0.8880 C.2   1 <1>   1.0330 
 16 N       -2.9650    -9.8970    -0.3700 N.pl3 1 <1>  -0.8520 
 17 O       -5.1210    -6.8160     0.6180 O.co2 1 <1>  -0.9000 
 18 O       -4.5100    -8.6180     1.5440 O.co2 1 <1>  -0.9000 
 19 C       -3.7730   -10.2190    -1.5750 C.3   1 <1>   0.2090 
 20 C       -5.1460    -9.5010    -1.6080 C.3   1 <1>   0.3430 
 21 N       -6.0270    -9.7440    -0.4150 N.4   1 <1>  -0.9590 
 22 C       -6.3540   -11.1720    -0.1730 C.3   1 <1>   0.3430 
 23 C       -7.1720    -8.7940    -0.4420 C.3   1 <1>   0.3430 
 24 C       -6.6220   -11.4150     1.3110 C.3   1 <1>  -0.1600 
 25 C       -7.9740    -8.7880     0.8600 C.3   1 <1>  -0.1600 
 26 C       -8.0800   -11.2020     1.7480 C.3   1 <1>  -0.1600 
 27 C       -8.8250   -10.0510     1.0590 C.3   1 <1>  -0.1600 
 28 H       -3.5090    -2.7740     2.2350 H     1 <1>   0.1500 
 29 H       -0.5080    -4.6440    -1.1760 H     1 <1>   0.1500 
 30 H       -3.5960    -5.1600     1.7270 H     1 <1>   0.1500 
 31 H        0.7320    -0.4970    -1.4970 H     1 <1>   0.0800 
 32 H        0.2870    -0.5450     0.2050 H     1 <1>   0.0800 
 33 H       -0.9580    -0.3200    -1.0390 H     1 <1>   0.0800 
 34 H       -3.5440    -9.9220     0.4910 H     1 <1>   0.4000 
 35 H       -3.9100   -11.2840    -1.6300 H     1 <1>   0.0800 
 36 H       -3.2130    -9.9300    -2.4490 H     1 <1>   0.0800 
 37 H       -5.6690    -9.8000    -2.5000 H     1 <1>   0.0800 
 38 H       -4.9560    -8.4420    -1.6850 H     1 <1>   0.0800 
 39 H       -5.4900    -9.4100     0.4270 H     1 <1>   0.4500 
 40 H       -5.5090   -11.7780    -0.4530 H     1 <1>   0.0800 
 41 H       -7.2010   -11.4750    -0.7660 H     1 <1>   0.0800 
 42 H       -7.8240    -9.0260    -1.2660 H     1 <1>   0.0800 
 43 H       -6.7870    -7.7970    -0.5910 H     1 <1>   0.0800 
 44 H       -5.9690   -10.7920     1.9000 H     1 <1>   0.0800 
 45 H       -6.3590   -12.4330     1.5390 H     1 <1>   0.0800 
 46 H       -8.6410    -7.9460     0.8070 H     1 <1>   0.0800 
 47 H       -7.3220    -8.6080     1.6990 H     1 <1>   0.0800 
 48 H       -8.0820   -11.0270     2.8120 H     1 <1>   0.0800 
 49 H       -8.6370   -12.1090     1.5810 H     1 <1>   0.0800 
 50 H       -9.2110   -10.3790     0.1090 H     1 <1>   0.0800 
 51 H       -9.6750    -9.8000     1.6710 H     1 <1>   0.0800 
@<TRIPOS>BOND
  1   1   2  1   
  2   2   3  ar  
  3   2   4  ar  
  4   3   5  1   
  5   3   6  ar  
  6   4   7  ar  
  7   4  28  1   
  8   5   8  1   
  9   6   9  ar  
 10   6  29  1   
 11   7   9  ar  
 12   7  30  1   
 13   8  31  1   
 14   8  32  1   
 15   8  33  1   
 16   9  10  1   
 17  10  11  1   
 18  10  12  2   
 19  11  13  1   
 20  12  14  1   
 21  12  15  1   
 22  13  14  2   
 23  14  16  1   
 24  15  17  ar  
 25  15  18  ar  
 26  16  19  1   
 27  16  34  1   
 28  19  20  1   
 29  19  35  1   
 30  19  36  1   
 31  20  21  1   
 32  20  37  1   
 33  20  38  1   
 34  21  22  1   
 35  21  23  1   
 36  21  39  1   
 37  22  24  1   
 38  22  40  1   
 39  22  41  1   
 40  23  25  1   
 41  23  42  1   
 42  23  43  1   
 43  24  26  1   
 44  24  44  1   
 45  24  45  1   
 46  25  27  1   
 47  25  46  1   
 48  25  47  1   
 49  26  27  1   
 50  26  48  1   
 51  26  49  1   
 52  27  50  1   
 53  27  51  1   
@<TRIPOS>SUBSTRUCTURE
  1 ****  12 GROUP 4 **** **** 0

# MOE 2024.06 (io_trps.svl 2023.06)
