@<TRIPOS>MOLECULE
NONAME
49 51 1 0 0 
SMALL
USER_CHARGES


@<TRIPOS>ATOM
  1 O       -0.8330     0.3530    -0.6710 O.2   1 <1>  -0.5700 
  2 C       -1.9890     0.6130    -0.8760 C.2   1 <1>   0.4230 
  3 C       -3.0640    -0.1510    -0.3050 C.ar  1 <1>   0.0860 
  4 C       -2.2670     1.7540    -1.8350 C.3   1 <1>  -0.1790 
  5 C       -4.2390     0.3550     0.2460 C.ar  1 <1>   0.1660 
  6 C       -2.9630    -1.5320    -0.2820 C.ar  1 <1>   0.1600 
  7 N       -5.1940    -0.4200     0.6930 N.ar  1 <1>  -0.6200 
  8 C       -4.4990     1.8440     0.4020 C.3   1 <1>  -0.0960 
  9 N       -3.9030    -2.3240     0.1690 N.ar  1 <1>  -0.6200 
 10 C       -4.9960    -1.7360     0.6440 C.ar  1 <1>   0.7200 
 11 N       -6.0010    -2.5470     1.1180 N.pl3 1 <1>  -0.8380 
 12 C       -7.0610    -2.0500     2.0320 C.3   1 <1>   0.2090 
 13 C       -6.0740    -3.9970     0.8080 C.3   1 <1>   0.2090 
 14 C       -8.4080    -2.2730     1.3520 C.3   1 <1>  -0.1600 
 15 C       -7.4100    -4.2640     0.1180 C.3   1 <1>  -0.1600 
 16 C       -8.5710    -3.7510     0.9840 C.3   1 <1>   0.4230 
 17 N       -9.9030    -3.9690     0.3420 N.4   1 <1>  -0.9590 
 18 C      -10.2810    -5.4130     0.3330 C.3   1 <1>   0.3430 
 19 C      -10.0320    -3.3650    -1.0230 C.3   1 <1>   0.3430 
 20 C      -11.7370    -5.5630    -0.1130 C.3   1 <1>  -0.1600 
 21 C      -11.4820    -3.4710    -1.4980 C.3   1 <1>  -0.1600 
 22 C      -11.9790    -4.9230    -1.4860 C.3   1 <1>  -0.1600 
 23 H       -3.2570     1.6790    -2.2460 H     1 <1>   0.0800 
 24 H       -1.5600     1.7180    -2.6430 H     1 <1>   0.0800 
 25 H       -2.1530     2.6940    -1.3270 H     1 <1>   0.0800 
 26 H       -2.0630    -1.9870    -0.6610 H     1 <1>   0.1500 
 27 H       -3.5910     2.3720     0.6290 H     1 <1>   0.0800 
 28 H       -5.1860     2.0140     1.2110 H     1 <1>   0.0800 
 29 H       -4.9330     2.2390    -0.4980 H     1 <1>   0.0800 
 30 H       -6.9340    -1.0050     2.2610 H     1 <1>   0.0800 
 31 H       -7.0080    -2.5930     2.9600 H     1 <1>   0.0800 
 32 H       -5.9930    -4.5600     1.7220 H     1 <1>   0.0800 
 33 H       -5.2720    -4.3070     0.1580 H     1 <1>   0.0800 
 34 H       -8.4390    -1.6460     0.4800 H     1 <1>   0.0800 
 35 H       -9.1870    -1.9690     2.0280 H     1 <1>   0.0800 
 36 H       -7.4980    -5.3210    -0.0500 H     1 <1>   0.0800 
 37 H       -7.3830    -3.7630    -0.8320 H     1 <1>   0.0800 
 38 H       -8.5490    -4.3070     1.9090 H     1 <1>   0.0800 
 39 H      -10.5970    -3.4930     0.9290 H     1 <1>   0.4500 
 40 H      -10.1630    -5.8340     1.3190 H     1 <1>   0.0800 
 41 H       -9.6410    -5.9540    -0.3460 H     1 <1>   0.0800 
 42 H       -9.3910    -3.8850    -1.7150 H     1 <1>   0.0800 
 43 H       -9.7390    -2.3280    -1.0040 H     1 <1>   0.0800 
 44 H      -12.3840    -5.1160     0.6210 H     1 <1>   0.0800 
 45 H      -11.9830    -6.6100    -0.1620 H     1 <1>   0.0800 
 46 H      -11.5530    -3.0800    -2.4980 H     1 <1>   0.0800 
 47 H      -12.1100    -2.8610    -0.8710 H     1 <1>   0.0800 
 48 H      -13.0300    -4.9530    -1.7250 H     1 <1>   0.0800 
 49 H      -11.4570    -5.4860    -2.2420 H     1 <1>   0.0800 
@<TRIPOS>BOND
  1   1   2  2   
  2   2   3  1   
  3   2   4  1   
  4   3   5  ar  
  5   3   6  ar  
  6   4  23  1   
  7   4  24  1   
  8   4  25  1   
  9   5   7  ar  
 10   5   8  1   
 11   6   9  ar  
 12   6  26  1   
 13   7  10  ar  
 14   8  27  1   
 15   8  28  1   
 16   8  29  1   
 17   9  10  ar  
 18  10  11  1   
 19  11  12  1   
 20  11  13  1   
 21  12  14  1   
 22  12  30  1   
 23  12  31  1   
 24  13  15  1   
 25  13  32  1   
 26  13  33  1   
 27  14  16  1   
 28  14  34  1   
 29  14  35  1   
 30  15  16  1   
 31  15  36  1   
 32  15  37  1   
 33  16  17  1   
 34  16  38  1   
 35  17  18  1   
 36  17  19  1   
 37  17  39  1   
 38  18  20  1   
 39  18  40  1   
 40  18  41  1   
 41  19  21  1   
 42  19  42  1   
 43  19  43  1   
 44  20  22  1   
 45  20  44  1   
 46  20  45  1   
 47  21  22  1   
 48  21  46  1   
 49  21  47  1   
 50  22  48  1   
 51  22  49  1   
@<TRIPOS>SUBSTRUCTURE
  1 ****  11 GROUP 4 **** **** 0

# MOE 2024.06 (io_trps.svl 2023.06)
