@<TRIPOS>MOLECULE
NONAME
57 60 1 0 0 
SMALL
USER_CHARGES


@<TRIPOS>ATOM
  1 O       -0.1440    -0.8080    -0.0670 O.3   1 <1>  -0.5600 
  2 C        1.1050    -0.1950    -0.1690 C.3   1 <1>   0.2640 
  3 C       -0.1260    -2.1870    -0.1620 C.3   1 <1>   0.1200 
  4 C        0.9300     1.3040     0.0080 C.ar  1 <1>  -0.1440 
  5 C       -1.5710    -2.6440     0.0200 C.3   1 <1>  -0.1600 
  6 C        1.5500     1.9680     1.0570 C.ar  1 <1>  -0.1500 
  7 C        0.1520     2.0260    -0.8840 C.ar  1 <1>  -0.1500 
  8 C       -1.6860    -4.1620    -0.0760 C.3   1 <1>   0.3430 
  9 C        1.3960     3.3350     1.2090 C.ar  1 <1>  -0.1500 
 10 C       -0.0030     3.3930    -0.7340 C.ar  1 <1>  -0.1500 
 11 N       -3.0770    -4.5850     0.2300 N.4   1 <1>  -0.9590 
 12 C        0.6210     4.0490     0.3130 C.ar  1 <1>  -0.1500 
 13 C       -4.1290    -4.1340    -0.7220 C.3   1 <1>   0.3430 
 14 C       -3.2610    -6.0590     0.3630 C.3   1 <1>   0.3430 
 15 C       -5.3330    -4.9970    -0.3490 C.3   1 <1>   0.2000 
 16 C       -4.7100    -6.3650    -0.0580 C.3   1 <1>  -0.0800 
 17 O       -5.8490    -4.5000     0.8420 O.3   1 <1>  -0.6800 
 18 C       -4.7730    -7.2960    -1.2890 C.3   1 <1>  -0.0170 
 19 C       -3.8620    -8.5080    -1.1220 C.ar  1 <1>  -0.1440 
 20 C       -4.1380    -9.5490    -0.2030 C.ar  1 <1>   0.0000 
 21 C       -2.7200    -8.6090    -1.8640 C.ar  1 <1>  -0.1500 
 22 C       -3.1690   -10.5730    -0.0600 C.ar  1 <1>   0.3100 
 23 C       -5.3150    -9.6440     0.5760 C.ar  1 <1>  -0.1500 
 24 C       -1.8420    -9.6820    -1.6670 C.ar  1 <1>   0.1600 
 25 N       -2.0290   -10.6170    -0.7930 N.ar  1 <1>  -0.6200 
 26 C       -3.3890   -11.5940     0.8770 C.ar  1 <1>  -0.1500 
 27 C       -5.5030   -10.6570     1.4760 C.ar  1 <1>  -0.1500 
 28 C       -4.5260   -11.6410     1.6360 C.ar  1 <1>  -0.1500 
 29 H        1.7500    -0.5940     0.5940 H     1 <1>   0.0800 
 30 H        1.5170    -0.4060    -1.1410 H     1 <1>   0.0800 
 31 H        0.2550    -2.4600    -1.1320 H     1 <1>   0.0800 
 32 H        0.5090    -2.5790     0.6150 H     1 <1>   0.0800 
 33 H       -1.9080    -2.3160     0.9880 H     1 <1>   0.0800 
 34 H       -2.1680    -2.1780    -0.7420 H     1 <1>   0.0800 
 35 H        2.1540     1.4250     1.7630 H     1 <1>   0.1500 
 36 H       -0.3410     1.5190    -1.6950 H     1 <1>   0.1500 
 37 H       -1.0100    -4.6110     0.6340 H     1 <1>   0.0800 
 38 H       -1.4070    -4.4900    -1.0650 H     1 <1>   0.0800 
 39 H        1.8790     3.8440     2.0250 H     1 <1>   0.1500 
 40 H       -0.6090     3.9460    -1.4310 H     1 <1>   0.1500 
 41 H       -3.3670    -4.1780     1.1360 H     1 <1>   0.4500 
 42 H        0.5000     5.1110     0.4300 H     1 <1>   0.1500 
 43 H       -4.3520    -3.0850    -0.6140 H     1 <1>   0.0800 
 44 H       -3.8270    -4.3420    -1.7350 H     1 <1>   0.0800 
 45 H       -2.5700    -6.5790    -0.2800 H     1 <1>   0.0800 
 46 H       -3.0880    -6.3720     1.3810 H     1 <1>   0.0800 
 47 H       -6.1070    -4.9980    -1.0980 H     1 <1>   0.0800 
 48 H       -5.2160    -6.8440     0.7610 H     1 <1>   0.0800 
 49 H       -6.7240    -4.8950     1.0490 H     1 <1>   0.4000 
 50 H       -4.4740    -6.7540    -2.1700 H     1 <1>   0.0800 
 51 H       -5.7840    -7.6250    -1.4560 H     1 <1>   0.0800 
 52 H       -2.4540    -7.8820    -2.6090 H     1 <1>   0.1500 
 53 H       -6.0930    -8.9150     0.4570 H     1 <1>   0.1500 
 54 H       -0.9530    -9.7300    -2.2730 H     1 <1>   0.1500 
 55 H       -2.6290   -12.3480     0.9760 H     1 <1>   0.1500 
 56 H       -6.4010   -10.7160     2.0670 H     1 <1>   0.1500 
 57 H       -4.6820   -12.4320     2.3510 H     1 <1>   0.1500 
@<TRIPOS>BOND
  1   1   2  1   
  2   1   3  1   
  3   2   4  1   
  4   2  29  1   
  5   2  30  1   
  6   3   5  1   
  7   3  31  1   
  8   3  32  1   
  9   4   6  ar  
 10   4   7  ar  
 11   5   8  1   
 12   5  33  1   
 13   5  34  1   
 14   6   9  ar  
 15   6  35  1   
 16   7  10  ar  
 17   7  36  1   
 18   8  11  1   
 19   8  37  1   
 20   8  38  1   
 21   9  12  ar  
 22   9  39  1   
 23  10  12  ar  
 24  10  40  1   
 25  11  13  1   
 26  11  14  1   
 27  11  41  1   
 28  12  42  1   
 29  13  15  1   
 30  13  43  1   
 31  13  44  1   
 32  14  16  1   
 33  14  45  1   
 34  14  46  1   
 35  15  16  1   
 36  15  17  1   
 37  15  47  1   
 38  16  18  1   
 39  16  48  1   
 40  17  49  1   
 41  18  19  1   
 42  18  50  1   
 43  18  51  1   
 44  19  20  ar  
 45  19  21  ar  
 46  20  22  ar  
 47  20  23  ar  
 48  21  24  ar  
 49  21  52  1   
 50  22  25  ar  
 51  22  26  ar  
 52  23  27  ar  
 53  23  53  1   
 54  24  25  ar  
 55  24  54  1   
 56  26  28  ar  
 57  26  55  1   
 58  27  28  ar  
 59  27  56  1   
 60  28  57  1   
@<TRIPOS>SUBSTRUCTURE
  1 ****  11 GROUP 4 **** **** 0

# MOE 2024.06 (io_trps.svl 2023.06)
