@<TRIPOS>MOLECULE
NONAME
57 60 1 0 0 
SMALL
USER_CHARGES


@<TRIPOS>ATOM
  1 O       -3.5340     1.2120    -1.7990 O.2   1 <1>  -0.5700 
  2 C       -2.8290     1.1870    -0.8210 C.2   1 <1>   0.5690 
  3 N       -2.3990     0.0220    -0.2800 N.am  1 <1>  -0.7300 
  4 C       -2.4160     2.4880    -0.1620 C.3   1 <1>  -0.0990 
  5 C       -2.7330    -1.3150    -0.8150 C.3   1 <1>   0.2200 
  6 C       -0.9580     2.8580    -0.4890 C.3   1 <1>  -0.1600 
  7 C       -3.9430    -1.8550    -0.0760 C.3   1 <1>  -0.0800 
  8 C       -1.6540    -2.3180    -0.4260 C.3   1 <1>   0.1200 
  9 C       -0.4530     4.1010     0.2690 C.3   1 <1>  -0.0800 
 10 C       -3.3110    -2.4880     1.1680 C.3   1 <1>   0.1200 
 11 C       -4.7130    -2.8810    -0.9300 C.3   1 <1>  -0.0160 
 12 O       -1.9710    -2.7500     0.8640 O.3   1 <1>  -0.5600 
 13 C       -1.2190     5.3780    -0.1290 C.3   1 <1>  -0.1600 
 14 C        1.0540     4.2830     0.0120 C.3   1 <1>  -0.1600 
 15 C       -5.9960    -3.3330    -0.2400 C.ar  1 <1>  -0.1440 
 16 C       -0.6620     6.6190     0.5800 C.3   1 <1>  -0.1600 
 17 C        1.6080     5.5220     0.7290 C.3   1 <1>  -0.1600 
 18 C       -7.1490    -2.5140    -0.1790 C.ar  1 <1>   0.0000 
 19 C       -6.0630    -4.5630     0.3470 C.ar  1 <1>  -0.1500 
 20 C        0.8400     6.7840     0.3210 C.3   1 <1>  -0.1600 
 21 C       -8.2810    -3.0240     0.5030 C.ar  1 <1>   0.3100 
 22 C       -7.2490    -1.2250    -0.7540 C.ar  1 <1>  -0.1500 
 23 C       -7.2360    -4.9730     0.9920 C.ar  1 <1>   0.1600 
 24 N       -8.3080    -4.2520     1.0820 N.ar  1 <1>  -0.6200 
 25 C       -9.4370    -2.2320     0.5900 C.ar  1 <1>  -0.1500 
 26 C       -8.3910    -0.4790    -0.6520 C.ar  1 <1>  -0.1500 
 27 C       -9.5000    -0.9850     0.0290 C.ar  1 <1>  -0.1500 
 28 H       -1.8530     0.0160     0.5840 H     1 <1>   0.3700 
 29 H       -3.0800     3.2580    -0.5100 H     1 <1>   0.0800 
 30 H       -2.5450     2.3930     0.9000 H     1 <1>   0.0800 
 31 H       -2.8740    -1.2600    -1.8820 H     1 <1>   0.0800 
 32 H       -0.8670     3.0200    -1.5500 H     1 <1>   0.0800 
 33 H       -0.3290     2.0230    -0.2360 H     1 <1>   0.0800 
 34 H       -4.6100    -1.0600     0.2040 H     1 <1>   0.0800 
 35 H       -0.6660    -1.8920    -0.4340 H     1 <1>   0.0800 
 36 H       -1.6840    -3.1770    -1.0720 H     1 <1>   0.0800 
 37 H       -0.5910     3.9380     1.3250 H     1 <1>   0.0800 
 38 H       -3.7890    -3.4050     1.4650 H     1 <1>   0.0800 
 39 H       -3.3260    -1.7960     1.9930 H     1 <1>   0.0800 
 40 H       -4.0870    -3.7350    -1.1240 H     1 <1>   0.0800 
 41 H       -4.9610    -2.4540    -1.8860 H     1 <1>   0.0800 
 42 H       -1.1500     5.5200    -1.1940 H     1 <1>   0.0800 
 43 H       -2.2600     5.2830     0.1240 H     1 <1>   0.0800 
 44 H        1.5890     3.4140     0.3520 H     1 <1>   0.0800 
 45 H        1.2280     4.3850    -1.0460 H     1 <1>   0.0800 
 46 H       -1.1840     7.4950     0.2360 H     1 <1>   0.0800 
 47 H       -0.8320     6.5300     1.6400 H     1 <1>   0.0800 
 48 H        1.5290     5.3840     1.7940 H     1 <1>   0.0800 
 49 H        2.6500     5.6410     0.4880 H     1 <1>   0.0800 
 50 H       -5.2300    -5.2410     0.3350 H     1 <1>   0.1500 
 51 H        1.2120     7.6280     0.8750 H     1 <1>   0.0800 
 52 H        1.0020     6.9780    -0.7250 H     1 <1>   0.0800 
 53 H       -6.4110    -0.8130    -1.2870 H     1 <1>   0.1500 
 54 H       -7.2460    -5.9510     1.4430 H     1 <1>   0.1500 
 55 H      -10.2780    -2.6430     1.1170 H     1 <1>   0.1500 
 56 H       -8.4490     0.5010    -1.0940 H     1 <1>   0.1500 
 57 H      -10.3930    -0.3890     0.1030 H     1 <1>   0.1500 
@<TRIPOS>BOND
  1   1   2  2   
  2   2   3  am  
  3   2   4  1   
  4   3   5  1   
  5   3  28  1   
  6   4   6  1   
  7   4  29  1   
  8   4  30  1   
  9   5   7  1   
 10   5   8  1   
 11   5  31  1   
 12   6   9  1   
 13   6  32  1   
 14   6  33  1   
 15   7  10  1   
 16   7  11  1   
 17   7  34  1   
 18   8  12  1   
 19   8  35  1   
 20   8  36  1   
 21   9  13  1   
 22   9  14  1   
 23   9  37  1   
 24  10  12  1   
 25  10  38  1   
 26  10  39  1   
 27  11  15  1   
 28  11  40  1   
 29  11  41  1   
 30  13  16  1   
 31  13  42  1   
 32  13  43  1   
 33  14  17  1   
 34  14  44  1   
 35  14  45  1   
 36  15  18  ar  
 37  15  19  ar  
 38  16  20  1   
 39  16  46  1   
 40  16  47  1   
 41  17  20  1   
 42  17  48  1   
 43  17  49  1   
 44  18  21  ar  
 45  18  22  ar  
 46  19  23  ar  
 47  19  50  1   
 48  20  51  1   
 49  20  52  1   
 50  21  24  ar  
 51  21  25  ar  
 52  22  26  ar  
 53  22  53  1   
 54  23  24  ar  
 55  23  54  1   
 56  25  27  ar  
 57  25  55  1   
 58  26  27  ar  
 59  26  56  1   
 60  27  57  1   
@<TRIPOS>SUBSTRUCTURE
  1 ****   3 GROUP 4 **** **** 0

# MOE 2024.06 (io_trps.svl 2023.06)
