@<TRIPOS>MOLECULE
NONAME
49 52 1 0 0 
SMALL
USER_CHARGES


@<TRIPOS>ATOM
  1 O        2.0320    -0.6640     2.5300 O.2   1 <1>  -0.5700 
  2 C        2.0970    -0.9350     1.3460 C.2   1 <1>   0.5440 
  3 N        2.4310     0.0710     0.4510 N.am  1 <1>  -0.6600 
  4 C        1.8620    -2.2950     0.9220 C.ar  1 <1>   0.0860 
  5 C        2.7780     1.4290     0.9850 C.3   1 <1>   0.1400 
  6 C        2.7950    -0.2300    -0.9700 C.3   1 <1>   0.1400 
  7 C        0.6590    -2.6850     0.2840 C.ar  1 <1>   0.0000 
  8 C        2.8130    -3.2620     1.0940 C.ar  1 <1>  -0.1500 
  9 C        4.3050     1.6710     1.1320 C.3   1 <1>   0.4230 
 10 C        4.2410     0.1550    -1.3560 C.3   1 <1>  -0.0800 
 11 C        0.5470    -4.0220    -0.1590 C.ar  1 <1>   0.3100 
 12 C       -0.4280    -1.8100     0.0680 C.ar  1 <1>  -0.1500 
 13 C        2.6030    -4.5610     0.6280 C.ar  1 <1>   0.3920 
 14 N        4.9420     2.2470    -0.1090 N.4   1 <1>  -0.9590 
 15 C        5.1160     0.4370     1.6170 C.3   1 <1>   0.1200 
 16 C        5.3600    -0.5860    -0.5890 C.3   1 <1>   0.1200 
 17 C        4.4280     1.6750    -1.3890 C.3   1 <1>   0.3430 
 18 N        1.5220    -4.9450     0.0100 N.ar  1 <1>  -0.6200 
 19 C       -0.6310    -4.4180    -0.8110 C.ar  1 <1>  -0.1500 
 20 C       -1.5640    -2.2290    -0.5700 C.ar  1 <1>  -0.1500 
 21 O        3.6040    -5.4360     0.8360 O.3   1 <1>  -0.3620 
 22 C        4.8590     3.7410    -0.1290 C.3   1 <1>   0.2630 
 23 O        5.1030    -0.6910     0.7760 O.3   1 <1>  -0.5600 
 24 C       -1.6680    -3.5480    -1.0180 C.ar  1 <1>  -0.1500 
 25 C        3.4890    -6.7860     0.4310 C.3   1 <1>   0.0400 
 26 H        2.3360     2.1840     0.3610 H     1 <1>   0.0800 
 27 H        2.3350     1.5530     1.9570 H     1 <1>   0.0800 
 28 H        2.6720    -1.2800    -1.1720 H     1 <1>   0.0800 
 29 H        2.1020     0.2870    -1.6110 H     1 <1>   0.0800 
 30 H        3.7430    -3.0390     1.5830 H     1 <1>   0.1500 
 31 H        4.4100     2.4090     1.9090 H     1 <1>   0.0800 
 32 H        4.3430    -0.1520    -2.3810 H     1 <1>   0.0800 
 33 H       -0.3650    -0.7950     0.4180 H     1 <1>   0.1500 
 34 H        5.9350     1.9820    -0.0470 H     1 <1>   0.4500 
 35 H        4.7110     0.1120     2.5600 H     1 <1>   0.0800 
 36 H        6.1430     0.7100     1.7860 H     1 <1>   0.0800 
 37 H        6.3250    -0.1300    -0.7300 H     1 <1>   0.0800 
 38 H        5.4200    -1.5980    -0.9560 H     1 <1>   0.0800 
 39 H        3.4840     2.1310    -1.6390 H     1 <1>   0.0800 
 40 H        5.1220     1.9180    -2.1780 H     1 <1>   0.0800 
 41 H       -0.6950    -5.4380    -1.1440 H     1 <1>   0.1500 
 42 H       -2.3880    -1.5550    -0.7310 H     1 <1>   0.1500 
 43 H        3.8310     4.0610    -0.1850 H     1 <1>   0.0800 
 44 H        5.3890     4.1350    -0.9820 H     1 <1>   0.0800 
 45 H        5.3000     4.1540     0.7650 H     1 <1>   0.0800 
 46 H       -2.5660    -3.8670    -1.5190 H     1 <1>   0.1500 
 47 H        4.3930    -7.3000     0.7030 H     1 <1>   0.0800 
 48 H        3.3490    -6.8190    -0.6350 H     1 <1>   0.0800 
 49 H        2.6460    -7.2280     0.9330 H     1 <1>   0.0800 
@<TRIPOS>BOND
  1   1   2  2   
  2   2   3  am  
  3   2   4  1   
  4   3   5  1   
  5   3   6  1   
  6   4   7  ar  
  7   4   8  ar  
  8   5   9  1   
  9   5  26  1   
 10   5  27  1   
 11   6  10  1   
 12   6  28  1   
 13   6  29  1   
 14   7  11  ar  
 15   7  12  ar  
 16   8  13  ar  
 17   8  30  1   
 18   9  14  1   
 19   9  15  1   
 20   9  31  1   
 21  10  16  1   
 22  10  17  1   
 23  10  32  1   
 24  11  18  ar  
 25  11  19  ar  
 26  12  20  ar  
 27  12  33  1   
 28  13  18  ar  
 29  13  21  1   
 30  14  17  1   
 31  14  22  1   
 32  14  34  1   
 33  15  23  1   
 34  15  35  1   
 35  15  36  1   
 36  16  23  1   
 37  16  37  1   
 38  16  38  1   
 39  17  39  1   
 40  17  40  1   
 41  19  24  ar  
 42  19  41  1   
 43  20  24  ar  
 44  20  42  1   
 45  21  25  1   
 46  22  43  1   
 47  22  44  1   
 48  22  45  1   
 49  24  46  1   
 50  25  47  1   
 51  25  48  1   
 52  25  49  1   
@<TRIPOS>SUBSTRUCTURE
  1 ****   4 GROUP 4 **** **** 0

# MOE 2024.06 (io_trps.svl 2023.06)
