@<TRIPOS>MOLECULE
NONAME
56 58 1 0 0 
SMALL
USER_CHARGES


@<TRIPOS>ATOM
  1 O        1.1170     0.3950    -2.0130 O.2   1 <1>  -0.5700 
  2 C        1.6060    -0.3270    -1.1800 C.2   1 <1>   0.5690 
  3 N        2.3380     0.1990    -0.1420 N.am  1 <1>  -0.6600 
  4 C        1.4030    -1.8250    -1.3460 C.3   1 <1>  -0.0990 
  5 C        3.2710    -0.5620     0.7440 C.3   1 <1>   0.1400 
  6 C        2.2450     1.6540     0.1530 C.3   1 <1>   0.1400 
  7 C        0.4430    -2.4210    -0.2970 C.3   1 <1>  -0.0800 
  8 C        4.7520    -0.3570     0.3500 C.3   1 <1>   0.3430 
  9 C        3.2550     2.4380    -0.6920 C.3   1 <1>  -0.1600 
 10 C        0.3300    -3.9450    -0.4720 C.3   1 <1>   0.1200 
 11 C       -0.9560    -1.7860    -0.3730 C.3   1 <1>  -0.1600 
 12 N        5.1620     1.0840     0.1680 N.4   1 <1>  -0.9590 
 13 C        4.5230     1.6650    -1.0560 C.3   1 <1>   0.3430 
 14 O       -0.5270    -4.4590     0.4990 O.3   1 <1>  -0.5600 
 15 C       -1.9080    -2.5060     0.5910 C.3   1 <1>  -0.1600 
 16 C        6.6590     1.1810     0.1070 C.3   1 <1>   0.3430 
 17 C       -1.8490    -4.0250     0.3910 C.3   1 <1>   0.1200 
 18 C        7.1690     2.6210     0.2270 C.3   1 <1>   0.1200 
 19 O        8.5720     2.5640     0.1920 O.3   1 <1>  -0.3630 
 20 C        9.3270     3.6880     0.2670 C.ar  1 <1>   0.0820 
 21 C       10.7010     3.5200     0.1980 C.ar  1 <1>  -0.1500 
 22 C        8.7990     4.9700     0.4060 C.ar  1 <1>  -0.1500 
 23 C       11.5450     4.6140     0.2660 C.ar  1 <1>  -0.1500 
 24 C        9.6470     6.0630     0.4740 C.ar  1 <1>  -0.1500 
 25 C       11.0180     5.8860     0.4040 C.ar  1 <1>  -0.1500 
 26 H        2.3540    -2.3200    -1.3070 H     1 <1>   0.0800 
 27 H        0.9990    -2.0010    -2.3270 H     1 <1>   0.0800 
 28 H        3.0510    -1.6130     0.7080 H     1 <1>   0.0800 
 29 H        3.1230    -0.2530     1.7640 H     1 <1>   0.0800 
 30 H        2.4240     1.8230     1.2010 H     1 <1>   0.0800 
 31 H        1.2480     2.0060    -0.0600 H     1 <1>   0.0800 
 32 H        0.8430    -2.2410     0.6850 H     1 <1>   0.0800 
 33 H        4.9380    -0.8970    -0.5640 H     1 <1>   0.0800 
 34 H        5.3620    -0.8080     1.1160 H     1 <1>   0.0800 
 35 H        3.5050     3.3580    -0.1970 H     1 <1>   0.0800 
 36 H        2.7670     2.7080    -1.6130 H     1 <1>   0.0800 
 37 H        1.2880    -4.4170    -0.3390 H     1 <1>   0.0800 
 38 H       -0.0560    -4.2040    -1.4440 H     1 <1>   0.0800 
 39 H       -1.3390    -1.8720    -1.3760 H     1 <1>   0.0800 
 40 H       -0.9150    -0.7400    -0.1220 H     1 <1>   0.0800 
 41 H        4.8260     1.6150     0.9810 H     1 <1>   0.4500 
 42 H        5.2020     2.3330    -1.5590 H     1 <1>   0.0800 
 43 H        4.2680     0.8750    -1.7460 H     1 <1>   0.0800 
 44 H       -2.9150    -2.1610     0.4360 H     1 <1>   0.0800 
 45 H       -1.6360    -2.2830     1.6080 H     1 <1>   0.0800 
 46 H        7.0120     0.7630    -0.8210 H     1 <1>   0.0800 
 47 H        7.0860     0.6130     0.9170 H     1 <1>   0.0800 
 48 H       -2.4230    -4.5290     1.1500 H     1 <1>   0.0800 
 49 H       -2.2270    -4.3070    -0.5770 H     1 <1>   0.0800 
 50 H        6.8780     3.0570     1.1670 H     1 <1>   0.0800 
 51 H        6.8430     3.2260    -0.5990 H     1 <1>   0.0800 
 52 H       11.1100     2.5320     0.0920 H     1 <1>   0.1500 
 53 H        7.7430     5.1460     0.4650 H     1 <1>   0.1500 
 54 H       12.6120     4.4760     0.2120 H     1 <1>   0.1500 
 55 H        9.2430     7.0550     0.5810 H     1 <1>   0.1500 
 56 H       11.6740     6.7370     0.4560 H     1 <1>   0.1500 
@<TRIPOS>BOND
  1   1   2  2   
  2   2   3  am  
  3   2   4  1   
  4   3   5  1   
  5   3   6  1   
  6   4   7  1   
  7   4  26  1   
  8   4  27  1   
  9   5   8  1   
 10   5  28  1   
 11   5  29  1   
 12   6   9  1   
 13   6  30  1   
 14   6  31  1   
 15   7  10  1   
 16   7  11  1   
 17   7  32  1   
 18   8  12  1   
 19   8  33  1   
 20   8  34  1   
 21   9  13  1   
 22   9  35  1   
 23   9  36  1   
 24  10  14  1   
 25  10  37  1   
 26  10  38  1   
 27  11  15  1   
 28  11  39  1   
 29  11  40  1   
 30  12  13  1   
 31  12  16  1   
 32  12  41  1   
 33  13  42  1   
 34  13  43  1   
 35  14  17  1   
 36  15  17  1   
 37  15  44  1   
 38  15  45  1   
 39  16  18  1   
 40  16  46  1   
 41  16  47  1   
 42  17  48  1   
 43  17  49  1   
 44  18  19  1   
 45  18  50  1   
 46  18  51  1   
 47  19  20  1   
 48  20  21  ar  
 49  20  22  ar  
 50  21  23  ar  
 51  21  52  1   
 52  22  24  ar  
 53  22  53  1   
 54  23  25  ar  
 55  23  54  1   
 56  24  25  ar  
 57  24  55  1   
 58  25  56  1   
@<TRIPOS>SUBSTRUCTURE
  1 ****  12 GROUP 4 **** **** 0

# MOE 2024.06 (io_trps.svl 2023.06)
