@<TRIPOS>MOLECULE
NONAME
58 61 1 0 0 
SMALL
USER_CHARGES


@<TRIPOS>ATOM
  1 O       -1.3990     0.7060     2.7160 O.2   1 <1>  -0.5700 
  2 C       -2.0280     1.5830     2.1670 C.2   1 <1>   0.5690 
  3 N       -3.3920     1.4740     1.9720 N.am  1 <1>  -0.6600 
  4 C       -1.2360     2.8220     1.7480 C.3   1 <1>   0.1810 
  5 C       -4.2060     2.5670     1.3550 C.3   1 <1>   0.2200 
  6 C       -4.0880     0.2090     2.3660 C.3   1 <1>   0.0600 
  7 O       -1.3710     3.0910     0.3590 O.3   1 <1>  -0.3620 
  8 C       -5.5430     2.8400     2.0400 C.3   1 <1>  -0.1600 
  9 C       -4.5940     2.2660    -0.0860 C.3   1 <1>  -0.1600 
 10 C       -0.8730     4.2250    -0.1880 C.ar  1 <1>   0.0820 
 11 C       -6.3530     3.6110     0.9860 C.3   1 <1>  -0.0800 
 12 C       -5.7490     3.2350    -0.3790 C.3   1 <1>  -0.0800 
 13 C       -0.1440     5.1690     0.4970 C.ar  1 <1>  -0.1500 
 14 C       -1.1430     4.4160    -1.5490 C.ar  1 <1>  -0.1500 
 15 C       -7.8350     3.2190     0.9310 C.3   1 <1>  -0.1600 
 16 C       -6.8820     2.6160    -1.2070 C.3   1 <1>  -0.1600 
 17 C        0.3270     6.3330    -0.1420 C.ar  1 <1>   0.0000 
 18 C       -0.6960     5.5350    -2.1930 C.ar  1 <1>  -0.1500 
 19 C       -7.9110     2.1660    -0.1740 C.3   1 <1>   0.4230 
 20 C        0.0450     6.5220    -1.5120 C.ar  1 <1>   0.0000 
 21 C        1.0720     7.3190     0.5370 C.ar  1 <1>  -0.1500 
 22 N       -9.2740     1.9650    -0.7560 N.4   1 <1>  -0.9590 
 23 C        0.5160     7.6890    -2.1470 C.ar  1 <1>  -0.1500 
 24 C        1.5170     8.4420    -0.1050 C.ar  1 <1>  -0.1500 
 25 C       -9.9240     3.1980    -1.3130 C.3   1 <1>   0.2630 
 26 C      -10.1830     1.3150     0.2400 C.3   1 <1>   0.2630 
 27 C        1.2350     8.6290    -1.4630 C.ar  1 <1>  -0.1500 
 28 H       -0.1920     2.6670     1.9540 H     1 <1>   0.0800 
 29 H       -1.5910     3.6710     2.3010 H     1 <1>   0.0800 
 30 H       -3.6560     3.4920     1.3640 H     1 <1>   0.0800 
 31 H       -4.8280    -0.0600     1.6370 H     1 <1>   0.0800 
 32 H       -4.5580     0.3400     3.3250 H     1 <1>   0.0800 
 33 H       -3.3860    -0.6040     2.4420 H     1 <1>   0.0800 
 34 H       -6.0420     1.9210     2.2820 H     1 <1>   0.0800 
 35 H       -5.4080     3.4200     2.9360 H     1 <1>   0.0800 
 36 H       -3.7650     2.4320    -0.7520 H     1 <1>   0.0800 
 37 H       -4.9190     1.2460    -0.1740 H     1 <1>   0.0800 
 38 H       -6.2440     4.6710     1.1580 H     1 <1>   0.0800 
 39 H       -5.3590     4.1150    -0.8650 H     1 <1>   0.0800 
 40 H        0.0940     5.0530     1.5360 H     1 <1>   0.1500 
 41 H       -1.7040     3.6610    -2.0690 H     1 <1>   0.1500 
 42 H       -8.3960     4.0970     0.6700 H     1 <1>   0.0800 
 43 H       -8.1840     2.8430     1.8760 H     1 <1>   0.0800 
 44 H       -6.5360     1.7980    -1.8130 H     1 <1>   0.0800 
 45 H       -7.2810     3.3840    -1.8430 H     1 <1>   0.0800 
 46 H       -0.9030     5.6810    -3.2380 H     1 <1>   0.1500 
 47 H       -7.5610     1.2330     0.2400 H     1 <1>   0.0800 
 48 H        1.2880     7.1730     1.5790 H     1 <1>   0.1500 
 49 H       -9.1510     1.3050    -1.5380 H     1 <1>   0.4500 
 50 H        0.2980     7.8280    -3.1910 H     1 <1>   0.1500 
 51 H        2.0850     9.1920     0.4180 H     1 <1>   0.1500 
 52 H      -10.1000     3.9190    -0.5330 H     1 <1>   0.0800 
 53 H      -10.8710     2.9470    -1.7640 H     1 <1>   0.0800 
 54 H       -9.3010     3.6490    -2.0670 H     1 <1>   0.0800 
 55 H      -10.3490     1.9710     1.0790 H     1 <1>   0.0800 
 56 H       -9.7480     0.3970     0.6010 H     1 <1>   0.0800 
 57 H      -11.1340     1.0880    -0.2130 H     1 <1>   0.0800 
 58 H        1.5920     9.5180    -1.9540 H     1 <1>   0.1500 
@<TRIPOS>BOND
  1   1   2  2   
  2   2   3  am  
  3   2   4  1   
  4   3   5  1   
  5   3   6  1   
  6   4   7  1   
  7   4  28  1   
  8   4  29  1   
  9   5   8  1   
 10   5   9  1   
 11   5  30  1   
 12   6  31  1   
 13   6  32  1   
 14   6  33  1   
 15   7  10  1   
 16   8  11  1   
 17   8  34  1   
 18   8  35  1   
 19   9  12  1   
 20   9  36  1   
 21   9  37  1   
 22  10  13  ar  
 23  10  14  ar  
 24  11  12  1   
 25  11  15  1   
 26  11  38  1   
 27  12  16  1   
 28  12  39  1   
 29  13  17  ar  
 30  13  40  1   
 31  14  18  ar  
 32  14  41  1   
 33  15  19  1   
 34  15  42  1   
 35  15  43  1   
 36  16  19  1   
 37  16  44  1   
 38  16  45  1   
 39  17  20  ar  
 40  17  21  ar  
 41  18  20  ar  
 42  18  46  1   
 43  19  22  1   
 44  19  47  1   
 45  20  23  ar  
 46  21  24  ar  
 47  21  48  1   
 48  22  25  1   
 49  22  26  1   
 50  22  49  1   
 51  23  27  ar  
 52  23  50  1   
 53  24  27  ar  
 54  24  51  1   
 55  25  52  1   
 56  25  53  1   
 57  25  54  1   
 58  26  55  1   
 59  26  56  1   
 60  26  57  1   
 61  27  58  1   
@<TRIPOS>SUBSTRUCTURE
  1 ****   5 GROUP 4 **** **** 0

# MOE 2024.06 (io_trps.svl 2023.06)
