@<TRIPOS>MOLECULE
NONAME
55 57 1 0 0 
SMALL
USER_CHARGES


@<TRIPOS>ATOM
  1 O        0.3720     0.8080     0.0460 O.2   1 <1>  -0.5700 
  2 C       -0.6920     1.2820     0.3660 C.2   1 <1>   0.5690 
  3 N       -1.8360     0.5280     0.4800 N.am  1 <1>  -0.6600 
  4 C       -0.6970     2.7770     0.6210 C.3   1 <1>  -0.0990 
  5 C       -1.7600    -0.9590     0.3260 C.3   1 <1>   0.2200 
  6 C       -3.1860     1.1140     0.7520 C.3   1 <1>   0.0600 
  7 C       -0.8920     3.5540    -0.6900 C.3   1 <1>  -0.0990 
  8 C       -2.3430    -1.3920    -1.0270 C.3   1 <1>  -0.1600 
  9 C       -2.4420    -1.6900     1.4930 C.3   1 <1>  -0.1600 
 10 C       -0.7390     5.0410    -0.4660 C.2   1 <1>   0.5690 
 11 C       -2.2520    -2.9160    -1.2020 C.3   1 <1>  -0.1600 
 12 C       -2.3410    -3.2130     1.3170 C.3   1 <1>  -0.1600 
 13 O       -1.7310     5.6900    -0.2420 O.2   1 <1>  -0.5700 
 14 N        0.5260     5.5560    -0.5120 N.am  1 <1>  -0.4940 
 15 C       -2.9240    -3.6530    -0.0340 C.3   1 <1>  -0.1600 
 16 C        0.9570     6.8960    -0.3350 C.2   1 <1>  -0.0880 
 17 N        2.2550     7.3090    -0.2710 N.pl3 1 <1>   0.3140 
 18 C        0.2000     8.0110    -0.2030 C.2   1 <1>  -0.1500 
 19 N        2.3330     8.6550    -0.1110 N.2   1 <1>  -0.7070 
 20 C        3.4670     6.4430    -0.3590 C.3   1 <1>   0.1760 
 21 C        1.1010     9.0570    -0.0700 C.2   1 <1>   0.1390 
 22 C        4.4610     6.6570     0.7830 C.3   1 <1>  -0.1600 
 23 C        4.2950     6.7000    -1.6190 C.3   1 <1>  -0.1600 
 24 C        5.7780     6.0910     0.2490 C.3   1 <1>  -0.1600 
 25 C        5.7130     6.2270    -1.2780 C.3   1 <1>  -0.1600 
 26 H        0.2520     3.0380     1.0540 H     1 <1>   0.0800 
 27 H       -1.4520     3.0460     1.3360 H     1 <1>   0.0800 
 28 H       -0.7250    -1.2590     0.3360 H     1 <1>   0.0800 
 29 H       -3.2620     2.1100     0.3560 H     1 <1>   0.0800 
 30 H       -3.3590     1.1420     1.8140 H     1 <1>   0.0800 
 31 H       -3.9560     0.5210     0.2920 H     1 <1>   0.0800 
 32 H       -1.8710     3.3610    -1.0890 H     1 <1>   0.0800 
 33 H       -0.1730     3.2270    -1.4190 H     1 <1>   0.0800 
 34 H       -1.7930    -0.9110    -1.8170 H     1 <1>   0.0800 
 35 H       -3.3740    -1.0980    -1.1000 H     1 <1>   0.0800 
 36 H       -3.4820    -1.4270     1.5460 H     1 <1>   0.0800 
 37 H       -1.9660    -1.4060     2.4150 H     1 <1>   0.0800 
 38 H       -1.2160    -3.2050    -1.2550 H     1 <1>   0.0800 
 39 H       -2.7200    -3.2020    -2.1270 H     1 <1>   0.0800 
 40 H       -2.8690    -3.7050     2.1150 H     1 <1>   0.0800 
 41 H       -1.3080    -3.5110     1.3730 H     1 <1>   0.0800 
 42 H        1.2540     4.8680    -0.7020 H     1 <1>   0.3700 
 43 H       -2.7890    -4.7140    -0.1550 H     1 <1>   0.0800 
 44 H       -3.9820    -3.4520    -0.0480 H     1 <1>   0.0800 
 45 H       -0.8720     8.0930    -0.2010 H     1 <1>   0.1500 
 46 H        3.1650     5.4140    -0.3500 H     1 <1>   0.0800 
 47 H        0.8190    10.0890     0.0530 H     1 <1>   0.1500 
 48 H        4.1480     6.1650     1.6870 H     1 <1>   0.0800 
 49 H        4.5840     7.7110     0.9700 H     1 <1>   0.0800 
 50 H        4.3210     7.7580    -1.8230 H     1 <1>   0.0800 
 51 H        3.8950     6.1810    -2.4720 H     1 <1>   0.0800 
 52 H        5.8590     5.0510     0.5140 H     1 <1>   0.0800 
 53 H        6.6220     6.6200     0.6600 H     1 <1>   0.0800 
 54 H        6.4380     6.9420    -1.6300 H     1 <1>   0.0800 
 55 H        5.9160     5.2750    -1.7390 H     1 <1>   0.0800 
@<TRIPOS>BOND
  1   1   2  2   
  2   2   3  am  
  3   2   4  1   
  4   3   5  1   
  5   3   6  1   
  6   4   7  1   
  7   4  26  1   
  8   4  27  1   
  9   5   8  1   
 10   5   9  1   
 11   5  28  1   
 12   6  29  1   
 13   6  30  1   
 14   6  31  1   
 15   7  10  1   
 16   7  32  1   
 17   7  33  1   
 18   8  11  1   
 19   8  34  1   
 20   8  35  1   
 21   9  12  1   
 22   9  36  1   
 23   9  37  1   
 24  10  13  2   
 25  10  14  am  
 26  11  15  1   
 27  11  38  1   
 28  11  39  1   
 29  12  15  1   
 30  12  40  1   
 31  12  41  1   
 32  14  16  1   
 33  14  42  1   
 34  15  43  1   
 35  15  44  1   
 36  16  17  1   
 37  16  18  2   
 38  17  19  1   
 39  17  20  1   
 40  18  21  1   
 41  18  45  1   
 42  19  21  2   
 43  20  22  1   
 44  20  23  1   
 45  20  46  1   
 46  21  47  1   
 47  22  24  1   
 48  22  48  1   
 49  22  49  1   
 50  23  25  1   
 51  23  50  1   
 52  23  51  1   
 53  24  25  1   
 54  24  52  1   
 55  24  53  1   
 56  25  54  1   
 57  25  55  1   
@<TRIPOS>SUBSTRUCTURE
  1 ****   7 GROUP 4 **** **** 0

# MOE 2024.06 (io_trps.svl 2023.06)
