@<TRIPOS>MOLECULE
NONAME
45 46 1 0 0 
SMALL
USER_CHARGES


@<TRIPOS>ATOM
  1 CL       0.3180     0.6390    -1.6020 Cl    1 <1>  -0.1770 
  2 C        1.3010    -0.5400    -0.7780 C.ar  1 <1>   0.1770 
  3 C        1.9780    -0.1760     0.3690 C.ar  1 <1>  -0.1500 
  4 C        1.3820    -1.8230    -1.2910 C.ar  1 <1>  -0.1500 
  5 C        2.7460    -1.1340     1.0000 C.ar  1 <1>   0.1770 
  6 C        2.1530    -2.7820    -0.6450 C.ar  1 <1>  -0.1440 
  7 CL       3.6150    -0.7170     2.4510 Cl    1 <1>  -0.1770 
  8 C        2.8430    -2.4250     0.5080 C.ar  1 <1>  -0.1500 
  9 C        2.2420    -4.1970    -1.1900 C.3   1 <1>   0.4870 
 10 N        1.4240    -5.0970    -0.3320 N.4   1 <1>  -0.9590 
 11 C        1.7020    -6.5360    -0.6740 C.3   1 <1>   0.3430 
 12 C       -0.0300    -4.7820    -0.4110 C.3   1 <1>   0.3430 
 13 C        0.7000    -7.5510    -0.0610 C.3   1 <1>   0.0000 
 14 C       -0.7990    -5.5660     0.6560 C.3   1 <1>  -0.1600 
 15 C       -0.0910    -6.8610     1.0810 C.3   1 <1>   0.2000 
 16 C       -0.2760    -8.0410    -1.1640 C.3   1 <1>   0.1200 
 17 C        1.4910    -8.7860     0.4580 C.3   1 <1>  -0.1600 
 18 O       -1.0300    -7.7080     1.6380 O.3   1 <1>  -0.6800 
 19 O        0.4270    -8.3560    -2.3180 O.3   1 <1>  -0.6800 
 20 C        2.4600    -8.5280     1.6290 C.3   1 <1>  -0.1600 
 21 C        3.2660    -9.7900     1.9470 C.3   1 <1>  -0.2400 
 22 H        1.9090     0.8230     0.7600 H     1 <1>   0.1500 
 23 H        0.8390    -2.0470    -2.1940 H     1 <1>   0.1500 
 24 H        3.4650    -3.1270     1.0380 H     1 <1>   0.1500 
 25 H        3.2730    -4.5140    -1.1820 H     1 <1>   0.0800 
 26 H        1.8860    -4.2270    -2.2080 H     1 <1>   0.0800 
 27 H        1.7190    -4.9290     0.6380 H     1 <1>   0.4500 
 28 H        1.7050    -6.6500    -1.7450 H     1 <1>   0.0800 
 29 H        2.6940    -6.7850    -0.3410 H     1 <1>   0.0800 
 30 H       -0.2000    -3.7270    -0.2680 H     1 <1>   0.0800 
 31 H       -0.3970    -5.0520    -1.3880 H     1 <1>   0.0800 
 32 H       -1.7820    -5.7740     0.2720 H     1 <1>   0.0800 
 33 H       -0.9210    -4.9420     1.5240 H     1 <1>   0.0800 
 34 H        0.5930    -6.6120     1.8740 H     1 <1>   0.0800 
 35 H       -1.0000    -7.2900    -1.4270 H     1 <1>   0.0800 
 36 H       -0.7990    -8.9250    -0.8380 H     1 <1>   0.0800 
 37 H        0.7900    -9.5410     0.7770 H     1 <1>   0.0800 
 38 H        2.0480    -9.2110    -0.3600 H     1 <1>   0.0800 
 39 H       -1.7670    -7.9090     1.0300 H     1 <1>   0.4000 
 40 H       -0.1130    -8.9160    -2.9180 H     1 <1>   0.4000 
 41 H        3.1490    -7.7350     1.4020 H     1 <1>   0.0800 
 42 H        1.9080    -8.2560     2.5120 H     1 <1>   0.0800 
 43 H        3.8580   -10.0890     1.1000 H     1 <1>   0.0800 
 44 H        2.6080   -10.6000     2.2120 H     1 <1>   0.0800 
 45 H        3.9270    -9.6070     2.7760 H     1 <1>   0.0800 
@<TRIPOS>BOND
  1   1   2  1   
  2   2   3  ar  
  3   2   4  ar  
  4   3   5  ar  
  5   3  22  1   
  6   4   6  ar  
  7   4  23  1   
  8   5   7  1   
  9   5   8  ar  
 10   6   8  ar  
 11   6   9  1   
 12   8  24  1   
 13   9  10  1   
 14   9  25  1   
 15   9  26  1   
 16  10  11  1   
 17  10  12  1   
 18  10  27  1   
 19  11  13  1   
 20  11  28  1   
 21  11  29  1   
 22  12  14  1   
 23  12  30  1   
 24  12  31  1   
 25  13  15  1   
 26  13  16  1   
 27  13  17  1   
 28  14  15  1   
 29  14  32  1   
 30  14  33  1   
 31  15  18  1   
 32  15  34  1   
 33  16  19  1   
 34  16  35  1   
 35  16  36  1   
 36  17  20  1   
 37  17  37  1   
 38  17  38  1   
 39  18  39  1   
 40  19  40  1   
 41  20  21  1   
 42  20  41  1   
 43  20  42  1   
 44  21  43  1   
 45  21  44  1   
 46  21  45  1   
@<TRIPOS>SUBSTRUCTURE
  1 ****  10 GROUP 4 **** **** 0

# MOE 2024.06 (io_trps.svl 2023.06)
