@<TRIPOS>MOLECULE
NONAME
45 47 1 0 0 
SMALL
USER_CHARGES


@<TRIPOS>ATOM
  1 N        0.3650     0.1120    -0.8250 N.ar  1 <1>  -0.6200 
  2 C        1.0440    -0.5330     0.1190 C.ar  1 <1>   0.1660 
  3 C       -0.9040    -0.2710    -0.8710 C.ar  1 <1>   0.1600 
  4 C        0.4810    -1.4890     0.9600 C.ar  1 <1>   0.1600 
  5 C        2.5190    -0.1750     0.2610 C.3   1 <1>   0.4860 
  6 C       -1.4600    -1.2250    -0.0280 C.ar  1 <1>   0.1600 
  7 N       -0.7840    -1.8600     0.9160 N.ar  1 <1>  -0.6200 
  8 N        2.6910     1.2890     0.0120 N.4   1 <1>  -0.9590 
  9 C        4.0040     1.6410    -0.5690 C.3   1 <1>   0.5230 
 10 C        2.3190     2.1290     1.1930 C.3   1 <1>   0.2630 
 11 C        3.9400     3.0720    -1.0480 C.2   1 <1>  -0.3320 
 12 N        4.9520     3.9670    -0.9460 N.pl3 1 <1>   0.0480 
 13 C        2.9160     3.7210    -1.6510 C.2   1 <1>   0.0770 
 14 C        4.4480     5.1030    -1.4800 C.2   1 <1>   0.0360 
 15 C        6.3210     3.7950    -0.3830 C.3   1 <1>   0.1760 
 16 N        3.2350     4.9950    -1.9080 N.2   1 <1>  -0.5650 
 17 C        6.4830     4.6290     0.8980 C.3   1 <1>  -0.1600 
 18 C        7.3920     4.1590    -1.4250 C.3   1 <1>  -0.1600 
 19 C        7.8940     4.4740     1.4820 C.3   1 <1>  -0.1600 
 20 C        8.8030     4.0000    -0.8410 C.3   1 <1>  -0.1600 
 21 C        8.9680     4.8250     0.4430 C.3   1 <1>  -0.1600 
 22 H       -1.5380     0.1900    -1.6100 H     1 <1>   0.1500 
 23 H        1.0910    -1.9740     1.7030 H     1 <1>   0.1500 
 24 H        3.0670    -0.7350    -0.4780 H     1 <1>   0.0800 
 25 H        2.8830    -0.4400     1.2390 H     1 <1>   0.0800 
 26 H       -2.5020    -1.4720    -0.1380 H     1 <1>   0.1500 
 27 H        1.9790     1.4770    -0.7190 H     1 <1>   0.4500 
 28 H        4.2360     0.9960    -1.4020 H     1 <1>   0.0800 
 29 H        4.7720     1.5330     0.1790 H     1 <1>   0.0800 
 30 H        2.9980     1.9570     2.0120 H     1 <1>   0.0800 
 31 H        1.3160     1.8960     1.5160 H     1 <1>   0.0800 
 32 H        2.3530     3.1760     0.9320 H     1 <1>   0.0800 
 33 H        1.9410     3.3470    -1.9250 H     1 <1>   0.1500 
 34 H        5.0220     6.0130    -1.5370 H     1 <1>   0.1500 
 35 H        6.4550     2.7600    -0.1270 H     1 <1>   0.0800 
 36 H        5.7600     4.3200     1.6320 H     1 <1>   0.0800 
 37 H        6.3150     5.6700     0.6760 H     1 <1>   0.0800 
 38 H        7.2670     5.1810    -1.7400 H     1 <1>   0.0800 
 39 H        7.2930     3.5250    -2.2890 H     1 <1>   0.0800 
 40 H        8.0410     3.4600     1.8150 H     1 <1>   0.0800 
 41 H        8.0030     5.1180     2.3390 H     1 <1>   0.0800 
 42 H        9.5320     4.3200    -1.5670 H     1 <1>   0.0800 
 43 H        8.9930     2.9620    -0.6240 H     1 <1>   0.0800 
 44 H        9.9440     4.6490     0.8610 H     1 <1>   0.0800 
 45 H        8.9020     5.8730     0.2030 H     1 <1>   0.0800 
@<TRIPOS>BOND
  1   1   2  ar  
  2   1   3  ar  
  3   2   4  ar  
  4   2   5  1   
  5   3   6  ar  
  6   3  22  1   
  7   4   7  ar  
  8   4  23  1   
  9   5   8  1   
 10   5  24  1   
 11   5  25  1   
 12   6   7  ar  
 13   6  26  1   
 14   8   9  1   
 15   8  10  1   
 16   8  27  1   
 17   9  11  1   
 18   9  28  1   
 19   9  29  1   
 20  10  30  1   
 21  10  31  1   
 22  10  32  1   
 23  11  12  1   
 24  11  13  2   
 25  12  14  1   
 26  12  15  1   
 27  13  16  1   
 28  13  33  1   
 29  14  16  2   
 30  14  34  1   
 31  15  17  1   
 32  15  18  1   
 33  15  35  1   
 34  17  19  1   
 35  17  36  1   
 36  17  37  1   
 37  18  20  1   
 38  18  38  1   
 39  18  39  1   
 40  19  21  1   
 41  19  40  1   
 42  19  41  1   
 43  20  21  1   
 44  20  42  1   
 45  20  43  1   
 46  21  44  1   
 47  21  45  1   
@<TRIPOS>SUBSTRUCTURE
  1 ****   9 GROUP 4 **** **** 0

# MOE 2024.06 (io_trps.svl 2023.06)
