@<TRIPOS>MOLECULE
NONAME
46 48 1 0 0 
SMALL
USER_CHARGES


@<TRIPOS>ATOM
  1 O       -0.3850    -0.9480     0.5560 O.3   1 <1>  -0.6800 
  2 C       -1.5390    -1.3330    -0.1080 C.3   1 <1>   0.1200 
  3 C       -2.7060    -0.3970     0.3040 C.3   1 <1>   0.4230 
  4 N       -4.0510    -0.8280    -0.2470 N.4   1 <1>  -0.9590 
  5 C       -2.4110     1.0430    -0.1580 C.3   1 <1>  -0.1600 
  6 C       -5.1260     0.0960     0.2440 C.3   1 <1>   0.3430 
  7 C       -4.3760    -2.2670     0.0770 C.3   1 <1>   0.3430 
  8 C       -3.5150     2.0310     0.2280 C.3   1 <1>  -0.1600 
  9 C       -4.8730     1.5180    -0.2510 C.3   1 <1>  -0.1600 
 10 C       -5.6440    -2.8180    -0.6280 C.3   1 <1>   0.2090 
 11 N       -5.7510    -4.3060    -0.4700 N.pl3 1 <1>  -0.8690 
 12 C       -6.7900    -5.1420    -0.2490 C.ar  1 <1>   0.4610 
 13 N       -8.0450    -4.6710    -0.1950 N.ar  1 <1>  -0.1790 
 14 C       -6.5780    -6.5550    -0.0790 C.ar  1 <1>   0.0000 
 15 C       -9.1440    -5.4750     0.0230 C.ar  1 <1>   0.2110 
 16 C       -7.6910    -7.3930     0.1440 C.ar  1 <1>   0.0000 
 17 C       -5.3070    -7.1610    -0.1200 C.ar  1 <1>  -0.1500 
 18 C       -8.9840    -6.8070     0.1910 C.ar  1 <1>  -0.1500 
 19 C       -7.5070    -8.7710     0.3130 C.ar  1 <1>  -0.1500 
 20 C       -5.1470    -8.5150     0.0480 C.ar  1 <1>  -0.1500 
 21 C       -6.2540    -9.3270     0.2660 C.ar  1 <1>  -0.1500 
 22 H        0.3990    -1.4680     0.2750 H     1 <1>   0.4000 
 23 H       -1.7240    -2.3530     0.1720 H     1 <1>   0.0800 
 24 H       -1.3490    -1.2680    -1.1660 H     1 <1>   0.0800 
 25 H       -2.7590    -0.4050     1.3810 H     1 <1>   0.0800 
 26 H       -3.9800    -0.6970    -1.2650 H     1 <1>   0.4500 
 27 H       -2.2650     1.0600    -1.2240 H     1 <1>   0.0800 
 28 H       -1.4900     1.3790     0.2900 H     1 <1>   0.0800 
 29 H       -5.1440     0.0950     1.3230 H     1 <1>   0.0800 
 30 H       -6.0900    -0.2240    -0.1110 H     1 <1>   0.0800 
 31 H       -4.4930    -2.3750     1.1440 H     1 <1>   0.0800 
 32 H       -3.5520    -2.8870    -0.2290 H     1 <1>   0.0800 
 33 H       -3.3120     2.9960    -0.2060 H     1 <1>   0.0800 
 34 H       -3.5300     2.1530     1.2990 H     1 <1>   0.0800 
 35 H       -5.6460     2.1660     0.1250 H     1 <1>   0.0800 
 36 H       -4.9230     1.5470    -1.3260 H     1 <1>   0.0800 
 37 H       -5.5830    -2.5940    -1.6810 H     1 <1>   0.0800 
 38 H       -6.5180    -2.3420    -0.2200 H     1 <1>   0.0800 
 39 H       -4.8480    -4.7820    -0.6070 H     1 <1>   0.4000 
 40 H       -8.1950    -3.6790    -0.3480 H     1 <1>   0.4570 
 41 H      -10.1170    -5.0090     0.0510 H     1 <1>   0.1500 
 42 H       -4.4240    -6.5740    -0.2850 H     1 <1>   0.1500 
 43 H       -9.8260    -7.4570     0.3630 H     1 <1>   0.1500 
 44 H       -8.3610    -9.4050     0.4820 H     1 <1>   0.1500 
 45 H       -4.1690    -8.9660     0.0140 H     1 <1>   0.1500 
 46 H       -6.1180   -10.3880     0.3960 H     1 <1>   0.1500 
@<TRIPOS>BOND
  1   1   2  1   
  2   1  22  1   
  3   2   3  1   
  4   2  23  1   
  5   2  24  1   
  6   3   4  1   
  7   3   5  1   
  8   3  25  1   
  9   4   6  1   
 10   4   7  1   
 11   4  26  1   
 12   5   8  1   
 13   5  27  1   
 14   5  28  1   
 15   6   9  1   
 16   6  29  1   
 17   6  30  1   
 18   7  10  1   
 19   7  31  1   
 20   7  32  1   
 21   8   9  1   
 22   8  33  1   
 23   8  34  1   
 24   9  35  1   
 25   9  36  1   
 26  10  11  1   
 27  10  37  1   
 28  10  38  1   
 29  11  12  1   
 30  11  39  1   
 31  12  13  ar  
 32  12  14  ar  
 33  13  15  ar  
 34  13  40  1   
 35  14  16  ar  
 36  14  17  ar  
 37  15  18  ar  
 38  15  41  1   
 39  16  18  ar  
 40  16  19  ar  
 41  17  20  ar  
 42  17  42  1   
 43  18  43  1   
 44  19  21  ar  
 45  19  44  1   
 46  20  21  ar  
 47  20  45  1   
 48  21  46  1   
@<TRIPOS>SUBSTRUCTURE
  1 ****  11 GROUP 4 **** **** 0

# MOE 2024.06 (io_trps.svl 2023.06)
