@<TRIPOS>MOLECULE
NONAME
46 48 1 0 0 
SMALL
USER_CHARGES


@<TRIPOS>ATOM
  1 O       -0.2740    -0.4010     0.3810 O.2   1 <1>  -0.5700 
  2 C        0.8360    -0.8450     0.5640 C.2   1 <1>   0.5690 
  3 N        1.9600    -0.0670     0.4200 N.am  1 <1>  -0.6600 
  4 C        0.9640    -2.3110     0.9730 C.3   1 <1>  -0.0990 
  5 C        1.8310     1.3290    -0.1050 C.3   1 <1>   0.2200 
  6 C        3.3320    -0.5280     0.7960 C.3   1 <1>   0.0600 
  7 C       -0.2990    -3.1530     0.7000 C.3   1 <1>  -0.1600 
  8 C        2.8250     1.6210    -1.2330 C.3   1 <1>  -0.1600 
  9 C        1.9770     2.3540     1.0220 C.3   1 <1>  -0.1600 
 10 C       -0.1060    -4.6230     1.1010 C.3   1 <1>   0.0200 
 11 C        2.6890     3.0830    -1.6680 C.3   1 <1>   0.1200 
 12 C        1.9070     3.7700     0.4440 C.3   1 <1>   0.1200 
 13 C       -1.3360    -5.4530     0.7880 C.2   1 <1>   0.2980 
 14 O        2.8690     3.9090    -0.5580 O.3   1 <1>  -0.5600 
 15 O       -2.4310    -5.2430     1.4720 O.3   1 <1>  -0.0190 
 16 N       -1.4090    -6.3620    -0.0940 N.2   1 <1>  -0.5650 
 17 N       -3.2770    -6.0920     0.9810 N.2   1 <1>  -0.4100 
 18 C       -2.6790    -6.7520     0.0540 C.2   1 <1>   0.4620 
 19 C       -3.2720    -7.8010    -0.7540 C.ar  1 <1>   0.0540 
 20 C       -4.5900    -8.2100    -0.5950 C.ar  1 <1>  -0.1500 
 21 C       -2.5750    -8.4770    -1.7470 C.ar  1 <1>  -0.1500 
 22 C       -5.1150    -9.2130    -1.3870 C.ar  1 <1>   0.1600 
 23 C       -3.1900    -9.4690    -2.4860 C.ar  1 <1>   0.1600 
 24 N       -4.4460    -9.8540    -2.3310 N.ar  1 <1>  -0.6200 
 25 H        1.1910    -2.3420     2.0220 H     1 <1>   0.0800 
 26 H        1.7840    -2.7440     0.4310 H     1 <1>   0.0800 
 27 H        0.8460     1.4550    -0.5230 H     1 <1>   0.0800 
 28 H        3.2900    -1.2530     1.5890 H     1 <1>   0.0800 
 29 H        3.9280     0.2990     1.1390 H     1 <1>   0.0800 
 30 H        3.8120    -0.9680    -0.0610 H     1 <1>   0.0800 
 31 H       -0.5410    -3.0980    -0.3480 H     1 <1>   0.0800 
 32 H       -1.1290    -2.7390     1.2490 H     1 <1>   0.0800 
 33 H        2.6220     0.9780    -2.0700 H     1 <1>   0.0800 
 34 H        3.8390     1.4670    -0.9130 H     1 <1>   0.0800 
 35 H        2.9170     2.2410     1.5280 H     1 <1>   0.0800 
 36 H        1.1830     2.2190     1.7330 H     1 <1>   0.0800 
 37 H        0.1010    -4.6950     2.1530 H     1 <1>   0.0800 
 38 H        0.7310    -5.0360     0.5650 H     1 <1>   0.0800 
 39 H        1.7190     3.2800    -2.0920 H     1 <1>   0.0800 
 40 H        3.4460     3.3350    -2.3910 H     1 <1>   0.0800 
 41 H        2.1180     4.5000     1.2060 H     1 <1>   0.0800 
 42 H        0.9370     3.9740     0.0220 H     1 <1>   0.0800 
 43 H       -5.2100    -7.7430     0.1490 H     1 <1>   0.1500 
 44 H       -1.5480    -8.2300    -1.9440 H     1 <1>   0.1500 
 45 H       -6.1400    -9.5060    -1.2380 H     1 <1>   0.1500 
 46 H       -2.6210    -9.9740    -3.2480 H     1 <1>   0.1500 
@<TRIPOS>BOND
  1   1   2  2   
  2   2   3  am  
  3   2   4  1   
  4   3   5  1   
  5   3   6  1   
  6   4   7  1   
  7   4  25  1   
  8   4  26  1   
  9   5   8  1   
 10   5   9  1   
 11   5  27  1   
 12   6  28  1   
 13   6  29  1   
 14   6  30  1   
 15   7  10  1   
 16   7  31  1   
 17   7  32  1   
 18   8  11  1   
 19   8  33  1   
 20   8  34  1   
 21   9  12  1   
 22   9  35  1   
 23   9  36  1   
 24  10  13  1   
 25  10  37  1   
 26  10  38  1   
 27  11  14  1   
 28  11  39  1   
 29  11  40  1   
 30  12  14  1   
 31  12  41  1   
 32  12  42  1   
 33  13  15  1   
 34  13  16  2   
 35  15  17  1   
 36  16  18  1   
 37  17  18  2   
 38  18  19  1   
 39  19  20  ar  
 40  19  21  ar  
 41  20  22  ar  
 42  20  43  1   
 43  21  23  ar  
 44  21  44  1   
 45  22  24  ar  
 46  22  45  1   
 47  23  24  ar  
 48  23  46  1   
@<TRIPOS>SUBSTRUCTURE
  1 ****   7 GROUP 4 **** **** 0

# MOE 2024.06 (io_trps.svl 2023.06)
