@<TRIPOS>MOLECULE
STOCK7S-72892
58 60 1 0 0 
SMALL
USER_CHARGES


@<TRIPOS>ATOM
  1 O       -7.0190     2.7240    -0.9660 O.3   1 <1>  -0.5600 
  2 C       -6.7420     2.7300     0.3970 C.3   1 <1>   0.2800 
  3 C       -7.1800     3.9590    -1.5960 C.3   1 <1>   0.1200 
  4 C       -5.6010     3.7280     0.7100 C.3   1 <1>  -0.1600 
  5 C       -6.3370     1.2930     0.7370 C.3   1 <1>  -0.2400 
  6 C       -8.0300     3.0630     1.1630 C.3   1 <1>  -0.2400 
  7 C       -5.8910     4.7940    -1.5100 C.3   1 <1>  -0.1600 
  8 C       -4.8260     4.2490    -0.5300 C.3   1 <1>   0.1440 
  9 C       -3.8430     5.3870    -0.1700 C.ar  1 <1>  -0.1440 
 10 C       -4.0050     3.1210    -1.2210 C.3   1 <1>  -0.1600 
 11 C       -3.5260     5.7340     1.1430 C.ar  1 <1>  -0.1500 
 12 C       -3.1990     6.0740    -1.1950 C.ar  1 <1>  -0.1500 
 13 C       -2.8790     2.5160    -0.3760 C.3   1 <1>   0.3430 
 14 C       -2.5870     6.7140     1.4140 C.ar  1 <1>  -0.1500 
 15 C       -2.2550     7.0480    -0.9250 C.ar  1 <1>  -0.1500 
 16 N       -1.7260     3.4460    -0.3060 N.4   1 <1>  -0.9060 
 17 C       -1.9440     7.3660     0.3810 C.ar  1 <1>  -0.1500 
 18 C       -0.6290     3.0160     0.5780 C.3   1 <1>   0.4860 
 19 C        0.4390     4.0790     0.4800 C.ar  1 <1>  -0.1440 
 20 C        1.3820     4.0410    -0.5390 C.ar  1 <1>  -0.1500 
 21 C        0.4760     5.1120     1.4050 C.ar  1 <1>  -0.1500 
 22 C        2.3430     5.0320    -0.6400 C.ar  1 <1>  -0.1500 
 23 C        1.4370     6.1020     1.3030 C.ar  1 <1>  -0.1500 
 24 C        2.3720     6.0730     0.2830 C.ar  1 <1>   0.0820 
 25 O        3.2720     7.0850     0.2550 O.3   1 <1>  -0.3620 
 26 C        4.3060     7.1270    -0.7040 C.3   1 <1>   0.0400 
 27 H       -8.0070     4.4760    -1.1430 H     1 <1>   0.0800 
 28 H       -7.4310     3.7650    -2.6250 H     1 <1>   0.0800 
 29 H       -4.9380     3.2930     1.4330 H     1 <1>   0.0800 
 30 H       -6.0450     4.5820     1.1910 H     1 <1>   0.0800 
 31 H       -5.4620     0.9950     0.1950 H     1 <1>   0.0800 
 32 H       -7.1380     0.6200     0.4870 H     1 <1>   0.0800 
 33 H       -6.1390     1.1980     1.7900 H     1 <1>   0.0800 
 34 H       -8.3420     4.0760     0.9910 H     1 <1>   0.0800 
 35 H       -7.8720     2.9440     2.2190 H     1 <1>   0.0800 
 36 H       -8.8210     2.3990     0.8630 H     1 <1>   0.0800 
 37 H       -6.1760     5.7850    -1.2040 H     1 <1>   0.0800 
 38 H       -5.4840     4.8900    -2.5000 H     1 <1>   0.0800 
 39 H       -3.5920     3.4760    -2.1470 H     1 <1>   0.0800 
 40 H       -4.6630     2.3190    -1.4970 H     1 <1>   0.0800 
 41 H       -3.9960     5.2660     1.9890 H     1 <1>   0.1500 
 42 H       -3.4210     5.8620    -2.2270 H     1 <1>   0.1500 
 43 H       -2.5620     1.5880    -0.8250 H     1 <1>   0.0800 
 44 H       -3.2460     2.3000     0.6140 H     1 <1>   0.0800 
 45 H       -2.3590     6.9790     2.4340 H     1 <1>   0.1500 
 46 H       -1.7640     7.5680    -1.7320 H     1 <1>   0.1500 
 47 H       -2.0540     4.3770     0.0150 H     1 <1>   0.4500 
 48 H       -1.3400     3.6290    -1.2370 H     1 <1>   0.4500 
 49 H       -1.2100     8.1270     0.5920 H     1 <1>   0.1500 
 50 H       -0.2340     2.0660     0.2580 H     1 <1>   0.0800 
 51 H       -0.9740     2.9310     1.5950 H     1 <1>   0.0800 
 52 H        1.3840     3.2450    -1.2640 H     1 <1>   0.1500 
 53 H       -0.2350     5.1640     2.2110 H     1 <1>   0.1500 
 54 H        3.0610     4.9810    -1.4370 H     1 <1>   0.1500 
 55 H        1.4720     6.9070     2.0160 H     1 <1>   0.1500 
 56 H        4.9000     8.0030    -0.5150 H     1 <1>   0.0800 
 57 H        3.8710     7.1870    -1.6860 H     1 <1>   0.0800 
 58 H        4.9130     6.2450    -0.6030 H     1 <1>   0.0800 
@<TRIPOS>BOND
  1   1   2  1   
  2   1   3  1   
  3   2   4  1   
  4   2   5  1   
  5   2   6  1   
  6   3   7  1   
  7   3  27  1   
  8   3  28  1   
  9   4   8  1   
 10   4  29  1   
 11   4  30  1   
 12   5  31  1   
 13   5  32  1   
 14   5  33  1   
 15   6  34  1   
 16   6  35  1   
 17   6  36  1   
 18   7   8  1   
 19   7  37  1   
 20   7  38  1   
 21   8   9  1   
 22   8  10  1   
 23   9  11  ar  
 24   9  12  ar  
 25  10  13  1   
 26  10  39  1   
 27  10  40  1   
 28  11  14  ar  
 29  11  41  1   
 30  12  15  ar  
 31  12  42  1   
 32  13  16  1   
 33  13  43  1   
 34  13  44  1   
 35  14  17  ar  
 36  14  45  1   
 37  15  17  ar  
 38  15  46  1   
 39  16  18  1   
 40  16  47  1   
 41  16  48  1   
 42  17  49  1   
 43  18  19  1   
 44  18  50  1   
 45  18  51  1   
 46  19  20  ar  
 47  19  21  ar  
 48  20  22  ar  
 49  20  52  1   
 50  21  23  ar  
 51  21  53  1   
 52  22  24  ar  
 53  22  54  1   
 54  23  24  ar  
 55  23  55  1   
 56  24  25  1   
 57  25  26  1   
 58  26  56  1   
 59  26  57  1   
 60  26  58  1   
@<TRIPOS>SUBSTRUCTURE
  1 ****  16 GROUP 4 **** **** 0

# MOE 2024.06 (io_trps.svl 2023.06)
