@<TRIPOS>MOLECULE
NONAME
56 58 1 0 0 
SMALL
USER_CHARGES


@<TRIPOS>ATOM
  1 O       -2.4350    -0.4480     2.4420 O.2   1 <1>  -0.5700 
  2 C       -2.2510     0.3650     1.5670 C.2   1 <1>   0.5690 
  3 N       -2.3560     0.0290     0.2410 N.am  1 <1>  -0.6600 
  4 C       -1.8950     1.7820     2.0030 C.3   1 <1>   0.0440 
  5 C       -2.6600    -1.3760    -0.1770 C.3   1 <1>   0.3640 
  6 C       -2.1850     1.0050    -0.8800 C.3   1 <1>   0.1400 
  7 C       -0.5410     2.2550     1.4810 C.ar  1 <1>  -0.1440 
  8 C       -1.3540    -2.0670    -0.6150 C.ar  1 <1>  -0.1440 
  9 C       -3.8070    -1.3630    -1.2320 C.3   1 <1>   0.2000 
 10 C       -2.5240     0.4110    -2.2580 C.3   1 <1>   0.1200 
 11 C       -0.4180     3.4930     0.8710 C.ar  1 <1>  -0.1500 
 12 C        0.5790     1.4450     1.5990 C.ar  1 <1>  -0.1500 
 13 C       -0.3280    -2.1660     0.3170 C.ar  1 <1>  -0.1500 
 14 C       -1.1440    -2.6090    -1.8820 C.ar  1 <1>  -0.1500 
 15 O       -3.6950    -0.3610    -2.2270 O.3   1 <1>  -0.5600 
 16 C       -5.1720    -1.1550    -0.5610 C.3   1 <1>   0.1200 
 17 C        0.8010     3.9210     0.3710 C.ar  1 <1>   0.0830 
 18 C        1.8010     1.8640     1.1040 C.ar  1 <1>  -0.1500 
 19 C        0.8790    -2.7680     0.0050 C.ar  1 <1>   0.0830 
 20 C        0.0620    -3.2070    -2.2080 C.ar  1 <1>  -0.1500 
 21 O       -5.5450    -2.2960     0.1440 O.3   1 <1>  -0.6800 
 22 O        0.8210     5.1420    -0.2190 O.3   1 <1>  -0.3630 
 23 C        1.9170     3.0980     0.4890 C.ar  1 <1>  -0.1500 
 24 O        1.8150    -2.8410     0.9810 O.3   1 <1>  -0.3630 
 25 C        1.0860    -3.2760    -1.2800 C.ar  1 <1>   0.0830 
 26 C        2.0200     5.6960    -0.7130 C.3   1 <1>   0.0400 
 27 C        2.0600    -4.1300     1.4980 C.3   1 <1>   0.0400 
 28 O        2.2530    -3.8420    -1.6760 O.3   1 <1>  -0.3630 
 29 C        3.3910    -3.0090    -1.6790 C.3   1 <1>   0.0400 
 30 H       -2.6760     2.4410     1.6760 H     1 <1>   0.0800 
 31 H       -1.8750     1.8160     3.0770 H     1 <1>   0.0800 
 32 H       -3.0210    -1.9320     0.6710 H     1 <1>   0.0800 
 33 H       -2.8180     1.8570    -0.7080 H     1 <1>   0.0800 
 34 H       -1.1640     1.3450    -0.9030 H     1 <1>   0.0800 
 35 H       -3.8410    -2.3070    -1.7420 H     1 <1>   0.0800 
 36 H       -1.7150    -0.1990    -2.6140 H     1 <1>   0.0800 
 37 H       -2.6730     1.2030    -2.9700 H     1 <1>   0.0800 
 38 H       -1.2660     4.1460     0.7730 H     1 <1>   0.1500 
 39 H        0.5060     0.4800     2.0730 H     1 <1>   0.1500 
 40 H       -0.4600    -1.7780     1.3110 H     1 <1>   0.1500 
 41 H       -1.9030    -2.5710    -2.6410 H     1 <1>   0.1500 
 42 H       -5.9300    -0.9590    -1.2990 H     1 <1>   0.0800 
 43 H       -5.1260    -0.3360     0.1350 H     1 <1>   0.0800 
 44 H        2.6600     1.2230     1.1980 H     1 <1>   0.1500 
 45 H        0.2180    -3.6180    -3.1890 H     1 <1>   0.1500 
 46 H       -5.8330    -3.0050    -0.4630 H     1 <1>   0.4000 
 47 H        2.8760     3.3980     0.1130 H     1 <1>   0.1500 
 48 H        1.8000     6.6690    -1.1120 H     1 <1>   0.0800 
 49 H        2.4040     5.0600    -1.4900 H     1 <1>   0.0800 
 50 H        2.7230     5.7840     0.0970 H     1 <1>   0.0800 
 51 H        2.7740    -4.0430     2.2970 H     1 <1>   0.0800 
 52 H        2.4550    -4.7560     0.7170 H     1 <1>   0.0800 
 53 H        1.1360    -4.5350     1.8700 H     1 <1>   0.0800 
 54 H        4.1910    -3.5350    -2.1660 H     1 <1>   0.0800 
 55 H        3.6680    -2.7800    -0.6660 H     1 <1>   0.0800 
 56 H        3.1600    -2.1070    -2.2170 H     1 <1>   0.0800 
@<TRIPOS>BOND
  1   1   2  2   
  2   2   3  am  
  3   2   4  1   
  4   3   5  1   
  5   3   6  1   
  6   4   7  1   
  7   4  30  1   
  8   4  31  1   
  9   5   8  1   
 10   5   9  1   
 11   5  32  1   
 12   6  10  1   
 13   6  33  1   
 14   6  34  1   
 15   7  11  ar  
 16   7  12  ar  
 17   8  13  ar  
 18   8  14  ar  
 19   9  15  1   
 20   9  16  1   
 21   9  35  1   
 22  10  15  1   
 23  10  36  1   
 24  10  37  1   
 25  11  17  ar  
 26  11  38  1   
 27  12  18  ar  
 28  12  39  1   
 29  13  19  ar  
 30  13  40  1   
 31  14  20  ar  
 32  14  41  1   
 33  16  21  1   
 34  16  42  1   
 35  16  43  1   
 36  17  22  1   
 37  17  23  ar  
 38  18  23  ar  
 39  18  44  1   
 40  19  24  1   
 41  19  25  ar  
 42  20  25  ar  
 43  20  45  1   
 44  21  46  1   
 45  22  26  1   
 46  23  47  1   
 47  24  27  1   
 48  25  28  1   
 49  26  48  1   
 50  26  49  1   
 51  26  50  1   
 52  27  51  1   
 53  27  52  1   
 54  27  53  1   
 55  28  29  1   
 56  29  54  1   
 57  29  55  1   
 58  29  56  1   
@<TRIPOS>SUBSTRUCTURE
  1 ****   3 GROUP 4 **** **** 0

# MOE 2024.06 (io_trps.svl 2023.06)
