@<TRIPOS>MOLECULE
NONAME
46 48 1 0 0 
SMALL
USER_CHARGES


@<TRIPOS>ATOM
  1 O        0.8720    -0.5440     1.7700 O.2   1 <1>  -0.5700 
  2 C        1.6680    -0.8210     0.9000 C.2   1 <1>   0.5690 
  3 N        2.0260    -2.1130     0.6140 N.am  1 <1>  -0.6600 
  4 C        2.2680     0.3360     0.0850 C.3   1 <1>   0.1710 
  5 C        3.0950    -2.4290    -0.3840 C.3   1 <1>   0.1400 
  6 C        1.5350    -3.2810     1.4510 C.3   1 <1>   0.0340 
  7 N        3.5090     0.0020    -0.6690 N.3   1 <1>  -0.8100 
  8 C        3.3520    -1.2790    -1.3720 C.3   1 <1>   0.1100 
  9 C        1.7930    -4.6960     0.9170 C.2   1 <1>   0.9060 
 10 C        3.9650     1.0860    -1.5460 C.3   1 <1>   0.2530 
 11 O        2.9360    -5.1710     0.9960 O.co2 1 <1>  -0.9000 
 12 O        0.8620    -5.3290     0.4040 O.co2 1 <1>  -0.9000 
 13 C        4.4910     2.2450    -0.6990 C.ar  1 <1>  -0.1440 
 14 C        5.6640     2.0510     0.0390 C.ar  1 <1>  -0.0230 
 15 C        3.8400     3.4760    -0.6470 C.ar  1 <1>  -0.1440 
 16 N        6.3610     0.8100     0.0300 N.pl3 1 <1>   0.5930 
 17 C        6.1660     3.0930     0.8110 C.ar  1 <1>  -0.1500 
 18 C        4.3610     4.4960     0.1350 C.ar  1 <1>  -0.1500 
 19 C        2.5610     3.7540    -1.4260 C.3   1 <1>  -0.0960 
 20 N        7.3340     0.5000    -0.8700 N.2   1 <1>  -0.7070 
 21 C        6.2160    -0.2070     0.9130 C.2   1 <1>  -0.3020 
 22 C        5.5210     4.3130     0.8660 C.ar  1 <1>  -0.1440 
 23 C        7.7490    -0.6820    -0.5370 C.2   1 <1>   0.1390 
 24 C        7.0840    -1.1810     0.5760 C.2   1 <1>  -0.1500 
 25 C        6.0750     5.4450     1.7110 C.3   1 <1>  -0.0970 
 26 H        2.4770     1.1420     0.7650 H     1 <1>   0.0800 
 27 H        1.5100     0.6650    -0.6010 H     1 <1>   0.0800 
 28 H        2.8180    -3.3010    -0.9500 H     1 <1>   0.0800 
 29 H        4.0040    -2.6580     0.1460 H     1 <1>   0.0800 
 30 H        0.4750    -3.1820     1.5900 H     1 <1>   0.0800 
 31 H        1.9990    -3.2220     2.4160 H     1 <1>   0.0800 
 32 H        2.5330    -1.2200    -2.0680 H     1 <1>   0.0800 
 33 H        4.2490    -1.5020    -1.9230 H     1 <1>   0.0800 
 34 H        3.1670     1.3850    -2.2010 H     1 <1>   0.0800 
 35 H        4.7710     0.7290    -2.1650 H     1 <1>   0.0800 
 36 H        7.0730     2.9370     1.3680 H     1 <1>   0.1500 
 37 H        3.8630     5.4480     0.1790 H     1 <1>   0.1500 
 38 H        1.8000     3.0440    -1.1580 H     1 <1>   0.0800 
 39 H        2.7520     3.6890    -2.4820 H     1 <1>   0.0800 
 40 H        2.1850     4.7390    -1.2150 H     1 <1>   0.0800 
 41 H        5.4890    -0.1680     1.7030 H     1 <1>   0.1500 
 42 H        8.5220    -1.2120    -1.0690 H     1 <1>   0.1500 
 43 H        7.2410    -2.1390     1.0410 H     1 <1>   0.1500 
 44 H        6.7870     5.0740     2.4260 H     1 <1>   0.0800 
 45 H        5.2790     5.9310     2.2460 H     1 <1>   0.0800 
 46 H        6.5620     6.1650     1.0790 H     1 <1>   0.0800 
@<TRIPOS>BOND
  1   1   2  2   
  2   2   3  am  
  3   2   4  1   
  4   3   5  1   
  5   3   6  1   
  6   4   7  1   
  7   4  26  1   
  8   4  27  1   
  9   5   8  1   
 10   5  28  1   
 11   5  29  1   
 12   6   9  1   
 13   6  30  1   
 14   6  31  1   
 15   7   8  1   
 16   7  10  1   
 17   8  32  1   
 18   8  33  1   
 19   9  11  ar  
 20   9  12  ar  
 21  10  13  1   
 22  10  34  1   
 23  10  35  1   
 24  13  14  ar  
 25  13  15  ar  
 26  14  16  1   
 27  14  17  ar  
 28  15  18  ar  
 29  15  19  1   
 30  16  20  1   
 31  16  21  1   
 32  17  22  ar  
 33  17  36  1   
 34  18  22  ar  
 35  18  37  1   
 36  19  38  1   
 37  19  39  1   
 38  19  40  1   
 39  20  23  2   
 40  21  24  2   
 41  21  41  1   
 42  22  25  1   
 43  23  24  1   
 44  23  42  1   
 45  24  43  1   
 46  25  44  1   
 47  25  45  1   
 48  25  46  1   
@<TRIPOS>SUBSTRUCTURE
  1 ****   7 GROUP 4 **** **** 0

# MOE 2024.06 (io_trps.svl 2023.06)
