@<TRIPOS>MOLECULE
NONAME
29 30 1 0 0 
SMALL
USER_CHARGES


@<TRIPOS>ATOM
  1 O        0.2780     0.6840     0.3930 O.3   1 <1>  -0.5680 
  2 C        1.1420     1.7740     0.4790 C.3   1 <1>   0.1070 
  3 C        0.6660    -0.2940    -0.5240 C.3   1 <1>   0.1070 
  4 C        2.5210     1.3080     0.9700 C.3   1 <1>   0.1550 
  5 C        2.0240    -0.8960    -0.1250 C.3   1 <1>   0.1550 
  6 N        3.0370     0.1730     0.1440 N.pl3 1 <1>  -0.6000 
  7 C        4.2690     0.1690    -0.4090 C.cat 1 <1>   1.0680 
  8 N        4.7670     1.1800    -1.0890 N.pl3 1 <1>  -0.7060 
  9 N        5.2150    -0.7620    -0.3690 N.pl3 1 <1>  -0.4660 
 10 C        6.0270     0.8160    -1.4700 C.2   1 <1>   0.4940 
 11 N        6.3340    -0.3490    -1.0440 N.2   1 <1>  -0.2720 
 12 C        5.1470    -2.0560     0.3170 C.3   1 <1>   0.6270 
 13 O        4.3140    -2.8570    -0.4420 O.3   1 <1>  -0.5680 
 14 C        4.2510    -4.1790    -0.0080 C.3   1 <1>   0.0260 
 15 H        0.7150     2.4740     1.1750 H     1 <1>   0.0660 
 16 H        1.2040     2.2430    -0.4880 H     1 <1>   0.0660 
 17 H        0.7110     0.1500    -1.5030 H     1 <1>   0.0660 
 18 H       -0.0920    -1.0580    -0.5290 H     1 <1>   0.0660 
 19 H        2.4260     0.9830     1.9920 H     1 <1>   0.0660 
 20 H        3.2080     2.1360     0.9520 H     1 <1>   0.0660 
 21 H        2.3530    -1.5330    -0.9270 H     1 <1>   0.0660 
 22 H        1.8960    -1.5010     0.7560 H     1 <1>   0.0660 
 23 H        4.2670     2.0330    -1.3190 H     1 <1>   0.4410 
 24 H        6.6700     1.4530    -2.0590 H     1 <1>   0.1370 
 25 H        4.7320    -1.9500     1.3050 H     1 <1>   0.0660 
 26 H        6.1250    -2.5070     0.3640 H     1 <1>   0.0660 
 27 H        3.5770    -4.7140    -0.6550 H     1 <1>   0.0660 
 28 H        3.8810    -4.2110     1.0030 H     1 <1>   0.0660 
 29 H        5.2310    -4.6240    -0.0680 H     1 <1>   0.0660 
@<TRIPOS>BOND
  1   1   2  1   
  2   1   3  1   
  3   2   4  1   
  4   2  15  1   
  5   2  16  1   
  6   3   5  1   
  7   3  17  1   
  8   3  18  1   
  9   4   6  1   
 10   4  19  1   
 11   4  20  1   
 12   5   6  1   
 13   5  21  1   
 14   5  22  1   
 15   6   7  ar  
 16   7   8  ar  
 17   7   9  ar  
 18   8  10  1   
 19   8  23  1   
 20   9  11  1   
 21   9  12  1   
 22  10  11  2   
 23  10  24  1   
 24  12  13  1   
 25  12  25  1   
 26  12  26  1   
 27  13  14  1   
 28  14  27  1   
 29  14  28  1   
 30  14  29  1   
@<TRIPOS>SUBSTRUCTURE
  1 ****   6 GROUP 4 **** **** 0

# MOE 2024.06 (io_trps.svl 2023.06)
