@<TRIPOS>MOLECULE
NONAME
53 56 1 0 0 
SMALL
USER_CHARGES


@<TRIPOS>ATOM
  1 O       -0.9540     0.7100    -1.2310 O.2   1 <1>  -0.5700 
  2 C       -0.7190     1.8450    -0.8850 C.2   1 <1>   0.5690 
  3 N       -1.6390     2.6260    -0.2300 N.am  1 <1>  -0.5090 
  4 C        0.6580     2.4190    -1.2430 C.3   1 <1>   0.1810 
  5 C       -1.3460     4.0600     0.0790 C.3   1 <1>   0.3640 
  6 C       -2.9190     2.0830     0.2910 C.3   1 <1>   0.0490 
  7 O        0.9450     3.6580    -0.6330 O.3   1 <1>  -0.5600 
  8 C       -2.5300     4.9720    -0.2450 C.ar  1 <1>  -0.1440 
  9 C       -0.1170     4.5800    -0.6940 C.3   1 <1>   0.2610 
 10 C       -3.2300     2.2240     1.7500 C.3   1 <1>  -0.2000 
 11 C       -2.8940     0.8820     1.1840 C.3   1 <1>  -0.2000 
 12 C       -2.8660     5.9890     0.6390 C.ar  1 <1>   0.1600 
 13 C       -3.2570     4.8510    -1.4160 C.ar  1 <1>  -0.1500 
 14 C        0.2810     5.9600    -0.1530 C.2   1 <1>   0.5690 
 15 N       -3.8180     6.8860     0.4430 N.ar  1 <1>  -0.6200 
 16 C       -4.2710     5.7600    -1.6240 C.ar  1 <1>  -0.1500 
 17 O        0.2910     6.1500     1.0430 O.2   1 <1>  -0.5700 
 18 N        0.5300     6.9750    -1.0350 N.am  1 <1>  -0.7300 
 19 C       -4.5060     6.7430    -0.6780 C.ar  1 <1>   0.1600 
 20 C        0.5940     8.4210    -0.7310 C.3   1 <1>   0.2200 
 21 C        1.7980     8.7330     0.1650 C.3   1 <1>  -0.1600 
 22 C       -0.7300     8.8830    -0.1070 C.3   1 <1>  -0.1600 
 23 C        1.7930    10.1910     0.6140 C.3   1 <1>   0.3430 
 24 C       -0.6590    10.3350     0.3470 C.3   1 <1>   0.3430 
 25 N        0.4940    10.5040     1.2760 N.4   1 <1>  -0.9590 
 26 C        0.5060    11.8700     1.8780 C.3   1 <1>   0.2630 
 27 H        0.7200     2.5460    -2.3090 H     1 <1>   0.0800 
 28 H        1.4180     1.7240    -0.9380 H     1 <1>   0.0800 
 29 H       -1.1340     4.1210     1.1320 H     1 <1>   0.0800 
 30 H       -3.7240     2.1630    -0.4210 H     1 <1>   0.1000 
 31 H       -0.3820     4.6950    -1.7290 H     1 <1>   0.0800 
 32 H       -2.5180     2.6730     2.4180 H     1 <1>   0.1000 
 33 H       -4.2480     2.4080     2.0440 H     1 <1>   0.1000 
 34 H       -3.6790     0.1540     1.0830 H     1 <1>   0.1000 
 35 H       -1.9430     0.4350     1.4140 H     1 <1>   0.1000 
 36 H       -2.3100     6.0800     1.5590 H     1 <1>   0.1500 
 37 H       -3.0510     4.0780    -2.1380 H     1 <1>   0.1500 
 38 H       -4.8780     5.7100    -2.5100 H     1 <1>   0.1500 
 39 H        0.6110     6.7460    -2.0280 H     1 <1>   0.3700 
 40 H       -5.3030     7.4470    -0.8530 H     1 <1>   0.1500 
 41 H        0.7260     8.9480    -1.6620 H     1 <1>   0.0800 
 42 H        1.7990     8.1120     1.0420 H     1 <1>   0.0800 
 43 H        2.7060     8.5350    -0.3770 H     1 <1>   0.0800 
 44 H       -1.5230     8.7780    -0.8260 H     1 <1>   0.0800 
 45 H       -0.9850     8.2850     0.7470 H     1 <1>   0.0800 
 46 H        1.9340    10.8360    -0.2390 H     1 <1>   0.0800 
 47 H        2.6080    10.3540     1.3020 H     1 <1>   0.0800 
 48 H       -1.5790    10.5960     0.8460 H     1 <1>   0.0800 
 49 H       -0.5400    10.9810    -0.5080 H     1 <1>   0.0800 
 50 H        0.3690     9.8130     2.0340 H     1 <1>   0.4500 
 51 H        0.6330    12.6180     1.1120 H     1 <1>   0.0800 
 52 H        1.3150    11.9610     2.5860 H     1 <1>   0.0800 
 53 H       -0.4220    12.0590     2.3940 H     1 <1>   0.0800 
@<TRIPOS>BOND
  1   1   2  2   
  2   2   3  am  
  3   2   4  1   
  4   3   5  1   
  5   3   6  1   
  6   4   7  1   
  7   4  27  1   
  8   4  28  1   
  9   5   8  1   
 10   5   9  1   
 11   5  29  1   
 12   6  10  1   
 13   6  11  1   
 14   6  30  1   
 15   7   9  1   
 16   8  12  ar  
 17   8  13  ar  
 18   9  14  1   
 19   9  31  1   
 20  10  11  1   
 21  10  32  1   
 22  10  33  1   
 23  11  34  1   
 24  11  35  1   
 25  12  15  ar  
 26  12  36  1   
 27  13  16  ar  
 28  13  37  1   
 29  14  17  2   
 30  14  18  am  
 31  15  19  ar  
 32  16  19  ar  
 33  16  38  1   
 34  18  20  1   
 35  18  39  1   
 36  19  40  1   
 37  20  21  1   
 38  20  22  1   
 39  20  41  1   
 40  21  23  1   
 41  21  42  1   
 42  21  43  1   
 43  22  24  1   
 44  22  44  1   
 45  22  45  1   
 46  23  25  1   
 47  23  46  1   
 48  23  47  1   
 49  24  25  1   
 50  24  48  1   
 51  24  49  1   
 52  25  26  1   
 53  25  50  1   
 54  26  51  1   
 55  26  52  1   
 56  26  53  1   
@<TRIPOS>SUBSTRUCTURE
  1 ****  14 GROUP 4 **** **** 0

# MOE 2024.06 (io_trps.svl 2023.06)
