@<TRIPOS>MOLECULE
NONAME
43 45 1 0 0 
SMALL
USER_CHARGES


@<TRIPOS>ATOM
  1 CL       0.0360    -0.2560     1.2890 Cl    1 <1>  -0.1770 
  2 C       -1.2050     0.8820     0.8320 C.ar  1 <1>   0.1770 
  3 C       -1.0310     2.2210     1.1110 C.ar  1 <1>  -0.1500 
  4 C       -2.3390     0.4250     0.1920 C.ar  1 <1>  -0.1500 
  5 C       -2.0010     3.1500     0.7430 C.ar  1 <1>   0.0860 
  6 C       -3.3170     1.3340    -0.1710 C.ar  1 <1>  -0.1500 
  7 C       -3.1570     2.6840     0.1020 C.ar  1 <1>  -0.1440 
  8 C       -1.7760     4.5560     1.0160 C.2   1 <1>   0.5440 
  9 C       -4.2600     3.6580    -0.2940 C.3   1 <1>  -0.0960 
 10 O       -2.0590     5.0000     2.1130 O.2   1 <1>  -0.5700 
 11 N       -1.2200     5.4090     0.0760 N.am  1 <1>  -0.6600 
 12 C       -0.9270     6.8280     0.4640 C.3   1 <1>   0.1400 
 13 C       -0.6190     4.8950    -1.1960 C.3   1 <1>   0.1400 
 14 C        0.5560     7.0770     0.8460 C.3   1 <1>   0.4230 
 15 C        0.8840     5.2130    -1.3690 C.3   1 <1>  -0.0800 
 16 N        1.4190     7.4610    -0.3320 N.4   1 <1>  -0.9590 
 17 C        1.2260     5.9230     1.6410 C.3   1 <1>   0.1200 
 18 C        1.8290     4.5890    -0.3180 C.3   1 <1>   0.1200 
 19 C        1.1200     6.7100    -1.5870 C.3   1 <1>   0.3430 
 20 C        1.3840     8.9350    -0.5810 C.3   1 <1>   0.2630 
 21 O        1.3310     4.6850     0.9800 O.3   1 <1>  -0.5600 
 22 H       -0.1400     2.5500     1.6150 H     1 <1>   0.1500 
 23 H       -2.4520    -0.6240    -0.0150 H     1 <1>   0.1500 
 24 H       -4.2060     0.9780    -0.6640 H     1 <1>   0.1500 
 25 H       -5.1060     3.1400    -0.7080 H     1 <1>   0.0800 
 26 H       -3.8950     4.3560    -1.0260 H     1 <1>   0.0800 
 27 H       -4.5920     4.2070     0.5710 H     1 <1>   0.0800 
 28 H       -1.2290     7.4860    -0.3300 H     1 <1>   0.0800 
 29 H       -1.5300     7.0960     1.3140 H     1 <1>   0.0800 
 30 H       -0.7380     3.8280    -1.2580 H     1 <1>   0.0800 
 31 H       -1.1720     5.3130    -2.0200 H     1 <1>   0.0800 
 32 H        0.5470     7.9210     1.5150 H     1 <1>   0.0800 
 33 H        1.1540     4.7580    -2.3050 H     1 <1>   0.0800 
 34 H        2.3770     7.2030    -0.0560 H     1 <1>   0.4500 
 35 H        0.6460     5.7390     2.5290 H     1 <1>   0.0800 
 36 H        2.2130     6.2120     1.9550 H     1 <1>   0.0800 
 37 H        2.8150     5.0180    -0.3470 H     1 <1>   0.0800 
 38 H        1.9240     3.5350    -0.5190 H     1 <1>   0.0800 
 39 H        0.2480     7.1290    -2.0630 H     1 <1>   0.0800 
 40 H        1.9480     6.8310    -2.2660 H     1 <1>   0.0800 
 41 H        0.3910     9.2460    -0.8650 H     1 <1>   0.0800 
 42 H        2.0660     9.1980    -1.3740 H     1 <1>   0.0800 
 43 H        1.6730     9.4740     0.3080 H     1 <1>   0.0800 
@<TRIPOS>BOND
  1   1   2  1   
  2   2   3  ar  
  3   2   4  ar  
  4   3   5  ar  
  5   3  22  1   
  6   4   6  ar  
  7   4  23  1   
  8   5   7  ar  
  9   5   8  1   
 10   6   7  ar  
 11   6  24  1   
 12   7   9  1   
 13   8  10  2   
 14   8  11  am  
 15   9  25  1   
 16   9  26  1   
 17   9  27  1   
 18  11  12  1   
 19  11  13  1   
 20  12  14  1   
 21  12  28  1   
 22  12  29  1   
 23  13  15  1   
 24  13  30  1   
 25  13  31  1   
 26  14  16  1   
 27  14  17  1   
 28  14  32  1   
 29  15  18  1   
 30  15  19  1   
 31  15  33  1   
 32  16  19  1   
 33  16  20  1   
 34  16  34  1   
 35  17  21  1   
 36  17  35  1   
 37  17  36  1   
 38  18  21  1   
 39  18  37  1   
 40  18  38  1   
 41  19  39  1   
 42  19  40  1   
 43  20  41  1   
 44  20  42  1   
 45  20  43  1   
@<TRIPOS>SUBSTRUCTURE
  1 ****  11 GROUP 4 **** **** 0

# MOE 2024.06 (io_trps.svl 2023.06)
