@<TRIPOS>MOLECULE
NONAME
62 65 1 0 0 
SMALL
USER_CHARGES


@<TRIPOS>ATOM
  1 O        0.2020     0.9910    -1.1020 O.3   1 <1>  -0.6800 
  2 C        0.9310    -0.1190    -1.5110 C.3   1 <1>   0.2000 
  3 C        0.7200    -1.2240    -0.4790 C.3   1 <1>  -0.0800 
  4 C        2.4080     0.2340    -1.3590 C.3   1 <1>   0.3430 
  5 C        1.6960    -0.8480     0.6490 C.3   1 <1>   0.3430 
  6 C        0.9520    -2.6440    -1.0570 C.3   1 <1>  -0.0160 
  7 N        2.6790     0.1590     0.1120 N.4   1 <1>  -0.9590 
  8 C        2.4170    -2.9640    -1.3580 C.ar  1 <1>  -0.1430 
  9 C        4.1020    -0.0960     0.4950 C.3   1 <1>   0.4230 
 10 C        3.2950    -3.5400    -0.4050 C.ar  1 <1>   0.0000 
 11 C        2.9230    -2.7000    -2.5980 C.ar  1 <1>  -0.1500 
 12 C        4.2600     0.1310     2.0000 C.3   1 <1>  -0.1600 
 13 C        5.0470     0.8580    -0.2420 C.3   1 <1>  -0.1600 
 14 C        4.6500    -3.7090    -0.7830 C.ar  1 <1>   0.3100 
 15 C        2.9150    -3.9890     0.8830 C.ar  1 <1>  -0.1500 
 16 C        4.2850    -2.8840    -2.8600 C.ar  1 <1>   0.1600 
 17 C        5.7020    -0.0720     2.4850 C.3   1 <1>   0.5030 
 18 C        6.5140     0.6510     0.1600 C.3   1 <1>   0.5030 
 19 N        5.1350    -3.3080    -1.9810 N.ar  1 <1>  -0.6200 
 20 C        5.5420    -4.3180     0.1140 C.ar  1 <1>  -0.1500 
 21 C        3.8120    -4.5650     1.7400 C.ar  1 <1>  -0.1500 
 22 N        6.6680     0.6190     1.6200 N.4   1 <1>  -0.9060 
 23 C        5.8720     0.5470     3.8710 C.3   1 <1>  -0.2400 
 24 C        6.0640    -1.5530     2.5780 C.3   1 <1>  -0.2400 
 25 C        7.1000    -0.6200    -0.4560 C.3   1 <1>  -0.2400 
 26 C        7.3480     1.8390    -0.3150 C.3   1 <1>  -0.2400 
 27 C        5.1420    -4.7380     1.3520 C.ar  1 <1>  -0.1500 
 28 H       -0.7440     0.9130    -1.3550 H     1 <1>   0.4000 
 29 H        0.6530    -0.3750    -2.5190 H     1 <1>   0.0800 
 30 H       -0.2920    -1.1940    -0.1100 H     1 <1>   0.0800 
 31 H        2.6060     1.2160    -1.7560 H     1 <1>   0.0800 
 32 H        3.0130    -0.4850    -1.8790 H     1 <1>   0.0800 
 33 H        2.2040    -1.7220     1.0150 H     1 <1>   0.0800 
 34 H        1.1450    -0.4090     1.4650 H     1 <1>   0.0800 
 35 H        0.3780    -2.7460    -1.9630 H     1 <1>   0.0800 
 36 H        0.5470    -3.3790    -0.3850 H     1 <1>   0.0800 
 37 H        2.3620     1.0730     0.4700 H     1 <1>   0.4500 
 38 H        4.3590    -1.1150     0.2470 H     1 <1>   0.0800 
 39 H        2.3060    -2.3340    -3.4000 H     1 <1>   0.1500 
 40 H        3.6250    -0.5450     2.5460 H     1 <1>   0.0800 
 41 H        3.9460     1.1320     2.2390 H     1 <1>   0.0800 
 42 H        4.7600     1.8750    -0.0370 H     1 <1>   0.0800 
 43 H        4.9810     0.7060    -1.3040 H     1 <1>   0.0800 
 44 H        1.8940    -3.9050     1.2050 H     1 <1>   0.1500 
 45 H        4.6510    -2.6460    -3.8470 H     1 <1>   0.1500 
 46 H        6.5570    -4.4580    -0.2130 H     1 <1>   0.1500 
 47 H        3.5060    -4.9140     2.7140 H     1 <1>   0.1500 
 48 H        7.5950     0.2300     1.8210 H     1 <1>   0.4500 
 49 H        6.7180     1.5900     1.9390 H     1 <1>   0.4500 
 50 H        5.1950     0.0850     4.5690 H     1 <1>   0.0800 
 51 H        5.6570     1.6020     3.8630 H     1 <1>   0.0800 
 52 H        6.8700     0.3980     4.2450 H     1 <1>   0.0800 
 53 H        5.4790    -2.0260     3.3490 H     1 <1>   0.0800 
 54 H        7.1010    -1.6890     2.8330 H     1 <1>   0.0800 
 55 H        5.8540    -2.0750     1.6700 H     1 <1>   0.0800 
 56 H        7.1660    -0.5120    -1.5250 H     1 <1>   0.0800 
 57 H        6.4930    -1.4840    -0.2810 H     1 <1>   0.0800 
 58 H        8.0950    -0.8100    -0.0930 H     1 <1>   0.0800 
 59 H        7.2880     1.9280    -1.3870 H     1 <1>   0.0800 
 60 H        8.3870     1.7100    -0.0630 H     1 <1>   0.0800 
 61 H        6.9980     2.7650     0.1060 H     1 <1>   0.0800 
 62 H        5.8340    -5.2140     2.0280 H     1 <1>   0.1500 
@<TRIPOS>BOND
  1   1   2  1   
  2   1  28  1   
  3   2   3  1   
  4   2   4  1   
  5   2  29  1   
  6   3   5  1   
  7   3   6  1   
  8   3  30  1   
  9   4   7  1   
 10   4  31  1   
 11   4  32  1   
 12   5   7  1   
 13   5  33  1   
 14   5  34  1   
 15   6   8  1   
 16   6  35  1   
 17   6  36  1   
 18   7   9  1   
 19   7  37  1   
 20   8  10  ar  
 21   8  11  ar  
 22   9  12  1   
 23   9  13  1   
 24   9  38  1   
 25  10  14  ar  
 26  10  15  ar  
 27  11  16  ar  
 28  11  39  1   
 29  12  17  1   
 30  12  40  1   
 31  12  41  1   
 32  13  18  1   
 33  13  42  1   
 34  13  43  1   
 35  14  19  ar  
 36  14  20  ar  
 37  15  21  ar  
 38  15  44  1   
 39  16  19  ar  
 40  16  45  1   
 41  17  22  1   
 42  17  23  1   
 43  17  24  1   
 44  18  22  1   
 45  18  25  1   
 46  18  26  1   
 47  20  27  ar  
 48  20  46  1   
 49  21  27  ar  
 50  21  47  1   
 51  22  48  1   
 52  22  49  1   
 53  23  50  1   
 54  23  51  1   
 55  23  52  1   
 56  24  53  1   
 57  24  54  1   
 58  24  55  1   
 59  25  56  1   
 60  25  57  1   
 61  25  58  1   
 62  26  59  1   
 63  26  60  1   
 64  26  61  1   
 65  27  62  1   
@<TRIPOS>SUBSTRUCTURE
  1 ****   9 GROUP 4 **** **** 0

# MOE 2024.06 (io_trps.svl 2023.06)
