@<TRIPOS>MOLECULE
NONAME
59 62 1 0 0 
SMALL
USER_CHARGES


@<TRIPOS>ATOM
  1 O        3.2210     1.2690     1.9320 O.3   1 <1>  -0.6800 
  2 C        2.5880     0.6510     0.8670 C.3   1 <1>   0.2000 
  3 C        3.6250     0.0370    -0.1400 C.3   1 <1>   0.0000 
  4 C        1.7060     1.7350     0.2300 C.3   1 <1>  -0.1600 
  5 C        3.8390     1.0110    -1.3220 C.3   1 <1>   0.3430 
  6 C        3.0290    -1.2710    -0.7120 C.3   1 <1>   0.1200 
  7 C        4.9970    -0.3480     0.5110 C.3   1 <1>  -0.0170 
  8 C        2.5330     2.8810    -0.3700 C.3   1 <1>   0.3430 
  9 N        3.8800     2.4120    -0.8220 N.4   1 <1>  -0.9590 
 10 O        1.8780    -1.0020    -1.4370 O.3   1 <1>  -0.6800 
 11 C        6.0820     0.7270     0.4250 C.ar  1 <1>  -0.1430 
 12 C        4.5690     3.3370    -1.7590 C.3   1 <1>   0.4860 
 13 C        6.9140     0.7940    -0.6850 C.ar  1 <1>  -0.1500 
 14 C        6.2570     1.6440     1.4500 C.ar  1 <1>  -0.1500 
 15 C        4.4020     4.7780    -1.3080 C.ar  1 <1>  -0.1430 
 16 C        7.8730     1.7870    -0.7880 C.ar  1 <1>  -0.1500 
 17 C        7.2190     2.6330     1.3520 C.ar  1 <1>  -0.1500 
 18 C        5.0840     5.2510    -0.1970 C.ar  1 <1>  -0.1500 
 19 C        3.5650     5.6350    -2.0070 C.ar  1 <1>  -0.1500 
 20 C        8.0200     2.7130     0.2280 C.ar  1 <1>  -0.1500 
 21 C        4.9400     6.5650     0.2190 C.ar  1 <1>  -0.1430 
 22 C        3.4120     6.9460    -1.5940 C.ar  1 <1>  -0.1500 
 23 C        4.0970     7.4100    -0.4850 C.ar  1 <1>  -0.1500 
 24 C        5.7010     7.0760     1.4400 C.3   1 <1>   0.2390 
 25 N        7.1460     6.7700     1.3480 N.pl3 1 <1>   0.3140 
 26 N        7.7670     5.9820     2.2480 N.2   1 <1>  -0.7070 
 27 C        8.0120     7.2160     0.4140 C.2   1 <1>  -0.3020 
 28 C        9.0100     5.9580     1.8710 C.2   1 <1>   0.1390 
 29 C        9.2250     6.7100     0.7230 C.2   1 <1>  -0.1500 
 30 H        2.5970     1.4000     2.6760 H     1 <1>   0.4000 
 31 H        1.9730    -0.1310     1.2820 H     1 <1>   0.0800 
 32 H        1.1100     1.2980    -0.5510 H     1 <1>   0.0800 
 33 H        1.0130     2.1280     0.9520 H     1 <1>   0.0800 
 34 H        3.0270     0.9160    -2.0240 H     1 <1>   0.0800 
 35 H        4.7510     0.7630    -1.8370 H     1 <1>   0.0800 
 36 H        2.7750    -1.9540     0.0820 H     1 <1>   0.0800 
 37 H        3.7230    -1.7560    -1.3780 H     1 <1>   0.0800 
 38 H        4.8550    -0.6360     1.5390 H     1 <1>   0.0800 
 39 H        5.4000    -1.2200     0.0250 H     1 <1>   0.0800 
 40 H        2.6680     3.6490     0.3750 H     1 <1>   0.0800 
 41 H        1.9930     3.3130    -1.1970 H     1 <1>   0.0800 
 42 H        4.4650     2.3710     0.0340 H     1 <1>   0.4500 
 43 H        1.4560    -1.8330    -1.7490 H     1 <1>   0.4000 
 44 H        5.6190     3.0950    -1.8020 H     1 <1>   0.0800 
 45 H        4.1550     3.2290    -2.7480 H     1 <1>   0.0800 
 46 H        6.8310     0.0690    -1.4770 H     1 <1>   0.1500 
 47 H        5.6570     1.5950     2.3420 H     1 <1>   0.1500 
 48 H        8.5150     1.8350    -1.6520 H     1 <1>   0.1500 
 49 H        7.3490     3.3400     2.1550 H     1 <1>   0.1500 
 50 H        5.7410     4.5970     0.3500 H     1 <1>   0.1500 
 51 H        3.0280     5.2980    -2.8770 H     1 <1>   0.1500 
 52 H        8.7630     3.4890     0.1560 H     1 <1>   0.1500 
 53 H        2.7620     7.6110    -2.1380 H     1 <1>   0.1500 
 54 H        3.9670     8.4350    -0.1800 H     1 <1>   0.1500 
 55 H        5.3150     6.6120     2.3280 H     1 <1>   0.0800 
 56 H        5.5920     8.1400     1.5380 H     1 <1>   0.0800 
 57 H        7.7210     7.8540    -0.3990 H     1 <1>   0.1500 
 58 H        9.7780     5.4130     2.3940 H     1 <1>   0.1500 
 59 H       10.1640     6.8440     0.2170 H     1 <1>   0.1500 
@<TRIPOS>BOND
  1   1   2  1   
  2   1  30  1   
  3   2   3  1   
  4   2   4  1   
  5   2  31  1   
  6   3   5  1   
  7   3   6  1   
  8   3   7  1   
  9   4   8  1   
 10   4  32  1   
 11   4  33  1   
 12   5   9  1   
 13   5  34  1   
 14   5  35  1   
 15   6  10  1   
 16   6  36  1   
 17   6  37  1   
 18   7  11  1   
 19   7  38  1   
 20   7  39  1   
 21   8   9  1   
 22   8  40  1   
 23   8  41  1   
 24   9  12  1   
 25   9  42  1   
 26  10  43  1   
 27  11  13  ar  
 28  11  14  ar  
 29  12  15  1   
 30  12  44  1   
 31  12  45  1   
 32  13  16  ar  
 33  13  46  1   
 34  14  17  ar  
 35  14  47  1   
 36  15  18  ar  
 37  15  19  ar  
 38  16  20  ar  
 39  16  48  1   
 40  17  20  ar  
 41  17  49  1   
 42  18  21  ar  
 43  18  50  1   
 44  19  22  ar  
 45  19  51  1   
 46  20  52  1   
 47  21  23  ar  
 48  21  24  1   
 49  22  23  ar  
 50  22  53  1   
 51  23  54  1   
 52  24  25  1   
 53  24  55  1   
 54  24  56  1   
 55  25  26  1   
 56  25  27  1   
 57  26  28  2   
 58  27  29  2   
 59  27  57  1   
 60  28  29  1   
 61  28  58  1   
 62  29  59  1   
@<TRIPOS>SUBSTRUCTURE
  1 ****   9 GROUP 4 **** **** 0

# MOE 2024.06 (io_trps.svl 2023.06)
