@<TRIPOS>MOLECULE
NONAME
43 45 1 0 0 
SMALL
USER_CHARGES


@<TRIPOS>ATOM
  1 CL       3.4080     1.5860     4.1270 Cl    1 <1>  -0.1230 
  2 C        3.4890     0.5040     2.7460 C.2   1 <1>   0.1230 
  3 C        3.5380     0.8530     1.3910 C.2   1 <1>   0.2030 
  4 C        3.5310    -0.8350     2.8220 C.2   1 <1>  -0.3020 
  5 N        3.6270    -0.2610     0.6710 N.2   1 <1>  -0.7070 
  6 C        3.4830     2.2190     0.8800 C.2   1 <1>   0.7160 
  7 N        3.6070    -1.2750     1.5530 N.pl3 1 <1>   0.3140 
  8 O        3.0120     3.1150     1.5570 O.2   1 <1>  -0.5700 
  9 N        3.9530     2.5850    -0.3780 N.am  1 <1>  -0.6600 
 10 C        3.6540    -2.6810     1.1330 C.3   1 <1>   0.0160 
 11 C        4.8870     1.7280    -1.1730 C.3   1 <1>   0.1400 
 12 C        3.3490     3.7530    -1.0820 C.3   1 <1>   0.1400 
 13 C        5.9670     2.5370    -1.9140 C.3   1 <1>   0.3430 
 14 C        4.2170     5.0000    -0.8880 C.3   1 <1>  -0.1600 
 15 N        6.3590     3.7670    -1.1530 N.4   1 <1>  -0.9590 
 16 C        5.5760     4.9600    -1.5860 C.3   1 <1>   0.3430 
 17 C        7.8420     4.0150    -1.1600 C.3   1 <1>   0.5230 
 18 C        8.2580     5.0780    -0.1530 C.2   1 <1>   0.1980 
 19 S        9.9040     5.6030    -0.1590 S.3   1 <1>  -0.0800 
 20 N        7.5520     5.6650     0.7270 N.2   1 <1>  -0.3380 
 21 C        9.4780     6.6690     1.1340 C.2   1 <1>   0.1980 
 22 N        8.2520     6.5800     1.4620 N.2   1 <1>  -0.3380 
 23 C       10.5540     7.5570     1.7180 C.3   1 <1>  -0.0600 
 24 H        3.5120    -1.4770     3.6820 H     1 <1>   0.1500 
 25 H        4.5210    -3.1510     1.5590 H     1 <1>   0.0800 
 26 H        3.7050    -2.7310     0.0610 H     1 <1>   0.0800 
 27 H        2.7650    -3.1800     1.4720 H     1 <1>   0.0800 
 28 H        4.3240     1.1350    -1.8740 H     1 <1>   0.0800 
 29 H        5.3970     1.0470    -0.5150 H     1 <1>   0.0800 
 30 H        2.3680     3.9440    -0.6750 H     1 <1>   0.0800 
 31 H        3.2210     3.5320    -2.1280 H     1 <1>   0.0800 
 32 H        5.5930     2.8150    -2.8860 H     1 <1>   0.0800 
 33 H        6.8210     1.8990    -2.0660 H     1 <1>   0.0800 
 34 H        4.3520     5.1830     0.1650 H     1 <1>   0.0800 
 35 H        3.6750     5.8440    -1.2750 H     1 <1>   0.0800 
 36 H        6.0770     3.6220    -0.1660 H     1 <1>   0.4500 
 37 H        6.1070     5.8630    -1.3270 H     1 <1>   0.0800 
 38 H        5.4420     4.9480    -2.6560 H     1 <1>   0.0800 
 39 H        8.1530     4.3250    -2.1440 H     1 <1>   0.0800 
 40 H        8.3600     3.1040    -0.9150 H     1 <1>   0.0800 
 41 H       10.9480     8.2050     0.9570 H     1 <1>   0.0800 
 42 H       11.3490     6.9560     2.1190 H     1 <1>   0.0800 
 43 H       10.1400     8.1580     2.5070 H     1 <1>   0.0800 
@<TRIPOS>BOND
  1   1   2  1   
  2   2   3  1   
  3   2   4  2   
  4   3   5  2   
  5   3   6  1   
  6   4   7  1   
  7   4  24  1   
  8   5   7  1   
  9   6   8  2   
 10   6   9  am  
 11   7  10  1   
 12   9  11  1   
 13   9  12  1   
 14  10  25  1   
 15  10  26  1   
 16  10  27  1   
 17  11  13  1   
 18  11  28  1   
 19  11  29  1   
 20  12  14  1   
 21  12  30  1   
 22  12  31  1   
 23  13  15  1   
 24  13  32  1   
 25  13  33  1   
 26  14  16  1   
 27  14  34  1   
 28  14  35  1   
 29  15  16  1   
 30  15  17  1   
 31  15  36  1   
 32  16  37  1   
 33  16  38  1   
 34  17  18  1   
 35  17  39  1   
 36  17  40  1   
 37  18  19  1   
 38  18  20  2   
 39  19  21  1   
 40  20  22  1   
 41  21  22  2   
 42  21  23  1   
 43  23  41  1   
 44  23  42  1   
 45  23  43  1   
@<TRIPOS>SUBSTRUCTURE
  1 ****   9 GROUP 4 **** **** 0

# MOE 2024.06 (io_trps.svl 2023.06)
