@<TRIPOS>MOLECULE
NONAME
60 63 1 0 0 
SMALL
USER_CHARGES


@<TRIPOS>ATOM
  1 O        0.6880    -0.1630     1.1370 O.2   1 <1>  -0.5700 
  2 C        1.5060    -0.9700     0.7400 C.2   1 <1>   0.5440 
  3 N        2.6540    -0.5240     0.1150 N.am  1 <1>  -0.6600 
  4 C        1.2340    -2.3800     0.9340 C.ar  1 <1>   0.0860 
  5 C        3.5270    -1.3820    -0.7350 C.3   1 <1>   0.1400 
  6 C        3.0040     0.9250     0.0740 C.3   1 <1>   0.1400 
  7 C        0.0610    -2.9640     0.5000 C.ar  1 <1>  -0.1500 
  8 C        2.1130    -3.2380     1.5810 C.ar  1 <1>  -0.1500 
  9 C        3.4710    -0.8950    -2.1870 C.3   1 <1>  -0.1600 
 10 C        2.9400     1.4310    -1.3700 C.3   1 <1>  -0.1600 
 11 C       -0.1760    -4.3140     0.7000 C.ar  1 <1>   0.4100 
 12 C        1.7920    -4.5720     1.7340 C.ar  1 <1>   0.1600 
 13 C        3.8270     0.5940    -2.3030 C.3   1 <1>  -0.1600 
 14 N        0.6730    -5.1320     1.3060 N.ar  1 <1>  -0.6200 
 15 N       -1.3600    -4.8730     0.2770 N.pl3 1 <1>  -0.8380 
 16 C       -1.2160    -5.9350    -0.7820 C.3   1 <1>   0.2090 
 17 C       -2.2920    -5.1980     1.4040 C.3   1 <1>   0.2090 
 18 C       -2.3030    -7.0420    -0.7360 C.3   1 <1>   0.4230 
 19 C       -3.6600    -5.7530     0.9420 C.3   1 <1>   0.3430 
 20 N       -3.6340    -6.4220    -0.4110 N.4   1 <1>  -0.9590 
 21 C       -1.9430    -8.1890     0.2360 C.3   1 <1>  -0.1600 
 22 C       -4.7660    -7.3520    -0.6420 C.3   1 <1>   0.4380 
 23 C       -1.8910    -9.5430    -0.4740 C.3   1 <1>   0.1200 
 24 C       -6.0640    -6.5450    -0.6650 C.3   1 <1>  -0.1950 
 25 O       -3.0800    -9.7280    -1.1570 O.3   1 <1>  -0.6800 
 26 C       -7.1590    -6.9120    -1.6160 C.3   1 <1>  -0.2000 
 27 C       -6.3990    -5.6310    -1.8050 C.3   1 <1>  -0.2000 
 28 H        3.2150    -2.4100    -0.6990 H     1 <1>   0.0800 
 29 H        4.5370    -1.3230    -0.3690 H     1 <1>   0.0800 
 30 H        3.9990     1.0540     0.4630 H     1 <1>   0.0800 
 31 H        2.3330     1.5000     0.6900 H     1 <1>   0.0800 
 32 H       -0.6820    -2.3660     0.0060 H     1 <1>   0.1500 
 33 H        3.0420    -2.8550     1.9640 H     1 <1>   0.1500 
 34 H        2.4790    -1.0590    -2.5700 H     1 <1>   0.0800 
 35 H        4.1520    -1.4750    -2.7840 H     1 <1>   0.0800 
 36 H        3.2510     2.4600    -1.4000 H     1 <1>   0.0800 
 37 H        1.9170     1.3880    -1.7030 H     1 <1>   0.0800 
 38 H        2.4940    -5.2150     2.2400 H     1 <1>   0.1500 
 39 H        3.6960     0.9220    -3.3190 H     1 <1>   0.0800 
 40 H        4.8600     0.7370    -2.0350 H     1 <1>   0.0800 
 41 H       -0.2400    -6.3880    -0.7320 H     1 <1>   0.0800 
 42 H       -1.2740    -5.4500    -1.7400 H     1 <1>   0.0800 
 43 H       -2.4520    -4.3160     2.0000 H     1 <1>   0.0800 
 44 H       -1.8210    -5.9250     2.0440 H     1 <1>   0.0800 
 45 H       -2.3540    -7.4690    -1.7240 H     1 <1>   0.0800 
 46 H       -4.3660    -4.9390     0.9150 H     1 <1>   0.0800 
 47 H       -4.0070    -6.4490     1.6860 H     1 <1>   0.0800 
 48 H       -3.7450    -5.6560    -1.0860 H     1 <1>   0.4500 
 49 H       -2.6380    -8.2580     1.0520 H     1 <1>   0.0800 
 50 H       -0.9730    -8.0130     0.6690 H     1 <1>   0.0800 
 51 H       -4.8010    -8.1130     0.1210 H     1 <1>   0.0800 
 52 H       -4.6390    -7.8410    -1.5950 H     1 <1>   0.0800 
 53 H       -1.7750   -10.3440     0.2380 H     1 <1>   0.0800 
 54 H       -1.0820    -9.5800    -1.1860 H     1 <1>   0.0800 
 55 H       -6.3920    -6.2680     0.3220 H     1 <1>   0.1000 
 56 H       -3.1100   -10.6300    -1.5460 H     1 <1>   0.4000 
 57 H       -8.1840    -6.8530    -1.2860 H     1 <1>   0.1000 
 58 H       -7.0100    -7.7030    -2.3330 H     1 <1>   0.1000 
 59 H       -5.7560    -5.5620    -2.6660 H     1 <1>   0.1000 
 60 H       -6.9120    -4.7050    -1.6040 H     1 <1>   0.1000 
@<TRIPOS>BOND
  1   1   2  2   
  2   2   3  am  
  3   2   4  1   
  4   3   5  1   
  5   3   6  1   
  6   4   7  ar  
  7   4   8  ar  
  8   5   9  1   
  9   5  28  1   
 10   5  29  1   
 11   6  10  1   
 12   6  30  1   
 13   6  31  1   
 14   7  11  ar  
 15   7  32  1   
 16   8  12  ar  
 17   8  33  1   
 18   9  13  1   
 19   9  34  1   
 20   9  35  1   
 21  10  13  1   
 22  10  36  1   
 23  10  37  1   
 24  11  14  ar  
 25  11  15  1   
 26  12  14  ar  
 27  12  38  1   
 28  13  39  1   
 29  13  40  1   
 30  15  16  1   
 31  15  17  1   
 32  16  18  1   
 33  16  41  1   
 34  16  42  1   
 35  17  19  1   
 36  17  43  1   
 37  17  44  1   
 38  18  20  1   
 39  18  21  1   
 40  18  45  1   
 41  19  20  1   
 42  19  46  1   
 43  19  47  1   
 44  20  22  1   
 45  20  48  1   
 46  21  23  1   
 47  21  49  1   
 48  21  50  1   
 49  22  24  1   
 50  22  51  1   
 51  22  52  1   
 52  23  25  1   
 53  23  53  1   
 54  23  54  1   
 55  24  26  1   
 56  24  27  1   
 57  24  55  1   
 58  25  56  1   
 59  26  27  1   
 60  26  57  1   
 61  26  58  1   
 62  27  59  1   
 63  27  60  1   
@<TRIPOS>SUBSTRUCTURE
  1 ****  11 GROUP 4 **** **** 0

# MOE 2024.06 (io_trps.svl 2023.06)
