@<TRIPOS>MOLECULE
NONAME
37 38 1 0 0 
SMALL
USER_CHARGES


@<TRIPOS>ATOM
  1 O        0.3150    -0.5980     0.8130 O.co2 1 <1>  -0.9000 
  2 C        1.2260    -0.4630    -0.0010 C.2   1 <1>   0.9060 
  3 O        1.2150    -0.9490    -1.1380 O.co2 1 <1>  -0.9000 
  4 C        2.4550     0.3080     0.4220 C.3   1 <1>  -0.1860 
  5 C        3.6950    -0.5710     0.2360 C.3   1 <1>   0.2000 
  6 C        2.5860     1.6690    -0.3110 C.3   1 <1>  -0.1600 
  7 O        3.8300    -0.8610    -1.1120 O.3   1 <1>  -0.6800 
  8 C        4.9630     0.1700     0.7010 C.3   1 <1>   0.3430 
  9 C        4.0260     2.0190    -0.6980 C.3   1 <1>   0.3430 
 10 N        4.9520     1.6580     0.4180 N.4   1 <1>  -0.9590 
 11 C        6.3240     2.1620     0.1710 C.3   1 <1>   0.4860 
 12 C        6.3030     3.6770     0.1960 C.ar  1 <1>  -0.1440 
 13 C        6.1980     4.3580     1.4000 C.ar  1 <1>  -0.1500 
 14 C        6.3870     4.3970    -0.9870 C.ar  1 <1>  -0.1500 
 15 C        6.1680     5.7420     1.4180 C.ar  1 <1>  -0.1500 
 16 C        6.3560     5.7800    -0.9650 C.ar  1 <1>  -0.1500 
 17 C        6.2430     6.4590     0.2360 C.ar  1 <1>  -0.1440 
 18 C        6.2120     7.9770     0.2580 C.3   1 <1>  -0.0970 
 19 H        2.3470     0.5000     1.4730 H     1 <1>   0.0800 
 20 H        3.5820    -1.5080     0.7560 H     1 <1>   0.0800 
 21 H        2.1650     2.4490     0.2990 H     1 <1>   0.0800 
 22 H        2.0080     1.6400    -1.2190 H     1 <1>   0.0800 
 23 H        2.8990    -1.0740    -1.4370 H     1 <1>   0.4000 
 24 H        5.8040    -0.2970     0.2170 H     1 <1>   0.0800 
 25 H        5.0690     0.0220     1.7620 H     1 <1>   0.0800 
 26 H        4.0900     3.0710    -0.9260 H     1 <1>   0.0800 
 27 H        4.2970     1.4620    -1.5810 H     1 <1>   0.0800 
 28 H        4.5820     2.1450     1.2410 H     1 <1>   0.4500 
 29 H        6.9920     1.8070     0.9380 H     1 <1>   0.0800 
 30 H        6.6800     1.8100    -0.7830 H     1 <1>   0.0800 
 31 H        6.1440     3.8290     2.3360 H     1 <1>   0.1500 
 32 H        6.4790     3.8950    -1.9350 H     1 <1>   0.1500 
 33 H        6.0900     6.2630     2.3570 H     1 <1>   0.1500 
 34 H        6.4240     6.3300    -1.8880 H     1 <1>   0.1500 
 35 H        5.6320     8.3310     1.0910 H     1 <1>   0.0800 
 36 H        5.7730     8.3590    -0.6460 H     1 <1>   0.0800 
 37 H        7.2130     8.3600     0.3450 H     1 <1>   0.0800 
@<TRIPOS>BOND
  1   1   2  ar  
  2   2   3  ar  
  3   2   4  1   
  4   4   5  1   
  5   4   6  1   
  6   4  19  1   
  7   5   7  1   
  8   5   8  1   
  9   5  20  1   
 10   6   9  1   
 11   6  21  1   
 12   6  22  1   
 13   7  23  1   
 14   8  10  1   
 15   8  24  1   
 16   8  25  1   
 17   9  10  1   
 18   9  26  1   
 19   9  27  1   
 20  10  11  1   
 21  10  28  1   
 22  11  12  1   
 23  11  29  1   
 24  11  30  1   
 25  12  13  ar  
 26  12  14  ar  
 27  13  15  ar  
 28  13  31  1   
 29  14  16  ar  
 30  14  32  1   
 31  15  17  ar  
 32  15  33  1   
 33  16  17  ar  
 34  16  34  1   
 35  17  18  1   
 36  18  35  1   
 37  18  36  1   
 38  18  37  1   
@<TRIPOS>SUBSTRUCTURE
  1 ****   9 GROUP 4 **** **** 0

# MOE 2024.06 (io_trps.svl 2023.06)
