@<TRIPOS>MOLECULE
NONAME
43 45 1 0 0 
SMALL
USER_CHARGES


@<TRIPOS>ATOM
  1 S        0.6320     0.2380     0.1310 S.3   1 <1>  -0.3320 
  2 C       -0.4710    -0.9940    -0.5270 C.ar  1 <1>   0.7220 
  3 C       -0.2300     1.8340    -0.2250 C.3   1 <1>   0.2500 
  4 N       -0.0540    -2.2400    -0.3840 N.ar  1 <1>  -0.6200 
  5 N       -1.5830    -0.5400    -1.0860 N.ar  1 <1>  -0.6200 
  6 C        0.6030     2.9970     0.2860 C.2   1 <1>  -0.0400 
  7 C       -0.8690    -3.1480    -0.8700 C.ar  1 <1>   0.1600 
  8 C       -2.3730    -1.4770    -1.5610 C.ar  1 <1>   0.1600 
  9 O        0.1360     4.2130     0.1130 O.3   1 <1>  -0.2800 
 10 C        1.7950     3.0470     0.9200 C.2   1 <1>  -0.1500 
 11 C       -2.0580    -2.8130    -1.4770 C.ar  1 <1>  -0.1500 
 12 C        0.9960     5.0920     0.6210 C.2   1 <1>   0.0550 
 13 C        2.0510     4.4010     1.1380 C.2   1 <1>  -0.1500 
 14 C        0.7360     6.5140     0.5670 C.2   1 <1>   0.7150 
 15 O       -0.2690     6.9770     0.0570 O.2   1 <1>  -0.5700 
 16 N        1.6350     7.3890     1.0980 N.am  1 <1>  -0.7300 
 17 C        1.5620     8.8590     0.9890 C.3   1 <1>   0.3210 
 18 C        2.9700     9.4230     0.8800 C.2   1 <1>   0.1080 
 19 N        3.9700     9.0260     1.5890 N.2   1 <1>  -0.4100 
 20 C        3.3630    10.4310     0.0010 C.2   1 <1>  -0.1500 
 21 O        4.9900     9.7360     1.2050 O.3   1 <1>  -0.0190 
 22 C        4.6720    10.5830     0.2610 C.2   1 <1>  -0.0400 
 23 C        5.7440    11.4990    -0.3140 C.3   1 <1>   0.1000 
 24 C        5.1390    12.5520    -1.2510 C.3   1 <1>  -0.2400 
 25 C        6.7980    10.6760    -1.0600 C.3   1 <1>  -0.2400 
 26 H       -1.1850     1.8010     0.2660 H     1 <1>   0.0800 
 27 H       -0.3630     1.8970    -1.2900 H     1 <1>   0.0800 
 28 H       -0.5810    -4.1830    -0.7820 H     1 <1>   0.1500 
 29 H       -3.2950    -1.1710    -2.0290 H     1 <1>   0.1500 
 30 H        2.4360     2.2320     1.2100 H     1 <1>   0.1500 
 31 H       -2.7140    -3.5670    -1.8700 H     1 <1>   0.1500 
 32 H        2.9280     4.7880     1.6250 H     1 <1>   0.1500 
 33 H        2.5270     7.0560     1.4680 H     1 <1>   0.3700 
 34 H        1.0850     9.2560     1.8680 H     1 <1>   0.0800 
 35 H        0.9850     9.1390     0.1250 H     1 <1>   0.0800 
 36 H        2.7390    10.9420    -0.7070 H     1 <1>   0.1500 
 37 H        6.2200    12.0090     0.5070 H     1 <1>   0.0800 
 38 H        4.6660    12.0810    -2.0940 H     1 <1>   0.0800 
 39 H        5.9070    13.2120    -1.6130 H     1 <1>   0.0800 
 40 H        4.4090    13.1390    -0.7240 H     1 <1>   0.0800 
 41 H        6.3460    10.1380    -1.8750 H     1 <1>   0.0800 
 42 H        7.2520     9.9660    -0.3920 H     1 <1>   0.0800 
 43 H        7.5690    11.3170    -1.4500 H     1 <1>   0.0800 
@<TRIPOS>BOND
  1   1   2  1   
  2   1   3  1   
  3   2   4  ar  
  4   2   5  ar  
  5   3   6  1   
  6   3  26  1   
  7   3  27  1   
  8   4   7  ar  
  9   5   8  ar  
 10   6   9  1   
 11   6  10  2   
 12   7  11  ar  
 13   7  28  1   
 14   8  11  ar  
 15   8  29  1   
 16   9  12  1   
 17  10  13  1   
 18  10  30  1   
 19  11  31  1   
 20  12  13  2   
 21  12  14  1   
 22  13  32  1   
 23  14  15  2   
 24  14  16  am  
 25  16  17  1   
 26  16  33  1   
 27  17  18  1   
 28  17  34  1   
 29  17  35  1   
 30  18  19  2   
 31  18  20  1   
 32  19  21  1   
 33  20  22  2   
 34  20  36  1   
 35  21  22  1   
 36  22  23  1   
 37  23  24  1   
 38  23  25  1   
 39  23  37  1   
 40  24  38  1   
 41  24  39  1   
 42  24  40  1   
 43  25  41  1   
 44  25  42  1   
 45  25  43  1   
@<TRIPOS>SUBSTRUCTURE
  1 ****  12 GROUP 4 **** **** 0

# MOE 2024.06 (io_trps.svl 2023.06)
