@<TRIPOS>MOLECULE
NONAME
47 49 1 0 0 
SMALL
USER_CHARGES


@<TRIPOS>ATOM
  1 S       -0.1460    -0.1180     2.0520 S.o2  1 <1>   1.5000 
  2 O        0.1940     1.1580     2.6460 O.2   1 <1>  -0.6500 
  3 O       -0.7780    -1.1300     2.8710 O.2   1 <1>  -0.6500 
  4 N       -1.2040     0.2090     0.7680 N.am  1 <1>  -0.8490 
  5 C        1.2800    -0.8560     1.2160 C.2   1 <1>  -0.0220 
  6 C       -2.5610     0.4960     1.2580 C.3   1 <1>   0.1960 
  7 C       -0.7280     1.3160    -0.0680 C.3   1 <1>   0.1960 
  8 S        2.7720     0.0760     1.1190 S.3   1 <1>  -0.0800 
  9 C        1.4550    -2.0370     0.5870 C.2   1 <1>  -0.1500 
 10 C       -3.5710     0.5930     0.0980 C.3   1 <1>   0.0000 
 11 C       -1.6210     1.4740    -1.3020 C.3   1 <1>  -0.1600 
 12 C        3.5900    -1.1900     0.2210 C.2   1 <1>  -0.1400 
 13 C        2.7580    -2.2290     0.0270 C.2   1 <1>  -0.1500 
 14 C       -4.9850     0.8620     0.6420 C.3   1 <1>   0.2000 
 15 C       -3.0940     1.6750    -0.9090 C.3   1 <1>  -0.1600 
 16 C       -3.7770    -0.7580    -0.6110 C.3   1 <1>  -0.1600 
 17 C        5.0330    -0.9180    -0.1680 C.3   1 <1>   0.0200 
 18 O       -5.1770     2.2110     0.9470 O.3   1 <1>  -0.5600 
 19 C       -5.9420     0.3880    -0.4540 C.3   1 <1>  -0.1600 
 20 C       -5.1790    -0.6970    -1.2290 C.3   1 <1>  -0.1600 
 21 C        5.6490    -2.0800    -0.9530 C.3   1 <1>  -0.2400 
 22 C       -6.3100     2.4890     1.7070 C.3   1 <1>   0.0400 
 23 H       -2.8790    -0.2860     1.9260 H     1 <1>   0.0800 
 24 H       -2.5600     1.4210     1.8130 H     1 <1>   0.0800 
 25 H       -0.7280     2.2330     0.5000 H     1 <1>   0.0800 
 26 H        0.2810     1.1240    -0.3930 H     1 <1>   0.0800 
 27 H        0.6970    -2.7960     0.4930 H     1 <1>   0.1500 
 28 H       -1.2870     2.3230    -1.8720 H     1 <1>   0.0800 
 29 H       -1.5120     0.6060    -1.9250 H     1 <1>   0.0800 
 30 H        3.0000    -3.1400    -0.4930 H     1 <1>   0.1500 
 31 H       -5.1380     0.2770     1.5340 H     1 <1>   0.0800 
 32 H       -3.7110     1.6790    -1.7890 H     1 <1>   0.0800 
 33 H       -3.1800     2.6460    -0.4520 H     1 <1>   0.0800 
 34 H       -3.0230    -0.9710    -1.3470 H     1 <1>   0.0800 
 35 H       -3.7560    -1.5500     0.1190 H     1 <1>   0.0800 
 36 H        5.0710    -0.0240    -0.7660 H     1 <1>   0.0800 
 37 H        5.6090    -0.7460     0.7250 H     1 <1>   0.0800 
 38 H       -6.8470    -0.0060    -0.0290 H     1 <1>   0.0800 
 39 H       -6.1740     1.2040    -1.1160 H     1 <1>   0.0800 
 40 H       -5.6700    -1.6530    -1.1550 H     1 <1>   0.0800 
 41 H       -5.1130    -0.4210    -2.2670 H     1 <1>   0.0800 
 42 H        5.0960    -2.2520    -1.8590 H     1 <1>   0.0800 
 43 H        5.6380    -2.9770    -0.3590 H     1 <1>   0.0800 
 44 H        6.6680    -1.8500    -1.2090 H     1 <1>   0.0800 
 45 H       -6.3320     3.5470     1.8970 H     1 <1>   0.0800 
 46 H       -6.2530     1.9550     2.6400 H     1 <1>   0.0800 
 47 H       -7.1900     2.2040     1.1580 H     1 <1>   0.0800 
@<TRIPOS>BOND
  1   1   2  2   
  2   1   3  2   
  3   1   4  am  
  4   1   5  1   
  5   4   6  1   
  6   4   7  1   
  7   5   8  1   
  8   5   9  2   
  9   6  10  1   
 10   6  23  1   
 11   6  24  1   
 12   7  11  1   
 13   7  25  1   
 14   7  26  1   
 15   8  12  1   
 16   9  13  1   
 17   9  27  1   
 18  10  14  1   
 19  10  15  1   
 20  10  16  1   
 21  11  15  1   
 22  11  28  1   
 23  11  29  1   
 24  12  13  2   
 25  12  17  1   
 26  13  30  1   
 27  14  18  1   
 28  14  19  1   
 29  14  31  1   
 30  15  32  1   
 31  15  33  1   
 32  16  20  1   
 33  16  34  1   
 34  16  35  1   
 35  17  21  1   
 36  17  36  1   
 37  17  37  1   
 38  18  22  1   
 39  19  20  1   
 40  19  38  1   
 41  19  39  1   
 42  20  40  1   
 43  20  41  1   
 44  21  42  1   
 45  21  43  1   
 46  21  44  1   
 47  22  45  1   
 48  22  46  1   
 49  22  47  1   
@<TRIPOS>SUBSTRUCTURE
  1 ****   4 GROUP 4 **** **** 0

# MOE 2024.06 (io_trps.svl 2023.06)
