@<TRIPOS>MOLECULE
NONAME
42 44 1 0 0 
SMALL
USER_CHARGES


@<TRIPOS>ATOM
  1 CL       1.0830     0.6390     1.2310 Cl    1 <1>  -0.1770 
  2 C        1.9530    -0.7490     0.6310 C.ar  1 <1>   0.1770 
  3 C        1.6430    -2.0010     1.1150 C.ar  1 <1>  -0.1500 
  4 C        2.9350    -0.5710    -0.3220 C.ar  1 <1>  -0.1500 
  5 C        2.3160    -3.1280     0.6480 C.ar  1 <1>   0.0860 
  6 C        3.6180    -1.6780    -0.7940 C.ar  1 <1>  -0.1500 
  7 C        3.3170    -2.9460    -0.3180 C.ar  1 <1>  -0.1440 
  8 C        1.9560    -4.4370     1.1600 C.2   1 <1>   0.5440 
  9 C        4.0940    -4.1410    -0.8550 C.3   1 <1>  -0.0960 
 10 O        2.7270    -5.0540     1.8680 O.2   1 <1>  -0.5700 
 11 N        0.7420    -5.0030     0.8480 N.am  1 <1>  -0.6600 
 12 C       -0.1670    -4.5130    -0.2210 C.3   1 <1>   0.1400 
 13 C        0.3560    -6.3730     1.2690 C.3   1 <1>   0.1400 
 14 C       -1.2780    -5.5620    -0.3040 C.3   1 <1>   0.2000 
 15 C       -0.6290    -6.8550     0.1970 C.3   1 <1>  -0.0800 
 16 O       -2.2800    -5.2100     0.5850 O.3   1 <1>  -0.6800 
 17 C        0.1020    -7.5860    -0.9450 C.3   1 <1>   0.0200 
 18 C        0.7540    -8.8640    -0.4540 C.2   1 <1>  -0.0400 
 19 O        0.0150    -9.8620    -0.0470 O.3   1 <1>  -0.0190 
 20 C        2.0400    -9.2220    -0.3280 C.2   1 <1>  -0.1500 
 21 N        0.7390   -10.8690     0.3480 N.2   1 <1>  -0.4100 
 22 C        1.9630   -10.5120     0.1900 C.2   1 <1>   0.1080 
 23 C        3.1540   -11.3810     0.5290 C.3   1 <1>  -0.0590 
 24 H        0.8770    -2.1080     1.8620 H     1 <1>   0.1500 
 25 H        3.1600     0.4160    -0.6840 H     1 <1>   0.1500 
 26 H        4.3890    -1.5420    -1.5330 H     1 <1>   0.1500 
 27 H        4.7730    -3.8470    -1.6350 H     1 <1>   0.0800 
 28 H        3.4180    -4.8770    -1.2530 H     1 <1>   0.0800 
 29 H        4.6640    -4.5920    -0.0610 H     1 <1>   0.0800 
 30 H       -0.5610    -3.5370     0.0070 H     1 <1>   0.0800 
 31 H        0.3740    -4.4740    -1.1500 H     1 <1>   0.0800 
 32 H        1.2190    -7.0120     1.3590 H     1 <1>   0.0800 
 33 H       -0.1310    -6.3180     2.2270 H     1 <1>   0.0800 
 34 H       -1.7130    -5.6420    -1.2850 H     1 <1>   0.0800 
 35 H       -1.3630    -7.5220     0.6160 H     1 <1>   0.0800 
 36 H       -1.8880    -5.0530     1.4670 H     1 <1>   0.4000 
 37 H        0.8610    -6.9510    -1.3680 H     1 <1>   0.0800 
 38 H       -0.5970    -7.8360    -1.7240 H     1 <1>   0.0800 
 39 H        2.9360    -8.6750    -0.5530 H     1 <1>   0.1500 
 40 H        3.7700   -10.8870     1.2560 H     1 <1>   0.0800 
 41 H        3.7310   -11.5710    -0.3570 H     1 <1>   0.0800 
 42 H        2.8200   -12.3190     0.9340 H     1 <1>   0.0800 
@<TRIPOS>BOND
  1   1   2  1   
  2   2   3  ar  
  3   2   4  ar  
  4   3   5  ar  
  5   3  24  1   
  6   4   6  ar  
  7   4  25  1   
  8   5   7  ar  
  9   5   8  1   
 10   6   7  ar  
 11   6  26  1   
 12   7   9  1   
 13   8  10  2   
 14   8  11  am  
 15   9  27  1   
 16   9  28  1   
 17   9  29  1   
 18  11  12  1   
 19  11  13  1   
 20  12  14  1   
 21  12  30  1   
 22  12  31  1   
 23  13  15  1   
 24  13  32  1   
 25  13  33  1   
 26  14  15  1   
 27  14  16  1   
 28  14  34  1   
 29  15  17  1   
 30  15  35  1   
 31  16  36  1   
 32  17  18  1   
 33  17  37  1   
 34  17  38  1   
 35  18  19  1   
 36  18  20  2   
 37  19  21  1   
 38  20  22  1   
 39  20  39  1   
 40  21  22  2   
 41  22  23  1   
 42  23  40  1   
 43  23  41  1   
 44  23  42  1   
@<TRIPOS>SUBSTRUCTURE
  1 ****  11 GROUP 4 **** **** 0

# MOE 2024.06 (io_trps.svl 2023.06)
