@<TRIPOS>MOLECULE
NONAME
60 63 1 0 0 
SMALL
USER_CHARGES


@<TRIPOS>ATOM
  1 O       -1.8020     0.8320     0.6090 O.2   1 <1>  -0.5700 
  2 C       -1.3050     1.9200     0.8400 C.2   1 <1>   0.5440 
  3 N       -2.1790     2.9430     1.1250 N.am  1 <1>  -0.6600 
  4 C        0.1270     2.1530     0.7510 C.ar  1 <1>   0.0860 
  5 C       -3.4860     2.6700     1.8170 C.3   1 <1>   0.1400 
  6 C       -2.0630     4.2590     0.4400 C.3   1 <1>   0.1400 
  7 C        0.9080     1.7820    -0.3540 C.ar  1 <1>  -0.1440 
  8 C        0.7560     2.7950     1.8170 C.ar  1 <1>  -0.1500 
  9 C       -4.6630     2.4690     0.8270 C.3   1 <1>   0.4230 
 10 C       -3.0880     4.4220    -0.7100 C.3   1 <1>  -0.0800 
 11 C        2.2770     2.0490    -0.3640 C.ar  1 <1>   0.0830 
 12 C        0.2640     1.0730    -1.5500 C.3   1 <1>  -0.0970 
 13 C        2.1090     3.0650     1.8050 C.ar  1 <1>  -0.1500 
 14 N       -4.1230     2.0540    -0.5210 N.4   1 <1>  -0.9590 
 15 C       -5.6030     3.6920     0.7770 C.3   1 <1>   0.1200 
 16 C       -4.2770     5.3220    -0.3370 C.3   1 <1>   0.1200 
 17 C       -3.5620     3.1280    -1.4040 C.3   1 <1>   0.3430 
 18 O        2.9980     1.6610    -1.4500 O.3   1 <1>  -0.3630 
 19 C        2.8710     2.6940     0.7170 C.ar  1 <1>  -0.1500 
 20 C       -4.9900     1.1040    -1.2620 C.3   1 <1>   0.5240 
 21 O       -4.9020     4.8980     0.8270 O.3   1 <1>  -0.5600 
 22 C        4.4020     1.7890    -1.5090 C.3   1 <1>   0.0400 
 23 C       -5.3470    -0.0490    -0.3550 C.2   1 <1>  -0.1810 
 24 C       -6.6300    -0.4020     0.0460 C.2   1 <1>   0.1390 
 25 C       -4.5400    -0.9400     0.2630 C.2   1 <1>  -0.3020 
 26 N       -6.6230    -1.4100     0.8570 N.2   1 <1>  -0.7070 
 27 N       -5.3300    -1.7570     0.9860 N.pl3 1 <1>   0.3140 
 28 C       -4.8980    -2.8930     1.8280 C.3   1 <1>   0.0960 
 29 C       -4.5230    -4.1080     0.9700 C.3   1 <1>  -0.2400 
 30 H       -3.3860     1.7710     2.4010 H     1 <1>   0.0800 
 31 H       -3.7040     3.4640     2.5110 H     1 <1>   0.0800 
 32 H       -2.1860     5.0470     1.1640 H     1 <1>   0.0800 
 33 H       -1.0710     4.3570     0.0330 H     1 <1>   0.0800 
 34 H        0.1720     3.0840     2.6740 H     1 <1>   0.1500 
 35 H       -5.2510     1.6590     1.2250 H     1 <1>   0.0800 
 36 H       -2.5730     4.9760    -1.4740 H     1 <1>   0.0800 
 37 H       -0.7070     1.4770    -1.7600 H     1 <1>   0.0800 
 38 H        0.1650     0.0250    -1.3310 H     1 <1>   0.0800 
 39 H        0.8510     1.1770    -2.4440 H     1 <1>   0.0800 
 40 H        2.5700     3.5610     2.6420 H     1 <1>   0.1500 
 41 H       -3.2980     1.4890    -0.2230 H     1 <1>   0.4500 
 42 H       -6.2270     3.6750     1.6530 H     1 <1>   0.0800 
 43 H       -6.2420     3.6760    -0.0880 H     1 <1>   0.0800 
 44 H       -5.0070     5.3730    -1.1270 H     1 <1>   0.0800 
 45 H       -3.9240     6.3220    -0.1470 H     1 <1>   0.0800 
 46 H       -2.7260     2.7140    -1.9450 H     1 <1>   0.0800 
 47 H       -4.3050     3.4040    -2.1330 H     1 <1>   0.0800 
 48 H        3.9210     2.9150     0.7320 H     1 <1>   0.1500 
 49 H       -5.8870     1.6000    -1.5930 H     1 <1>   0.0800 
 50 H       -4.4670     0.7230    -2.1250 H     1 <1>   0.0800 
 51 H        4.7360     1.3720    -2.4410 H     1 <1>   0.0800 
 52 H        4.8370     1.2450    -0.6890 H     1 <1>   0.0800 
 53 H        4.6600     2.8320    -1.4630 H     1 <1>   0.0800 
 54 H       -7.5410     0.0880    -0.2610 H     1 <1>   0.1500 
 55 H       -3.4690    -1.0490     0.2400 H     1 <1>   0.1500 
 56 H       -4.0560    -2.5800     2.4180 H     1 <1>   0.0800 
 57 H       -5.7060    -3.1470     2.4900 H     1 <1>   0.0800 
 58 H       -3.7010    -3.8720     0.3180 H     1 <1>   0.0800 
 59 H       -5.3690    -4.4190     0.3820 H     1 <1>   0.0800 
 60 H       -4.2320    -4.9250     1.6050 H     1 <1>   0.0800 
@<TRIPOS>BOND
  1   1   2  2   
  2   2   3  am  
  3   2   4  1   
  4   3   5  1   
  5   3   6  1   
  6   4   7  ar  
  7   4   8  ar  
  8   5   9  1   
  9   5  30  1   
 10   5  31  1   
 11   6  10  1   
 12   6  32  1   
 13   6  33  1   
 14   7  11  ar  
 15   7  12  1   
 16   8  13  ar  
 17   8  34  1   
 18   9  14  1   
 19   9  15  1   
 20   9  35  1   
 21  10  16  1   
 22  10  17  1   
 23  10  36  1   
 24  11  18  1   
 25  11  19  ar  
 26  12  37  1   
 27  12  38  1   
 28  12  39  1   
 29  13  19  ar  
 30  13  40  1   
 31  14  17  1   
 32  14  20  1   
 33  14  41  1   
 34  15  21  1   
 35  15  42  1   
 36  15  43  1   
 37  16  21  1   
 38  16  44  1   
 39  16  45  1   
 40  17  46  1   
 41  17  47  1   
 42  18  22  1   
 43  19  48  1   
 44  20  23  1   
 45  20  49  1   
 46  20  50  1   
 47  22  51  1   
 48  22  52  1   
 49  22  53  1   
 50  23  24  1   
 51  23  25  2   
 52  24  26  2   
 53  24  54  1   
 54  25  27  1   
 55  25  55  1   
 56  26  27  1   
 57  27  28  1   
 58  28  29  1   
 59  28  56  1   
 60  28  57  1   
 61  29  58  1   
 62  29  59  1   
 63  29  60  1   
@<TRIPOS>SUBSTRUCTURE
  1 ****   1 GROUP 4 **** **** 0

# MOE 2024.06 (io_trps.svl 2023.06)
