@<TRIPOS>MOLECULE
NONAME
60 63 1 0 0 
SMALL
USER_CHARGES


@<TRIPOS>ATOM
  1 CL      -2.1970    -1.6550    -0.2710 Cl    1 <1>  -0.1770 
  2 C       -3.3110    -0.3130    -0.2330 C.ar  1 <1>   0.1770 
  3 C       -3.8940     0.1180    -1.4090 C.ar  1 <1>  -0.1500 
  4 C       -3.5940     0.2990     0.9730 C.ar  1 <1>  -0.1500 
  5 C       -4.7790     1.1820    -1.3770 C.ar  1 <1>  -0.1500 
  6 C       -4.4800     1.3630     1.0000 C.ar  1 <1>  -0.1500 
  7 C       -5.0750     1.8090    -0.1730 C.ar  1 <1>  -0.1430 
  8 C       -6.0430     2.9800    -0.1340 C.3   1 <1>   0.2640 
  9 O       -7.2930     2.4970     0.3100 O.3   1 <1>  -0.3630 
 10 C       -8.3540     3.3240     0.4900 C.ar  1 <1>   0.0830 
 11 C       -9.5020     2.7650     1.0380 C.ar  1 <1>  -0.1430 
 12 C       -8.3400     4.6720     0.1430 C.ar  1 <1>  -0.1500 
 13 C      -10.6320     3.5470     1.2230 C.ar  1 <1>  -0.1500 
 14 C       -9.5100     1.2970     1.4200 C.3   1 <1>   0.4860 
 15 C       -9.4700     5.4470     0.3360 C.ar  1 <1>  -0.1500 
 16 C      -10.6150     4.8850     0.8720 C.ar  1 <1>  -0.1500 
 17 N      -10.4840     0.5660     0.5720 N.4   1 <1>  -0.9590 
 18 C      -10.6800    -0.8820     0.9430 C.3   1 <1>   0.3430 
 19 C      -10.3270     0.7960    -0.8870 C.3   1 <1>   0.3430 
 20 C      -11.5430    -1.6950    -0.0870 C.3   1 <1>   0.4230 
 21 C      -11.5700     0.2730    -1.6370 C.3   1 <1>  -0.1600 
 22 N      -12.3490    -2.8150     0.5260 N.4   1 <1>  -0.9590 
 23 C      -12.4760    -0.7250    -0.8400 C.3   1 <1>  -0.1060 
 24 C      -13.0960    -3.6050    -0.4900 C.3   1 <1>   0.3430 
 25 C      -11.6440    -3.6980     1.4980 C.3   1 <1>   0.2630 
 26 C      -13.2780    -0.0180     0.2730 C.2   1 <1>   0.9060 
 27 C      -13.3860    -1.4730    -1.8490 C.3   1 <1>  -0.1600 
 28 C      -14.0770    -2.6970    -1.2320 C.3   1 <1>  -0.1600 
 29 O      -13.0890     1.1830     0.4720 O.co2 1 <1>  -0.9000 
 30 O      -13.8380    -0.7180     1.1220 O.co2 1 <1>  -0.9000 
 31 H       -3.6520    -0.3750    -2.3340 H     1 <1>   0.1500 
 32 H       -3.1240    -0.0530     1.8740 H     1 <1>   0.1500 
 33 H       -5.2330     1.5190    -2.2940 H     1 <1>   0.1500 
 34 H       -4.7030     1.8440     1.9380 H     1 <1>   0.1500 
 35 H       -6.1680     3.4070    -1.1130 H     1 <1>   0.0800 
 36 H       -5.7000     3.7320     0.5550 H     1 <1>   0.0800 
 37 H       -7.4710     5.1410    -0.2790 H     1 <1>   0.1500 
 38 H      -11.5390     3.1290     1.6330 H     1 <1>   0.1500 
 39 H       -9.7890     1.2090     2.4570 H     1 <1>   0.0800 
 40 H       -8.5250     0.8780     1.2950 H     1 <1>   0.0800 
 41 H       -9.4630     6.4900     0.0680 H     1 <1>   0.1500 
 42 H      -11.4970     5.4860     1.0160 H     1 <1>   0.1500 
 43 H      -11.4080     1.0440     0.7630 H     1 <1>   0.4500 
 44 H       -9.7210    -1.3600     1.0450 H     1 <1>   0.0800 
 45 H      -11.1830    -0.9130     1.8960 H     1 <1>   0.0800 
 46 H      -10.2180     1.8510    -1.0900 H     1 <1>   0.0800 
 47 H       -9.4410     0.2950    -1.2390 H     1 <1>   0.0800 
 48 H      -10.8690    -2.1270    -0.8060 H     1 <1>   0.0800 
 49 H      -12.1660     1.1220    -1.9300 H     1 <1>   0.0800 
 50 H      -11.2220    -0.1750    -2.5500 H     1 <1>   0.0800 
 51 H      -13.1060    -2.2780     1.0370 H     1 <1>   0.4500 
 52 H      -12.4080    -4.0490    -1.1900 H     1 <1>   0.0800 
 53 H      -13.6500    -4.3950    -0.0070 H     1 <1>   0.0800 
 54 H      -10.8430    -4.2310     1.0120 H     1 <1>   0.0800 
 55 H      -12.3350    -4.4160     1.9100 H     1 <1>   0.0800 
 56 H      -11.2410    -3.1190     2.3130 H     1 <1>   0.0800 
 57 H      -14.1340    -0.7950    -2.2270 H     1 <1>   0.0800 
 58 H      -12.8030    -1.8110    -2.6890 H     1 <1>   0.0800 
 59 H      -14.5620    -3.2620    -2.0090 H     1 <1>   0.0800 
 60 H      -14.8490    -2.3790    -0.5500 H     1 <1>   0.0800 
@<TRIPOS>BOND
  1   1   2  1   
  2   2   3  ar  
  3   2   4  ar  
  4   3   5  ar  
  5   3  31  1   
  6   4   6  ar  
  7   4  32  1   
  8   5   7  ar  
  9   5  33  1   
 10   6   7  ar  
 11   6  34  1   
 12   7   8  1   
 13   8   9  1   
 14   8  35  1   
 15   8  36  1   
 16   9  10  1   
 17  10  11  ar  
 18  10  12  ar  
 19  11  13  ar  
 20  11  14  1   
 21  12  15  ar  
 22  12  37  1   
 23  13  16  ar  
 24  13  38  1   
 25  14  17  1   
 26  14  39  1   
 27  14  40  1   
 28  15  16  ar  
 29  15  41  1   
 30  16  42  1   
 31  17  18  1   
 32  17  19  1   
 33  17  43  1   
 34  18  20  1   
 35  18  44  1   
 36  18  45  1   
 37  19  21  1   
 38  19  46  1   
 39  19  47  1   
 40  20  22  1   
 41  20  23  1   
 42  20  48  1   
 43  21  23  1   
 44  21  49  1   
 45  21  50  1   
 46  22  24  1   
 47  22  25  1   
 48  22  51  1   
 49  23  26  1   
 50  23  27  1   
 51  24  28  1   
 52  24  52  1   
 53  24  53  1   
 54  25  54  1   
 55  25  55  1   
 56  25  56  1   
 57  26  29  ar  
 58  26  30  ar  
 59  27  28  1   
 60  27  57  1   
 61  27  58  1   
 62  28  59  1   
 63  28  60  1   
@<TRIPOS>SUBSTRUCTURE
  1 ****  17 GROUP 4 **** **** 0

# MOE 2024.06 (io_trps.svl 2023.06)
