@<TRIPOS>MOLECULE
NONAME
44 46 1 0 0 
SMALL
USER_CHARGES


@<TRIPOS>ATOM
  1 F        0.0740    -0.6990     0.5010 F     1 <1>  -0.1900 
  2 C       -0.6150    -1.8090     0.4120 C.ar  1 <1>   0.1900 
  3 C       -0.0650    -3.0530     0.7400 C.ar  1 <1>   0.0820 
  4 C       -1.9190    -1.6890    -0.0280 C.ar  1 <1>  -0.1500 
  5 O        1.2030    -3.2990     1.1830 O.3   1 <1>  -0.3630 
  6 C       -0.8760    -4.1690     0.6070 C.ar  1 <1>  -0.1500 
  7 C       -2.6990    -2.8240    -0.1510 C.ar  1 <1>  -0.1500 
  8 C        2.1360    -2.2750     1.4470 C.3   1 <1>   0.0400 
  9 C       -2.1990    -4.0900     0.1660 C.ar  1 <1>   0.0530 
 10 C       -3.0050    -5.2830     0.0420 C.2   1 <1>   0.0870 
 11 O       -2.4300    -6.4410    -0.1690 O.3   1 <1>  -0.0190 
 12 C       -4.3410    -5.5160     0.1000 C.2   1 <1>  -0.2330 
 13 N       -3.2850    -7.4230    -0.2610 N.2   1 <1>  -0.4100 
 14 C       -4.4540    -6.8980    -0.1040 C.2   1 <1>   0.3720 
 15 C       -5.3800    -4.5690     0.3400 C.2   1 <1>   1.0330 
 16 N       -5.6140    -7.6940    -0.1600 N.pl3 1 <1>  -0.8210 
 17 O       -5.8800    -3.9320    -0.6050 O.co2 1 <1>  -0.9000 
 18 O       -5.7780    -4.3270     1.4910 O.co2 1 <1>  -0.9000 
 19 C       -5.6660    -8.8190     0.8370 C.3   1 <1>   0.2090 
 20 C       -6.9290    -7.0240    -0.3220 C.3   1 <1>   0.2090 
 21 C       -6.6800    -9.9080     0.4220 C.3   1 <1>  -0.1060 
 22 C       -7.9800    -8.0390    -0.7770 C.3   1 <1>  -0.1600 
 23 C       -6.7990   -10.9420     1.5600 C.2   1 <1>   0.9060 
 24 C       -8.0600    -9.2450     0.1730 C.3   1 <1>  -0.1600 
 25 C       -6.1840   -10.6200    -0.8630 C.3   1 <1>  -0.2400 
 26 O       -7.7310   -11.7590     1.5350 O.co2 1 <1>  -0.9000 
 27 O       -5.9690   -10.9570     2.4800 O.co2 1 <1>  -0.9000 
 28 H       -2.3220    -0.7240    -0.2730 H     1 <1>   0.1500 
 29 H       -0.4670    -5.1300     0.8590 H     1 <1>   0.1500 
 30 H       -3.7120    -2.7230    -0.5020 H     1 <1>   0.1500 
 31 H        3.0350    -2.7300     1.8210 H     1 <1>   0.0800 
 32 H        1.7270    -1.6120     2.1890 H     1 <1>   0.0800 
 33 H        2.3460    -1.7490     0.5330 H     1 <1>   0.0800 
 34 H       -5.9420    -8.4200     1.7980 H     1 <1>   0.0800 
 35 H       -4.6910    -9.2650     0.9410 H     1 <1>   0.0800 
 36 H       -6.8510    -6.2470    -1.0630 H     1 <1>   0.0800 
 37 H       -7.2230    -6.5800     0.6150 H     1 <1>   0.0800 
 38 H       -7.7340    -8.3650    -1.7710 H     1 <1>   0.0800 
 39 H       -8.9370    -7.5520    -0.8210 H     1 <1>   0.0800 
 40 H       -8.4480    -8.9110     1.1200 H     1 <1>   0.0800 
 41 H       -8.7480    -9.9760    -0.2140 H     1 <1>   0.0800 
 42 H       -5.2530   -11.1180    -0.6600 H     1 <1>   0.0800 
 43 H       -6.0230    -9.9200    -1.6620 H     1 <1>   0.0800 
 44 H       -6.9020   -11.3570    -1.1750 H     1 <1>   0.0800 
@<TRIPOS>BOND
  1   1   2  1   
  2   2   3  ar  
  3   2   4  ar  
  4   3   5  1   
  5   3   6  ar  
  6   4   7  ar  
  7   4  28  1   
  8   5   8  1   
  9   6   9  ar  
 10   6  29  1   
 11   7   9  ar  
 12   7  30  1   
 13   8  31  1   
 14   8  32  1   
 15   8  33  1   
 16   9  10  1   
 17  10  11  1   
 18  10  12  2   
 19  11  13  1   
 20  12  14  1   
 21  12  15  1   
 22  13  14  2   
 23  14  16  1   
 24  15  17  ar  
 25  15  18  ar  
 26  16  19  1   
 27  16  20  1   
 28  19  21  1   
 29  19  34  1   
 30  19  35  1   
 31  20  22  1   
 32  20  36  1   
 33  20  37  1   
 34  21  23  1   
 35  21  24  1   
 36  21  25  1   
 37  22  24  1   
 38  22  38  1   
 39  22  39  1   
 40  23  26  ar  
 41  23  27  ar  
 42  24  40  1   
 43  24  41  1   
 44  25  42  1   
 45  25  43  1   
 46  25  44  1   
@<TRIPOS>SUBSTRUCTURE
  1 ****  12 GROUP 4 **** **** 0

# MOE 2024.06 (io_trps.svl 2023.06)
