@<TRIPOS>MOLECULE
NONAME
58 60 1 0 0 
SMALL
USER_CHARGES


@<TRIPOS>ATOM
  1 S       -0.0160     0.9170    -0.6750 S.o2  1 <1>   1.3330 
  2 O       -0.8610     2.0500    -0.3860 O.2   1 <1>  -0.6500 
  3 O       -0.0520     0.2730    -1.9670 O.2   1 <1>  -0.6500 
  4 N       -0.2420    -0.2560     0.5320 N.am  1 <1>  -0.8490 
  5 C        1.6860     1.4280    -0.4170 C.3   1 <1>  -0.0550 
  6 C       -1.0970    -1.3630     0.0810 C.3   1 <1>   0.1160 
  7 C       -0.7820     0.2940     1.7830 C.3   1 <1>   0.1160 
  8 C        2.7210     0.3080    -0.6800 C.3   1 <1>  -0.0800 
  9 C        4.1740     0.7470    -0.8510 C.3   1 <1>   0.4230 
 10 C        2.8070    -0.7570     0.4280 C.3   1 <1>   0.1200 
 11 N        4.5190     1.7820     0.1640 N.4   1 <1>  -0.9060 
 12 C        4.8770    -0.5480    -0.4630 C.3   1 <1>   0.1200 
 13 O        4.1720    -0.9390     0.6670 O.3   1 <1>  -0.5600 
 14 C        5.8630     2.3830     0.0360 C.3   1 <1>   0.4230 
 15 C        6.1590     3.1400     1.3330 C.3   1 <1>  -0.1600 
 16 C        5.9030     3.2910    -1.2000 C.3   1 <1>  -0.1600 
 17 C        7.4770     3.8990     1.2180 C.3   1 <1>   0.2090 
 18 C        7.2240     4.0500    -1.2590 C.3   1 <1>   0.2090 
 19 N        7.3840     4.7590     0.0230 N.pl3 1 <1>  -0.8380 
 20 C        8.2250     5.8710     0.0050 C.ar  1 <1>   0.1000 
 21 C        7.7140     7.1630     0.1420 C.ar  1 <1>  -0.1440 
 22 C        9.5980     5.7040    -0.1510 C.ar  1 <1>  -0.1500 
 23 C        8.5720     8.2500     0.1190 C.ar  1 <1>  -0.1500 
 24 C        6.2200     7.3900     0.3160 C.3   1 <1>  -0.0970 
 25 C       10.4490     6.7920    -0.1730 C.ar  1 <1>  -0.1500 
 26 C        9.9350     8.0690    -0.0370 C.ar  1 <1>  -0.1500 
 27 H        1.8780     2.2380    -1.0950 H     1 <1>   0.0800 
 28 H        1.7870     1.8020     0.5830 H     1 <1>   0.0800 
 29 H       -1.2110    -2.0920     0.8650 H     1 <1>   0.0800 
 30 H       -0.6540    -1.8530    -0.7700 H     1 <1>   0.0800 
 31 H       -2.0690    -0.9940    -0.2020 H     1 <1>   0.0800 
 32 H       -0.8230    -0.4730     2.5380 H     1 <1>   0.0800 
 33 H       -1.7750     0.6820     1.6260 H     1 <1>   0.0800 
 34 H       -0.1550     1.0920     2.1420 H     1 <1>   0.0800 
 35 H        2.4380    -0.2020    -1.5870 H     1 <1>   0.0800 
 36 H        4.3970     1.0700    -1.8550 H     1 <1>   0.0800 
 37 H        2.3800    -1.6950     0.1120 H     1 <1>   0.0800 
 38 H        2.3440    -0.4470     1.3500 H     1 <1>   0.0800 
 39 H        3.8300     2.5370     0.1810 H     1 <1>   0.4500 
 40 H        4.4690     1.2870     1.0690 H     1 <1>   0.4500 
 41 H        5.9180    -0.4310    -0.2210 H     1 <1>   0.0800 
 42 H        4.7600    -1.3070    -1.2190 H     1 <1>   0.0800 
 43 H        6.6050     1.6080    -0.0780 H     1 <1>   0.0800 
 44 H        5.3850     3.8570     1.5400 H     1 <1>   0.0800 
 45 H        6.2310     2.4560     2.1590 H     1 <1>   0.0800 
 46 H        5.8070     2.7170    -2.1020 H     1 <1>   0.0800 
 47 H        5.1100     4.0170    -1.1610 H     1 <1>   0.0800 
 48 H        8.3110     3.2240     1.1190 H     1 <1>   0.0800 
 49 H        7.6350     4.5120     2.0920 H     1 <1>   0.0800 
 50 H        7.2110     4.7660    -2.0660 H     1 <1>   0.0800 
 51 H        8.0540     3.3800    -1.4110 H     1 <1>   0.0800 
 52 H       10.0000     4.7150    -0.2560 H     1 <1>   0.1500 
 53 H        8.1850     9.2480     0.2240 H     1 <1>   0.1500 
 54 H        5.9920     8.4380     0.3930 H     1 <1>   0.0800 
 55 H        5.8820     6.8980     1.2090 H     1 <1>   0.0800 
 56 H        5.6920     6.9850    -0.5270 H     1 <1>   0.0800 
 57 H       11.5080     6.6490    -0.2940 H     1 <1>   0.1500 
 58 H       10.5930     8.9200    -0.0530 H     1 <1>   0.1500 
@<TRIPOS>BOND
  1   1   2  2   
  2   1   3  2   
  3   1   4  am  
  4   1   5  1   
  5   4   6  1   
  6   4   7  1   
  7   5   8  1   
  8   5  27  1   
  9   5  28  1   
 10   6  29  1   
 11   6  30  1   
 12   6  31  1   
 13   7  32  1   
 14   7  33  1   
 15   7  34  1   
 16   8   9  1   
 17   8  10  1   
 18   8  35  1   
 19   9  11  1   
 20   9  12  1   
 21   9  36  1   
 22  10  13  1   
 23  10  37  1   
 24  10  38  1   
 25  11  14  1   
 26  11  39  1   
 27  11  40  1   
 28  12  13  1   
 29  12  41  1   
 30  12  42  1   
 31  14  15  1   
 32  14  16  1   
 33  14  43  1   
 34  15  17  1   
 35  15  44  1   
 36  15  45  1   
 37  16  18  1   
 38  16  46  1   
 39  16  47  1   
 40  17  19  1   
 41  17  48  1   
 42  17  49  1   
 43  18  19  1   
 44  18  50  1   
 45  18  51  1   
 46  19  20  1   
 47  20  21  ar  
 48  20  22  ar  
 49  21  23  ar  
 50  21  24  1   
 51  22  25  ar  
 52  22  52  1   
 53  23  26  ar  
 54  23  53  1   
 55  24  54  1   
 56  24  55  1   
 57  24  56  1   
 58  25  26  ar  
 59  25  57  1   
 60  26  58  1   
@<TRIPOS>SUBSTRUCTURE
  1 ****  11 GROUP 4 **** **** 0

# MOE 2024.06 (io_trps.svl 2023.06)
