@<TRIPOS>MOLECULE
NONAME
33 34 1 0 0 
SMALL
USER_CHARGES


@<TRIPOS>ATOM
  1 O       -0.7400     0.3420     0.5160 O.co2 1 <1>  -0.9000 
  2 C       -1.5210     1.1870     0.9810 C.2   1 <1>   0.9060 
  3 O       -2.2870     0.9050     1.9150 O.co2 1 <1>  -0.9000 
  4 C       -1.4840     2.6380     0.4770 C.3   1 <1>   0.0940 
  5 O       -2.2090     2.8700    -0.7340 O.3   1 <1>  -0.5600 
  6 C       -0.0210     3.0880     0.3250 C.3   1 <1>   0.2090 
  7 C       -2.2060     4.2070    -1.1410 C.3   1 <1>   0.1200 
  8 N        0.0480     4.5150    -0.1440 N.pl3 1 <1>  -0.8380 
  9 C       -0.7710     4.7120    -1.3680 C.3   1 <1>   0.2090 
 10 C        1.2460     5.2400    -0.0630 C.ar  1 <1>   0.4100 
 11 N        2.3450     4.5040    -0.1070 N.ar  1 <1>  -0.6200 
 12 C        1.2750     6.6820     0.0360 C.ar  1 <1>   0.4100 
 13 C        3.4530     5.2250    -0.0730 C.ar  1 <1>   0.1600 
 14 N        2.4070     7.3720     0.0530 N.ar  1 <1>  -0.6200 
 15 N        0.1070     7.4670     0.1420 N.pl3 1 <1>  -0.8380 
 16 C        3.4830     6.6030    -0.0010 C.ar  1 <1>   0.1600 
 17 C       -0.8440     7.1260     1.2350 C.3   1 <1>   0.1290 
 18 C        0.1430     8.9110    -0.2180 C.3   1 <1>   0.1290 
 19 H       -1.9440     3.2310     1.2430 H     1 <1>   0.0800 
 20 H        0.4780     2.4450    -0.3800 H     1 <1>   0.0800 
 21 H        0.4820     2.9920     1.2710 H     1 <1>   0.0800 
 22 H       -2.6940     4.7950    -0.3850 H     1 <1>   0.0800 
 23 H       -2.7700     4.2710    -2.0530 H     1 <1>   0.0800 
 24 H       -0.7950     5.7540    -1.6320 H     1 <1>   0.0800 
 25 H       -0.3280     4.1680    -2.1830 H     1 <1>   0.0800 
 26 H        4.3810     4.6830    -0.1080 H     1 <1>   0.1500 
 27 H        4.4350     7.1020     0.0150 H     1 <1>   0.1500 
 28 H       -0.5200     6.2430     1.7590 H     1 <1>   0.0800 
 29 H       -1.8180     6.9390     0.8190 H     1 <1>   0.0800 
 30 H       -0.9060     7.9350     1.9410 H     1 <1>   0.0800 
 31 H        0.7300     9.0510    -1.1090 H     1 <1>   0.0800 
 32 H        0.5870     9.4760     0.5840 H     1 <1>   0.0800 
 33 H       -0.8540     9.2700    -0.4010 H     1 <1>   0.0800 
@<TRIPOS>BOND
  1   1   2  ar  
  2   2   3  ar  
  3   2   4  1   
  4   4   5  1   
  5   4   6  1   
  6   4  19  1   
  7   5   7  1   
  8   6   8  1   
  9   6  20  1   
 10   6  21  1   
 11   7   9  1   
 12   7  22  1   
 13   7  23  1   
 14   8   9  1   
 15   8  10  1   
 16   9  24  1   
 17   9  25  1   
 18  10  11  ar  
 19  10  12  ar  
 20  11  13  ar  
 21  12  14  ar  
 22  12  15  1   
 23  13  16  ar  
 24  13  26  1   
 25  14  16  ar  
 26  15  17  1   
 27  15  18  1   
 28  16  27  1   
 29  17  28  1   
 30  17  29  1   
 31  17  30  1   
 32  18  31  1   
 33  18  32  1   
 34  18  33  1   
@<TRIPOS>SUBSTRUCTURE
  1 ****   8 GROUP 4 **** **** 0

# MOE 2024.06 (io_trps.svl 2023.06)
