@<TRIPOS>MOLECULE
NONAME
52 55 1 0 0 
SMALL
USER_CHARGES


@<TRIPOS>ATOM
  1 S       -1.4160     1.8470    -1.9910 S.3   1 <1>  -0.0800 
  2 C       -0.5120     3.0560    -1.1050 C.2   1 <1>  -0.1400 
  3 C        0.0780     1.0720    -2.4950 C.2   1 <1>  -0.1100 
  4 C        0.8090     2.8550    -1.1880 C.2   1 <1>  -0.1810 
  5 C       -1.1820     4.1790    -0.3620 C.3   1 <1>   0.0200 
  6 C        1.1510     1.7180    -1.9960 C.2   1 <1>  -0.1500 
  7 C        1.7870     3.7850    -0.4700 C.3   1 <1>   0.4610 
  8 C       -0.1160     5.2600    -0.1250 C.3   1 <1>   0.1200 
  9 O        1.0850     4.6970     0.3600 O.3   1 <1>  -0.5600 
 10 C        2.7020     2.9910     0.4730 C.3   1 <1>  -0.1600 
 11 C        2.6460     4.5830    -1.4560 C.3   1 <1>  -0.1600 
 12 C        3.9560     3.7570     0.9080 C.3   1 <1>   0.3430 
 13 C        3.5780     5.5720    -0.7480 C.3   1 <1>   0.3430 
 14 N        3.7740     5.2120     0.6910 N.4   1 <1>  -0.9590 
 15 C        4.8220     6.0510     1.3490 C.3   1 <1>   0.5240 
 16 C        4.4220     7.5220     1.3570 C.2   1 <1>   0.0460 
 17 N        4.4410     8.2590     0.2280 N.2   1 <1>  -0.5650 
 18 C        4.0260     8.2730     2.4100 C.2   1 <1>  -0.3020 
 19 C        4.0660     9.4360     0.6110 C.2   1 <1>   0.0060 
 20 N        3.7950     9.5100     1.9320 N.pl3 1 <1>   0.0330 
 21 C        3.9390    10.6320    -0.3180 C.3   1 <1>   0.0200 
 22 C        5.0410    11.6650    -0.0460 C.3   1 <1>  -0.1600 
 23 C        4.9360    12.8620    -1.0000 C.3   1 <1>  -0.1600 
 24 C        6.0410    13.8840    -0.7200 C.3   1 <1>  -0.2400 
 25 H       -0.0090     0.2030    -3.1230 H     1 <1>   0.1500 
 26 H       -1.5730     3.8220     0.5730 H     1 <1>   0.0800 
 27 H       -1.9910     4.5850    -0.9440 H     1 <1>   0.0800 
 28 H        2.1720     1.4300    -2.1720 H     1 <1>   0.1500 
 29 H       -0.4670     5.9720     0.6000 H     1 <1>   0.0800 
 30 H        0.0960     5.7790    -1.0440 H     1 <1>   0.0800 
 31 H        3.0290     2.0880    -0.0080 H     1 <1>   0.0800 
 32 H        2.1350     2.6890     1.3360 H     1 <1>   0.0800 
 33 H        2.0230     5.1070    -2.1570 H     1 <1>   0.0800 
 34 H        3.2420     3.8980    -2.0320 H     1 <1>   0.0800 
 35 H        4.8010     3.4160     0.3320 H     1 <1>   0.0800 
 36 H        4.1520     3.5540     1.9490 H     1 <1>   0.0800 
 37 H        3.1390     6.5550    -0.8030 H     1 <1>   0.0800 
 38 H        4.5270     5.6090    -1.2590 H     1 <1>   0.0800 
 39 H        2.8690     5.4600     1.1300 H     1 <1>   0.4500 
 40 H        5.7610     5.9470     0.8310 H     1 <1>   0.0800 
 41 H        4.9580     5.7290     2.3670 H     1 <1>   0.0800 
 42 H        3.9000     8.0170     3.4470 H     1 <1>   0.1500 
 43 H        3.4920    10.3420     2.4490 H     1 <1>   0.2700 
 44 H        2.9710    11.0820    -0.1910 H     1 <1>   0.0800 
 45 H        4.0150    10.2900    -1.3350 H     1 <1>   0.0800 
 46 H        6.0000    11.1910    -0.1710 H     1 <1>   0.0800 
 47 H        4.9700    12.0110     0.9700 H     1 <1>   0.0800 
 48 H        3.9770    13.3380    -0.8850 H     1 <1>   0.0800 
 49 H        5.0210    12.5230    -2.0190 H     1 <1>   0.0800 
 50 H        5.9640    14.2600     0.2850 H     1 <1>   0.0800 
 51 H        5.9550    14.7130    -1.4010 H     1 <1>   0.0800 
 52 H        7.0100    13.4360    -0.8500 H     1 <1>   0.0800 
@<TRIPOS>BOND
  1   1   2  1   
  2   1   3  1   
  3   2   4  2   
  4   2   5  1   
  5   3   6  2   
  6   3  25  1   
  7   4   6  1   
  8   4   7  1   
  9   5   8  1   
 10   5  26  1   
 11   5  27  1   
 12   6  28  1   
 13   7   9  1   
 14   7  10  1   
 15   7  11  1   
 16   8   9  1   
 17   8  29  1   
 18   8  30  1   
 19  10  12  1   
 20  10  31  1   
 21  10  32  1   
 22  11  13  1   
 23  11  33  1   
 24  11  34  1   
 25  12  14  1   
 26  12  35  1   
 27  12  36  1   
 28  13  14  1   
 29  13  37  1   
 30  13  38  1   
 31  14  15  1   
 32  14  39  1   
 33  15  16  1   
 34  15  40  1   
 35  15  41  1   
 36  16  17  1   
 37  16  18  2   
 38  17  19  2   
 39  18  20  1   
 40  18  42  1   
 41  19  20  1   
 42  19  21  1   
 43  20  43  1   
 44  21  22  1   
 45  21  44  1   
 46  21  45  1   
 47  22  23  1   
 48  22  46  1   
 49  22  47  1   
 50  23  24  1   
 51  23  48  1   
 52  23  49  1   
 53  24  50  1   
 54  24  51  1   
 55  24  52  1   
@<TRIPOS>SUBSTRUCTURE
  1 ****  13 GROUP 4 **** **** 0

# MOE 2024.06 (io_trps.svl 2023.06)
