@<TRIPOS>MOLECULE
NONAME
43 45 1 0 0 
SMALL
USER_CHARGES


@<TRIPOS>ATOM
  1 F        0.8290     0.1160     1.5620 F     1 <1>  -0.1900 
  2 C        1.6340    -0.7500     1.0090 C.ar  1 <1>   0.1900 
  3 C        1.4720    -2.0880     1.3090 C.ar  1 <1>  -0.1500 
  4 C        2.6110    -0.3020     0.1460 C.ar  1 <1>  -0.1500 
  5 C        2.3150    -3.0200     0.7190 C.ar  1 <1>  -0.1440 
  6 C        3.4560    -1.2330    -0.4310 C.ar  1 <1>  -0.1500 
  7 C        3.3200    -2.5880    -0.1490 C.ar  1 <1>  -0.1430 
  8 C        2.1110    -4.4900     1.0340 C.3   1 <1>   0.4870 
  9 C        4.3000    -3.5570    -0.8020 C.3   1 <1>  -0.0970 
 10 N        1.3250    -5.0920    -0.0750 N.4   1 <1>  -0.9590 
 11 C       -0.0820    -4.5860    -0.1480 C.3   1 <1>   0.3430 
 12 C        1.2810    -6.5850    -0.0300 C.3   1 <1>   0.3430 
 13 C       -0.9170    -5.7810    -0.6070 C.3   1 <1>   0.2000 
 14 C       -0.1950    -6.9970    -0.0410 C.3   1 <1>  -0.0800 
 15 O       -2.2170    -5.7230    -0.1330 O.3   1 <1>  -0.6800 
 16 C       -0.4720    -8.2830    -0.8460 C.3   1 <1>  -0.0170 
 17 C        0.2250    -9.4990    -0.2500 C.ar  1 <1>   0.1670 
 18 N        1.5500    -9.4700    -0.2280 N.ar  1 <1>  -0.6200 
 19 C       -0.5290   -10.5690     0.2320 C.ar  1 <1>   0.1600 
 20 C        2.0620   -10.5780     0.2880 C.ar  1 <1>   0.1600 
 21 N       -0.0170   -11.6650     0.7620 N.ar  1 <1>  -0.6200 
 22 C        1.3040   -11.6390     0.7680 C.ar  1 <1>   0.1600 
 23 H        0.6950    -2.3680     1.9970 H     1 <1>   0.1500 
 24 H        2.7070     0.7480    -0.0640 H     1 <1>   0.1500 
 25 H        4.2260    -0.8870    -1.1000 H     1 <1>   0.1500 
 26 H        1.5890    -4.6020     1.9710 H     1 <1>   0.0800 
 27 H        3.0700    -4.9750     1.1180 H     1 <1>   0.0800 
 28 H        5.0820    -3.0200    -1.3120 H     1 <1>   0.0800 
 29 H        3.8020    -4.1750    -1.5250 H     1 <1>   0.0800 
 30 H        4.7700    -4.1780    -0.0610 H     1 <1>   0.0800 
 31 H        1.7990    -4.8010    -0.9410 H     1 <1>   0.4500 
 32 H       -0.4130    -4.2790     0.8290 H     1 <1>   0.0800 
 33 H       -0.1670    -3.7600    -0.8360 H     1 <1>   0.0800 
 34 H        1.7750    -6.9900    -0.9000 H     1 <1>   0.0800 
 35 H        1.7700    -6.9760     0.8480 H     1 <1>   0.0800 
 36 H       -0.9540    -5.8040    -1.6840 H     1 <1>   0.0800 
 37 H       -0.4910    -7.1530     0.9820 H     1 <1>   0.0800 
 38 H       -2.2870    -5.8970     0.8270 H     1 <1>   0.4000 
 39 H       -0.1370    -8.1640    -1.8620 H     1 <1>   0.0800 
 40 H       -1.5340    -8.4560    -0.8790 H     1 <1>   0.0800 
 41 H       -1.6030   -10.5210     0.1790 H     1 <1>   0.1500 
 42 H        3.1340   -10.6560     0.3350 H     1 <1>   0.1500 
 43 H        1.8100   -12.4990     1.1730 H     1 <1>   0.1500 
@<TRIPOS>BOND
  1   1   2  1   
  2   2   3  ar  
  3   2   4  ar  
  4   3   5  ar  
  5   3  23  1   
  6   4   6  ar  
  7   4  24  1   
  8   5   7  ar  
  9   5   8  1   
 10   6   7  ar  
 11   6  25  1   
 12   7   9  1   
 13   8  10  1   
 14   8  26  1   
 15   8  27  1   
 16   9  28  1   
 17   9  29  1   
 18   9  30  1   
 19  10  11  1   
 20  10  12  1   
 21  10  31  1   
 22  11  13  1   
 23  11  32  1   
 24  11  33  1   
 25  12  14  1   
 26  12  34  1   
 27  12  35  1   
 28  13  14  1   
 29  13  15  1   
 30  13  36  1   
 31  14  16  1   
 32  14  37  1   
 33  15  38  1   
 34  16  17  1   
 35  16  39  1   
 36  16  40  1   
 37  17  18  ar  
 38  17  19  ar  
 39  18  20  ar  
 40  19  21  ar  
 41  19  41  1   
 42  20  22  ar  
 43  20  42  1   
 44  21  22  ar  
 45  22  43  1   
@<TRIPOS>SUBSTRUCTURE
  1 ****  10 GROUP 4 **** **** 0

# MOE 2024.06 (io_trps.svl 2023.06)
