@<TRIPOS>MOLECULE
NONAME
53 56 1 0 0 
SMALL
USER_CHARGES


@<TRIPOS>ATOM
  1 F       -4.5890    -4.1760     3.7280 F     1 <1>  -0.1900 
  2 C       -4.4110    -4.3560     2.4430 C.ar  1 <1>   0.1900 
  3 C       -4.6420    -3.3110     1.5840 C.ar  1 <1>  -0.1500 
  4 C       -3.9940    -5.6180     2.0140 C.ar  1 <1>  -0.1500 
  5 C       -4.4530    -3.5310     0.2140 C.ar  1 <1>   0.0000 
  6 C       -3.7990    -5.8370     0.6690 C.ar  1 <1>  -0.1500 
  7 C       -4.0310    -4.7840    -0.2240 C.ar  1 <1>  -0.1520 
  8 C       -4.6080    -2.7330    -0.9450 C.2   1 <1>  -0.1810 
  9 N       -3.9160    -4.7410    -1.5890 N.pl3 1 <1>   0.0330 
 10 C       -4.2700    -3.4930    -2.0180 C.2   1 <1>  -0.3320 
 11 C       -5.1000    -1.2880    -0.9000 C.3   1 <1>   0.0820 
 12 C       -4.2480    -3.1480    -3.4970 C.3   1 <1>  -0.0600 
 13 C       -6.3820    -1.1070    -0.0930 C.2   1 <1>   0.5690 
 14 O       -6.3510    -0.3050     0.8140 O.2   1 <1>  -0.5700 
 15 N       -7.5220    -1.8200    -0.3770 N.am  1 <1>  -0.6600 
 16 C       -8.6580    -1.8320     0.6020 C.3   1 <1>   0.1400 
 17 C       -7.6390    -2.7430    -1.5460 C.3   1 <1>   0.1400 
 18 C       -9.3160    -3.2280     0.7170 C.3   1 <1>   0.0000 
 19 C       -9.1070    -3.0380    -1.8650 C.3   1 <1>  -0.1600 
 20 C      -10.4080    -3.1800     1.8070 C.3   1 <1>   0.2000 
 21 C       -9.8630    -3.6560    -0.6730 C.3   1 <1>  -0.1600 
 22 C       -8.3220    -4.2510     1.3080 C.3   1 <1>  -0.1600 
 23 O      -11.2640    -4.2790     1.6610 O.3   1 <1>  -0.5600 
 24 C       -9.6580    -3.3240     3.1390 C.3   1 <1>  -0.1600 
 25 C       -8.3270    -4.0180     2.8210 C.3   1 <1>  -0.1600 
 26 C      -12.5350    -4.1150     2.2050 C.3   1 <1>   0.0400 
 27 H       -4.9620    -2.3520     1.9490 H     1 <1>   0.1500 
 28 H       -3.8330    -6.3930     2.7410 H     1 <1>   0.1500 
 29 H       -3.4770    -6.7950     0.3030 H     1 <1>   0.1500 
 30 H       -3.6130    -5.5240    -2.1770 H     1 <1>   0.2700 
 31 H       -5.2690    -0.9120    -1.8890 H     1 <1>   0.0800 
 32 H       -4.3300    -0.6860    -0.4540 H     1 <1>   0.0800 
 33 H       -4.5240    -2.1230    -3.6610 H     1 <1>   0.0800 
 34 H       -4.9360    -3.7760    -4.0330 H     1 <1>   0.0800 
 35 H       -3.2590    -3.2970    -3.8940 H     1 <1>   0.0800 
 36 H       -8.3020    -1.5170     1.5670 H     1 <1>   0.0800 
 37 H       -9.3920    -1.1160     0.2770 H     1 <1>   0.0800 
 38 H       -7.1700    -2.3010    -2.4070 H     1 <1>   0.0800 
 39 H       -7.1310    -3.6660    -1.3220 H     1 <1>   0.0800 
 40 H       -9.5790    -2.1130    -2.1480 H     1 <1>   0.0800 
 41 H       -9.1660    -3.7010    -2.7090 H     1 <1>   0.0800 
 42 H      -10.9850    -2.2730     1.7490 H     1 <1>   0.0800 
 43 H       -9.8430    -4.7290    -0.7500 H     1 <1>   0.0800 
 44 H      -10.8950    -3.3630    -0.7570 H     1 <1>   0.0800 
 45 H       -8.6820    -5.2480     1.1240 H     1 <1>   0.0800 
 46 H       -7.3300    -4.1710     0.9020 H     1 <1>   0.0800 
 47 H       -9.4560    -2.3470     3.5400 H     1 <1>   0.0800 
 48 H      -10.2260    -3.8800     3.8630 H     1 <1>   0.0800 
 49 H       -7.5050    -3.3790     3.0970 H     1 <1>   0.0800 
 50 H       -8.2340    -4.9510     3.3480 H     1 <1>   0.0800 
 51 H      -13.0810    -5.0300     2.0580 H     1 <1>   0.0800 
 52 H      -13.0350    -3.3090     1.6970 H     1 <1>   0.0800 
 53 H      -12.4530    -3.9070     3.2570 H     1 <1>   0.0800 
@<TRIPOS>BOND
  1   1   2  1   
  2   2   3  ar  
  3   2   4  ar  
  4   3   5  ar  
  5   3  27  1   
  6   4   6  ar  
  7   4  28  1   
  8   5   7  ar  
  9   5   8  1   
 10   6   7  ar  
 11   6  29  1   
 12   7   9  1   
 13   8  10  2   
 14   8  11  1   
 15   9  10  1   
 16   9  30  1   
 17  10  12  1   
 18  11  13  1   
 19  11  31  1   
 20  11  32  1   
 21  12  33  1   
 22  12  34  1   
 23  12  35  1   
 24  13  14  2   
 25  13  15  am  
 26  15  16  1   
 27  15  17  1   
 28  16  18  1   
 29  16  36  1   
 30  16  37  1   
 31  17  19  1   
 32  17  38  1   
 33  17  39  1   
 34  18  20  1   
 35  18  21  1   
 36  18  22  1   
 37  19  21  1   
 38  19  40  1   
 39  19  41  1   
 40  20  23  1   
 41  20  24  1   
 42  20  42  1   
 43  21  43  1   
 44  21  44  1   
 45  22  25  1   
 46  22  45  1   
 47  22  46  1   
 48  23  26  1   
 49  24  25  1   
 50  24  47  1   
 51  24  48  1   
 52  25  49  1   
 53  25  50  1   
 54  26  51  1   
 55  26  52  1   
 56  26  53  1   
@<TRIPOS>SUBSTRUCTURE
  1 ****  15 GROUP 4 **** **** 0

# MOE 2024.06 (io_trps.svl 2023.06)
