@<TRIPOS>MOLECULE
NONAME
53 55 1 0 0 
SMALL
USER_CHARGES


@<TRIPOS>ATOM
  1 N        1.0190     0.6150    -1.4540 N.2   1 <1>  -0.5650 
  2 C        1.5700    -0.0800    -0.4310 C.2   1 <1>   0.0460 
  3 C        1.0340    -0.2250    -2.4410 C.2   1 <1>   0.0360 
  4 C        1.9080    -1.3300    -0.8250 C.2   1 <1>  -0.3320 
  5 C        1.7640     0.5730     0.9340 C.3   1 <1>   0.5240 
  6 N        1.5600    -1.4260    -2.1230 N.pl3 1 <1>   0.0330 
  7 C        2.5530    -2.4880    -0.0780 C.3   1 <1>  -0.0600 
  8 N        1.8540     2.0440     0.6950 N.4   1 <1>  -0.9590 
  9 C        3.1190     2.6210     1.2230 C.3   1 <1>   0.4860 
 10 C        0.6160     2.8270     1.0530 C.3   1 <1>   0.3430 
 11 C        3.3120     4.0020     0.6240 C.ar  1 <1>  -0.1440 
 12 C       -0.6140     2.5010     0.1530 C.3   1 <1>   0.3430 
 13 C        3.5710     4.1480    -0.7320 C.ar  1 <1>  -0.1500 
 14 C        3.2500     5.1320     1.4260 C.ar  1 <1>  -0.1500 
 15 N       -1.8630     3.2960     0.4520 N.4   1 <1>  -0.9590 
 16 C        3.7620     5.4060    -1.2740 C.ar  1 <1>  -0.1500 
 17 C        3.4440     6.3890     0.8800 C.ar  1 <1>  -0.1500 
 18 C       -2.4600     3.0030     1.7980 C.3   1 <1>   0.2630 
 19 C       -2.8900     3.0190    -0.6080 C.3   1 <1>   0.2630 
 20 C        3.7060     6.5440    -0.4770 C.ar  1 <1>  -0.0230 
 21 N        3.9280     7.8330    -1.0350 N.pl3 1 <1>   0.3260 
 22 C        3.2600     8.9920    -0.7880 C.2   1 <1>   0.0360 
 23 C        4.8590     8.1980    -1.9450 C.2   1 <1>  -0.3020 
 24 N        3.6860    10.0170    -1.4510 N.2   1 <1>  -0.5650 
 25 C        4.6990     9.5160    -2.1830 C.2   1 <1>   0.0770 
 26 H        0.6710    -0.0150    -3.4340 H     1 <1>   0.1500 
 27 H        2.6680     0.1940     1.3810 H     1 <1>   0.0800 
 28 H        0.9320     0.3380     1.5750 H     1 <1>   0.0800 
 29 H        1.6720    -2.2340    -2.7470 H     1 <1>   0.2700 
 30 H        2.7530    -2.2290     0.9460 H     1 <1>   0.0800 
 31 H        3.4830    -2.7610    -0.5470 H     1 <1>   0.0800 
 32 H        1.9020    -3.3450    -0.0880 H     1 <1>   0.0800 
 33 H        1.9430     2.0710    -0.3400 H     1 <1>   0.4500 
 34 H        3.9560     2.0010     0.9430 H     1 <1>   0.0800 
 35 H        3.0860     2.6850     2.2990 H     1 <1>   0.0800 
 36 H        0.8310     3.8780     0.9450 H     1 <1>   0.0800 
 37 H        0.3650     2.6390     2.0840 H     1 <1>   0.0800 
 38 H       -0.8400     1.4510     0.2390 H     1 <1>   0.0800 
 39 H       -0.3300     2.6850    -0.8700 H     1 <1>   0.0800 
 40 H        3.6420     3.2920    -1.3830 H     1 <1>   0.1500 
 41 H        3.0650     5.0530     2.4850 H     1 <1>   0.1500 
 42 H       -1.6550     4.3080     0.3970 H     1 <1>   0.4500 
 43 H        3.9650     5.5060    -2.3290 H     1 <1>   0.1500 
 44 H        3.4070     7.2570     1.5190 H     1 <1>   0.1500 
 45 H       -2.7140     1.9580     1.8790 H     1 <1>   0.0800 
 46 H       -3.3600     3.5810     1.9400 H     1 <1>   0.0800 
 47 H       -1.7700     3.2560     2.5870 H     1 <1>   0.0800 
 48 H       -3.1640     1.9760    -0.6070 H     1 <1>   0.0800 
 49 H       -2.5040     3.2710    -1.5830 H     1 <1>   0.0800 
 50 H       -3.7790     3.6060    -0.4330 H     1 <1>   0.0800 
 51 H        2.4430     9.0270    -0.0920 H     1 <1>   0.1500 
 52 H        5.5720     7.5100    -2.3580 H     1 <1>   0.1500 
 53 H        5.2650    10.1450    -2.8510 H     1 <1>   0.1500 
@<TRIPOS>BOND
  1   1   2  1   
  2   1   3  2   
  3   2   4  2   
  4   2   5  1   
  5   3   6  1   
  6   3  26  1   
  7   4   6  1   
  8   4   7  1   
  9   5   8  1   
 10   5  27  1   
 11   5  28  1   
 12   6  29  1   
 13   7  30  1   
 14   7  31  1   
 15   7  32  1   
 16   8   9  1   
 17   8  10  1   
 18   8  33  1   
 19   9  11  1   
 20   9  34  1   
 21   9  35  1   
 22  10  12  1   
 23  10  36  1   
 24  10  37  1   
 25  11  13  ar  
 26  11  14  ar  
 27  12  15  1   
 28  12  38  1   
 29  12  39  1   
 30  13  16  ar  
 31  13  40  1   
 32  14  17  ar  
 33  14  41  1   
 34  15  18  1   
 35  15  19  1   
 36  15  42  1   
 37  16  20  ar  
 38  16  43  1   
 39  17  20  ar  
 40  17  44  1   
 41  18  45  1   
 42  18  46  1   
 43  18  47  1   
 44  19  48  1   
 45  19  49  1   
 46  19  50  1   
 47  20  21  1   
 48  21  22  1   
 49  21  23  1   
 50  22  24  2   
 51  22  51  1   
 52  23  25  2   
 53  23  52  1   
 54  24  25  1   
 55  25  53  1   
@<TRIPOS>SUBSTRUCTURE
  1 ****  11 GROUP 4 **** **** 0

# MOE 2024.06 (io_trps.svl 2023.06)
