@<TRIPOS>MOLECULE
NONAME
42 44 1 0 0 
SMALL
USER_CHARGES


@<TRIPOS>ATOM
  1 CL       0.1160     0.3690     1.4090 Cl    1 <1>  -0.1770 
  2 C        1.1670    -0.6640     0.4800 C.ar  1 <1>   0.1770 
  3 C        1.9220    -0.1220    -0.5420 C.ar  1 <1>  -0.1500 
  4 C        1.2210    -2.0140     0.7830 C.ar  1 <1>  -0.1500 
  5 C        2.7430    -0.9680    -1.2610 C.ar  1 <1>   0.1770 
  6 C        2.0470    -2.8560     0.0470 C.ar  1 <1>  -0.1440 
  7 CL       3.7100    -0.3220    -2.5590 Cl    1 <1>  -0.1770 
  8 C        2.8160    -2.3210    -0.9790 C.ar  1 <1>  -0.1500 
  9 C        2.1040    -4.3390     0.3690 C.3   1 <1>   0.4870 
 10 N        1.3410    -5.0930    -0.6660 N.4   1 <1>  -0.9590 
 11 C       -0.1250    -4.7880    -0.6000 C.3   1 <1>   0.3430 
 12 C        1.4710    -6.5610    -0.4120 C.3   1 <1>   0.3430 
 13 C       -0.7230    -5.8390     0.3390 C.3   1 <1>   0.2000 
 14 C        0.0860    -7.0890    -0.0100 C.3   1 <1>  -0.0800 
 15 O       -0.4680    -5.4490     1.6520 O.3   1 <1>  -0.6800 
 16 C        0.1620    -8.1770     1.0780 C.3   1 <1>   0.0210 
 17 C        0.9810    -9.3650     0.6080 C.2   1 <1>   0.1080 
 18 N        2.2310    -9.2690     0.2670 N.2   1 <1>  -0.7070 
 19 C        0.5020   -10.6640     0.4940 C.2   1 <1>  -0.1500 
 20 N        2.5880   -10.5290    -0.0640 N.pl3 1 <1>   0.3000 
 21 C        1.5550   -11.3870     0.0590 C.2   1 <1>  -0.3320 
 22 C        1.6400   -12.8720    -0.2430 C.3   1 <1>  -0.0600 
 23 H        1.8720     0.9270    -0.7690 H     1 <1>   0.1500 
 24 H        0.6170    -2.3870     1.5930 H     1 <1>   0.1500 
 25 H        3.4780    -2.9330    -1.5670 H     1 <1>   0.1500 
 26 H        1.6850    -4.5200     1.3460 H     1 <1>   0.0800 
 27 H        3.1320    -4.6630     0.3780 H     1 <1>   0.0800 
 28 H        1.7170    -4.8430    -1.5880 H     1 <1>   0.4500 
 29 H       -0.3260    -3.7900    -0.2490 H     1 <1>   0.0800 
 30 H       -0.5580    -4.9100    -1.5780 H     1 <1>   0.0800 
 31 H        1.8220    -7.0830    -1.2880 H     1 <1>   0.0800 
 32 H        2.1710    -6.7450     0.3890 H     1 <1>   0.0800 
 33 H       -1.7860    -5.9550     0.2070 H     1 <1>   0.0800 
 34 H       -0.3470    -7.5330    -0.8900 H     1 <1>   0.0800 
 35 H       -1.0110    -5.9640     2.2870 H     1 <1>   0.4000 
 36 H       -0.8280    -8.5110     1.3320 H     1 <1>   0.0800 
 37 H        0.6250    -7.7930     1.9700 H     1 <1>   0.0800 
 38 H       -0.4960   -11.0020     0.7140 H     1 <1>   0.1500 
 39 H        3.5400   -10.7760    -0.3650 H     1 <1>   0.2700 
 40 H        0.6890   -13.3420    -0.0650 H     1 <1>   0.0800 
 41 H        2.3740   -13.3390     0.3890 H     1 <1>   0.0800 
 42 H        1.9120   -13.0290    -1.2720 H     1 <1>   0.0800 
@<TRIPOS>BOND
  1   1   2  1   
  2   2   3  ar  
  3   2   4  ar  
  4   3   5  ar  
  5   3  23  1   
  6   4   6  ar  
  7   4  24  1   
  8   5   7  1   
  9   5   8  ar  
 10   6   8  ar  
 11   6   9  1   
 12   8  25  1   
 13   9  10  1   
 14   9  26  1   
 15   9  27  1   
 16  10  11  1   
 17  10  12  1   
 18  10  28  1   
 19  11  13  1   
 20  11  29  1   
 21  11  30  1   
 22  12  14  1   
 23  12  31  1   
 24  12  32  1   
 25  13  14  1   
 26  13  15  1   
 27  13  33  1   
 28  14  16  1   
 29  14  34  1   
 30  15  35  1   
 31  16  17  1   
 32  16  36  1   
 33  16  37  1   
 34  17  18  2   
 35  17  19  1   
 36  18  20  1   
 37  19  21  2   
 38  19  38  1   
 39  20  21  1   
 40  20  39  1   
 41  21  22  1   
 42  22  40  1   
 43  22  41  1   
 44  22  42  1   
@<TRIPOS>SUBSTRUCTURE
  1 ****  10 GROUP 4 **** **** 0

# MOE 2024.06 (io_trps.svl 2023.06)
