@<TRIPOS>MOLECULE
NONAME
52 53 1 0 0 
SMALL
USER_CHARGES


@<TRIPOS>ATOM
  1 O       -1.6000     1.0150     2.0330 O.2   1 <1>  -0.5700 
  2 C       -2.2840     1.3160     1.0790 C.2   1 <1>   0.5690 
  3 N       -3.5510     0.7910     0.9330 N.am  1 <1>  -0.6600 
  4 C       -1.6330     2.2860     0.0710 C.3   1 <1>   0.2610 
  5 C       -4.0160    -0.2860     1.8710 C.3   1 <1>   0.3210 
  6 C       -4.4760     1.0530    -0.2250 C.3   1 <1>   0.1400 
  7 O       -2.4540     3.4210    -0.1750 O.3   1 <1>  -0.3630 
  8 C       -1.2560     1.6260    -1.2820 C.3   1 <1>  -0.0800 
  9 C       -4.1320    -1.6300     1.1550 C.2   1 <1>   0.0460 
 10 C       -5.8860     1.4670     0.2180 C.3   1 <1>   0.1200 
 11 C       -2.7600     4.3310     0.7900 C.ar  1 <1>   0.0820 
 12 C       -0.3300     0.4140    -1.0810 C.3   1 <1>  -0.2400 
 13 C       -0.5730     2.6240    -2.2320 C.3   1 <1>  -0.2400 
 14 N       -5.2790    -2.0010     0.5440 N.2   1 <1>  -0.5650 
 15 C       -3.1870    -2.5930     1.0290 C.2   1 <1>  -0.3320 
 16 O       -5.8090     2.5580     1.0680 O.3   1 <1>  -0.6800 
 17 C       -3.7390     5.2750     0.4900 C.ar  1 <1>  -0.1440 
 18 C       -2.1450     4.3540     2.0410 C.ar  1 <1>  -0.1500 
 19 C       -5.0110    -3.1720     0.0670 C.2   1 <1>   0.0360 
 20 N       -3.7560    -3.5900     0.3270 N.pl3 1 <1>   0.0330 
 21 C       -1.7530    -2.6430     1.5270 C.3   1 <1>  -0.0600 
 22 C       -4.0940     6.2210     1.4380 C.ar  1 <1>  -0.1500 
 23 C       -4.4340     5.2720    -0.8640 C.3   1 <1>  -0.0970 
 24 C       -2.5070     5.3030     2.9790 C.ar  1 <1>  -0.1500 
 25 C       -3.4810     6.2380     2.6780 C.ar  1 <1>  -0.1500 
 26 H       -0.7210     2.6520     0.5050 H     1 <1>   0.0800 
 27 H       -4.9700    -0.0230     2.2900 H     1 <1>   0.0800 
 28 H       -3.3370    -0.3960     2.6950 H     1 <1>   0.0800 
 29 H       -4.5480     0.1630    -0.8260 H     1 <1>   0.0800 
 30 H       -4.0960     1.8280    -0.8600 H     1 <1>   0.0800 
 31 H       -2.1510     1.2700    -1.7570 H     1 <1>   0.0800 
 32 H       -6.3790     0.6620     0.7350 H     1 <1>   0.0800 
 33 H       -6.4860     1.7460    -0.6300 H     1 <1>   0.0800 
 34 H        0.5730     0.7060    -0.5730 H     1 <1>   0.0800 
 35 H       -0.0650    -0.0160    -2.0310 H     1 <1>   0.0800 
 36 H       -0.8200    -0.3470    -0.4990 H     1 <1>   0.0800 
 37 H        0.3280     3.0130    -1.7910 H     1 <1>   0.0800 
 38 H       -1.2290     3.4490    -2.4490 H     1 <1>   0.0800 
 39 H       -0.3220     2.1470    -3.1630 H     1 <1>   0.0800 
 40 H       -4.9360     2.5570     1.5170 H     1 <1>   0.4000 
 41 H       -1.3840     3.6470     2.3110 H     1 <1>   0.1500 
 42 H       -5.7100    -3.7730    -0.4870 H     1 <1>   0.1500 
 43 H       -3.3310    -4.4790     0.0480 H     1 <1>   0.2700 
 44 H       -1.4930    -1.7290     2.0310 H     1 <1>   0.0800 
 45 H       -1.0770    -2.7750     0.7010 H     1 <1>   0.0800 
 46 H       -1.6270    -3.4590     2.2160 H     1 <1>   0.0800 
 47 H       -4.8530     6.9510     1.2170 H     1 <1>   0.1500 
 48 H       -3.7020     5.3060    -1.6510 H     1 <1>   0.0800 
 49 H       -5.0870     6.1180    -0.9670 H     1 <1>   0.0800 
 50 H       -5.0160     4.3750    -0.9690 H     1 <1>   0.0800 
 51 H       -2.0300     5.3140     3.9430 H     1 <1>   0.1500 
 52 H       -3.7630     6.9760     3.4080 H     1 <1>   0.1500 
@<TRIPOS>BOND
  1   1   2  2   
  2   2   3  am  
  3   2   4  1   
  4   3   5  1   
  5   3   6  1   
  6   4   7  1   
  7   4   8  1   
  8   4  26  1   
  9   5   9  1   
 10   5  27  1   
 11   5  28  1   
 12   6  10  1   
 13   6  29  1   
 14   6  30  1   
 15   7  11  1   
 16   8  12  1   
 17   8  13  1   
 18   8  31  1   
 19   9  14  1   
 20   9  15  2   
 21  10  16  1   
 22  10  32  1   
 23  10  33  1   
 24  11  17  ar  
 25  11  18  ar  
 26  12  34  1   
 27  12  35  1   
 28  12  36  1   
 29  13  37  1   
 30  13  38  1   
 31  13  39  1   
 32  14  19  2   
 33  15  20  1   
 34  15  21  1   
 35  16  40  1   
 36  17  22  ar  
 37  17  23  1   
 38  18  24  ar  
 39  18  41  1   
 40  19  20  1   
 41  19  42  1   
 42  20  43  1   
 43  21  44  1   
 44  21  45  1   
 45  21  46  1   
 46  22  25  ar  
 47  22  47  1   
 48  23  48  1   
 49  23  49  1   
 50  23  50  1   
 51  24  25  ar  
 52  24  51  1   
 53  25  52  1   
@<TRIPOS>SUBSTRUCTURE
  1 ****   3 GROUP 4 **** **** 0

# MOE 2024.06 (io_trps.svl 2023.06)
