@<TRIPOS>MOLECULE
NONAME
46 48 1 0 0 
SMALL
USER_CHARGES


@<TRIPOS>ATOM
  1 O        2.5170     0.5920    -1.1480 O.2   1 <1>  -0.5700 
  2 C        2.8240    -0.3540    -0.4280 C.2   1 <1>   0.4690 
  3 C        3.6670    -0.1850     0.7200 C.2   1 <1>   0.0290 
  4 C        2.3210    -1.6630    -0.7520 C.ar  1 <1>   0.0860 
  5 C        4.2100     1.1020     1.0950 C.2   1 <1>   0.6160 
  6 C        3.9500    -1.2990     1.4650 C.2   1 <1>  -0.0500 
  7 C        2.6550    -2.7590     0.0600 C.ar  1 <1>   0.4100 
  8 C        1.5030    -1.9000    -1.8560 C.ar  1 <1>  -0.1500 
  9 O        4.9180     1.1880     2.0860 O.2   1 <1>  -0.5700 
 10 N        3.9610     2.2410     0.3750 N.am  1 <1>  -0.4930 
 11 N        3.4740    -2.5460     1.1690 N.pl3 1 <1>  -0.5690 
 12 N        2.2290    -4.0060    -0.1740 N.ar  1 <1>  -0.6200 
 13 C        1.0730    -3.1830    -2.0850 C.ar  1 <1>  -0.1500 
 14 C        4.3940     3.5760     0.5600 C.2   1 <1>   0.0630 
 15 C        3.8660    -3.6780     2.0560 C.3   1 <1>   0.2090 
 16 C        1.4610    -4.1960    -1.2200 C.ar  1 <1>   0.1670 
 17 C        4.0750     4.6290    -0.2250 C.2   1 <1>  -0.3320 
 18 C        5.2180     4.1100     1.5510 C.2   1 <1>   0.1390 
 19 C        5.1470    -4.3190     1.5280 C.3   1 <1>  -0.2400 
 20 C        0.9970    -5.6180    -1.4590 C.3   1 <1>  -0.0970 
 21 N        4.6990     5.7120     0.3060 N.pl3 1 <1>   0.3140 
 22 C        3.1960     4.6640    -1.4690 C.3   1 <1>  -0.0600 
 23 N        5.4040     5.3880     1.4050 N.2   1 <1>  -0.7070 
 24 C        4.6650     7.1060    -0.1870 C.3   1 <1>   0.0960 
 25 C        5.7620     7.3530    -1.2300 C.3   1 <1>  -0.2400 
 26 H        4.5840    -1.2130     2.3350 H     1 <1>   0.1500 
 27 H        1.2180    -1.0930    -2.5100 H     1 <1>   0.1500 
 28 H        3.3550     2.0930    -0.4410 H     1 <1>   0.3700 
 29 H        0.4410    -3.4010    -2.9280 H     1 <1>   0.1500 
 30 H        3.0760    -4.4080     2.1090 H     1 <1>   0.0800 
 31 H        4.0300    -3.3100     3.0540 H     1 <1>   0.0800 
 32 H        5.6540     3.5340     2.3490 H     1 <1>   0.1500 
 33 H        4.9810    -4.7130     0.5420 H     1 <1>   0.0800 
 34 H        5.4410    -5.1270     2.1730 H     1 <1>   0.0800 
 35 H        5.9420    -3.5960     1.4960 H     1 <1>   0.0800 
 36 H        0.4350    -5.9590    -0.6090 H     1 <1>   0.0800 
 37 H        1.8510    -6.2570    -1.5870 H     1 <1>   0.0800 
 38 H        0.3780    -5.6850    -2.3340 H     1 <1>   0.0800 
 39 H        2.8190     3.6840    -1.6980 H     1 <1>   0.0800 
 40 H        3.7630     5.0120    -2.3140 H     1 <1>   0.0800 
 41 H        2.3590     5.3200    -1.3130 H     1 <1>   0.0800 
 42 H        4.8100     7.7580     0.6550 H     1 <1>   0.0800 
 43 H        3.6960     7.3020    -0.6050 H     1 <1>   0.0800 
 44 H        6.7280     7.1670    -0.7950 H     1 <1>   0.0800 
 45 H        5.7270     8.3750    -1.5620 H     1 <1>   0.0800 
 46 H        5.6270     6.7100    -2.0800 H     1 <1>   0.0800 
@<TRIPOS>BOND
  1   1   2  2   
  2   2   3  1   
  3   2   4  1   
  4   3   5  1   
  5   3   6  2   
  6   4   7  ar  
  7   4   8  ar  
  8   5   9  2   
  9   5  10  am  
 10   6  11  1   
 11   6  26  1   
 12   7  11  1   
 13   7  12  ar  
 14   8  13  ar  
 15   8  27  1   
 16  10  14  1   
 17  10  28  1   
 18  11  15  1   
 19  12  16  ar  
 20  13  16  ar  
 21  13  29  1   
 22  14  17  2   
 23  14  18  1   
 24  15  19  1   
 25  15  30  1   
 26  15  31  1   
 27  16  20  1   
 28  17  21  1   
 29  17  22  1   
 30  18  23  2   
 31  18  32  1   
 32  19  33  1   
 33  19  34  1   
 34  19  35  1   
 35  20  36  1   
 36  20  37  1   
 37  20  38  1   
 38  21  23  1   
 39  21  24  1   
 40  22  39  1   
 41  22  40  1   
 42  22  41  1   
 43  24  25  1   
 44  24  42  1   
 45  24  43  1   
 46  25  44  1   
 47  25  45  1   
 48  25  46  1   
@<TRIPOS>SUBSTRUCTURE
  1 ****   3 GROUP 4 **** **** 0

# MOE 2024.06 (io_trps.svl 2023.06)
