@<TRIPOS>MOLECULE
NONAME
46 49 1 0 0 
SMALL
USER_CHARGES


@<TRIPOS>ATOM
  1 S       -0.4380     0.0380     0.8380 S.o2  1 <1>   1.0900 
  2 O       -0.8430     1.2180     1.5650 O.2   1 <1>  -0.6500 
  3 O        0.8720    -0.5480     1.0010 O.2   1 <1>  -0.6500 
  4 C       -1.6270    -1.2580     1.0310 C.3   1 <1>  -0.0550 
  5 C       -0.7330     0.2440    -0.9120 C.3   1 <1>  -0.0550 
  6 C       -1.5580    -2.0240    -0.2880 C.3   1 <1>   0.1760 
  7 C       -1.5210    -0.9770    -1.4210 C.3   1 <1>  -0.1600 
  8 N       -2.7040    -2.9580    -0.4340 N.pl3 1 <1>   0.3140 
  9 N       -3.9700    -2.5290    -0.2760 N.2   1 <1>  -0.7070 
 10 C       -2.6630    -4.2840    -0.7260 C.2   1 <1>  -0.3320 
 11 C       -4.7070    -3.5800    -0.4560 C.2   1 <1>   0.1080 
 12 C       -3.9430    -4.7160    -0.7420 C.2   1 <1>   0.0630 
 13 C       -1.3820    -5.0740    -0.9630 C.3   1 <1>  -0.0600 
 14 C       -6.2160    -3.5100    -0.3660 C.3   1 <1>  -0.0590 
 15 N       -4.3710    -6.0380    -1.0220 N.am  1 <1>  -0.4930 
 16 C       -5.3020    -6.8030    -0.3660 C.2   1 <1>   0.7160 
 17 O       -5.8230    -6.3690     0.6490 O.2   1 <1>  -0.5700 
 18 C       -5.6260    -8.0970    -0.8750 C.2   1 <1>  -0.0860 
 19 C       -6.1900    -9.1840    -0.2500 C.2   1 <1>  -0.0680 
 20 C       -5.4300    -8.5680    -2.1840 C.2   1 <1>   0.1390 
 21 N       -6.2790   -10.1680    -1.1570 N.pl3 1 <1>   0.6010 
 22 N       -6.6860    -9.6280     0.9590 N.pl3 1 <1>  -0.5530 
 23 N       -5.8030    -9.7970    -2.3720 N.2   1 <1>  -0.7070 
 24 C       -6.8410   -11.2670    -0.5370 C.2   1 <1>  -0.1810 
 25 C       -7.0900   -10.9370     0.7480 C.2   1 <1>  -0.0500 
 26 C       -6.8130    -8.8330     2.2010 C.3   1 <1>   0.1290 
 27 H       -2.6050    -0.8340     1.1580 H     1 <1>   0.0800 
 28 H       -1.3920    -1.8880     1.8670 H     1 <1>   0.0800 
 29 H        0.2030     0.3310    -1.4310 H     1 <1>   0.0800 
 30 H       -1.3030     1.1370    -1.0880 H     1 <1>   0.0800 
 31 H       -0.6430    -2.5880    -0.3040 H     1 <1>   0.0800 
 32 H       -1.0700    -1.3870    -2.3070 H     1 <1>   0.0800 
 33 H       -2.5250    -0.6620    -1.6550 H     1 <1>   0.0800 
 34 H       -0.8460    -4.6730    -1.8050 H     1 <1>   0.0800 
 35 H       -1.6010    -6.1080    -1.1600 H     1 <1>   0.0800 
 36 H       -0.7520    -5.0290    -0.0920 H     1 <1>   0.0800 
 37 H       -6.5510    -2.5210    -0.6210 H     1 <1>   0.0800 
 38 H       -6.5240    -3.7350     0.6380 H     1 <1>   0.0800 
 39 H       -6.6640    -4.2140    -1.0400 H     1 <1>   0.0800 
 40 H       -3.7810    -6.5370    -1.6800 H     1 <1>   0.3700 
 41 H       -5.0140    -7.9720    -2.9790 H     1 <1>   0.1500 
 42 H       -7.0050   -12.1730    -1.0850 H     1 <1>   0.1500 
 43 H       -7.5260   -11.5330     1.5340 H     1 <1>   0.1500 
 44 H       -5.8540    -8.4280     2.4680 H     1 <1>   0.0800 
 45 H       -7.1740    -9.4540     3.0010 H     1 <1>   0.0800 
 46 H       -7.5020    -8.0230     2.0390 H     1 <1>   0.0800 
@<TRIPOS>BOND
  1   1   2  2   
  2   1   3  2   
  3   1   4  1   
  4   1   5  1   
  5   4   6  1   
  6   4  27  1   
  7   4  28  1   
  8   5   7  1   
  9   5  29  1   
 10   5  30  1   
 11   6   7  1   
 12   6   8  1   
 13   6  31  1   
 14   7  32  1   
 15   7  33  1   
 16   8   9  1   
 17   8  10  1   
 18   9  11  2   
 19  10  12  2   
 20  10  13  1   
 21  11  12  1   
 22  11  14  1   
 23  12  15  1   
 24  13  34  1   
 25  13  35  1   
 26  13  36  1   
 27  14  37  1   
 28  14  38  1   
 29  14  39  1   
 30  15  16  am  
 31  15  40  1   
 32  16  17  2   
 33  16  18  1   
 34  18  19  2   
 35  18  20  1   
 36  19  21  1   
 37  19  22  1   
 38  20  23  2   
 39  20  41  1   
 40  21  23  1   
 41  21  24  1   
 42  22  25  1   
 43  22  26  1   
 44  24  25  2   
 45  24  42  1   
 46  25  43  1   
 47  26  44  1   
 48  26  45  1   
 49  26  46  1   
@<TRIPOS>SUBSTRUCTURE
  1 ****  12 GROUP 4 **** **** 0

# MOE 2024.06 (io_trps.svl 2023.06)
