@<TRIPOS>MOLECULE
NONAME
56 58 1 0 0 
SMALL
USER_CHARGES


@<TRIPOS>ATOM
  1 O        0.6410     0.2820    -1.1670 O.3   1 <1>  -0.5600 
  2 C        1.8700    -0.3950    -1.1120 C.3   1 <1>   0.2000 
  3 C        0.7800     1.6720    -1.2360 C.3   1 <1>   0.1200 
  4 C        2.6590     0.0540     0.1500 C.3   1 <1>   0.3340 
  5 C        1.5590    -1.9010    -1.1440 C.3   1 <1>   0.1200 
  6 C        1.5230     2.1980     0.0030 C.3   1 <1>   0.1100 
  7 N        2.8300     1.5280     0.1740 N.3   1 <1>  -0.8100 
  8 C        4.0190    -0.6420     0.2260 C.ar  1 <1>  -0.1440 
  9 O        2.6910    -2.6470    -1.4670 O.3   1 <1>  -0.6800 
 10 C        3.5270     1.9840     1.4000 C.3   1 <1>   0.2900 
 11 C        4.2380    -1.6450     1.1570 C.ar  1 <1>  -0.1500 
 12 C        5.0450    -0.2940    -0.6370 C.ar  1 <1>  -0.1500 
 13 C        3.6590     3.5000     1.4720 C.2   1 <1>  -0.0400 
 14 C        5.4520    -2.3060     1.2310 C.ar  1 <1>   0.0830 
 15 C        6.2690    -0.9350    -0.5700 C.ar  1 <1>  -0.1500 
 16 O        4.3800     4.1360     0.5680 O.3   1 <1>  -0.2800 
 17 C        3.1370     4.3770     2.3560 C.2   1 <1>  -0.1500 
 18 O        5.5120    -3.2840     2.1780 O.3   1 <1>  -0.3620 
 19 C        6.4960    -1.9430     0.3650 C.ar  1 <1>   0.0830 
 20 C        4.3350     5.4240     0.8450 C.2   1 <1>  -0.0400 
 21 C        3.5800     5.6390     1.9440 C.2   1 <1>  -0.1500 
 22 C        6.2510    -4.4640     1.9510 C.3   1 <1>   0.0400 
 23 O        7.7090    -2.5610     0.4640 O.3   1 <1>  -0.3630 
 24 C        5.0950     6.3690    -0.0690 C.3   1 <1>   0.0200 
 25 C        8.8410    -2.1020    -0.2420 C.3   1 <1>   0.0400 
 26 C        4.9550     7.8380     0.3520 C.3   1 <1>  -0.1600 
 27 C        5.7270     8.7700    -0.5890 C.3   1 <1>  -0.2400 
 28 H        2.4210    -0.1390    -2.0000 H     1 <1>   0.0800 
 29 H        1.3190     1.9240    -2.1330 H     1 <1>   0.0800 
 30 H       -0.2040     2.1010    -1.2900 H     1 <1>   0.0800 
 31 H        2.0800    -0.2360     1.0100 H     1 <1>   0.0800 
 32 H        0.8210    -2.1040    -1.9010 H     1 <1>   0.0800 
 33 H        1.1940    -2.2360    -0.1900 H     1 <1>   0.0800 
 34 H        0.9090     2.0440     0.8740 H     1 <1>   0.0800 
 35 H        1.6730     3.2570    -0.1210 H     1 <1>   0.0800 
 36 H        3.4430    -2.4150    -0.8780 H     1 <1>   0.4000 
 37 H        2.9920     1.6380     2.2670 H     1 <1>   0.0800 
 38 H        4.5190     1.5680     1.4300 H     1 <1>   0.0800 
 39 H        3.4610    -1.9350     1.8420 H     1 <1>   0.1500 
 40 H        4.8900     0.4890    -1.3610 H     1 <1>   0.1500 
 41 H        7.0310    -0.6270    -1.2590 H     1 <1>   0.1500 
 42 H        2.5100     4.1850     3.2080 H     1 <1>   0.1500 
 43 H        3.3440     6.5680     2.4320 H     1 <1>   0.1500 
 44 H        5.8700    -5.2290     2.6020 H     1 <1>   0.0800 
 45 H        7.2850    -4.2760     2.1780 H     1 <1>   0.0800 
 46 H        6.1350    -4.7610     0.9230 H     1 <1>   0.0800 
 47 H        6.1330     6.0870    -0.0620 H     1 <1>   0.0800 
 48 H        4.7240     6.2430    -1.0710 H     1 <1>   0.0800 
 49 H        9.6860    -2.6930     0.0610 H     1 <1>   0.0800 
 50 H        9.0110    -1.0680     0.0040 H     1 <1>   0.0800 
 51 H        8.6700    -2.2260    -1.2970 H     1 <1>   0.0800 
 52 H        3.9140     8.1120     0.3460 H     1 <1>   0.0800 
 53 H        5.3290     7.9580     1.3540 H     1 <1>   0.0800 
 54 H        5.3560     8.6820    -1.5960 H     1 <1>   0.0800 
 55 H        6.7760     8.5270    -0.5840 H     1 <1>   0.0800 
 56 H        5.6120     9.7910    -0.2710 H     1 <1>   0.0800 
@<TRIPOS>BOND
  1   1   2  1   
  2   1   3  1   
  3   2   4  1   
  4   2   5  1   
  5   2  28  1   
  6   3   6  1   
  7   3  29  1   
  8   3  30  1   
  9   4   7  1   
 10   4   8  1   
 11   4  31  1   
 12   5   9  1   
 13   5  32  1   
 14   5  33  1   
 15   6   7  1   
 16   6  34  1   
 17   6  35  1   
 18   7  10  1   
 19   8  11  ar  
 20   8  12  ar  
 21   9  36  1   
 22  10  13  1   
 23  10  37  1   
 24  10  38  1   
 25  11  14  ar  
 26  11  39  1   
 27  12  15  ar  
 28  12  40  1   
 29  13  16  1   
 30  13  17  2   
 31  14  18  1   
 32  14  19  ar  
 33  15  19  ar  
 34  15  41  1   
 35  16  20  1   
 36  17  21  1   
 37  17  42  1   
 38  18  22  1   
 39  19  23  1   
 40  20  21  2   
 41  20  24  1   
 42  21  43  1   
 43  22  44  1   
 44  22  45  1   
 45  22  46  1   
 46  23  25  1   
 47  24  26  1   
 48  24  47  1   
 49  24  48  1   
 50  25  49  1   
 51  25  50  1   
 52  25  51  1   
 53  26  27  1   
 54  26  52  1   
 55  26  53  1   
 56  27  54  1   
 57  27  55  1   
 58  27  56  1   
@<TRIPOS>SUBSTRUCTURE
  1 ****   7 GROUP 4 **** **** 0

# MOE 2024.06 (io_trps.svl 2023.06)
