@<TRIPOS>MOLECULE
NONAME
53 54 1 0 0 
SMALL
USER_CHARGES


@<TRIPOS>ATOM
  1 F       -0.7170    -0.2130     0.7670 F     1 <1>  -0.1900 
  2 C       -1.9680     0.1130     0.5660 C.ar  1 <1>   0.1900 
  3 C       -2.4120     0.6390    -0.6520 C.ar  1 <1>   0.0830 
  4 C       -2.8330    -0.0880     1.6240 C.ar  1 <1>  -0.1500 
  5 O       -1.6600     0.8860    -1.7640 O.3   1 <1>  -0.3630 
  6 C       -3.7570     0.9510    -0.7650 C.ar  1 <1>  -0.1500 
  7 C       -4.1690     0.2370     1.4790 C.ar  1 <1>  -0.1500 
  8 C       -0.2690     0.6540    -1.8200 C.3   1 <1>   0.0400 
  9 C       -4.6630     0.7600     0.2820 C.ar  1 <1>   0.0530 
 10 C       -6.0520     1.1120     0.1210 C.2   1 <1>   0.0870 
 11 O       -6.3720     2.1540    -0.6040 O.3   1 <1>  -0.0190 
 12 C       -7.2180     0.5860     0.5880 C.2   1 <1>  -0.0860 
 13 N       -7.6580     2.3710    -0.6530 N.2   1 <1>  -0.4100 
 14 C       -8.1930     1.4410     0.0560 C.2   1 <1>   0.3720 
 15 C       -7.4830    -0.5640     1.3960 C.2   1 <1>   0.7160 
 16 N       -9.5810     1.3090     0.2400 N.pl3 1 <1>  -0.8210 
 17 O       -6.7020    -1.4970     1.4630 O.2   1 <1>  -0.5700 
 18 N       -8.6580    -0.6620     2.0710 N.am  1 <1>  -0.7300 
 19 C      -10.3380     2.5940     0.2460 C.3   1 <1>   0.1290 
 20 C      -10.2120     0.3070    -0.6680 C.3   1 <1>   0.1290 
 21 C       -9.2810    -1.9570     2.4800 C.3   1 <1>   0.2010 
 22 C       -9.6960    -2.8030     1.2740 C.2   1 <1>   0.5690 
 23 O      -10.8710    -2.9100     1.0160 O.2   1 <1>  -0.5700 
 24 N       -8.7080    -3.3630     0.5250 N.am  1 <1>  -0.7300 
 25 C       -8.7920    -4.1870    -0.6790 C.3   1 <1>   0.3000 
 26 C       -9.4090    -3.3710    -1.8140 C.3   1 <1>  -0.2400 
 27 C       -7.3590    -4.5710    -1.0400 C.3   1 <1>  -0.2400 
 28 C       -9.6070    -5.4470    -0.3900 C.3   1 <1>  -0.2400 
 29 H       -2.4630    -0.4940     2.5490 H     1 <1>   0.1500 
 30 H       -4.1100     1.3550    -1.6970 H     1 <1>   0.1500 
 31 H       -4.8370     0.0840     2.3080 H     1 <1>   0.1500 
 32 H        0.0780     0.9430    -2.7950 H     1 <1>   0.0800 
 33 H       -0.0810    -0.3930    -1.6610 H     1 <1>   0.0800 
 34 H        0.2160     1.2520    -1.0690 H     1 <1>   0.0800 
 35 H       -9.3370     0.0650     1.7910 H     1 <1>   0.3700 
 36 H       -9.8470     3.3040     0.8900 H     1 <1>   0.0800 
 37 H      -11.3380     2.4310     0.6090 H     1 <1>   0.0800 
 38 H      -10.3830     3.0040    -0.7490 H     1 <1>   0.0800 
 39 H       -9.6030    -0.5780    -0.7280 H     1 <1>   0.0800 
 40 H      -10.3210     0.7180    -1.6570 H     1 <1>   0.0800 
 41 H      -11.1810     0.0260    -0.2910 H     1 <1>   0.0800 
 42 H      -10.1490    -1.7580     3.0820 H     1 <1>   0.0800 
 43 H       -8.5800    -2.5180     3.0720 H     1 <1>   0.0800 
 44 H       -7.7450    -3.0880     0.7620 H     1 <1>   0.3700 
 45 H       -8.8280    -2.4860    -1.9990 H     1 <1>   0.0800 
 46 H      -10.4180    -3.0900    -1.5710 H     1 <1>   0.0800 
 47 H       -9.4350    -3.9550    -2.7160 H     1 <1>   0.0800 
 48 H       -6.7670    -3.6920    -1.2280 H     1 <1>   0.0800 
 49 H       -7.3500    -5.1770    -1.9280 H     1 <1>   0.0800 
 50 H       -6.9070    -5.1350    -0.2440 H     1 <1>   0.0800 
 51 H      -10.6290    -5.1970    -0.1680 H     1 <1>   0.0800 
 52 H       -9.1890    -5.9820     0.4430 H     1 <1>   0.0800 
 53 H       -9.6050    -6.0950    -1.2480 H     1 <1>   0.0800 
@<TRIPOS>BOND
  1   1   2  1   
  2   2   3  ar  
  3   2   4  ar  
  4   3   5  1   
  5   3   6  ar  
  6   4   7  ar  
  7   4  29  1   
  8   5   8  1   
  9   6   9  ar  
 10   6  30  1   
 11   7   9  ar  
 12   7  31  1   
 13   8  32  1   
 14   8  33  1   
 15   8  34  1   
 16   9  10  1   
 17  10  11  1   
 18  10  12  2   
 19  11  13  1   
 20  12  14  1   
 21  12  15  1   
 22  13  14  2   
 23  14  16  1   
 24  15  17  2   
 25  15  18  am  
 26  16  19  1   
 27  16  20  1   
 28  18  21  1   
 29  18  35  1   
 30  19  36  1   
 31  19  37  1   
 32  19  38  1   
 33  20  39  1   
 34  20  40  1   
 35  20  41  1   
 36  21  22  1   
 37  21  42  1   
 38  21  43  1   
 39  22  23  2   
 40  22  24  am  
 41  24  25  1   
 42  24  44  1   
 43  25  26  1   
 44  25  27  1   
 45  25  28  1   
 46  26  45  1   
 47  26  46  1   
 48  26  47  1   
 49  27  48  1   
 50  27  49  1   
 51  27  50  1   
 52  28  51  1   
 53  28  52  1   
 54  28  53  1   
@<TRIPOS>SUBSTRUCTURE
  1 ****  12 GROUP 4 **** **** 0

# MOE 2024.06 (io_trps.svl 2023.06)
