@<TRIPOS>MOLECULE
NONAME
57 62 1 0 0 
SMALL
USER_CHARGES


@<TRIPOS>ATOM
  1 N        0.5450     0.2100     0.1160 N.ar  1 <1>  -0.6200 
  2 C       -0.4600     0.8290     0.7550 C.ar  1 <1>   0.6200 
  3 C        1.3200     0.9880    -0.5990 C.ar  1 <1>   0.1660 
  4 N       -0.6950     2.1480     0.7240 N.ar  1 <1>  -0.6200 
  5 C       -1.3670     0.0050     1.5420 C.ar  1 <1>   0.0000 
  6 C        1.1570     2.3340    -0.6880 C.ar  1 <1>  -0.1430 
  7 C        2.5000     0.5090    -1.4100 C.3   1 <1>   0.1440 
  8 C        0.1150     2.8930     0.0040 C.ar  1 <1>   0.1600 
  9 C       -2.7140     0.3460     1.6970 C.ar  1 <1>  -0.1500 
 10 C       -0.9370    -1.1630     2.1780 C.ar  1 <1>  -0.1500 
 11 C        2.2040     2.9690    -1.5680 C.3   1 <1>  -0.0160 
 12 C        3.3510    -0.4250    -0.5340 C.3   1 <1>   0.3430 
 13 C        2.0140    -0.2380    -2.6720 C.3   1 <1>  -0.1600 
 14 C        3.2310     1.8350    -1.7580 C.3   1 <1>  -0.1600 
 15 C       -3.5820    -0.4330     2.4400 C.ar  1 <1>  -0.1500 
 16 C       -1.7990    -1.9470     2.9230 C.ar  1 <1>  -0.1500 
 17 N        4.4690    -1.0480    -1.3170 N.4   1 <1>  -0.9590 
 18 C        3.1650    -0.9510    -3.4060 C.3   1 <1>  -0.1600 
 19 C       -3.1260    -1.5830     3.0560 C.ar  1 <1>  -0.1500 
 20 C        3.9850    -1.8480    -2.4730 C.3   1 <1>   0.3430 
 21 C        5.4130    -1.7700    -0.4260 C.3   1 <1>   0.5230 
 22 C        6.3350    -0.7320     0.1910 C.2   1 <1>   0.0060 
 23 N        6.4460     0.4880    -0.2480 N.2   1 <1>  -0.5650 
 24 N        7.1230    -1.0070     1.2580 N.pl3 1 <1>   0.2940 
 25 C        7.3550     1.0390     0.5800 C.2   1 <1>   0.0770 
 26 C        7.7720     0.1440     1.5020 C.2   1 <1>  -0.3020 
 27 C        7.2430    -2.2700     2.0230 C.3   1 <1>  -0.0910 
 28 C        8.6010    -2.8570     2.2610 C.3   1 <1>  -0.2000 
 29 C        7.6520    -3.5360     1.3250 C.3   1 <1>  -0.2000 
 30 H       -0.0610     3.9550    -0.0300 H     1 <1>   0.1500 
 31 H       -3.0880     1.2380     1.2250 H     1 <1>   0.1500 
 32 H        0.0920    -1.4620     2.0890 H     1 <1>   0.1500 
 33 H        2.6470     3.8330    -1.1020 H     1 <1>   0.0800 
 34 H        1.7630     3.2490    -2.5100 H     1 <1>   0.0800 
 35 H        2.7120    -1.1950    -0.1350 H     1 <1>   0.0800 
 36 H        3.7480     0.1420     0.2920 H     1 <1>   0.0800 
 37 H        1.5180     0.4480    -3.3380 H     1 <1>   0.0800 
 38 H        1.2840    -0.9750    -2.3770 H     1 <1>   0.0800 
 39 H        3.6380     1.8460    -2.7530 H     1 <1>   0.0800 
 40 H        4.0370     1.9990    -1.0630 H     1 <1>   0.0800 
 41 H       -4.6140    -0.1420     2.5400 H     1 <1>   0.1500 
 42 H       -1.4400    -2.8420     3.4020 H     1 <1>   0.1500 
 43 H        5.0480    -0.2570    -1.6550 H     1 <1>   0.4500 
 44 H        3.8180    -0.2300    -3.8670 H     1 <1>   0.0800 
 45 H        2.7560    -1.5550    -4.1970 H     1 <1>   0.0800 
 46 H       -3.8000    -2.1910     3.6350 H     1 <1>   0.1500 
 47 H        3.3670    -2.6590    -2.1220 H     1 <1>   0.0800 
 48 H        4.8200    -2.2620    -3.0150 H     1 <1>   0.0800 
 49 H        6.0070    -2.4640    -0.9970 H     1 <1>   0.0800 
 50 H        4.8790    -2.3100     0.3380 H     1 <1>   0.0800 
 51 H        7.6700     2.0660     0.4730 H     1 <1>   0.1500 
 52 H        8.4820     0.2570     2.3010 H     1 <1>   0.1500 
 53 H        6.5370    -2.3170     2.8350 H     1 <1>   0.1000 
 54 H        8.8090    -3.3370     3.2030 H     1 <1>   0.1000 
 55 H        9.4690    -2.3670     1.8510 H     1 <1>   0.1000 
 56 H        7.9260    -3.5380     0.2840 H     1 <1>   0.1000 
 57 H        7.2440    -4.4800     1.6450 H     1 <1>   0.1000 
@<TRIPOS>BOND
  1   1   2  ar  
  2   1   3  ar  
  3   2   4  ar  
  4   2   5  1   
  5   3   6  ar  
  6   3   7  1   
  7   4   8  ar  
  8   5   9  ar  
  9   5  10  ar  
 10   6   8  ar  
 11   6  11  1   
 12   7  12  1   
 13   7  13  1   
 14   7  14  1   
 15   8  30  1   
 16   9  15  ar  
 17   9  31  1   
 18  10  16  ar  
 19  10  32  1   
 20  11  14  1   
 21  11  33  1   
 22  11  34  1   
 23  12  17  1   
 24  12  35  1   
 25  12  36  1   
 26  13  18  1   
 27  13  37  1   
 28  13  38  1   
 29  14  39  1   
 30  14  40  1   
 31  15  19  ar  
 32  15  41  1   
 33  16  19  ar  
 34  16  42  1   
 35  17  20  1   
 36  17  21  1   
 37  17  43  1   
 38  18  20  1   
 39  18  44  1   
 40  18  45  1   
 41  19  46  1   
 42  20  47  1   
 43  20  48  1   
 44  21  22  1   
 45  21  49  1   
 46  21  50  1   
 47  22  23  2   
 48  22  24  1   
 49  23  25  1   
 50  24  26  1   
 51  24  27  1   
 52  25  26  2   
 53  25  51  1   
 54  26  52  1   
 55  27  28  1   
 56  27  29  1   
 57  27  53  1   
 58  28  29  1   
 59  28  54  1   
 60  28  55  1   
 61  29  56  1   
 62  29  57  1   
@<TRIPOS>SUBSTRUCTURE
  1 ****  12 GROUP 4 **** **** 0

# MOE 2024.06 (io_trps.svl 2023.06)
