@<TRIPOS>MOLECULE
NONAME
60 63 1 0 0 
SMALL
USER_CHARGES


@<TRIPOS>ATOM
  1 O       -2.2690     0.5770    -2.5910 O.2   1 <1>  -0.5700 
  2 C       -1.9320     0.8580    -1.4570 C.2   1 <1>   0.5440 
  3 N       -1.7700    -0.1620    -0.5650 N.am  1 <1>  -0.7300 
  4 C       -1.7420     2.2400    -1.0570 C.ar  1 <1>   0.0860 
  5 C       -1.9320    -1.6030    -0.8710 C.3   1 <1>   0.2200 
  6 C       -0.9390     2.5960     0.0300 C.ar  1 <1>  -0.1500 
  7 C       -2.3670     3.2760    -1.7540 C.ar  1 <1>  -0.1500 
  8 C       -3.2730    -2.1260    -0.3730 C.3   1 <1>  -0.0800 
  9 C       -0.9810    -2.3980     0.0120 C.3   1 <1>   0.1200 
 10 C       -0.7770     3.9170     0.4030 C.ar  1 <1>  -0.1500 
 11 C       -2.2110     4.6000    -1.3890 C.ar  1 <1>  -0.1500 
 12 C       -2.9960    -2.4390     1.1020 C.3   1 <1>   0.1200 
 13 C       -4.4860    -1.2080    -0.6110 C.3   1 <1>  -0.0160 
 14 O       -1.6050    -2.4530     1.2590 O.3   1 <1>  -0.5600 
 15 C       -1.4070     4.9280    -0.3020 C.ar  1 <1>   0.0830 
 16 C       -5.7700    -1.8690    -0.1350 C.ar  1 <1>  -0.1430 
 17 O       -1.1880     6.1920     0.1170 O.3   1 <1>  -0.3630 
 18 C       -6.4250    -2.8140    -0.8980 C.ar  1 <1>  -0.1500 
 19 C       -6.3470    -1.5610     1.0800 C.ar  1 <1>  -0.1500 
 20 C       -1.6490     7.3130    -0.6240 C.3   1 <1>   0.1810 
 21 C       -7.5890    -3.3940    -0.4200 C.ar  1 <1>   0.1600 
 22 C       -7.5140    -2.2000     1.4660 C.ar  1 <1>   0.1600 
 23 C       -1.1150     8.6180    -0.0430 C.2   1 <1>   0.5690 
 24 N       -8.1480    -3.1110     0.7450 N.ar  1 <1>  -0.6200 
 25 O       -1.9380     9.4210     0.3350 O.2   1 <1>  -0.5700 
 26 N        0.2350     8.8820     0.0180 N.am  1 <1>  -0.6600 
 27 C        0.7530    10.0990     0.7030 C.3   1 <1>   0.1400 
 28 C        1.3080     7.9610    -0.4500 C.3   1 <1>   0.1400 
 29 C        1.5940     9.6800     1.9150 C.3   1 <1>  -0.1600 
 30 C        2.1430     7.5060     0.7510 C.3   1 <1>  -0.1600 
 31 C        2.7140     8.7040     1.5230 C.3   1 <1>  -0.1600 
 32 H       -1.6040     0.0300     0.4250 H     1 <1>   0.3700 
 33 H       -1.7720    -1.7920    -1.9190 H     1 <1>   0.0800 
 34 H       -0.4260     1.8340     0.5880 H     1 <1>   0.1500 
 35 H       -2.9890     3.0300    -2.5980 H     1 <1>   0.1500 
 36 H       -3.4620    -3.0630    -0.8680 H     1 <1>   0.0800 
 37 H       -0.0140    -1.9360     0.1070 H     1 <1>   0.0800 
 38 H       -0.8740    -3.4060    -0.3500 H     1 <1>   0.0800 
 39 H       -0.1570     4.1760     1.2430 H     1 <1>   0.1500 
 40 H       -2.7220     5.3540    -1.9570 H     1 <1>   0.1500 
 41 H       -3.3910    -3.4000     1.3870 H     1 <1>   0.0800 
 42 H       -3.3890    -1.6770     1.7520 H     1 <1>   0.0800 
 43 H       -4.5660    -0.9870    -1.6620 H     1 <1>   0.0800 
 44 H       -4.3580    -0.2730    -0.0960 H     1 <1>   0.0800 
 45 H       -6.0420    -3.1040    -1.8600 H     1 <1>   0.1500 
 46 H       -5.9030    -0.8310     1.7310 H     1 <1>   0.1500 
 47 H       -1.3190     7.2150    -1.6410 H     1 <1>   0.0800 
 48 H       -2.7230     7.3170    -0.5870 H     1 <1>   0.0800 
 49 H       -8.0860    -4.1300    -1.0290 H     1 <1>   0.1500 
 50 H       -7.9500    -1.9480     2.4170 H     1 <1>   0.1500 
 51 H        1.3570    10.6610     0.0120 H     1 <1>   0.0800 
 52 H       -0.0560    10.7300     1.0280 H     1 <1>   0.0800 
 53 H        0.9020     7.1040    -0.9550 H     1 <1>   0.0800 
 54 H        1.9370     8.4870    -1.1490 H     1 <1>   0.0800 
 55 H        2.0190    10.5550     2.3720 H     1 <1>   0.0800 
 56 H        0.9450     9.2160     2.6370 H     1 <1>   0.0800 
 57 H        1.5190     6.9160     1.4000 H     1 <1>   0.0800 
 58 H        2.9470     6.8780     0.4090 H     1 <1>   0.0800 
 59 H        3.2220     8.3580     2.4080 H     1 <1>   0.0800 
 60 H        3.4330     9.2160     0.9060 H     1 <1>   0.0800 
@<TRIPOS>BOND
  1   1   2  2   
  2   2   3  am  
  3   2   4  1   
  4   3   5  1   
  5   3  32  1   
  6   4   6  ar  
  7   4   7  ar  
  8   5   8  1   
  9   5   9  1   
 10   5  33  1   
 11   6  10  ar  
 12   6  34  1   
 13   7  11  ar  
 14   7  35  1   
 15   8  12  1   
 16   8  13  1   
 17   8  36  1   
 18   9  14  1   
 19   9  37  1   
 20   9  38  1   
 21  10  15  ar  
 22  10  39  1   
 23  11  15  ar  
 24  11  40  1   
 25  12  14  1   
 26  12  41  1   
 27  12  42  1   
 28  13  16  1   
 29  13  43  1   
 30  13  44  1   
 31  15  17  1   
 32  16  18  ar  
 33  16  19  ar  
 34  17  20  1   
 35  18  21  ar  
 36  18  45  1   
 37  19  22  ar  
 38  19  46  1   
 39  20  23  1   
 40  20  47  1   
 41  20  48  1   
 42  21  24  ar  
 43  21  49  1   
 44  22  24  ar  
 45  22  50  1   
 46  23  25  2   
 47  23  26  am  
 48  26  27  1   
 49  26  28  1   
 50  27  29  1   
 51  27  51  1   
 52  27  52  1   
 53  28  30  1   
 54  28  53  1   
 55  28  54  1   
 56  29  31  1   
 57  29  55  1   
 58  29  56  1   
 59  30  31  1   
 60  30  57  1   
 61  30  58  1   
 62  31  59  1   
 63  31  60  1   
@<TRIPOS>SUBSTRUCTURE
  1 ****   4 GROUP 4 **** **** 0

# MOE 2024.06 (io_trps.svl 2023.06)
