@<TRIPOS>MOLECULE
NONAME
53 55 1 0 0 
SMALL
USER_CHARGES


@<TRIPOS>ATOM
  1 O       -0.2740     0.4080     0.4970 O.2   1 <1>  -0.5700 
  2 C       -1.3340     0.9930     0.3790 C.2   1 <1>   0.5440 
  3 N       -2.4670     0.2500     0.1360 N.am  1 <1>  -0.6600 
  4 C       -1.3820     2.4370     0.4850 C.ar  1 <1>   0.0860 
  5 C       -3.7490     0.7970    -0.3750 C.3   1 <1>   0.1400 
  6 C       -2.4200    -1.2210    -0.0330 C.3   1 <1>   0.1400 
  7 C       -0.5750     3.2390    -0.3160 C.ar  1 <1>  -0.1500 
  8 C       -2.2290     3.0780     1.3870 C.ar  1 <1>  -0.1500 
  9 C       -4.4670    -0.4020    -0.9950 C.3   1 <1>   0.2000 
 10 C       -3.8630    -1.6360    -0.3260 C.3   1 <1>  -0.0800 
 11 C       -0.6100     4.6200    -0.2460 C.ar  1 <1>   0.0830 
 12 C       -2.2860     4.4580     1.4700 C.ar  1 <1>  -0.1500 
 13 O       -5.8330    -0.3550    -0.7640 O.3   1 <1>  -0.6800 
 14 C       -3.9810    -2.8960    -1.1990 C.3   1 <1>   0.0200 
 15 O        0.2390     5.2630    -1.0950 O.3   1 <1>  -0.3630 
 16 C       -1.4860     5.2520     0.6510 C.ar  1 <1>   0.0830 
 17 C       -3.4230    -4.1440    -0.5350 C.2   1 <1>  -0.0400 
 18 C        0.8990     6.4420    -0.6960 C.3   1 <1>   0.1200 
 19 O       -1.5510     6.6110     0.6920 O.3   1 <1>  -0.3630 
 20 O       -3.3160    -5.2350    -1.2450 O.3   1 <1>  -0.0190 
 21 C       -2.9820    -4.4200     0.7040 C.2   1 <1>  -0.1500 
 22 C        2.1590     6.5890    -1.5440 C.3   1 <1>  -0.2400 
 23 C       -2.4400     7.3090     1.5320 C.3   1 <1>   0.1200 
 24 N       -2.8240    -6.2220    -0.5540 N.2   1 <1>  -0.4100 
 25 C       -2.6130    -5.7590     0.6260 C.2   1 <1>   0.1080 
 26 C       -2.2390     8.8020     1.2890 C.3   1 <1>  -0.2400 
 27 C       -2.0400    -6.5700     1.7660 C.3   1 <1>  -0.0590 
 28 H       -4.3150     1.2010     0.4450 H     1 <1>   0.0800 
 29 H       -3.5680     1.5580    -1.1150 H     1 <1>   0.0800 
 30 H       -1.7730    -1.4560    -0.8620 H     1 <1>   0.0800 
 31 H       -2.0360    -1.6880     0.8570 H     1 <1>   0.0800 
 32 H        0.1010     2.7710    -1.0080 H     1 <1>   0.1500 
 33 H       -2.8460     2.4800     2.0330 H     1 <1>   0.1500 
 34 H       -4.3030    -0.4120    -2.0590 H     1 <1>   0.0800 
 35 H       -4.3500    -1.8050     0.6190 H     1 <1>   0.0800 
 36 H       -2.9610     4.8930     2.1810 H     1 <1>   0.1500 
 37 H       -6.0220    -0.3920     0.1930 H     1 <1>   0.4000 
 38 H       -3.4600    -2.7400    -2.1270 H     1 <1>   0.0800 
 39 H       -5.0170    -3.0720    -1.4320 H     1 <1>   0.0800 
 40 H        0.2360     7.2730    -0.8560 H     1 <1>   0.0800 
 41 H        1.1480     6.3630     0.3490 H     1 <1>   0.0800 
 42 H       -2.9130    -3.7980     1.5760 H     1 <1>   0.1500 
 43 H        1.8960     6.6530    -2.5850 H     1 <1>   0.0800 
 44 H        2.8080     5.7460    -1.3880 H     1 <1>   0.0800 
 45 H        2.6830     7.4840    -1.2650 H     1 <1>   0.0800 
 46 H       -3.4460     7.0160     1.2840 H     1 <1>   0.0800 
 47 H       -2.2150     7.0570     2.5540 H     1 <1>   0.0800 
 48 H       -2.4470     9.0400     0.2610 H     1 <1>   0.0800 
 49 H       -1.2280     9.0820     1.5250 H     1 <1>   0.0800 
 50 H       -2.9060     9.3670     1.9140 H     1 <1>   0.0800 
 51 H       -1.1110    -6.1380     2.0890 H     1 <1>   0.0800 
 52 H       -1.8610    -7.5800     1.4450 H     1 <1>   0.0800 
 53 H       -2.7310    -6.5830     2.5880 H     1 <1>   0.0800 
@<TRIPOS>BOND
  1   1   2  2   
  2   2   3  am  
  3   2   4  1   
  4   3   5  1   
  5   3   6  1   
  6   4   7  ar  
  7   4   8  ar  
  8   5   9  1   
  9   5  28  1   
 10   5  29  1   
 11   6  10  1   
 12   6  30  1   
 13   6  31  1   
 14   7  11  ar  
 15   7  32  1   
 16   8  12  ar  
 17   8  33  1   
 18   9  10  1   
 19   9  13  1   
 20   9  34  1   
 21  10  14  1   
 22  10  35  1   
 23  11  15  1   
 24  11  16  ar  
 25  12  16  ar  
 26  12  36  1   
 27  13  37  1   
 28  14  17  1   
 29  14  38  1   
 30  14  39  1   
 31  15  18  1   
 32  16  19  1   
 33  17  20  1   
 34  17  21  2   
 35  18  22  1   
 36  18  40  1   
 37  18  41  1   
 38  19  23  1   
 39  20  24  1   
 40  21  25  1   
 41  21  42  1   
 42  22  43  1   
 43  22  44  1   
 44  22  45  1   
 45  23  26  1   
 46  23  46  1   
 47  23  47  1   
 48  24  25  2   
 49  25  27  1   
 50  26  48  1   
 51  26  49  1   
 52  26  50  1   
 53  27  51  1   
 54  27  52  1   
 55  27  53  1   
@<TRIPOS>SUBSTRUCTURE
  1 ****   2 GROUP 4 **** **** 0

# MOE 2024.06 (io_trps.svl 2023.06)
