@<TRIPOS>MOLECULE
NONAME
45 47 1 0 0 
SMALL
USER_CHARGES


@<TRIPOS>ATOM
  1 S       -0.7970     0.4450     0.4240 S.o2  1 <1>   1.0900 
  2 O       -1.2330     1.5940     1.1810 O.2   1 <1>  -0.6500 
  3 O        0.6000     0.1860     0.1670 O.2   1 <1>  -0.6500 
  4 C       -1.5040    -1.0390     1.0830 C.3   1 <1>  -0.0550 
  5 C       -1.6690     0.3510    -1.1330 C.3   1 <1>  -0.0550 
  6 C       -1.7230    -1.9270    -0.1390 C.3   1 <1>   0.1760 
  7 C       -2.3290    -1.0350    -1.2410 C.3   1 <1>  -0.1600 
  8 N       -2.6010    -3.0840     0.1680 N.pl3 1 <1>   0.3140 
  9 N       -3.7540    -2.9260     0.8480 N.2   1 <1>  -0.7070 
 10 C       -2.4200    -4.3750    -0.2110 C.2   1 <1>  -0.3320 
 11 C       -4.2860    -4.1070     0.8760 C.2   1 <1>   0.1080 
 12 C       -3.5020    -5.0590     0.2230 C.2   1 <1>   0.0630 
 13 C       -1.2070    -4.8870    -0.9780 C.3   1 <1>  -0.0600 
 14 C       -5.6150    -4.3800     1.5450 C.3   1 <1>  -0.0590 
 15 N       -3.8150    -6.4340     0.0810 N.am  1 <1>  -0.4930 
 16 C       -3.8280    -7.1970    -1.0500 C.2   1 <1>   0.5690 
 17 O       -3.4870    -6.7870    -2.1350 O.2   1 <1>  -0.5700 
 18 C       -4.2950    -8.6410    -0.9650 C.3   1 <1>   0.1310 
 19 S       -5.1180    -9.0010     0.6650 S.3   1 <1>  -0.3310 
 20 C       -5.6440   -10.7180     0.6250 C.ar  1 <1>   0.4120 
 21 N       -6.2430   -11.1100     1.7360 N.ar  1 <1>  -0.6200 
 22 C       -5.4200   -11.5150    -0.4900 C.ar  1 <1>  -0.1500 
 23 C       -6.6430   -12.3710     1.7390 C.ar  1 <1>   0.1600 
 24 C       -5.8450   -12.8260    -0.4650 C.ar  1 <1>  -0.1500 
 25 C       -6.4720   -13.2550     0.6860 C.ar  1 <1>  -0.1500 
 26 H       -2.4470    -0.8110     1.5440 H     1 <1>   0.0800 
 27 H       -0.8530    -1.5030     1.7980 H     1 <1>   0.0800 
 28 H       -0.9790     0.4980    -1.9430 H     1 <1>   0.0800 
 29 H       -2.4220     1.1160    -1.1880 H     1 <1>   0.0800 
 30 H       -0.7670    -2.2910    -0.4690 H     1 <1>   0.0800 
 31 H       -2.1740    -1.4670    -2.2140 H     1 <1>   0.0800 
 32 H       -3.3880    -0.9280    -1.0700 H     1 <1>   0.0800 
 33 H       -0.2980    -4.6130    -0.4740 H     1 <1>   0.0800 
 34 H       -1.2010    -4.4800    -1.9730 H     1 <1>   0.0800 
 35 H       -1.2330    -5.9580    -1.0540 H     1 <1>   0.0800 
 36 H       -6.1290    -3.4530     1.7250 H     1 <1>   0.0800 
 37 H       -5.4540    -4.8780     2.4820 H     1 <1>   0.0800 
 38 H       -6.2260    -4.9970     0.9120 H     1 <1>   0.0800 
 39 H       -4.2090    -6.8790     0.9130 H     1 <1>   0.3700 
 40 H       -3.4550    -9.3040    -1.0570 H     1 <1>   0.0800 
 41 H       -5.0140    -8.8350    -1.7380 H     1 <1>   0.0800 
 42 H       -4.9280   -11.1400    -1.3640 H     1 <1>   0.1500 
 43 H       -7.1340   -12.7200     2.6320 H     1 <1>   0.1500 
 44 H       -5.6960   -13.4860    -1.3030 H     1 <1>   0.1500 
 45 H       -6.8270   -14.2660     0.7700 H     1 <1>   0.1500 
@<TRIPOS>BOND
  1   1   2  2   
  2   1   3  2   
  3   1   4  1   
  4   1   5  1   
  5   4   6  1   
  6   4  26  1   
  7   4  27  1   
  8   5   7  1   
  9   5  28  1   
 10   5  29  1   
 11   6   7  1   
 12   6   8  1   
 13   6  30  1   
 14   7  31  1   
 15   7  32  1   
 16   8   9  1   
 17   8  10  1   
 18   9  11  2   
 19  10  12  2   
 20  10  13  1   
 21  11  12  1   
 22  11  14  1   
 23  12  15  1   
 24  13  33  1   
 25  13  34  1   
 26  13  35  1   
 27  14  36  1   
 28  14  37  1   
 29  14  38  1   
 30  15  16  am  
 31  15  39  1   
 32  16  17  2   
 33  16  18  1   
 34  18  19  1   
 35  18  40  1   
 36  18  41  1   
 37  19  20  1   
 38  20  21  ar  
 39  20  22  ar  
 40  21  23  ar  
 41  22  24  ar  
 42  22  42  1   
 43  23  25  ar  
 44  23  43  1   
 45  24  25  ar  
 46  24  44  1   
 47  25  45  1   
@<TRIPOS>SUBSTRUCTURE
  1 ****  12 GROUP 4 **** **** 0

# MOE 2024.06 (io_trps.svl 2023.06)
