@<TRIPOS>MOLECULE
NONAME
47 48 1 0 0 
SMALL
USER_CHARGES


@<TRIPOS>ATOM
  1 S       -0.9730    -0.7950    -0.6940 S.3   1 <1>  -0.4600 
  2 C       -2.0200    -0.4700     0.7710 C.3   1 <1>   0.1310 
  3 C        0.2900     0.5020    -0.6030 C.3   1 <1>  -0.0100 
  4 C       -2.9700    -1.6300     1.0660 C.2   1 <1>   0.5690 
  5 O       -2.7370    -2.2790     2.0600 O.2   1 <1>  -0.5700 
  6 N       -4.0660    -1.8950     0.2750 N.am  1 <1>  -0.6600 
  7 C       -4.9530    -3.0630     0.5700 C.3   1 <1>   0.1400 
  8 C       -4.4600    -1.0850    -0.9130 C.3   1 <1>   0.1400 
  9 C       -6.3970    -2.6360     0.8700 C.3   1 <1>   0.1400 
 10 C       -5.5820    -0.1180    -0.5180 C.3   1 <1>  -0.1600 
 11 N       -7.0950    -2.1520    -0.3620 N.am  1 <1>  -0.6600 
 12 C       -6.9990    -0.6930    -0.6650 C.3   1 <1>   0.1400 
 13 C       -7.8360    -2.9980    -1.1670 C.2   1 <1>   0.5440 
 14 O       -8.4520    -2.5380    -2.1100 O.2   1 <1>  -0.5700 
 15 C       -7.8930    -4.4240    -0.9140 C.ar  1 <1>   0.0860 
 16 C       -8.8750    -5.0010    -0.1000 C.ar  1 <1>  -0.1430 
 17 C       -6.9360    -5.2630    -1.4830 C.ar  1 <1>  -0.1500 
 18 C       -8.8720    -6.3650     0.1450 C.ar  1 <1>  -0.1500 
 19 C       -9.9630    -4.1310     0.5180 C.3   1 <1>  -0.0970 
 20 C       -6.9340    -6.6220    -1.2370 C.ar  1 <1>  -0.1500 
 21 C       -7.8980    -7.1850    -0.4180 C.ar  1 <1>   0.0830 
 22 O       -7.8280    -8.5200    -0.2210 O.3   1 <1>  -0.3630 
 23 C       -8.7770    -9.2070     0.5630 C.3   1 <1>   0.0400 
 24 H       -2.5670     0.4350     0.5880 H     1 <1>   0.0800 
 25 H       -1.3560    -0.3280     1.6030 H     1 <1>   0.0800 
 26 H        0.9460     0.3770    -1.4470 H     1 <1>   0.0800 
 27 H        0.8280     0.3780     0.3190 H     1 <1>   0.0800 
 28 H       -0.2050     1.4560    -0.6410 H     1 <1>   0.0800 
 29 H       -4.5800    -3.6030     1.4220 H     1 <1>   0.0800 
 30 H       -4.9370    -3.7410    -0.2640 H     1 <1>   0.0800 
 31 H       -4.7810    -1.7320    -1.7120 H     1 <1>   0.0800 
 32 H       -3.6210    -0.5240    -1.2780 H     1 <1>   0.0800 
 33 H       -6.3970    -1.8680     1.6230 H     1 <1>   0.0800 
 34 H       -6.9260    -3.4790     1.2760 H     1 <1>   0.0800 
 35 H       -5.5230     0.7480    -1.1520 H     1 <1>   0.0800 
 36 H       -5.4300     0.2260     0.4900 H     1 <1>   0.0800 
 37 H       -7.3190    -0.5200    -1.6790 H     1 <1>   0.0800 
 38 H       -7.6750    -0.1560    -0.0220 H     1 <1>   0.0800 
 39 H       -6.1880    -4.8360    -2.1270 H     1 <1>   0.1500 
 40 H       -9.6330    -6.7840     0.7750 H     1 <1>   0.1500 
 41 H      -10.5000    -3.6140    -0.2580 H     1 <1>   0.0800 
 42 H       -9.5270    -3.4020     1.1780 H     1 <1>   0.0800 
 43 H      -10.6650    -4.7210     1.0780 H     1 <1>   0.0800 
 44 H       -6.1880    -7.2570    -1.6790 H     1 <1>   0.1500 
 45 H       -8.5200   -10.2510     0.5610 H     1 <1>   0.0800 
 46 H       -9.7520    -9.0700     0.1310 H     1 <1>   0.0800 
 47 H       -8.7420    -8.8250     1.5680 H     1 <1>   0.0800 
@<TRIPOS>BOND
  1   1   2  1   
  2   1   3  1   
  3   2   4  1   
  4   2  24  1   
  5   2  25  1   
  6   3  26  1   
  7   3  27  1   
  8   3  28  1   
  9   4   5  2   
 10   4   6  am  
 11   6   7  1   
 12   6   8  1   
 13   7   9  1   
 14   7  29  1   
 15   7  30  1   
 16   8  10  1   
 17   8  31  1   
 18   8  32  1   
 19   9  11  1   
 20   9  33  1   
 21   9  34  1   
 22  10  12  1   
 23  10  35  1   
 24  10  36  1   
 25  11  12  1   
 26  11  13  am  
 27  12  37  1   
 28  12  38  1   
 29  13  14  2   
 30  13  15  1   
 31  15  16  ar  
 32  15  17  ar  
 33  16  18  ar  
 34  16  19  1   
 35  17  20  ar  
 36  17  39  1   
 37  18  21  ar  
 38  18  40  1   
 39  19  41  1   
 40  19  42  1   
 41  19  43  1   
 42  20  21  ar  
 43  20  44  1   
 44  21  22  1   
 45  22  23  1   
 46  23  45  1   
 47  23  46  1   
 48  23  47  1   
@<TRIPOS>SUBSTRUCTURE
  1 ****   7 GROUP 4 **** **** 0

# MOE 2024.06 (io_trps.svl 2023.06)
