@<TRIPOS>MOLECULE
NONAME
39 39 1 0 0 
SMALL
USER_CHARGES


@<TRIPOS>ATOM
  1 O        0.3980     0.2760     2.6160 O.2   1 <1>  -0.5700 
  2 C        1.1010    -0.4030     1.9120 C.2   1 <1>   0.5690 
  3 N        2.1440     0.0820     1.1780 N.am  1 <1>  -0.4940 
  4 C        0.8210    -1.8940     1.8360 C.3   1 <1>  -0.0990 
  5 C        2.6170     1.3940     1.0580 C.2   1 <1>   0.2040 
  6 C        0.4290    -2.3950     0.4270 C.3   1 <1>  -0.0800 
  7 O        2.0840     2.3960     1.7150 O.3   1 <1>  -0.0190 
  8 C        3.6300     1.8860     0.3160 C.2   1 <1>  -0.1810 
  9 C       -0.8460    -1.6640    -0.0560 C.3   1 <1>  -0.1600 
 10 C        0.2590    -3.9330     0.4570 C.3   1 <1>  -0.1600 
 11 N        2.6860     3.5280     1.4510 N.2   1 <1>  -0.4100 
 12 C        3.6180     3.2490     0.6120 C.2   1 <1>   0.1080 
 13 C        4.5800     1.1700    -0.6300 C.3   1 <1>  -0.0590 
 14 C       -1.2950    -2.0370    -1.4730 C.3   1 <1>  -0.2400 
 15 C        0.8080    -4.6240    -0.8000 C.3   1 <1>  -0.2400 
 16 C        4.5600     4.2960     0.0440 C.3   1 <1>   0.0210 
 17 C        4.0500     4.8370    -1.2960 C.3   1 <1>  -0.2400 
 18 H        2.6400    -0.6040     0.6190 H     1 <1>   0.3700 
 19 H        0.0290    -2.1250     2.5270 H     1 <1>   0.0800 
 20 H        1.7010    -2.4070     2.1750 H     1 <1>   0.0800 
 21 H        1.2340    -2.1530    -0.2470 H     1 <1>   0.0800 
 22 H       -0.6750    -0.6010    -0.0430 H     1 <1>   0.0800 
 23 H       -1.6550    -1.8610     0.6280 H     1 <1>   0.0800 
 24 H       -0.7790    -4.1870     0.5890 H     1 <1>   0.0800 
 25 H        0.7880    -4.3470     1.2990 H     1 <1>   0.0800 
 26 H        4.3530     0.1210    -0.6760 H     1 <1>   0.0800 
 27 H        5.5930     1.2880    -0.2890 H     1 <1>   0.0800 
 28 H        4.4940     1.5840    -1.6190 H     1 <1>   0.0800 
 29 H       -0.4870    -1.9120    -2.1720 H     1 <1>   0.0800 
 30 H       -2.1070    -1.3990    -1.7750 H     1 <1>   0.0800 
 31 H       -1.6430    -3.0540    -1.5100 H     1 <1>   0.0800 
 32 H        0.3130    -4.2790    -1.6880 H     1 <1>   0.0800 
 33 H        0.6580    -5.6870    -0.7240 H     1 <1>   0.0800 
 34 H        1.8620    -4.4390    -0.9000 H     1 <1>   0.0800 
 35 H        5.5400     3.8720    -0.0810 H     1 <1>   0.0800 
 36 H        4.6410     5.1070     0.7470 H     1 <1>   0.0800 
 37 H        3.9750     4.0440    -2.0180 H     1 <1>   0.0800 
 38 H        4.7200     5.5890    -1.6720 H     1 <1>   0.0800 
 39 H        3.0760     5.2750    -1.1650 H     1 <1>   0.0800 
@<TRIPOS>BOND
  1   1   2  2   
  2   2   3  am  
  3   2   4  1   
  4   3   5  1   
  5   3  18  1   
  6   4   6  1   
  7   4  19  1   
  8   4  20  1   
  9   5   7  1   
 10   5   8  2   
 11   6   9  1   
 12   6  10  1   
 13   6  21  1   
 14   7  11  1   
 15   8  12  1   
 16   8  13  1   
 17   9  14  1   
 18   9  22  1   
 19   9  23  1   
 20  10  15  1   
 21  10  24  1   
 22  10  25  1   
 23  11  12  2   
 24  12  16  1   
 25  13  26  1   
 26  13  27  1   
 27  13  28  1   
 28  14  29  1   
 29  14  30  1   
 30  14  31  1   
 31  15  32  1   
 32  15  33  1   
 33  15  34  1   
 34  16  17  1   
 35  16  35  1   
 36  16  36  1   
 37  17  37  1   
 38  17  38  1   
 39  17  39  1   
@<TRIPOS>SUBSTRUCTURE
  1 ****   3 GROUP 4 **** **** 0

# MOE 2024.06 (io_trps.svl 2023.06)
