@<TRIPOS>MOLECULE
NONAME
39 40 1 0 0 
SMALL
USER_CHARGES


@<TRIPOS>ATOM
  1 S       -0.6330     0.9210     2.3570 S.3   1 <1>  -0.0800 
  2 C       -1.2240     1.4130     0.7930 C.2   1 <1>  -0.1400 
  3 C       -0.6780    -0.7410     1.8190 C.2   1 <1>   0.2280 
  4 C       -1.3990     0.3140     0.0370 C.2   1 <1>   0.0460 
  5 C       -1.4340     2.8990     0.5630 C.3   1 <1>   0.2900 
  6 N       -1.0890    -0.9000     0.6250 N.2   1 <1>  -0.5650 
  7 C       -1.8940     0.2480    -1.3920 C.3   1 <1>  -0.0590 
  8 N       -0.1510     3.6210     0.5640 N.3   1 <1>  -0.8100 
  9 C       -0.3590     5.0880     0.6360 C.3   1 <1>   0.2900 
 10 C        0.7250     3.2280    -0.5530 C.3   1 <1>   0.1100 
 11 C        0.9290     5.8890     0.8010 C.2   1 <1>   0.2980 
 12 C        2.0580     2.7610     0.0190 C.3   1 <1>  -0.2400 
 13 O        1.5870     5.8000     1.9300 O.3   1 <1>  -0.0190 
 14 N        1.4370     6.6680    -0.0700 N.2   1 <1>  -0.5650 
 15 N        2.6060     6.5870     1.7620 N.2   1 <1>  -0.4100 
 16 C        2.5110     7.0830     0.5930 C.2   1 <1>   0.3350 
 17 C        3.5160     8.0600    -0.0160 C.3   1 <1>   0.1010 
 18 C        2.8560     9.4060    -0.3510 C.3   1 <1>  -0.2400 
 19 C        4.1820     7.4670    -1.2660 C.3   1 <1>  -0.2400 
 20 H       -0.3620    -1.4900     2.5220 H     1 <1>   0.1500 
 21 H       -2.0590     3.2730     1.3560 H     1 <1>   0.0800 
 22 H       -1.9420     3.0620    -0.3710 H     1 <1>   0.0800 
 23 H       -2.1000     1.2280    -1.7770 H     1 <1>   0.0800 
 24 H       -2.7920    -0.3410    -1.4330 H     1 <1>   0.0800 
 25 H       -1.1470    -0.2190    -2.0070 H     1 <1>   0.0800 
 26 H       -0.9910     5.3140     1.4760 H     1 <1>   0.0800 
 27 H       -0.8560     5.4230    -0.2570 H     1 <1>   0.0800 
 28 H        0.8870     4.0520    -1.2290 H     1 <1>   0.0800 
 29 H        0.2920     2.4210    -1.1190 H     1 <1>   0.0800 
 30 H        2.5390     3.5550     0.5580 H     1 <1>   0.0800 
 31 H        2.7060     2.4490    -0.7790 H     1 <1>   0.0800 
 32 H        1.9020     1.9270     0.6800 H     1 <1>   0.0800 
 33 H        4.2830     8.2380     0.7190 H     1 <1>   0.0800 
 34 H        2.0890     9.2710    -1.0930 H     1 <1>   0.0800 
 35 H        3.5860    10.1000    -0.7270 H     1 <1>   0.0800 
 36 H        2.4070     9.8220     0.5330 H     1 <1>   0.0800 
 37 H        3.4470     7.2850    -2.0300 H     1 <1>   0.0800 
 38 H        4.6560     6.5330    -1.0180 H     1 <1>   0.0800 
 39 H        4.9270     8.1400    -1.6510 H     1 <1>   0.0800 
@<TRIPOS>BOND
  1   1   2  1   
  2   1   3  1   
  3   2   4  2   
  4   2   5  1   
  5   3   6  2   
  6   3  20  1   
  7   4   6  1   
  8   4   7  1   
  9   5   8  1   
 10   5  21  1   
 11   5  22  1   
 12   7  23  1   
 13   7  24  1   
 14   7  25  1   
 15   8   9  1   
 16   8  10  1   
 17   9  11  1   
 18   9  26  1   
 19   9  27  1   
 20  10  12  1   
 21  10  28  1   
 22  10  29  1   
 23  11  13  1   
 24  11  14  2   
 25  12  30  1   
 26  12  31  1   
 27  12  32  1   
 28  13  15  1   
 29  14  16  1   
 30  15  16  2   
 31  16  17  1   
 32  17  18  1   
 33  17  19  1   
 34  17  33  1   
 35  18  34  1   
 36  18  35  1   
 37  18  36  1   
 38  19  37  1   
 39  19  38  1   
 40  19  39  1   
@<TRIPOS>SUBSTRUCTURE
  1 ****   8 GROUP 4 **** **** 0

# MOE 2024.06 (io_trps.svl 2023.06)
