@<TRIPOS>MOLECULE
NONAME
56 59 1 0 0 
SMALL
USER_CHARGES


@<TRIPOS>ATOM
  1 O        0.2680     1.2060    -0.5740 O.2   1 <1>  -0.5700 
  2 C       -0.3560     2.1800    -0.2210 C.2   1 <1>   0.5770 
  3 N        0.2640     3.1790     0.4960 N.am  1 <1>  -0.6600 
  4 C       -1.8300     2.2840    -0.6130 C.3   1 <1>   0.0530 
  5 C        1.6420     2.9450     1.0210 C.3   1 <1>   0.1400 
  6 C       -0.3200     4.5250     0.7490 C.3   1 <1>   0.1400 
  7 C       -2.8200     2.3110     0.5850 C.3   1 <1>   0.0000 
  8 C       -2.5260     0.9590    -1.0410 C.3   1 <1>   0.0000 
  9 C        2.7110     3.2610    -0.0390 C.3   1 <1>   0.2090 
 10 C        0.6470     5.6640     0.3840 C.3   1 <1>  -0.1600 
 11 C       -3.7830     1.4710    -0.2910 C.3   1 <1>   0.0000 
 12 N        2.8500     4.7430    -0.3200 N.pl3 1 <1>  -0.8380 
 13 C        1.5650     5.3500    -0.8050 C.3   1 <1>   0.2090 
 14 C        4.0230     5.4140    -0.2150 C.ar  1 <1>   0.4610 
 15 N        4.0100     6.7470    -0.1950 N.ar  1 <1>  -0.1790 
 16 C        5.3020     4.8060    -0.1090 C.ar  1 <1>  -0.1500 
 17 C        5.1140     7.5690    -0.0580 C.ar  1 <1>   0.3610 
 18 C        6.4440     5.5340     0.0330 C.ar  1 <1>  -0.1430 
 19 C        6.3750     6.9600     0.0700 C.ar  1 <1>   0.0000 
 20 C        4.9740     8.9710    -0.0380 C.ar  1 <1>  -0.1430 
 21 C        7.7920     4.8290     0.1410 C.3   1 <1>  -0.0970 
 22 C        7.4880     7.7970     0.2220 C.ar  1 <1>  -0.1500 
 23 C        6.0990     9.7630     0.1160 C.ar  1 <1>  -0.1430 
 24 C        3.5770     9.5880    -0.1860 C.3   1 <1>  -0.0970 
 25 C        7.3500     9.1600     0.2450 C.ar  1 <1>  -0.1500 
 26 C        6.0560    11.2870     0.1550 C.3   1 <1>  -0.0970 
 27 H       -2.0240     3.0740    -1.3190 H     1 <1>   0.0000 
 28 H        1.7340     1.9080     1.3000 H     1 <1>   0.0800 
 29 H        1.8130     3.5300     1.9080 H     1 <1>   0.0800 
 30 H       -0.5980     4.6010     1.7870 H     1 <1>   0.0800 
 31 H       -1.2140     4.6490     0.1650 H     1 <1>   0.0800 
 32 H       -3.1940     3.2910     0.8220 H     1 <1>   0.0000 
 33 H       -2.4600     1.7680     1.4430 H     1 <1>   0.0000 
 34 H       -2.1110     0.0800    -0.5770 H     1 <1>   0.0000 
 35 H       -2.6630     0.8620    -2.1030 H     1 <1>   0.0000 
 36 H        2.4710     2.7370    -0.9500 H     1 <1>   0.0800 
 37 H        3.6290     2.8500     0.3300 H     1 <1>   0.0800 
 38 H        1.2330     5.9270     1.2460 H     1 <1>   0.0800 
 39 H        0.0450     6.5220     0.1420 H     1 <1>   0.0800 
 40 H       -4.4190     2.0790    -0.9120 H     1 <1>   0.0000 
 41 H       -4.3100     0.7060     0.2500 H     1 <1>   0.0000 
 42 H        1.7640     6.2520    -1.3570 H     1 <1>   0.0800 
 43 H        1.0760     4.6780    -1.4930 H     1 <1>   0.0800 
 44 H        3.1040     7.1920    -0.2400 H     1 <1>   0.4570 
 45 H        5.3670     3.7380    -0.1620 H     1 <1>   0.1500 
 46 H        7.6800     3.7610     0.0890 H     1 <1>   0.0800 
 47 H        8.2630     5.0690     1.0780 H     1 <1>   0.0800 
 48 H        8.4370     5.1360    -0.6630 H     1 <1>   0.0800 
 49 H        8.4720     7.3750     0.3240 H     1 <1>   0.1500 
 50 H        3.1250     9.2760    -1.1110 H     1 <1>   0.0800 
 51 H        3.5980    10.6610    -0.1980 H     1 <1>   0.0800 
 52 H        2.9500     9.2950     0.6380 H     1 <1>   0.0800 
 53 H        8.2280     9.7740     0.3640 H     1 <1>   0.1500 
 54 H        5.4310    11.6230     0.9630 H     1 <1>   0.0800 
 55 H        5.6730    11.6730    -0.7730 H     1 <1>   0.0800 
 56 H        7.0360    11.7030     0.3050 H     1 <1>   0.0800 
@<TRIPOS>BOND
  1   1   2  2   
  2   2   3  am  
  3   2   4  1   
  4   3   5  1   
  5   3   6  1   
  6   4   7  1   
  7   4   8  1   
  8   4  27  1   
  9   5   9  1   
 10   5  28  1   
 11   5  29  1   
 12   6  10  1   
 13   6  30  1   
 14   6  31  1   
 15   7  11  1   
 16   7  32  1   
 17   7  33  1   
 18   8  11  1   
 19   8  34  1   
 20   8  35  1   
 21   9  12  1   
 22   9  36  1   
 23   9  37  1   
 24  10  13  1   
 25  10  38  1   
 26  10  39  1   
 27  11  40  1   
 28  11  41  1   
 29  12  13  1   
 30  12  14  1   
 31  13  42  1   
 32  13  43  1   
 33  14  15  ar  
 34  14  16  ar  
 35  15  17  ar  
 36  15  44  1   
 37  16  18  ar  
 38  16  45  1   
 39  17  19  ar  
 40  17  20  ar  
 41  18  19  ar  
 42  18  21  1   
 43  19  22  ar  
 44  20  23  ar  
 45  20  24  1   
 46  21  46  1   
 47  21  47  1   
 48  21  48  1   
 49  22  25  ar  
 50  22  49  1   
 51  23  25  ar  
 52  23  26  1   
 53  24  50  1   
 54  24  51  1   
 55  24  52  1   
 56  25  53  1   
 57  26  54  1   
 58  26  55  1   
 59  26  56  1   
@<TRIPOS>SUBSTRUCTURE
  1 ****  12 GROUP 4 **** **** 0

# MOE 2024.06 (io_trps.svl 2023.06)
