@<TRIPOS>MOLECULE
NONAME
42 43 1 0 0 
SMALL
USER_CHARGES


@<TRIPOS>ATOM
  1 O        2.8510    -0.8660     1.2200 O.2   1 <1>  -0.5700 
  2 C        2.1940    -0.9310     0.2110 C.2   1 <1>   0.5690 
  3 N        1.8020     0.1620    -0.5100 N.am  1 <1>  -0.4940 
  4 C        1.7760    -2.3000    -0.2890 C.3   1 <1>  -0.0990 
  5 C        1.9490     1.5430    -0.2350 C.2   1 <1>  -0.0880 
  6 C        0.4890    -2.8130     0.3850 C.3   1 <1>  -0.0800 
  7 N        3.0410     2.1810     0.2830 N.pl3 1 <1>   0.3140 
  8 C        1.0140     2.4990    -0.4530 C.2   1 <1>  -0.1810 
  9 C        0.1980    -4.2590    -0.0570 C.3   1 <1>   0.1200 
 10 C       -0.7250    -1.9130     0.0880 C.3   1 <1>  -0.1600 
 11 N        2.8100     3.5130     0.4040 N.2   1 <1>  -0.7070 
 12 C        4.3540     1.5840     0.6370 C.3   1 <1>   0.0960 
 13 C        1.6040     3.6860    -0.0360 C.2   1 <1>   0.1390 
 14 C       -0.3920     2.3710    -1.0100 C.3   1 <1>  -0.0590 
 15 O       -0.9780    -4.7120     0.5390 O.3   1 <1>  -0.5600 
 16 C       -2.0020    -2.5570     0.6420 C.3   1 <1>  -0.1600 
 17 C        5.5400     2.5190     0.3450 C.3   1 <1>  -0.1600 
 18 C       -2.1280    -4.0130     0.1800 C.3   1 <1>   0.1200 
 19 C        6.8790     1.8310     0.6370 C.3   1 <1>  -0.2400 
 20 H        1.1780    -0.0400    -1.2890 H     1 <1>   0.3700 
 21 H        2.5790    -2.9820    -0.0750 H     1 <1>   0.0800 
 22 H        1.6510    -2.2730    -1.3560 H     1 <1>   0.0800 
 23 H        0.6550    -2.8290     1.4500 H     1 <1>   0.0800 
 24 H        0.9920    -4.9150     0.2570 H     1 <1>   0.0800 
 25 H        0.0870    -4.3300    -1.1250 H     1 <1>   0.0800 
 26 H       -0.8330    -1.7850    -0.9750 H     1 <1>   0.0800 
 27 H       -0.5960    -0.9450     0.5410 H     1 <1>   0.0800 
 28 H        4.4770     0.6820     0.0690 H     1 <1>   0.0800 
 29 H        4.3310     1.3290     1.6800 H     1 <1>   0.0800 
 30 H        1.1250     4.6500    -0.0690 H     1 <1>   0.1500 
 31 H       -0.6610     1.3390    -1.1350 H     1 <1>   0.0800 
 32 H       -0.4540     2.8680    -1.9610 H     1 <1>   0.0800 
 33 H       -1.0930     2.8270    -0.3330 H     1 <1>   0.0800 
 34 H       -2.8640    -2.0010     0.3210 H     1 <1>   0.0800 
 35 H       -1.9820    -2.5400     1.7180 H     1 <1>   0.0800 
 36 H        5.4570     3.4020     0.9560 H     1 <1>   0.0800 
 37 H        5.5110     2.8190    -0.6890 H     1 <1>   0.0800 
 38 H       -2.9650    -4.4900     0.6590 H     1 <1>   0.0800 
 39 H       -2.2520    -4.0780    -0.8880 H     1 <1>   0.0800 
 40 H        6.9320     1.5380     1.6710 H     1 <1>   0.0800 
 41 H        7.6910     2.5070     0.4320 H     1 <1>   0.0800 
 42 H        6.9970     0.9570     0.0210 H     1 <1>   0.0800 
@<TRIPOS>BOND
  1   1   2  2   
  2   2   3  am  
  3   2   4  1   
  4   3   5  1   
  5   3  20  1   
  6   4   6  1   
  7   4  21  1   
  8   4  22  1   
  9   5   7  1   
 10   5   8  2   
 11   6   9  1   
 12   6  10  1   
 13   6  23  1   
 14   7  11  1   
 15   7  12  1   
 16   8  13  1   
 17   8  14  1   
 18   9  15  1   
 19   9  24  1   
 20   9  25  1   
 21  10  16  1   
 22  10  26  1   
 23  10  27  1   
 24  11  13  2   
 25  12  17  1   
 26  12  28  1   
 27  12  29  1   
 28  13  30  1   
 29  14  31  1   
 30  14  32  1   
 31  14  33  1   
 32  15  18  1   
 33  16  18  1   
 34  16  34  1   
 35  16  35  1   
 36  17  19  1   
 37  17  36  1   
 38  17  37  1   
 39  18  38  1   
 40  18  39  1   
 41  19  40  1   
 42  19  41  1   
 43  19  42  1   
@<TRIPOS>SUBSTRUCTURE
  1 ****   3 GROUP 4 **** **** 0

# MOE 2024.06 (io_trps.svl 2023.06)
