@<TRIPOS>MOLECULE
NONAME
43 45 1 0 0 
SMALL
USER_CHARGES


@<TRIPOS>ATOM
  1 N        2.4730     0.7170    -0.1740 N.ar  1 <1>  -0.1790 
  2 C        1.3680     0.6870     0.6270 C.ar  1 <1>   0.7710 
  3 C        2.8490    -0.3090    -0.9400 C.ar  1 <1>   0.4610 
  4 N        0.5320    -0.3130     0.6460 N.ar  1 <1>  -0.5670 
  5 N        1.1320     1.7190     1.4710 N.pl3 1 <1>  -0.8690 
  6 N        4.0070    -0.2420    -1.6160 N.pl3 1 <1>  -0.9000 
  7 C        1.9770    -1.4020    -0.9530 C.ar  1 <1>   0.0000 
  8 C        0.8510    -1.3550    -0.1640 C.ar  1 <1>   0.1050 
  9 C        1.8820     2.9850     1.6490 C.3   1 <1>   0.2090 
 10 C        1.8980    -2.6500    -1.5870 C.2   1 <1>   0.1390 
 11 N        0.1890    -2.5220    -0.3650 N.pl3 1 <1>   0.3140 
 12 C        3.2440     2.6910     2.3000 C.3   1 <1>  -0.1600 
 13 N        0.8470    -3.3150    -1.2470 N.2   1 <1>  -0.7070 
 14 C       -1.0720    -2.9570     0.2530 C.3   1 <1>   0.0160 
 15 C        4.3310     3.7150     1.9240 C.3   1 <1>   0.0960 
 16 N        4.5590     3.8420     0.4570 N.pl3 1 <1>   0.3140 
 17 N        4.2060     2.8980    -0.4590 N.2   1 <1>  -0.7070 
 18 C        5.0890     4.9270    -0.1480 C.2   1 <1>  -0.3320 
 19 C        4.5090     3.4280    -1.6080 C.2   1 <1>   0.1080 
 20 C        5.0690     4.6900    -1.4740 C.2   1 <1>  -0.1500 
 21 C        5.6030     6.1730     0.5570 C.3   1 <1>  -0.0600 
 22 C        4.2750     2.7670    -2.9480 C.3   1 <1>  -0.0590 
 23 H        3.0420     1.5690    -0.1570 H     1 <1>   0.4570 
 24 H        0.2910     1.6190     2.0500 H     1 <1>   0.4000 
 25 H        4.3650    -1.0020    -2.2060 H     1 <1>   0.4000 
 26 H        4.6560     0.5570    -1.5560 H     1 <1>   0.4000 
 27 H        1.3160     3.6540     2.2770 H     1 <1>   0.0800 
 28 H        1.9870     3.4640     0.6900 H     1 <1>   0.0800 
 29 H        2.6320    -3.0210    -2.2850 H     1 <1>   0.1500 
 30 H        3.6090     1.7150     2.0390 H     1 <1>   0.0800 
 31 H        3.1200     2.7010     3.3690 H     1 <1>   0.0800 
 32 H       -1.4560    -2.1800     0.8880 H     1 <1>   0.0800 
 33 H       -0.8910    -3.8430     0.8310 H     1 <1>   0.0800 
 34 H       -1.7830    -3.1750    -0.5220 H     1 <1>   0.0800 
 35 H        5.2640     3.4360     2.3790 H     1 <1>   0.0800 
 36 H        4.0510     4.6800     2.3040 H     1 <1>   0.0800 
 37 H        5.4060     5.3250    -2.2750 H     1 <1>   0.1500 
 38 H        6.3800     5.9160     1.2550 H     1 <1>   0.0800 
 39 H        4.8050     6.6680     1.0810 H     1 <1>   0.0800 
 40 H        6.0110     6.8620    -0.1620 H     1 <1>   0.0800 
 41 H        3.3220     2.2710    -2.9590 H     1 <1>   0.0800 
 42 H        5.0550     2.0550    -3.1470 H     1 <1>   0.0800 
 43 H        4.2810     3.5070    -3.7280 H     1 <1>   0.0800 
@<TRIPOS>BOND
  1   1   2  ar  
  2   1   3  ar  
  3   1  23  1   
  4   2   4  ar  
  5   2   5  1   
  6   3   6  1   
  7   3   7  ar  
  8   4   8  ar  
  9   5   9  1   
 10   5  24  1   
 11   6  25  1   
 12   6  26  1   
 13   7   8  ar  
 14   7  10  1   
 15   8  11  1   
 16   9  12  1   
 17   9  27  1   
 18   9  28  1   
 19  10  13  2   
 20  10  29  1   
 21  11  13  1   
 22  11  14  1   
 23  12  15  1   
 24  12  30  1   
 25  12  31  1   
 26  14  32  1   
 27  14  33  1   
 28  14  34  1   
 29  15  16  1   
 30  15  35  1   
 31  15  36  1   
 32  16  17  1   
 33  16  18  1   
 34  17  19  2   
 35  18  20  2   
 36  18  21  1   
 37  19  20  1   
 38  19  22  1   
 39  20  37  1   
 40  21  38  1   
 41  21  39  1   
 42  21  40  1   
 43  22  41  1   
 44  22  42  1   
 45  22  43  1   
@<TRIPOS>SUBSTRUCTURE
  1 ****   1 GROUP 4 **** **** 0

# MOE 2024.06 (io_trps.svl 2023.06)
