@<TRIPOS>MOLECULE
NONAME
38 40 1 0 0 
SMALL
USER_CHARGES


@<TRIPOS>ATOM
  1 N       -0.5060    -1.7100    -1.0170 N.ar  1 <1>  -0.6200 
  2 C        0.4380    -2.3810    -0.3960 C.ar  1 <1>   0.4100 
  3 C       -0.6450    -0.4470    -0.6640 C.ar  1 <1>   0.4760 
  4 N        0.5570    -3.6900    -0.7640 N.pl3 1 <1>  -0.6690 
  5 C        1.2280    -1.7790     0.5660 C.ar  1 <1>  -0.1500 
  6 N        0.0470     0.2240     0.2400 N.ar  1 <1>  -0.6200 
  7 C       -1.7240     0.3320    -1.3760 C.3   1 <1>  -0.0970 
  8 C        0.9300    -4.7830     0.1480 C.3   1 <1>   0.0740 
  9 C        0.9910    -0.4630     0.8510 C.ar  1 <1>   0.1600 
 10 C        1.6610    -5.9140    -0.4960 C.3   1 <1>  -0.2000 
 11 C        2.3850    -4.9760     0.4240 C.3   1 <1>  -0.2000 
 12 C       -0.1450    -5.0780     1.2080 C.3   1 <1>   0.0780 
 13 C       -1.4800    -5.4460     0.5710 C.ar  1 <1>  -0.1430 
 14 C       -1.7640    -6.7650     0.2490 C.ar  1 <1>  -0.1500 
 15 C       -2.4230    -4.4660     0.3030 C.ar  1 <1>  -0.1500 
 16 C       -2.9730    -7.1080    -0.3330 C.ar  1 <1>  -0.1430 
 17 C       -3.6330    -4.8010    -0.2770 C.ar  1 <1>  -0.1500 
 18 C       -3.9080    -6.1190    -0.5940 C.ar  1 <1>  -0.1500 
 19 C       -3.2710    -8.5550    -0.6790 C.3   1 <1>  -0.0970 
 20 H       -0.1970    -3.9660    -1.4000 H     1 <1>   0.4000 
 21 H        1.9990    -2.3290     1.0650 H     1 <1>   0.1500 
 22 H       -2.3610    -0.3290    -1.9340 H     1 <1>   0.0800 
 23 H       -1.2690     1.0330    -2.0480 H     1 <1>   0.0800 
 24 H       -2.3180     0.8650    -0.6570 H     1 <1>   0.0800 
 25 H        1.5820     0.0470     1.5920 H     1 <1>   0.1500 
 26 H        1.8580    -5.8610    -1.5520 H     1 <1>   0.1000 
 27 H        1.4860    -6.9190    -0.1570 H     1 <1>   0.1000 
 28 H        2.6990    -5.3520     1.3810 H     1 <1>   0.1000 
 29 H        3.0940    -4.2920    -0.0080 H     1 <1>   0.1000 
 30 H       -0.2650    -4.2170     1.8400 H     1 <1>   0.0800 
 31 H        0.1810    -5.8880     1.8350 H     1 <1>   0.0800 
 32 H       -1.0370    -7.5310     0.4530 H     1 <1>   0.1500 
 33 H       -2.2160    -3.4360     0.5400 H     1 <1>   0.1500 
 34 H       -4.3590    -4.0340    -0.4830 H     1 <1>   0.1500 
 35 H       -4.8520    -6.3710    -1.0430 H     1 <1>   0.1500 
 36 H       -2.3700    -9.0640    -0.9690 H     1 <1>   0.0800 
 37 H       -3.9690    -8.6120    -1.4940 H     1 <1>   0.0800 
 38 H       -3.6930    -9.0530     0.1760 H     1 <1>   0.0800 
@<TRIPOS>BOND
  1   1   2  ar  
  2   1   3  ar  
  3   2   4  1   
  4   2   5  ar  
  5   3   6  ar  
  6   3   7  1   
  7   4   8  1   
  8   4  20  1   
  9   5   9  ar  
 10   5  21  1   
 11   6   9  ar  
 12   7  22  1   
 13   7  23  1   
 14   7  24  1   
 15   8  10  1   
 16   8  11  1   
 17   8  12  1   
 18   9  25  1   
 19  10  11  1   
 20  10  26  1   
 21  10  27  1   
 22  11  28  1   
 23  11  29  1   
 24  12  13  1   
 25  12  30  1   
 26  12  31  1   
 27  13  14  ar  
 28  13  15  ar  
 29  14  16  ar  
 30  14  32  1   
 31  15  17  ar  
 32  15  33  1   
 33  16  18  ar  
 34  16  19  1   
 35  17  18  ar  
 36  17  34  1   
 37  18  35  1   
 38  19  36  1   
 39  19  37  1   
 40  19  38  1   
@<TRIPOS>SUBSTRUCTURE
  1 ****   4 GROUP 4 **** **** 0

# MOE 2024.06 (io_trps.svl 2023.06)
