@<TRIPOS>MOLECULE
NONAME
40 41 1 0 0 
SMALL
USER_CHARGES


@<TRIPOS>ATOM
  1 F       -0.8610    -0.6660     1.2950 F     1 <1>  -0.1900 
  2 C       -1.9030    -1.1780     0.6780 C.ar  1 <1>   0.1900 
  3 C       -2.6860    -0.4670    -0.2270 C.ar  1 <1>   0.3930 
  4 C       -2.2310    -2.4830     0.9410 C.ar  1 <1>   0.1600 
  5 O       -2.4970     0.8220    -0.5960 O.3   1 <1>  -0.3620 
  6 N       -3.7160    -1.0410    -0.8100 N.ar  1 <1>  -0.6200 
  7 N       -3.2600    -3.0680     0.3630 N.ar  1 <1>  -0.6200 
  8 C       -1.4910     1.6660    -0.0830 C.3   1 <1>   0.0400 
  9 C       -3.9470    -2.3000    -0.4810 C.ar  1 <1>   0.7200 
 10 N       -5.0210    -2.8400    -1.1000 N.pl3 1 <1>  -0.8690 
 11 C       -5.1990    -4.2920    -1.3280 C.3   1 <1>   0.2090 
 12 C       -5.9990    -4.8980    -0.1660 C.3   1 <1>   0.1100 
 13 N       -6.1140    -6.3740    -0.2540 N.3   1 <1>  -0.8100 
 14 C       -4.8330    -7.0390     0.1070 C.3   1 <1>   0.1100 
 15 C       -7.2000    -6.8540     0.6350 C.3   1 <1>   0.1100 
 16 C       -4.9490    -8.5840     0.1560 C.3   1 <1>   0.3430 
 17 C       -7.3640    -8.3940     0.6000 C.3   1 <1>   0.3430 
 18 N       -6.3160    -9.0390    -0.2590 N.4   1 <1>  -0.9590 
 19 C       -6.4500   -10.5210    -0.3480 C.3   1 <1>   0.2630 
 20 H       -1.6390    -3.0510     1.6360 H     1 <1>   0.1500 
 21 H       -1.6010     2.6320    -0.5420 H     1 <1>   0.0800 
 22 H       -0.5270     1.2560    -0.3290 H     1 <1>   0.0800 
 23 H       -1.6140     1.7550     0.9820 H     1 <1>   0.0800 
 24 H       -5.3870    -2.2160    -1.8210 H     1 <1>   0.4000 
 25 H       -4.2320    -4.7560    -1.4050 H     1 <1>   0.0800 
 26 H       -5.7310    -4.4460    -2.2510 H     1 <1>   0.0800 
 27 H       -6.9830    -4.4600    -0.1920 H     1 <1>   0.0800 
 28 H       -5.5360    -4.6220     0.7660 H     1 <1>   0.0800 
 29 H       -4.4940    -6.6850     1.0670 H     1 <1>   0.0800 
 30 H       -4.0760    -6.7800    -0.6120 H     1 <1>   0.0800 
 31 H       -8.1310    -6.4020     0.3370 H     1 <1>   0.0800 
 32 H       -7.0030    -6.5450     1.6480 H     1 <1>   0.0800 
 33 H       -4.7380    -8.9210     1.1580 H     1 <1>   0.0800 
 34 H       -4.2040    -9.0100    -0.4960 H     1 <1>   0.0800 
 35 H       -8.3440    -8.6290     0.2180 H     1 <1>   0.0800 
 36 H       -7.3050    -8.7770     1.6060 H     1 <1>   0.0800 
 37 H       -6.4530    -8.5980    -1.1840 H     1 <1>   0.4500 
 38 H       -6.3070   -10.9690     0.6220 H     1 <1>   0.0800 
 39 H       -5.7150   -10.9220    -1.0270 H     1 <1>   0.0800 
 40 H       -7.4310   -10.7850    -0.7100 H     1 <1>   0.0800 
@<TRIPOS>BOND
  1   1   2  1   
  2   2   3  ar  
  3   2   4  ar  
  4   3   5  1   
  5   3   6  ar  
  6   4   7  ar  
  7   4  20  1   
  8   5   8  1   
  9   6   9  ar  
 10   7   9  ar  
 11   8  21  1   
 12   8  22  1   
 13   8  23  1   
 14   9  10  1   
 15  10  11  1   
 16  10  24  1   
 17  11  12  1   
 18  11  25  1   
 19  11  26  1   
 20  12  13  1   
 21  12  27  1   
 22  12  28  1   
 23  13  14  1   
 24  13  15  1   
 25  14  16  1   
 26  14  29  1   
 27  14  30  1   
 28  15  17  1   
 29  15  31  1   
 30  15  32  1   
 31  16  18  1   
 32  16  33  1   
 33  16  34  1   
 34  17  18  1   
 35  17  35  1   
 36  17  36  1   
 37  18  19  1   
 38  18  37  1   
 39  19  38  1   
 40  19  39  1   
 41  19  40  1   
@<TRIPOS>SUBSTRUCTURE
  1 ****   7 GROUP 4 **** **** 0

# MOE 2024.06 (io_trps.svl 2023.06)
