@<TRIPOS>MOLECULE
NONAME
49 50 1 0 0 
SMALL
USER_CHARGES


@<TRIPOS>ATOM
  1 O       -0.9460     0.3710     1.7360 O.2   1 <1>  -0.5700 
  2 C       -1.5160     0.6250     0.7020 C.2   1 <1>   0.5690 
  3 N       -2.0940    -0.3520    -0.0620 N.am  1 <1>  -0.6600 
  4 C       -1.5850     2.0740     0.2460 C.3   1 <1>  -0.0990 
  5 C       -1.9860    -1.7970     0.3450 C.3   1 <1>   0.3640 
  6 C       -2.9010    -0.0660    -1.2910 C.3   1 <1>   0.1400 
  7 C       -0.7190     3.0000     1.0960 C.3   1 <1>   0.1200 
  8 C       -0.8090    -2.5020    -0.3500 C.ar  1 <1>  -0.1440 
  9 C       -3.3190    -2.5800     0.1130 C.3   1 <1>   0.2000 
 10 C       -3.5200    -1.3340    -1.8960 C.3   1 <1>   0.1200 
 11 O       -0.8110     4.2800     0.5600 O.3   1 <1>  -0.5600 
 12 C       -0.4280    -3.7500     0.1290 C.ar  1 <1>  -0.1500 
 13 C       -0.0990    -1.9620    -1.4190 C.ar  1 <1>  -0.1500 
 14 O       -4.1600    -2.0510    -0.8900 O.3   1 <1>  -0.5600 
 15 C       -4.1570    -2.6490     1.3950 C.3   1 <1>   0.1200 
 16 C       -0.0670     5.2310     1.2510 C.3   1 <1>   0.0400 
 17 C        0.6100    -4.4590    -0.4500 C.ar  1 <1>   0.0830 
 18 C        0.9540    -2.6530    -1.9940 C.ar  1 <1>  -0.1500 
 19 O       -3.5650    -3.5150     2.3100 O.3   1 <1>  -0.6800 
 20 O        0.8770    -5.6910     0.0520 O.3   1 <1>  -0.3630 
 21 C        1.3250    -3.8930    -1.5100 C.ar  1 <1>   0.0830 
 22 C        0.7080    -6.7830    -0.8260 C.3   1 <1>   0.0400 
 23 O        2.3900    -4.4990    -2.0900 O.3   1 <1>  -0.3630 
 24 C        3.5400    -4.6320    -1.2850 C.3   1 <1>   0.0400 
 25 H       -1.2450     2.1350    -0.7700 H     1 <1>   0.0800 
 26 H       -2.6050     2.4040     0.3030 H     1 <1>   0.0800 
 27 H       -1.7700    -1.8420     1.4000 H     1 <1>   0.0800 
 28 H       -3.6970     0.6130    -1.0380 H     1 <1>   0.0800 
 29 H       -2.2800     0.4080    -2.0310 H     1 <1>   0.0800 
 30 H        0.3110     2.6830     1.0710 H     1 <1>   0.0800 
 31 H       -1.0700     3.0190     2.1150 H     1 <1>   0.0800 
 32 H       -3.0930    -3.5860    -0.1900 H     1 <1>   0.0800 
 33 H       -2.7740    -1.9600    -2.3540 H     1 <1>   0.0800 
 34 H       -4.2550    -1.0730    -2.6360 H     1 <1>   0.0800 
 35 H       -0.9400    -4.1920     0.9660 H     1 <1>   0.1500 
 36 H       -0.3440    -0.9940    -1.8140 H     1 <1>   0.1500 
 37 H       -5.1470    -3.0140     1.1830 H     1 <1>   0.0800 
 38 H       -4.2200    -1.6750     1.8490 H     1 <1>   0.0800 
 39 H       -0.2020     6.1800     0.7640 H     1 <1>   0.0800 
 40 H        0.9730     4.9540     1.2270 H     1 <1>   0.0800 
 41 H       -0.4210     5.2890     2.2660 H     1 <1>   0.0800 
 42 H        1.5000    -2.2270    -2.8160 H     1 <1>   0.1500 
 43 H       -3.7500    -4.4470     2.0780 H     1 <1>   0.4000 
 44 H        0.7990    -7.6890    -0.2560 H     1 <1>   0.0800 
 45 H        1.4670    -6.7510    -1.5860 H     1 <1>   0.0800 
 46 H       -0.2700    -6.7230    -1.2710 H     1 <1>   0.0800 
 47 H        4.3260    -5.0510    -1.8860 H     1 <1>   0.0800 
 48 H        3.3230    -5.2850    -0.4580 H     1 <1>   0.0800 
 49 H        3.8270    -3.6590    -0.9260 H     1 <1>   0.0800 
@<TRIPOS>BOND
  1   1   2  2   
  2   2   3  am  
  3   2   4  1   
  4   3   5  1   
  5   3   6  1   
  6   4   7  1   
  7   4  25  1   
  8   4  26  1   
  9   5   8  1   
 10   5   9  1   
 11   5  27  1   
 12   6  10  1   
 13   6  28  1   
 14   6  29  1   
 15   7  11  1   
 16   7  30  1   
 17   7  31  1   
 18   8  12  ar  
 19   8  13  ar  
 20   9  14  1   
 21   9  15  1   
 22   9  32  1   
 23  10  14  1   
 24  10  33  1   
 25  10  34  1   
 26  11  16  1   
 27  12  17  ar  
 28  12  35  1   
 29  13  18  ar  
 30  13  36  1   
 31  15  19  1   
 32  15  37  1   
 33  15  38  1   
 34  16  39  1   
 35  16  40  1   
 36  16  41  1   
 37  17  20  1   
 38  17  21  ar  
 39  18  21  ar  
 40  18  42  1   
 41  19  43  1   
 42  20  22  1   
 43  21  23  1   
 44  22  44  1   
 45  22  45  1   
 46  22  46  1   
 47  23  24  1   
 48  24  47  1   
 49  24  48  1   
 50  24  49  1   
@<TRIPOS>SUBSTRUCTURE
  1 ****   8 GROUP 4 **** **** 0

# MOE 2024.06 (io_trps.svl 2023.06)
