@<TRIPOS>MOLECULE
NONAME
49 53 1 0 0 
SMALL
USER_CHARGES


@<TRIPOS>ATOM
  1 O       -1.8860     1.5400    -2.0340 O.2   1 <1>  -0.5700 
  2 C       -2.3570     1.4370    -0.9240 C.2   1 <1>   0.6300 
  3 N       -3.6040     0.9000    -0.7140 N.am  1 <1>  -0.6600 
  4 C       -1.4930     1.9020     0.2340 C.3   1 <1>   0.0000 
  5 C       -4.1960     0.6050     0.6230 C.3   1 <1>   0.1400 
  6 C       -4.4470     0.4260    -1.8460 C.3   1 <1>   0.1400 
  7 C       -0.7100     0.7190     0.7650 C.2   1 <1>   0.6300 
  8 C       -0.8100     3.2450     0.1580 C.3   1 <1>  -0.2000 
  9 C       -1.9230     3.0350     1.1320 C.3   1 <1>  -0.2000 
 10 C       -4.3700    -0.9070     0.7680 C.3   1 <1>  -0.1600 
 11 C       -4.6120    -1.0900    -1.7350 C.3   1 <1>  -0.1600 
 12 O       -1.0600     0.1570     1.7710 O.2   1 <1>  -0.5700 
 13 N        0.3820     0.3010     0.0990 N.am  1 <1>  -0.8000 
 14 C       -5.2040    -1.4920    -0.3770 C.3   1 <1>   0.4600 
 15 O       -6.4950    -0.9320    -0.2510 O.3   1 <1>  -0.5600 
 16 C       -5.2990    -3.0070    -0.2430 C.2   1 <1>  -0.3320 
 17 C       -7.5690    -1.5960    -0.8740 C.3   1 <1>   0.1200 
 18 N       -4.2510    -3.8810    -0.1560 N.pl3 1 <1>   0.0330 
 19 C       -6.4570    -3.6940    -0.1910 C.2   1 <1>  -0.1810 
 20 C       -7.7900    -2.9920    -0.2660 C.3   1 <1>   0.0210 
 21 C       -4.7660    -5.1500    -0.0440 C.ar  1 <1>  -0.1520 
 22 C       -6.1560    -5.0650    -0.0600 C.ar  1 <1>   0.0000 
 23 C       -4.1260    -6.3860     0.0750 C.ar  1 <1>  -0.1500 
 24 C       -6.9220    -6.2310     0.0440 C.ar  1 <1>  -0.1500 
 25 C       -4.8920    -7.5250     0.1750 C.ar  1 <1>  -0.1500 
 26 C       -6.2900    -7.4470     0.1600 C.ar  1 <1>  -0.1500 
 27 H       -5.1530     1.0920     0.7000 H     1 <1>   0.0800 
 28 H       -3.5750     0.9660     1.4220 H     1 <1>   0.0800 
 29 H       -3.9960     0.6750    -2.7910 H     1 <1>   0.0800 
 30 H       -5.4080     0.9080    -1.7970 H     1 <1>   0.0800 
 31 H       -0.9850     3.8580    -0.7100 H     1 <1>   0.1000 
 32 H        0.1920     3.3430     0.5370 H     1 <1>   0.1000 
 33 H       -1.6950     2.9650     2.1820 H     1 <1>   0.1000 
 34 H       -2.8690     3.5120     0.9440 H     1 <1>   0.1000 
 35 H       -4.8480    -1.1340     1.7030 H     1 <1>   0.0800 
 36 H       -3.3970    -1.3610     0.7830 H     1 <1>   0.0800 
 37 H       -3.6470    -1.5460    -1.8500 H     1 <1>   0.0800 
 38 H       -5.2310    -1.4550    -2.5320 H     1 <1>   0.0800 
 39 H        0.9180    -0.4950     0.4440 H     1 <1>   0.3700 
 40 H        0.6570     0.6970    -0.8010 H     1 <1>   0.3700 
 41 H       -7.3600    -1.6760    -1.9250 H     1 <1>   0.0800 
 42 H       -8.4480    -0.9910    -0.7420 H     1 <1>   0.0800 
 43 H       -3.2540    -3.6450    -0.1530 H     1 <1>   0.2700 
 44 H       -8.4700    -3.5520    -0.8810 H     1 <1>   0.0800 
 45 H       -8.2080    -2.9020     0.7190 H     1 <1>   0.0800 
 46 H       -3.0520    -6.4370     0.0860 H     1 <1>   0.1500 
 47 H       -7.9930    -6.1550     0.0330 H     1 <1>   0.1500 
 48 H       -4.4230    -8.4890     0.2670 H     1 <1>   0.1500 
 49 H       -6.8660    -8.3530     0.2410 H     1 <1>   0.1500 
@<TRIPOS>BOND
  1   1   2  2   
  2   2   3  am  
  3   2   4  1   
  4   3   5  1   
  5   3   6  1   
  6   4   7  1   
  7   4   8  1   
  8   4   9  1   
  9   5  10  1   
 10   5  27  1   
 11   5  28  1   
 12   6  11  1   
 13   6  29  1   
 14   6  30  1   
 15   7  12  2   
 16   7  13  am  
 17   8   9  1   
 18   8  31  1   
 19   8  32  1   
 20   9  33  1   
 21   9  34  1   
 22  10  14  1   
 23  10  35  1   
 24  10  36  1   
 25  11  14  1   
 26  11  37  1   
 27  11  38  1   
 28  13  39  1   
 29  13  40  1   
 30  14  15  1   
 31  14  16  1   
 32  15  17  1   
 33  16  18  1   
 34  16  19  2   
 35  17  20  1   
 36  17  41  1   
 37  17  42  1   
 38  18  21  1   
 39  18  43  1   
 40  19  20  1   
 41  19  22  1   
 42  20  44  1   
 43  20  45  1   
 44  21  22  ar  
 45  21  23  ar  
 46  22  24  ar  
 47  23  25  ar  
 48  23  46  1   
 49  24  26  ar  
 50  24  47  1   
 51  25  26  ar  
 52  25  48  1   
 53  26  49  1   
@<TRIPOS>SUBSTRUCTURE
  1 ****  14 GROUP 4 **** **** 0

# MOE 2024.06 (io_trps.svl 2023.06)
