@<TRIPOS>MOLECULE
NONAME
49 50 1 0 0 
SMALL
USER_CHARGES


@<TRIPOS>ATOM
  1 CL      -0.0850     0.8670    -1.3770 Cl    1 <1>  -0.1770 
  2 C       -1.7270     1.0370    -0.8160 C.ar  1 <1>   0.1770 
  3 C       -1.9650     1.3240     0.5150 C.ar  1 <1>  -0.1500 
  4 C       -2.7720     0.8850    -1.7070 C.ar  1 <1>  -0.1500 
  5 C       -3.2700     1.4580     0.9550 C.ar  1 <1>  -0.1500 
  6 C       -4.0720     1.0230    -1.2560 C.ar  1 <1>  -0.1500 
  7 C       -4.3510     1.3070     0.0830 C.ar  1 <1>   0.0530 
  8 C       -5.6990     1.4630     0.5670 C.2   1 <1>   0.0870 
  9 O       -5.9830     2.4860     1.3330 O.3   1 <1>  -0.0190 
 10 C       -6.8450     0.7380     0.4300 C.2   1 <1>  -0.0860 
 11 N       -7.2330     2.5140     1.7080 N.2   1 <1>  -0.4100 
 12 C       -7.7730     1.4870     1.1660 C.2   1 <1>   0.3720 
 13 C       -7.0930    -0.5120    -0.2240 C.2   1 <1>   0.7160 
 14 N       -9.1280     1.2440     1.3300 N.pl3 1 <1>  -0.8520 
 15 O       -6.3350    -0.9520    -1.0660 O.2   1 <1>  -0.5700 
 16 N       -8.1860    -1.2500     0.1110 N.am  1 <1>  -0.7300 
 17 C       -9.9410     1.6970     0.1680 C.3   1 <1>   0.2090 
 18 C       -8.5090    -2.6090    -0.3560 C.3   1 <1>   0.2200 
 19 C      -11.4220     1.3950     0.3950 C.3   1 <1>   0.1200 
 20 C      -10.0390    -2.8010    -0.4860 C.3   1 <1>  -0.0800 
 21 C       -7.8650    -3.6000     0.6130 C.3   1 <1>  -0.2400 
 22 O      -12.1270     1.7710    -0.7450 O.3   1 <1>  -0.5600 
 23 C      -10.6240    -1.8980    -1.5830 C.3   1 <1>  -0.2400 
 24 C      -10.8120    -2.5950     0.8300 C.3   1 <1>  -0.2400 
 25 C      -13.4890     1.4930    -0.6850 C.3   1 <1>   0.0400 
 26 H       -1.1380     1.4400     1.1910 H     1 <1>   0.1500 
 27 H       -2.5670     0.6600    -2.7380 H     1 <1>   0.1500 
 28 H       -3.4600     1.6830     1.9900 H     1 <1>   0.1500 
 29 H       -4.8850     0.9090    -1.9510 H     1 <1>   0.1500 
 30 H       -9.4180     1.7930     2.1490 H     1 <1>   0.4000 
 31 H       -8.8380    -0.8270     0.7800 H     1 <1>   0.3700 
 32 H       -9.8110     2.7580     0.0320 H     1 <1>   0.0800 
 33 H       -9.6080     1.1910    -0.7220 H     1 <1>   0.0800 
 34 H       -8.0660    -2.7560    -1.3280 H     1 <1>   0.0800 
 35 H      -11.7980     1.9580     1.2310 H     1 <1>   0.0800 
 36 H      -11.5690     0.3430     0.5540 H     1 <1>   0.0800 
 37 H      -10.2040    -3.8180    -0.8000 H     1 <1>   0.0800 
 38 H       -8.1940    -3.4290     1.6210 H     1 <1>   0.0800 
 39 H       -6.7950    -3.4980     0.5740 H     1 <1>   0.0800 
 40 H       -8.1150    -4.6060     0.3310 H     1 <1>   0.0800 
 41 H      -10.5170    -0.8610    -1.3290 H     1 <1>   0.0800 
 42 H      -11.6700    -2.1070    -1.7260 H     1 <1>   0.0800 
 43 H      -10.1170    -2.0700    -2.5160 H     1 <1>   0.0800 
 44 H      -10.6380    -1.6160     1.2360 H     1 <1>   0.0800 
 45 H      -10.5160    -3.3250     1.5620 H     1 <1>   0.0800 
 46 H      -11.8680    -2.7110     0.6620 H     1 <1>   0.0800 
 47 H      -13.9390     1.8240    -1.6040 H     1 <1>   0.0800 
 48 H      -13.9250     2.0230     0.1440 H     1 <1>   0.0800 
 49 H      -13.6310     0.4310    -0.5750 H     1 <1>   0.0800 
@<TRIPOS>BOND
  1   1   2  1   
  2   2   3  ar  
  3   2   4  ar  
  4   3   5  ar  
  5   3  26  1   
  6   4   6  ar  
  7   4  27  1   
  8   5   7  ar  
  9   5  28  1   
 10   6   7  ar  
 11   6  29  1   
 12   7   8  1   
 13   8   9  1   
 14   8  10  2   
 15   9  11  1   
 16  10  12  1   
 17  10  13  1   
 18  11  12  2   
 19  12  14  1   
 20  13  15  2   
 21  13  16  am  
 22  14  17  1   
 23  14  30  1   
 24  16  18  1   
 25  16  31  1   
 26  17  19  1   
 27  17  32  1   
 28  17  33  1   
 29  18  20  1   
 30  18  21  1   
 31  18  34  1   
 32  19  22  1   
 33  19  35  1   
 34  19  36  1   
 35  20  23  1   
 36  20  24  1   
 37  20  37  1   
 38  21  38  1   
 39  21  39  1   
 40  21  40  1   
 41  22  25  1   
 42  23  41  1   
 43  23  42  1   
 44  23  43  1   
 45  24  44  1   
 46  24  45  1   
 47  24  46  1   
 48  25  47  1   
 49  25  48  1   
 50  25  49  1   
@<TRIPOS>SUBSTRUCTURE
  1 ****  10 GROUP 4 **** **** 0

# MOE 2024.06 (io_trps.svl 2023.06)
