@<TRIPOS>MOLECULE
NONAME
48 50 1 0 0 
SMALL
USER_CHARGES


@<TRIPOS>ATOM
  1 S       -0.2060    -0.1500    -0.5620 S.o2  1 <1>   1.3330 
  2 O       -0.3850     1.2350    -0.2080 O.2   1 <1>  -0.6500 
  3 O       -0.2030    -0.5900    -1.9360 O.2   1 <1>  -0.6500 
  4 N       -1.4270    -0.9780     0.2380 N.am  1 <1>  -0.9140 
  5 C        1.2890    -0.7230     0.2200 C.3   1 <1>  -0.1350 
  6 C       -1.3710    -2.4300     0.1740 C.3   1 <1>   0.1960 
  7 C       -2.7200    -2.9940     0.6130 C.3   1 <1>  -0.0990 
  8 C       -2.7390    -4.5130     0.5990 C.2   1 <1>   0.5690 
  9 O       -1.6920    -5.0950     0.4400 O.2   1 <1>  -0.5700 
 10 N       -3.9150    -5.1930     0.7710 N.am  1 <1>  -0.6600 
 11 C       -3.9750    -6.6900     0.6970 C.3   1 <1>   0.1400 
 12 C       -5.2720    -4.5860     0.9510 C.3   1 <1>   0.1400 
 13 C       -5.0410    -7.1550    -0.3140 C.3   1 <1>   0.3430 
 14 C       -6.2610    -5.1510    -0.0870 C.3   1 <1>   0.2950 
 15 O       -6.2760    -6.5470    -0.0320 O.3   1 <1>  -0.5600 
 16 C       -5.1910    -8.6730    -0.2750 C.ar  1 <1>  -0.1430 
 17 C       -7.6880    -4.6630     0.1770 C.3   1 <1>  -0.1950 
 18 C       -6.1060    -9.2930     0.5660 C.ar  1 <1>  -0.1500 
 19 C       -4.3860    -9.4580    -1.0890 C.ar  1 <1>  -0.1500 
 20 C       -8.7130    -4.6440    -0.9130 C.3   1 <1>  -0.2000 
 21 C       -8.1710    -3.3530    -0.3650 C.3   1 <1>  -0.2000 
 22 C       -6.2130   -10.6730     0.5930 C.ar  1 <1>  -0.1500 
 23 C       -4.4920   -10.8380    -1.0620 C.ar  1 <1>  -0.1500 
 24 C       -5.4060   -11.4470    -0.2210 C.ar  1 <1>  -0.1500 
 25 H       -1.4670    -0.6220     1.1900 H     1 <1>   0.4200 
 26 H        1.2550    -0.5390     1.2750 H     1 <1>   0.0800 
 27 H        2.1320    -0.2000    -0.1890 H     1 <1>   0.0800 
 28 H        1.4280    -1.7720     0.0470 H     1 <1>   0.0800 
 29 H       -1.1720    -2.7450    -0.8390 H     1 <1>   0.0800 
 30 H       -0.5850    -2.8030     0.8110 H     1 <1>   0.0800 
 31 H       -3.4650    -2.6300    -0.0680 H     1 <1>   0.0800 
 32 H       -2.9480    -2.6620     1.6080 H     1 <1>   0.0800 
 33 H       -3.0220    -7.0960     0.4080 H     1 <1>   0.0800 
 34 H       -4.2160    -7.0850     1.6680 H     1 <1>   0.0800 
 35 H       -5.6320    -4.8190     1.9380 H     1 <1>   0.0800 
 36 H       -5.2430    -3.5170     0.8580 H     1 <1>   0.0800 
 37 H       -4.7480    -6.8580    -1.3060 H     1 <1>   0.0800 
 38 H       -5.9590    -4.8570    -1.0780 H     1 <1>   0.0800 
 39 H       -8.0320    -4.9410     1.1580 H     1 <1>   0.1000 
 40 H       -6.7420    -8.7010     1.2010 H     1 <1>   0.1500 
 41 H       -3.6690    -8.9990    -1.7480 H     1 <1>   0.1500 
 42 H       -8.4210    -4.9600    -1.9000 H     1 <1>   0.1000 
 43 H       -9.7200    -4.9360    -0.6710 H     1 <1>   0.1000 
 44 H       -8.8190    -2.7450     0.2420 H     1 <1>   0.1000 
 45 H       -7.5300    -2.7650    -1.0000 H     1 <1>   0.1000 
 46 H       -6.9270   -11.1430     1.2470 H     1 <1>   0.1500 
 47 H       -3.8630   -11.4380    -1.6970 H     1 <1>   0.1500 
 48 H       -5.4890   -12.5190    -0.2000 H     1 <1>   0.1500 
@<TRIPOS>BOND
  1   1   2  2   
  2   1   3  2   
  3   1   4  am  
  4   1   5  1   
  5   4   6  1   
  6   4  25  1   
  7   5  26  1   
  8   5  27  1   
  9   5  28  1   
 10   6   7  1   
 11   6  29  1   
 12   6  30  1   
 13   7   8  1   
 14   7  31  1   
 15   7  32  1   
 16   8   9  2   
 17   8  10  am  
 18  10  11  1   
 19  10  12  1   
 20  11  13  1   
 21  11  33  1   
 22  11  34  1   
 23  12  14  1   
 24  12  35  1   
 25  12  36  1   
 26  13  15  1   
 27  13  16  1   
 28  13  37  1   
 29  14  15  1   
 30  14  17  1   
 31  14  38  1   
 32  16  18  ar  
 33  16  19  ar  
 34  17  20  1   
 35  17  21  1   
 36  17  39  1   
 37  18  22  ar  
 38  18  40  1   
 39  19  23  ar  
 40  19  41  1   
 41  20  21  1   
 42  20  42  1   
 43  20  43  1   
 44  21  44  1   
 45  21  45  1   
 46  22  24  ar  
 47  22  46  1   
 48  23  24  ar  
 49  23  47  1   
 50  24  48  1   
@<TRIPOS>SUBSTRUCTURE
  1 ****  10 GROUP 4 **** **** 0

# MOE 2024.06 (io_trps.svl 2023.06)
