@<TRIPOS>MOLECULE
NONAME
43 44 1 0 0 
SMALL
USER_CHARGES


@<TRIPOS>ATOM
  1 O       -1.1940     0.3180    -1.8000 O.2   1 <1>  -0.5700 
  2 C       -2.1600     0.9040    -1.3570 C.2   1 <1>   0.5690 
  3 N       -3.3900     0.2820    -1.3340 N.am  1 <1>  -0.6600 
  4 C       -1.9850     2.3390    -0.7940 C.3   1 <1>   0.4050 
  5 C       -3.5100    -1.1820    -1.6170 C.3   1 <1>   0.3210 
  6 C       -4.6750     0.9960    -1.0370 C.3   1 <1>   0.1400 
  7 O       -2.1820     3.3050    -1.8080 O.3   1 <1>  -0.5600 
  8 C       -0.6400     2.5580    -0.0900 C.ar  1 <1>  -0.1440 
  9 C       -3.8560    -1.9380    -0.3390 C.2   1 <1>   0.0460 
 10 C       -5.1130     0.9100     0.4400 C.3   1 <1>   0.1200 
 11 C       -2.2720     4.6240    -1.3610 C.3   1 <1>   0.0400 
 12 C        0.5310     2.7260    -0.8160 C.ar  1 <1>  -0.1500 
 13 C       -0.5850     2.5900     1.2970 C.ar  1 <1>  -0.1500 
 14 N       -5.1050    -2.4040    -0.1290 N.2   1 <1>  -0.5650 
 15 C       -3.0530    -2.2200     0.7160 C.2   1 <1>  -0.3320 
 16 O       -4.0150     0.8100     1.2840 O.3   1 <1>  -0.6800 
 17 C        1.7370     2.9310    -0.1680 C.ar  1 <1>  -0.1500 
 18 C        0.6200     2.7950     1.9460 C.ar  1 <1>  -0.1500 
 19 C       -5.0380    -2.9570     1.0370 C.2   1 <1>   0.0360 
 20 N       -3.8180    -2.8790     1.6050 N.pl3 1 <1>   0.0330 
 21 C       -1.5850    -1.9100     0.9610 C.3   1 <1>  -0.0600 
 22 C        1.7820     2.9670     1.2140 C.ar  1 <1>  -0.1500 
 23 H       -2.7550     2.5020    -0.0670 H     1 <1>   0.0800 
 24 H       -4.2760    -1.3480    -2.3530 H     1 <1>   0.0800 
 25 H       -2.5900    -1.5740    -2.0120 H     1 <1>   0.0800 
 26 H       -4.5800     2.0320    -1.3100 H     1 <1>   0.0800 
 27 H       -5.4600     0.5930    -1.6540 H     1 <1>   0.0800 
 28 H       -5.7300     0.0430     0.5950 H     1 <1>   0.0800 
 29 H       -5.6780     1.7820     0.7180 H     1 <1>   0.0800 
 30 H       -2.4890     5.2480    -2.2100 H     1 <1>   0.0800 
 31 H       -1.3330     4.9230    -0.9290 H     1 <1>   0.0800 
 32 H       -3.0650     4.7050    -0.6380 H     1 <1>   0.0800 
 33 H        0.4970     2.6910    -1.8920 H     1 <1>   0.1500 
 34 H       -1.4810     2.4530     1.8780 H     1 <1>   0.1500 
 35 H       -3.5500    -0.0290     1.0550 H     1 <1>   0.4000 
 36 H        2.6370     3.0590    -0.7420 H     1 <1>   0.1500 
 37 H        0.6540     2.8190     3.0210 H     1 <1>   0.1500 
 38 H       -5.8660    -3.4410     1.5260 H     1 <1>   0.1500 
 39 H       -3.5380    -3.2470     2.5190 H     1 <1>   0.2700 
 40 H       -1.1370    -1.4730     0.0870 H     1 <1>   0.0800 
 41 H       -1.0480    -2.8120     1.1930 H     1 <1>   0.0800 
 42 H       -1.4790    -1.2190     1.7780 H     1 <1>   0.0800 
 43 H        2.7190     3.1260     1.7180 H     1 <1>   0.1500 
@<TRIPOS>BOND
  1   1   2  2   
  2   2   3  am  
  3   2   4  1   
  4   3   5  1   
  5   3   6  1   
  6   4   7  1   
  7   4   8  1   
  8   4  23  1   
  9   5   9  1   
 10   5  24  1   
 11   5  25  1   
 12   6  10  1   
 13   6  26  1   
 14   6  27  1   
 15   7  11  1   
 16   8  12  ar  
 17   8  13  ar  
 18   9  14  1   
 19   9  15  2   
 20  10  16  1   
 21  10  28  1   
 22  10  29  1   
 23  11  30  1   
 24  11  31  1   
 25  11  32  1   
 26  12  17  ar  
 27  12  33  1   
 28  13  18  ar  
 29  13  34  1   
 30  14  19  2   
 31  15  20  1   
 32  15  21  1   
 33  16  35  1   
 34  17  22  ar  
 35  17  36  1   
 36  18  22  ar  
 37  18  37  1   
 38  19  20  1   
 39  19  38  1   
 40  20  39  1   
 41  21  40  1   
 42  21  41  1   
 43  21  42  1   
 44  22  43  1   
@<TRIPOS>SUBSTRUCTURE
  1 ****   2 GROUP 4 **** **** 0

# MOE 2024.06 (io_trps.svl 2023.06)
