@<TRIPOS>MOLECULE
NONAME
44 47 1 0 0 
SMALL
USER_CHARGES


@<TRIPOS>ATOM
  1 S        0.0970     0.2800     1.6730 S.o2  1 <1>   1.4470 
  2 O       -0.4670     1.4570     2.2940 O.2   1 <1>  -0.6500 
  3 O        0.6520    -0.7770     2.4870 O.2   1 <1>  -0.6500 
  4 N        1.3920     0.8600     0.7360 N.am  1 <1>  -0.8490 
  5 C       -1.0890    -0.3870     0.4700 C.ar  1 <1>  -0.0090 
  6 C        2.3420     1.5810     1.6230 C.3   1 <1>   0.1960 
  7 C        2.0820    -0.2210     0.0120 C.3   1 <1>   0.1960 
  8 C       -1.2500    -1.7620     0.3100 C.ar  1 <1>  -0.1500 
  9 C       -1.8590     0.4710    -0.3250 C.ar  1 <1>  -0.1500 
 10 C        3.4670     2.3970     0.9210 C.3   1 <1>   0.4230 
 11 C        3.0580     0.3200    -1.0560 C.3   1 <1>  -0.0800 
 12 C       -2.1580    -2.2280    -0.6220 C.ar  1 <1>   0.0830 
 13 C       -2.7690    -0.0050    -1.2580 C.ar  1 <1>  -0.1500 
 14 N        3.1490     2.8460    -0.4940 N.4   1 <1>  -0.9590 
 15 C        4.8370     1.6900     1.0060 C.3   1 <1>   0.1200 
 16 C        4.5370     0.0820    -0.7140 C.3   1 <1>   0.1200 
 17 C        2.7490     1.7680    -1.4670 C.3   1 <1>   0.3430 
 18 O       -2.4690    -3.5050    -0.9280 O.3   1 <1>  -0.2320 
 19 C       -2.9090    -1.3750    -1.3970 C.ar  1 <1>   0.1170 
 20 C        2.0680     3.8800    -0.4580 C.3   1 <1>   0.2630 
 21 O        4.7830     0.3530     0.6240 O.3   1 <1>  -0.5600 
 22 C       -3.4070    -3.4570    -1.8770 C.2   1 <1>   0.7800 
 23 N       -3.6950    -2.1710    -2.1930 N.am  1 <1>  -0.5470 
 24 O       -3.9150    -4.4410    -2.3710 O.2   1 <1>  -0.5700 
 25 H        1.7910     2.2900     2.2170 H     1 <1>   0.0800 
 26 H        2.7830     0.8880     2.3220 H     1 <1>   0.0800 
 27 H        2.5900    -0.8750     0.7050 H     1 <1>   0.0800 
 28 H        1.3460    -0.8200    -0.4980 H     1 <1>   0.0800 
 29 H       -0.6870    -2.4630     0.9030 H     1 <1>   0.1500 
 30 H       -1.7480     1.5360    -0.1980 H     1 <1>   0.1500 
 31 H        3.5900     3.2900     1.5110 H     1 <1>   0.0800 
 32 H        2.8800    -0.2680    -1.9380 H     1 <1>   0.0800 
 33 H       -3.3600     0.6650    -1.8590 H     1 <1>   0.1500 
 34 H        4.0010     3.2880    -0.8630 H     1 <1>   0.4500 
 35 H        5.1660     1.6950     2.0310 H     1 <1>   0.0800 
 36 H        5.5840     2.1960     0.4190 H     1 <1>   0.0800 
 37 H        5.2020     0.6660    -1.3290 H     1 <1>   0.0800 
 38 H        4.7740    -0.9590    -0.8600 H     1 <1>   0.0800 
 39 H        1.6850     1.8270    -1.6310 H     1 <1>   0.0800 
 40 H        3.2240     1.9650    -2.4140 H     1 <1>   0.0800 
 41 H        1.1590     3.4510    -0.0670 H     1 <1>   0.0800 
 42 H        1.8720     4.2550    -1.4500 H     1 <1>   0.0800 
 43 H        2.3560     4.7070     0.1700 H     1 <1>   0.0800 
 44 H       -4.4130    -1.9130    -2.8680 H     1 <1>   0.3700 
@<TRIPOS>BOND
  1   1   2  2   
  2   1   3  2   
  3   1   4  am  
  4   1   5  1   
  5   4   6  1   
  6   4   7  1   
  7   5   8  ar  
  8   5   9  ar  
  9   6  10  1   
 10   6  25  1   
 11   6  26  1   
 12   7  11  1   
 13   7  27  1   
 14   7  28  1   
 15   8  12  ar  
 16   8  29  1   
 17   9  13  ar  
 18   9  30  1   
 19  10  14  1   
 20  10  15  1   
 21  10  31  1   
 22  11  16  1   
 23  11  17  1   
 24  11  32  1   
 25  12  18  1   
 26  12  19  ar  
 27  13  19  ar  
 28  13  33  1   
 29  14  17  1   
 30  14  20  1   
 31  14  34  1   
 32  15  21  1   
 33  15  35  1   
 34  15  36  1   
 35  16  21  1   
 36  16  37  1   
 37  16  38  1   
 38  17  39  1   
 39  17  40  1   
 40  18  22  1   
 41  19  23  1   
 42  20  41  1   
 43  20  42  1   
 44  20  43  1   
 45  22  23  am  
 46  22  24  2   
 47  23  44  1   
@<TRIPOS>SUBSTRUCTURE
  1 ****   5 GROUP 4 **** **** 0

# MOE 2024.06 (io_trps.svl 2023.06)
