@<TRIPOS>MOLECULE
NONAME
58 60 1 0 0 
SMALL
USER_CHARGES


@<TRIPOS>ATOM
  1 N        0.3480    -0.3270    -0.7610 N.ar  1 <1>  -0.6200 
  2 C        1.3500     0.5010    -0.4940 C.ar  1 <1>   0.7710 
  3 C        0.5610    -1.6170    -0.6540 C.ar  1 <1>   0.4100 
  4 N        2.5550     0.0390    -0.1140 N.ar  1 <1>  -0.1790 
  5 N        1.1640     1.8460    -0.5970 N.pl3 1 <1>  -0.8380 
  6 N       -0.5040    -2.3810    -0.9420 N.pl3 1 <1>  -0.8690 
  7 C        1.8100    -2.1410    -0.2740 C.ar  1 <1>  -0.1500 
  8 C        2.8220    -1.2830     0.0020 C.ar  1 <1>   0.2170 
  9 C        2.2010     2.9180    -0.4750 C.3   1 <1>   0.2090 
 10 C       -0.1960     2.4360    -0.8310 C.3   1 <1>   0.2090 
 11 C       -0.6990    -3.8530    -0.8620 C.3   1 <1>   0.2090 
 12 C        4.2160    -1.7250     0.4270 C.3   1 <1>  -0.0170 
 13 C        1.8820     3.7870     0.7440 C.3   1 <1>  -0.1600 
 14 C       -0.5730     3.3120     0.3680 C.3   1 <1>  -0.1600 
 15 C       -2.0880    -4.1590    -0.2830 C.3   1 <1>   0.1100 
 16 C        5.2900    -1.3090    -0.5870 C.3   1 <1>  -0.2400 
 17 C        0.4770     4.3990     0.6380 C.3   1 <1>  -0.1600 
 18 N       -2.3670    -5.6120    -0.2270 N.3   1 <1>  -0.8100 
 19 C       -1.6710    -6.2810     0.9040 C.3   1 <1>   0.1100 
 20 C       -3.8290    -5.8580    -0.1370 C.3   1 <1>   0.1100 
 21 C       -2.0220    -7.7870     1.0230 C.3   1 <1>   0.3430 
 22 C       -4.1840    -7.3650    -0.0810 C.3   1 <1>   0.3430 
 23 N       -2.9510    -8.2200    -0.0730 N.4   1 <1>  -0.9590 
 24 C       -3.2460    -9.6820    -0.0600 C.3   1 <1>   0.2630 
 25 H        3.2470     0.7450     0.0910 H     1 <1>   0.4570 
 26 H       -1.3110    -1.8650    -1.3080 H     1 <1>   0.4000 
 27 H        1.9380    -3.2040    -0.2160 H     1 <1>   0.1500 
 28 H        2.1790     3.5300    -1.3630 H     1 <1>   0.0800 
 29 H        3.1940     2.5160    -0.3870 H     1 <1>   0.0800 
 30 H       -0.9530     1.6820    -0.9660 H     1 <1>   0.0800 
 31 H       -0.1760     3.0350    -1.7270 H     1 <1>   0.0800 
 32 H        0.0560    -4.2920    -0.2380 H     1 <1>   0.0800 
 33 H       -0.6270    -4.2710    -1.8520 H     1 <1>   0.0800 
 34 H        4.2360    -2.7970     0.5280 H     1 <1>   0.0800 
 35 H        4.4500    -1.3100     1.3930 H     1 <1>   0.0800 
 36 H        2.6070     4.5780     0.8200 H     1 <1>   0.0800 
 37 H        1.9500     3.1920     1.6380 H     1 <1>   0.0800 
 38 H       -0.6810     2.6830     1.2360 H     1 <1>   0.0800 
 39 H       -1.5270     3.7730     0.1830 H     1 <1>   0.0800 
 40 H       -2.8140    -3.6880    -0.9250 H     1 <1>   0.0800 
 41 H       -2.1760    -3.7260     0.7000 H     1 <1>   0.0800 
 42 H        5.0690    -1.7180    -1.5590 H     1 <1>   0.0800 
 43 H        6.2490    -1.6880    -0.2780 H     1 <1>   0.0800 
 44 H        5.3660    -0.2390    -0.6690 H     1 <1>   0.0800 
 45 H        0.4600     5.1150    -0.1660 H     1 <1>   0.0800 
 46 H        0.2350     4.9210     1.5490 H     1 <1>   0.0800 
 47 H       -1.9250    -5.7930     1.8310 H     1 <1>   0.0800 
 48 H       -0.6060    -6.1910     0.7760 H     1 <1>   0.0800 
 49 H       -4.3180    -5.4240    -0.9930 H     1 <1>   0.0800 
 50 H       -4.2270    -5.3720     0.7390 H     1 <1>   0.0800 
 51 H       -2.4780    -7.9670     1.9820 H     1 <1>   0.0800 
 52 H       -1.1120    -8.3620     0.9810 H     1 <1>   0.0800 
 53 H       -4.7920    -7.6100    -0.9370 H     1 <1>   0.0800 
 54 H       -4.7720    -7.5550     0.8020 H     1 <1>   0.0800 
 55 H       -2.4580    -7.9520    -0.9410 H     1 <1>   0.4500 
 56 H       -3.7610    -9.9520     0.8470 H     1 <1>   0.0800 
 57 H       -2.3300   -10.2480    -0.1190 H     1 <1>   0.0800 
 58 H       -3.8660    -9.9450    -0.9020 H     1 <1>   0.0800 
@<TRIPOS>BOND
  1   1   2  ar  
  2   1   3  ar  
  3   2   4  ar  
  4   2   5  1   
  5   3   6  1   
  6   3   7  ar  
  7   4   8  ar  
  8   4  25  1   
  9   5   9  1   
 10   5  10  1   
 11   6  11  1   
 12   6  26  1   
 13   7   8  ar  
 14   7  27  1   
 15   8  12  1   
 16   9  13  1   
 17   9  28  1   
 18   9  29  1   
 19  10  14  1   
 20  10  30  1   
 21  10  31  1   
 22  11  15  1   
 23  11  32  1   
 24  11  33  1   
 25  12  16  1   
 26  12  34  1   
 27  12  35  1   
 28  13  17  1   
 29  13  36  1   
 30  13  37  1   
 31  14  17  1   
 32  14  38  1   
 33  14  39  1   
 34  15  18  1   
 35  15  40  1   
 36  15  41  1   
 37  16  42  1   
 38  16  43  1   
 39  16  44  1   
 40  17  45  1   
 41  17  46  1   
 42  18  19  1   
 43  18  20  1   
 44  19  21  1   
 45  19  47  1   
 46  19  48  1   
 47  20  22  1   
 48  20  49  1   
 49  20  50  1   
 50  21  23  1   
 51  21  51  1   
 52  21  52  1   
 53  22  23  1   
 54  22  53  1   
 55  22  54  1   
 56  23  24  1   
 57  23  55  1   
 58  24  56  1   
 59  24  57  1   
 60  24  58  1   
@<TRIPOS>SUBSTRUCTURE
  1 ****   3 GROUP 4 **** **** 0

# MOE 2024.06 (io_trps.svl 2023.06)
