@<TRIPOS>MOLECULE
NONAME
56 59 1 0 0 
SMALL
USER_CHARGES


@<TRIPOS>ATOM
  1 O        0.6310    -1.3350    -1.6290 O.3   1 <1>  -0.6800 
  2 C        0.2750    -1.9320    -0.4270 C.3   1 <1>   0.1200 
  3 C        1.4790    -2.0130     0.5570 C.3   1 <1>   0.0000 
  4 C        2.7790    -2.5800    -0.0850 C.3   1 <1>   0.4230 
  5 C        1.7740    -0.5980     1.1260 C.3   1 <1>  -0.1600 
  6 C        1.0740    -2.9360     1.7420 C.3   1 <1>  -0.1600 
  7 N        2.6120    -3.9930    -0.6460 N.4   1 <1>  -0.9590 
  8 C        3.4720    -1.5510    -1.0380 C.3   1 <1>   0.3430 
  9 C        2.3720     0.3730     0.1040 C.3   1 <1>   0.3430 
 10 C        1.5670    -4.3910     1.5950 C.3   1 <1>  -0.1600 
 11 C        1.6510    -4.8460     0.1380 C.3   1 <1>   0.3430 
 12 C        2.2390    -4.0630    -2.1010 C.3   1 <1>   0.2630 
 13 N        3.6540    -0.1790    -0.4340 N.4   1 <1>  -0.9590 
 14 C        4.2510     0.7800    -1.4160 C.3   1 <1>   0.4860 
 15 C        4.6070     2.0590    -0.6780 C.ar  1 <1>  -0.1430 
 16 C        5.7050     2.0400     0.2230 C.ar  1 <1>   0.0000 
 17 C        3.8600     3.2040    -0.8560 C.ar  1 <1>  -0.1430 
 18 C        5.9610     3.1880     1.0100 C.ar  1 <1>   0.3100 
 19 C        6.5870     0.9480     0.3910 C.ar  1 <1>  -0.1500 
 20 C        4.1520     4.3420    -0.0950 C.ar  1 <1>  -0.1500 
 21 C        2.7070     3.3230    -1.8490 C.3   1 <1>  -0.0970 
 22 N        6.9400     3.2440     1.9460 N.ar  1 <1>  -0.6200 
 23 C        5.1680     4.3250     0.8170 C.ar  1 <1>  -0.1500 
 24 C        7.5780     1.0410     1.3210 C.ar  1 <1>  -0.1500 
 25 C        7.7080     2.2100     2.0800 C.ar  1 <1>   0.1600 
 26 H       -0.1750    -1.1580    -2.1690 H     1 <1>   0.4000 
 27 H       -0.5240    -1.3520     0.0070 H     1 <1>   0.0800 
 28 H       -0.1160    -2.9080    -0.6540 H     1 <1>   0.0800 
 29 H        3.4620    -2.6800     0.7420 H     1 <1>   0.0800 
 30 H        2.4550    -0.6580     1.9570 H     1 <1>   0.0800 
 31 H        0.8640    -0.1670     1.5070 H     1 <1>   0.0800 
 32 H        1.4650    -2.5640     2.6750 H     1 <1>   0.0800 
 33 H        0.0020    -2.9360     1.8550 H     1 <1>   0.0800 
 34 H        3.5250    -4.4640    -0.5480 H     1 <1>   0.4500 
 35 H        2.8760    -1.4540    -1.9290 H     1 <1>   0.0800 
 36 H        4.4350    -1.9400    -1.3230 H     1 <1>   0.0800 
 37 H        2.5520     1.3240     0.5820 H     1 <1>   0.0800 
 38 H        1.6730     0.5340    -0.7010 H     1 <1>   0.0800 
 39 H        0.8950    -5.0440     2.1280 H     1 <1>   0.0800 
 40 H        2.5340    -4.5040     2.0530 H     1 <1>   0.0800 
 41 H        0.6670    -4.7820    -0.2970 H     1 <1>   0.0800 
 42 H        1.9590    -5.8800     0.0960 H     1 <1>   0.0800 
 43 H        1.2870    -3.5870    -2.2720 H     1 <1>   0.0800 
 44 H        2.1640    -5.0920    -2.4170 H     1 <1>   0.0800 
 45 H        2.9810    -3.5790    -2.7120 H     1 <1>   0.0800 
 46 H        4.3160    -0.1980     0.3570 H     1 <1>   0.4500 
 47 H        5.1440     0.3670    -1.8570 H     1 <1>   0.0800 
 48 H        3.5490     0.9810    -2.2070 H     1 <1>   0.0800 
 49 H        6.5100     0.0600    -0.2060 H     1 <1>   0.1500 
 50 H        3.5710     5.2410    -0.2240 H     1 <1>   0.1500 
 51 H        2.4990     4.3580    -2.0620 H     1 <1>   0.0800 
 52 H        1.8120     2.8860    -1.4440 H     1 <1>   0.0800 
 53 H        2.9460     2.8540    -2.7860 H     1 <1>   0.0800 
 54 H        5.3920     5.1920     1.4130 H     1 <1>   0.1500 
 55 H        8.2790     0.2430     1.4890 H     1 <1>   0.1500 
 56 H        8.4950     2.2550     2.8140 H     1 <1>   0.1500 
@<TRIPOS>BOND
  1   1   2  1   
  2   1  26  1   
  3   2   3  1   
  4   2  27  1   
  5   2  28  1   
  6   3   4  1   
  7   3   5  1   
  8   3   6  1   
  9   4   7  1   
 10   4   8  1   
 11   4  29  1   
 12   5   9  1   
 13   5  30  1   
 14   5  31  1   
 15   6  10  1   
 16   6  32  1   
 17   6  33  1   
 18   7  11  1   
 19   7  12  1   
 20   7  34  1   
 21   8  13  1   
 22   8  35  1   
 23   8  36  1   
 24   9  13  1   
 25   9  37  1   
 26   9  38  1   
 27  10  11  1   
 28  10  39  1   
 29  10  40  1   
 30  11  41  1   
 31  11  42  1   
 32  12  43  1   
 33  12  44  1   
 34  12  45  1   
 35  13  14  1   
 36  13  46  1   
 37  14  15  1   
 38  14  47  1   
 39  14  48  1   
 40  15  16  ar  
 41  15  17  ar  
 42  16  18  ar  
 43  16  19  ar  
 44  17  20  ar  
 45  17  21  1   
 46  18  22  ar  
 47  18  23  ar  
 48  19  24  ar  
 49  19  49  1   
 50  20  23  ar  
 51  20  50  1   
 52  21  51  1   
 53  21  52  1   
 54  21  53  1   
 55  22  25  ar  
 56  23  54  1   
 57  24  25  ar  
 58  24  55  1   
 59  25  56  1   
@<TRIPOS>SUBSTRUCTURE
  1 ****  13 GROUP 4 **** **** 0

# MOE 2024.06 (io_trps.svl 2023.06)
