@<TRIPOS>MOLECULE
NONAME
58 62 1 0 0 
SMALL
USER_CHARGES


@<TRIPOS>ATOM
  1 O       -1.3330     0.5490     0.9520 O.2   1 <1>  -0.5700 
  2 C       -1.5610     1.6650     0.5230 C.2   1 <1>   0.7160 
  3 N       -2.8730     2.0550     0.3770 N.am  1 <1>  -0.6600 
  4 C       -0.4730     2.5580     0.1920 C.2   1 <1>  -0.0860 
  5 C       -4.0190     1.1360     0.6180 C.3   1 <1>   0.1400 
  6 C       -3.3450     3.4600     0.3600 C.3   1 <1>   0.1400 
  7 C        0.7240     2.7450     0.8160 C.2   1 <1>  -0.0400 
  8 C       -0.4270     3.4480    -0.9030 C.2   1 <1>  -0.1500 
  9 C       -5.2210     2.0500     0.8540 C.3   1 <1>   0.2800 
 10 C       -4.6710     3.4440     1.1370 C.3   1 <1>  -0.0800 
 11 O        1.4400     3.6560     0.2040 O.3   1 <1>  -0.2800 
 12 C        1.3120     2.0900     2.0490 C.3   1 <1>  -0.0600 
 13 C        0.7580     4.0840    -0.8340 C.2   1 <1>  -0.0400 
 14 O       -5.9540     2.2950    -0.2910 O.3   1 <1>  -0.5600 
 15 C       -6.3210     1.6450     1.8370 C.3   1 <1>  -0.1600 
 16 C       -5.8440     4.3340     0.6680 C.3   1 <1>  -0.0800 
 17 C        1.3750     5.1410    -1.7220 C.3   1 <1>  -0.0600 
 18 C       -6.8250     3.2600     0.1680 C.3   1 <1>   0.2000 
 19 C       -7.4780     2.5230     1.3450 C.3   1 <1>  -0.1600 
 20 C       -5.5080     5.3520    -0.4280 C.3   1 <1>   0.1400 
 21 N       -6.6860     6.2030    -0.6930 N.am  1 <1>  -0.7300 
 22 C       -7.0630     6.6940    -1.9030 C.2   1 <1>   0.5690 
 23 O       -6.4320     6.4680    -2.9070 O.2   1 <1>  -0.5700 
 24 C       -8.3140     7.5390    -2.0100 C.3   1 <1>   0.1570 
 25 N       -8.4430     8.4230    -0.8410 N.pl3 1 <1>   0.3140 
 26 N       -8.8000     7.9570     0.3760 N.2   1 <1>  -0.7070 
 27 C       -8.2310     9.7540    -0.8060 C.2   1 <1>  -0.3020 
 28 C       -8.8110     9.0000     1.1440 C.2   1 <1>   0.1080 
 29 C       -8.4610    10.1580     0.4610 C.2   1 <1>  -0.1500 
 30 C       -9.1710     8.9270     2.6090 C.3   1 <1>  -0.0590 
 31 H       -4.1840     0.4930    -0.2290 H     1 <1>   0.0800 
 32 H       -3.8240     0.5440     1.4950 H     1 <1>   0.0800 
 33 H       -2.6320     4.1230     0.8190 H     1 <1>   0.0800 
 34 H       -3.4940     3.7400    -0.6670 H     1 <1>   0.0800 
 35 H       -1.2040     3.5600    -1.6370 H     1 <1>   0.1500 
 36 H       -4.4700     3.5660     2.1860 H     1 <1>   0.0800 
 37 H        0.6220     1.3850     2.4750 H     1 <1>   0.0800 
 38 H        1.5430     2.8390     2.7830 H     1 <1>   0.0800 
 39 H        2.2160     1.5720     1.7830 H     1 <1>   0.0800 
 40 H       -6.5540     0.6000     1.7250 H     1 <1>   0.0800 
 41 H       -6.0440     1.8480     2.8560 H     1 <1>   0.0800 
 42 H       -6.2600     4.8620     1.5080 H     1 <1>   0.0800 
 43 H        0.7080     5.3860    -2.5280 H     1 <1>   0.0800 
 44 H        2.3000     4.7750    -2.1300 H     1 <1>   0.0800 
 45 H        1.5740     6.0270    -1.1470 H     1 <1>   0.0800 
 46 H       -7.5060     3.5770    -0.6040 H     1 <1>   0.0800 
 47 H       -7.8390     3.2020     2.0970 H     1 <1>   0.0800 
 48 H       -8.2940     1.9190     0.9890 H     1 <1>   0.0800 
 49 H       -5.2230     4.8460    -1.3370 H     1 <1>   0.0800 
 50 H       -4.6930     5.9810    -0.1120 H     1 <1>   0.0800 
 51 H       -7.2240     6.5320     0.1250 H     1 <1>   0.3700 
 52 H       -9.1720     6.8980    -2.0540 H     1 <1>   0.0800 
 53 H       -8.2710     8.1350    -2.9010 H     1 <1>   0.0800 
 54 H       -7.9350    10.3290    -1.6640 H     1 <1>   0.1500 
 55 H       -8.3960    11.1490     0.8750 H     1 <1>   0.1500 
 56 H       -9.1210     9.9020     3.0580 H     1 <1>   0.0800 
 57 H       -8.4880     8.2700     3.1150 H     1 <1>   0.0800 
 58 H      -10.1680     8.5420     2.7140 H     1 <1>   0.0800 
@<TRIPOS>BOND
  1   1   2  2   
  2   2   3  am  
  3   2   4  1   
  4   3   5  1   
  5   3   6  1   
  6   4   7  2   
  7   4   8  1   
  8   5   9  1   
  9   5  31  1   
 10   5  32  1   
 11   6  10  1   
 12   6  33  1   
 13   6  34  1   
 14   7  11  1   
 15   7  12  1   
 16   8  13  2   
 17   8  35  1   
 18   9  10  1   
 19   9  14  1   
 20   9  15  1   
 21  10  16  1   
 22  10  36  1   
 23  11  13  1   
 24  12  37  1   
 25  12  38  1   
 26  12  39  1   
 27  13  17  1   
 28  14  18  1   
 29  15  19  1   
 30  15  40  1   
 31  15  41  1   
 32  16  18  1   
 33  16  20  1   
 34  16  42  1   
 35  17  43  1   
 36  17  44  1   
 37  17  45  1   
 38  18  19  1   
 39  18  46  1   
 40  19  47  1   
 41  19  48  1   
 42  20  21  1   
 43  20  49  1   
 44  20  50  1   
 45  21  22  am  
 46  21  51  1   
 47  22  23  2   
 48  22  24  1   
 49  24  25  1   
 50  24  52  1   
 51  24  53  1   
 52  25  26  1   
 53  25  27  1   
 54  26  28  2   
 55  27  29  2   
 56  27  54  1   
 57  28  29  1   
 58  28  30  1   
 59  29  55  1   
 60  30  56  1   
 61  30  57  1   
 62  30  58  1   
@<TRIPOS>SUBSTRUCTURE
  1 ****  20 GROUP 4 **** **** 0

# MOE 2024.06 (io_trps.svl 2023.06)
