@<TRIPOS>MOLECULE
NONAME
51 55 1 0 0 
SMALL
USER_CHARGES


@<TRIPOS>ATOM
  1 O       -0.3660     0.3330     0.2990 O.2   1 <1>  -0.5700 
  2 C       -1.4040     0.9610     0.3910 C.2   1 <1>   0.5440 
  3 N       -2.5930     0.2680     0.3800 N.am  1 <1>  -0.6600 
  4 C       -1.3680     2.4080     0.4840 C.ar  1 <1>   0.0860 
  5 C       -3.9010     0.8540    -0.0100 C.3   1 <1>   0.1400 
  6 C       -2.6340    -1.2120     0.2700 C.3   1 <1>   0.1400 
  7 C       -2.1160     3.1060     1.4310 C.ar  1 <1>  -0.1500 
  8 C       -0.5750     3.1630    -0.3770 C.ar  1 <1>  -0.1500 
  9 C       -4.6850    -0.3080    -0.6140 C.3   1 <1>   0.2000 
 10 C       -4.1010    -1.5670     0.0220 C.3   1 <1>  -0.0800 
 11 C       -2.0910     4.4860     1.4950 C.ar  1 <1>  -0.1500 
 12 C       -0.5490     4.5430    -0.3130 C.ar  1 <1>  -0.1500 
 13 O       -6.0390    -0.2120    -0.3330 O.3   1 <1>  -0.6800 
 14 C       -4.2930    -2.8210    -0.8460 C.3   1 <1>  -0.0170 
 15 C       -1.3120     5.2470     0.6210 C.ar  1 <1>   0.0540 
 16 C       -3.7050    -4.0490    -0.1700 C.ar  1 <1>  -0.1430 
 17 C       -1.2980     6.6980     0.6870 C.2   1 <1>   0.4620 
 18 C       -2.4310    -4.5030    -0.4480 C.ar  1 <1>  -0.1500 
 19 C       -4.4200    -4.7740     0.7620 C.ar  1 <1>  -0.1500 
 20 N       -1.9580     7.4160     1.5260 N.2   1 <1>  -0.4100 
 21 N       -0.5780     7.4500    -0.1490 N.2   1 <1>  -0.5650 
 22 C       -1.9470    -5.6250     0.2050 C.ar  1 <1>   0.1600 
 23 C       -3.8430    -5.8830     1.3570 C.ar  1 <1>   0.1600 
 24 O       -1.6950     8.6600     1.2760 O.3   1 <1>  -0.0190 
 25 C       -0.8650     8.6140     0.2670 C.2   1 <1>   0.3930 
 26 N       -2.6220    -6.3250     1.1020 N.ar  1 <1>  -0.6200 
 27 C       -0.3420     9.9260    -0.2970 C.3   1 <1>  -0.0150 
 28 C        0.9970    10.0170    -0.9650 C.3   1 <1>  -0.2000 
 29 C        0.7850    10.6460     0.3790 C.3   1 <1>  -0.2000 
 30 H       -4.3940     1.2310     0.8680 H     1 <1>   0.0800 
 31 H       -3.7690     1.6420    -0.7320 H     1 <1>   0.0800 
 32 H       -2.0180    -1.5150    -0.5600 H     1 <1>   0.0800 
 33 H       -2.2620    -1.6700     1.1710 H     1 <1>   0.0800 
 34 H       -2.7190     2.5530     2.1290 H     1 <1>   0.1500 
 35 H        0.0300     2.6490    -1.1040 H     1 <1>   0.1500 
 36 H       -4.5600    -0.3130    -1.6840 H     1 <1>   0.0800 
 37 H       -4.5550    -1.7270     0.9840 H     1 <1>   0.0800 
 38 H       -2.6860     4.9880     2.2390 H     1 <1>   0.1500 
 39 H        0.0760     5.0870    -1.0000 H     1 <1>   0.1500 
 40 H       -6.1950    -0.2750     0.6290 H     1 <1>   0.4000 
 41 H       -3.8290    -2.6780    -1.8060 H     1 <1>   0.0800 
 42 H       -5.3440    -2.9780    -1.0160 H     1 <1>   0.0800 
 43 H       -1.8090    -3.9980    -1.1630 H     1 <1>   0.1500 
 44 H       -5.4200    -4.4870     1.0310 H     1 <1>   0.1500 
 45 H       -0.9510    -5.9630    -0.0220 H     1 <1>   0.1500 
 46 H       -4.4160    -6.4360     2.0820 H     1 <1>   0.1500 
 47 H       -1.1350    10.5240    -0.7080 H     1 <1>   0.1000 
 48 H        1.6010     9.1270    -1.0330 H     1 <1>   0.1000 
 49 H        1.0990    10.6500    -1.8290 H     1 <1>   0.1000 
 50 H        0.7420    11.7190     0.4510 H     1 <1>   0.1000 
 51 H        1.2500    10.1920     1.2370 H     1 <1>   0.1000 
@<TRIPOS>BOND
  1   1   2  2   
  2   2   3  am  
  3   2   4  1   
  4   3   5  1   
  5   3   6  1   
  6   4   7  ar  
  7   4   8  ar  
  8   5   9  1   
  9   5  30  1   
 10   5  31  1   
 11   6  10  1   
 12   6  32  1   
 13   6  33  1   
 14   7  11  ar  
 15   7  34  1   
 16   8  12  ar  
 17   8  35  1   
 18   9  10  1   
 19   9  13  1   
 20   9  36  1   
 21  10  14  1   
 22  10  37  1   
 23  11  15  ar  
 24  11  38  1   
 25  12  15  ar  
 26  12  39  1   
 27  13  40  1   
 28  14  16  1   
 29  14  41  1   
 30  14  42  1   
 31  15  17  1   
 32  16  18  ar  
 33  16  19  ar  
 34  17  20  2   
 35  17  21  1   
 36  18  22  ar  
 37  18  43  1   
 38  19  23  ar  
 39  19  44  1   
 40  20  24  1   
 41  21  25  2   
 42  22  26  ar  
 43  22  45  1   
 44  23  26  ar  
 45  23  46  1   
 46  24  25  1   
 47  25  27  1   
 48  27  28  1   
 49  27  29  1   
 50  27  47  1   
 51  28  29  1   
 52  28  48  1   
 53  28  49  1   
 54  29  50  1   
 55  29  51  1   
@<TRIPOS>SUBSTRUCTURE
  1 ****   4 GROUP 4 **** **** 0

# MOE 2024.06 (io_trps.svl 2023.06)
