@<TRIPOS>MOLECULE
NONAME
48 50 1 0 0 
SMALL
USER_CHARGES


@<TRIPOS>ATOM
  1 O       -0.6060     0.3330    -0.0970 O.3   1 <1>  -0.6800 
  2 C       -0.6960     1.7040    -0.1910 C.3   1 <1>   0.2000 
  3 C        0.2760     2.1780    -1.2760 C.3   1 <1>  -0.1600 
  4 C       -0.3520     2.2950     1.1790 C.3   1 <1>  -0.1600 
  5 C        0.3350     3.7140    -1.3300 C.3   1 <1>  -0.1600 
  6 C       -0.2940     3.8310     1.1200 C.3   1 <1>  -0.1600 
  7 C        0.6790     4.3120     0.0390 C.3   1 <1>   0.2890 
  8 N        0.5830     5.7820    -0.0540 N.pl3 1 <1>  -0.8690 
  9 C        1.5870     6.6830     0.0160 C.ar  1 <1>   0.4100 
 10 N        2.8100     6.2150     0.1500 N.ar  1 <1>  -0.6200 
 11 C        1.3090     8.0710    -0.0630 C.ar  1 <1>  -0.1430 
 12 C        3.8070     7.0800     0.1990 C.ar  1 <1>   0.7710 
 13 C        2.3640     8.9350    -0.0300 C.ar  1 <1>   0.2180 
 14 C       -0.1540     8.5220    -0.1720 C.3   1 <1>  -0.0970 
 15 N        3.6000     8.4010     0.1110 N.ar  1 <1>  -0.1790 
 16 N        5.0750     6.6250     0.3420 N.pl3 1 <1>  -0.8380 
 17 C        2.2890    10.4540    -0.1330 C.3   1 <1>  -0.0970 
 18 C        6.3480     7.3970     0.3580 C.3   1 <1>   0.2090 
 19 C        5.3640     5.1690     0.4810 C.3   1 <1>   0.2090 
 20 C        7.4460     6.3520     0.2200 C.3   1 <1>  -0.1600 
 21 C        6.8460     5.0850     0.8170 C.3   1 <1>  -0.1600 
 22 H       -0.8240    -0.0800    -0.9530 H     1 <1>   0.4000 
 23 H       -1.7100     1.9550    -0.4580 H     1 <1>   0.0800 
 24 H       -0.0340     1.8020    -2.2350 H     1 <1>   0.0800 
 25 H        1.2610     1.7990    -1.0600 H     1 <1>   0.0800 
 26 H        0.6040     1.9180     1.4970 H     1 <1>   0.0800 
 27 H       -1.0940     1.9900     1.8960 H     1 <1>   0.0800 
 28 H       -0.6190     4.0900    -1.6560 H     1 <1>   0.0800 
 29 H        1.0810     4.0170    -2.0430 H     1 <1>   0.0800 
 30 H        0.0230     4.2100     2.0750 H     1 <1>   0.0800 
 31 H       -1.2800     4.2080     0.9130 H     1 <1>   0.0800 
 32 H        1.6780     4.0120     0.3120 H     1 <1>   0.0800 
 33 H       -0.3740     6.1050    -0.1960 H     1 <1>   0.4000 
 34 H       -0.7470     8.0340     0.5820 H     1 <1>   0.0800 
 35 H       -0.5470     8.2620    -1.1390 H     1 <1>   0.0800 
 36 H       -0.2790     9.5780    -0.0280 H     1 <1>   0.0800 
 37 H        4.4330     8.9690     0.1650 H     1 <1>   0.4570 
 38 H        1.4200    10.7700    -0.6810 H     1 <1>   0.0800 
 39 H        3.1460    10.8450    -0.6520 H     1 <1>   0.0800 
 40 H        2.2510    10.8890     0.8500 H     1 <1>   0.0800 
 41 H        6.4500     7.9030     1.3040 H     1 <1>   0.0800 
 42 H        6.3980     8.1040    -0.4530 H     1 <1>   0.0800 
 43 H        5.1630     4.6750    -0.4560 H     1 <1>   0.0800 
 44 H        4.7620     4.7210     1.2550 H     1 <1>   0.0800 
 45 H        8.3510     6.6490     0.7190 H     1 <1>   0.0800 
 46 H        7.6580     6.1970    -0.8240 H     1 <1>   0.0800 
 47 H        7.2940     4.1910     0.4200 H     1 <1>   0.0800 
 48 H        6.9640     5.0880     1.8860 H     1 <1>   0.0800 
@<TRIPOS>BOND
  1   1   2  1   
  2   1  22  1   
  3   2   3  1   
  4   2   4  1   
  5   2  23  1   
  6   3   5  1   
  7   3  24  1   
  8   3  25  1   
  9   4   6  1   
 10   4  26  1   
 11   4  27  1   
 12   5   7  1   
 13   5  28  1   
 14   5  29  1   
 15   6   7  1   
 16   6  30  1   
 17   6  31  1   
 18   7   8  1   
 19   7  32  1   
 20   8   9  1   
 21   8  33  1   
 22   9  10  ar  
 23   9  11  ar  
 24  10  12  ar  
 25  11  13  ar  
 26  11  14  1   
 27  12  15  ar  
 28  12  16  1   
 29  13  15  ar  
 30  13  17  1   
 31  14  34  1   
 32  14  35  1   
 33  14  36  1   
 34  15  37  1   
 35  16  18  1   
 36  16  19  1   
 37  17  38  1   
 38  17  39  1   
 39  17  40  1   
 40  18  20  1   
 41  18  41  1   
 42  18  42  1   
 43  19  21  1   
 44  19  43  1   
 45  19  44  1   
 46  20  21  1   
 47  20  45  1   
 48  20  46  1   
 49  21  47  1   
 50  21  48  1   
@<TRIPOS>SUBSTRUCTURE
  1 ****  10 GROUP 4 **** **** 0

# MOE 2024.06 (io_trps.svl 2023.06)
