@<TRIPOS>MOLECULE
NONAME
35 36 1 0 0 
SMALL
USER_CHARGES


@<TRIPOS>ATOM
  1 S        2.4680     0.0430     1.6010 S.3   1 <1>  -0.0800 
  2 C        2.1630     0.0280    -0.1300 C.2   1 <1>  -0.1400 
  3 C        0.9410    -0.7600     1.9220 C.2   1 <1>  -0.1100 
  4 C        0.9790    -0.5560    -0.3940 C.2   1 <1>  -0.1500 
  5 C        3.2170     0.6330    -1.0370 C.3   1 <1>   0.0200 
  6 C        0.2830    -1.0030     0.7740 C.2   1 <1>  -0.1500 
  7 C        3.2500     2.1590    -0.8890 C.3   1 <1>  -0.1600 
  8 C        4.3440     2.7920    -1.7670 C.3   1 <1>  -0.0990 
  9 C        4.3570     4.3070    -1.6780 C.2   1 <1>   0.5690 
 10 O        4.1100     4.9390    -2.6780 O.2   1 <1>  -0.5700 
 11 N        4.6520     4.8690    -0.4720 N.am  1 <1>  -0.4930 
 12 C        4.7380     6.2410    -0.1200 C.2   1 <1>   0.0630 
 13 C        4.9600     6.7690     1.1550 C.2   1 <1>   0.1080 
 14 C        4.6310     7.3240    -0.9140 C.2   1 <1>  -0.3020 
 15 N        4.9900     8.0650     1.1540 N.2   1 <1>  -0.7070 
 16 C        5.1480     5.9620     2.4200 C.3   1 <1>  -0.0590 
 17 N        4.7840     8.4090    -0.1290 N.pl3 1 <1>   0.3140 
 18 C        4.7450     9.8090    -0.5630 C.3   1 <1>   0.0160 
 19 H        0.6960    -0.9680     2.9480 H     1 <1>   0.1500 
 20 H        0.5540    -0.6960    -1.3720 H     1 <1>   0.1500 
 21 H        2.9920     0.3750    -2.0570 H     1 <1>   0.0800 
 22 H        4.1760     0.2110    -0.7880 H     1 <1>   0.0800 
 23 H       -0.6760    -1.4850     0.6940 H     1 <1>   0.1500 
 24 H        3.4200     2.4120     0.1420 H     1 <1>   0.0800 
 25 H        2.2900     2.5590    -1.1720 H     1 <1>   0.0800 
 26 H        4.1810     2.5170    -2.7950 H     1 <1>   0.0800 
 27 H        5.3110     2.4240    -1.4790 H     1 <1>   0.0800 
 28 H        4.8150     4.2240     0.2960 H     1 <1>   0.3700 
 29 H        4.4560     7.3740    -1.9720 H     1 <1>   0.1500 
 30 H        4.2920     5.3340     2.5840 H     1 <1>   0.0800 
 31 H        5.2560     6.6250     3.2600 H     1 <1>   0.0800 
 32 H        6.0320     5.3580     2.3400 H     1 <1>   0.0800 
 33 H        3.8700     9.9670    -1.1660 H     1 <1>   0.0800 
 34 H        5.6280    10.0240    -1.1330 H     1 <1>   0.0800 
 35 H        4.7080    10.4440     0.3020 H     1 <1>   0.0800 
@<TRIPOS>BOND
  1   1   2  1   
  2   1   3  1   
  3   2   4  2   
  4   2   5  1   
  5   3   6  2   
  6   3  19  1   
  7   4   6  1   
  8   4  20  1   
  9   5   7  1   
 10   5  21  1   
 11   5  22  1   
 12   6  23  1   
 13   7   8  1   
 14   7  24  1   
 15   7  25  1   
 16   8   9  1   
 17   8  26  1   
 18   8  27  1   
 19   9  10  2   
 20   9  11  am  
 21  11  12  1   
 22  11  28  1   
 23  12  13  1   
 24  12  14  2   
 25  13  15  2   
 26  13  16  1   
 27  14  17  1   
 28  14  29  1   
 29  15  17  1   
 30  16  30  1   
 31  16  31  1   
 32  16  32  1   
 33  17  18  1   
 34  18  33  1   
 35  18  34  1   
 36  18  35  1   
@<TRIPOS>SUBSTRUCTURE
  1 ****  11 GROUP 4 **** **** 0

# MOE 2024.06 (io_trps.svl 2023.06)
