@<TRIPOS>MOLECULE
NONAME
42 44 1 0 0 
SMALL
USER_CHARGES


@<TRIPOS>ATOM
  1 F       -0.7880    -0.9790     0.9150 F     1 <1>  -0.3400 
  2 C       -0.2750    -1.2920    -0.2720 C.3   1 <1>   0.7810 
  3 F       -1.3280    -1.3490    -1.0840 F     1 <1>  -0.3400 
  4 C        0.4230    -2.6580    -0.2120 C.2   1 <1>   0.1080 
  5 N        1.6540    -2.8710    -0.5920 N.2   1 <1>  -0.7070 
  6 C       -0.1700    -3.8200     0.2520 C.2   1 <1>  -0.1500 
  7 N        1.8670    -4.1770    -0.3680 N.pl3 1 <1>   0.3140 
  8 C        0.7690    -4.8000     0.1320 C.2   1 <1>  -0.2370 
  9 C        3.1790    -4.7770    -0.6690 C.3   1 <1>   0.0160 
 10 C        0.7130    -6.2000     0.4480 C.2   1 <1>   0.7150 
 11 O        1.6890    -6.7600     0.9110 O.2   1 <1>  -0.5700 
 12 N       -0.4220    -6.9430     0.2200 N.am  1 <1>  -0.6600 
 13 C       -1.4840    -6.5780    -0.7560 C.3   1 <1>   0.1400 
 14 C       -0.4990    -8.3940     0.5350 C.3   1 <1>   0.1400 
 15 C       -2.4490    -7.7630    -0.7410 C.3   1 <1>   0.2000 
 16 C       -1.5490    -8.9620    -0.4260 C.3   1 <1>  -0.0800 
 17 O       -3.3480    -7.5720     0.2970 O.3   1 <1>  -0.6800 
 18 C       -2.2860   -10.2020     0.1140 C.3   1 <1>   0.0200 
 19 C       -1.3800   -11.4110     0.2800 C.2   1 <1>  -0.0400 
 20 O       -1.8610   -12.4770     0.8620 O.3   1 <1>  -0.0190 
 21 C       -0.1060   -11.6710    -0.0580 C.2   1 <1>  -0.1500 
 22 N       -0.9800   -13.4320     0.9370 N.2   1 <1>  -0.4100 
 23 C        0.0880   -12.9750     0.3900 C.2   1 <1>   0.1080 
 24 C        1.3760   -13.7550     0.2570 C.3   1 <1>  -0.0590 
 25 H        0.3650    -0.4920    -0.5930 H     1 <1>   0.0800 
 26 H       -1.1730    -3.8970     0.6340 H     1 <1>   0.1500 
 27 H        3.0420    -5.6450    -1.2850 H     1 <1>   0.0800 
 28 H        3.6550    -5.0570     0.2520 H     1 <1>   0.0800 
 29 H        3.7890    -4.0590    -1.1850 H     1 <1>   0.0800 
 30 H       -1.9890    -5.6670    -0.4900 H     1 <1>   0.0800 
 31 H       -1.0430    -6.4730    -1.7320 H     1 <1>   0.0800 
 32 H        0.4570    -8.8730     0.4020 H     1 <1>   0.0800 
 33 H       -0.8110    -8.5120     1.5590 H     1 <1>   0.0800 
 34 H       -3.0020    -7.8700    -1.6590 H     1 <1>   0.0800 
 35 H       -1.0460    -9.2350    -1.3370 H     1 <1>   0.0800 
 36 H       -2.8570    -7.3110     1.1020 H     1 <1>   0.4000 
 37 H       -3.0830   -10.4650    -0.5590 H     1 <1>   0.0800 
 38 H       -2.7300    -9.9800     1.0690 H     1 <1>   0.0800 
 39 H        0.6250   -11.0610    -0.5530 H     1 <1>   0.1500 
 40 H        1.6460   -13.8410    -0.7790 H     1 <1>   0.0800 
 41 H        1.2520   -14.7410     0.6670 H     1 <1>   0.0800 
 42 H        2.1630   -13.2540     0.7900 H     1 <1>   0.0800 
@<TRIPOS>BOND
  1   1   2  1   
  2   2   3  1   
  3   2   4  1   
  4   2  25  1   
  5   4   5  2   
  6   4   6  1   
  7   5   7  1   
  8   6   8  2   
  9   6  26  1   
 10   7   8  1   
 11   7   9  1   
 12   8  10  1   
 13   9  27  1   
 14   9  28  1   
 15   9  29  1   
 16  10  11  2   
 17  10  12  am  
 18  12  13  1   
 19  12  14  1   
 20  13  15  1   
 21  13  30  1   
 22  13  31  1   
 23  14  16  1   
 24  14  32  1   
 25  14  33  1   
 26  15  16  1   
 27  15  17  1   
 28  15  34  1   
 29  16  18  1   
 30  16  35  1   
 31  17  36  1   
 32  18  19  1   
 33  18  37  1   
 34  18  38  1   
 35  19  20  1   
 36  19  21  2   
 37  20  22  1   
 38  21  23  1   
 39  21  39  1   
 40  22  23  2   
 41  23  24  1   
 42  24  40  1   
 43  24  41  1   
 44  24  42  1   
@<TRIPOS>SUBSTRUCTURE
  1 ****  12 GROUP 4 **** **** 0

# MOE 2024.06 (io_trps.svl 2023.06)
