@<TRIPOS>MOLECULE
NONAME
42 44 1 0 0 
SMALL
USER_CHARGES


@<TRIPOS>ATOM
  1 O        1.1180    -1.1010     2.0520 O.3   1 <1>  -0.0190 
  2 N        0.1130    -1.8670     1.7550 N.2   1 <1>  -0.4100 
  3 C        2.0120    -1.0710     1.1030 C.2   1 <1>  -0.0400 
  4 C        0.3520    -2.3600     0.5730 C.2   1 <1>   0.2350 
  5 C        1.5810    -1.8650     0.1160 C.2   1 <1>  -0.1500 
  6 C        3.2720    -0.2380     1.2650 C.3   1 <1>   0.2900 
  7 C       -0.5060    -3.2760    -0.1630 C.ar  1 <1>   0.3640 
  8 N        3.1220     1.1260     0.7190 N.3   1 <1>  -0.8100 
  9 N       -0.0740    -3.7470    -1.3410 N.ar  1 <1>  -0.6200 
 10 C       -1.7460    -3.6480     0.3610 C.ar  1 <1>  -0.1500 
 11 C        4.4210     1.8480     0.7560 C.3   1 <1>   0.2900 
 12 C        2.0470     1.8790     1.3910 C.3   1 <1>   0.0300 
 13 C       -0.8750    -4.5780    -1.9840 C.ar  1 <1>   0.1600 
 14 C       -2.5720    -4.5150    -0.3180 C.ar  1 <1>  -0.1500 
 15 C        4.4870     3.0990    -0.1180 C.2   1 <1>   0.2980 
 16 C       -2.1140    -4.9890    -1.5270 C.ar  1 <1>  -0.1500 
 17 O        3.8790     4.1890     0.2290 O.3   1 <1>  -0.2800 
 18 N        5.1410     3.2400    -1.2100 N.2   1 <1>  -0.3380 
 19 C        4.1720     5.0230    -0.7170 C.2   1 <1>   0.2980 
 20 N        4.9320     4.4970    -1.6030 N.2   1 <1>  -0.3380 
 21 C        3.6100     6.4430    -0.6630 C.3   1 <1>   0.1000 
 22 C        3.8260     7.2080    -1.9790 C.3   1 <1>  -0.2400 
 23 C        4.2290     7.2280     0.5020 C.3   1 <1>  -0.2400 
 24 H        2.0340    -2.0990    -0.8300 H     1 <1>   0.1500 
 25 H        4.0630    -0.7380     0.7320 H     1 <1>   0.0800 
 26 H        3.5430    -0.1970     2.3070 H     1 <1>   0.0800 
 27 H       -2.0580    -3.2490     1.3090 H     1 <1>   0.1500 
 28 H        5.1950     1.1880     0.4040 H     1 <1>   0.0800 
 29 H        4.6580     2.1200     1.7690 H     1 <1>   0.0800 
 30 H        1.1060     1.3670     1.2810 H     1 <1>   0.0800 
 31 H        1.9310     2.8490     0.9430 H     1 <1>   0.0800 
 32 H        2.2610     1.9960     2.4400 H     1 <1>   0.0800 
 33 H       -0.5260    -4.9550    -2.9300 H     1 <1>   0.1500 
 34 H       -3.5300    -4.8080     0.0760 H     1 <1>   0.1500 
 35 H       -2.7080    -5.6700    -2.1100 H     1 <1>   0.1500 
 36 H        2.5500     6.3620    -0.4960 H     1 <1>   0.0800 
 37 H        4.8780     7.3160    -2.1810 H     1 <1>   0.0800 
 38 H        3.3800     8.1840    -1.9270 H     1 <1>   0.0800 
 39 H        3.3780     6.6690    -2.7950 H     1 <1>   0.0800 
 40 H        5.2930     7.3110     0.3710 H     1 <1>   0.0800 
 41 H        4.0370     6.7230     1.4320 H     1 <1>   0.0800 
 42 H        3.8070     8.2160     0.5570 H     1 <1>   0.0800 
@<TRIPOS>BOND
  1   1   2  1   
  2   1   3  1   
  3   2   4  2   
  4   3   5  2   
  5   3   6  1   
  6   4   5  1   
  7   4   7  1   
  8   5  24  1   
  9   6   8  1   
 10   6  25  1   
 11   6  26  1   
 12   7   9  ar  
 13   7  10  ar  
 14   8  11  1   
 15   8  12  1   
 16   9  13  ar  
 17  10  14  ar  
 18  10  27  1   
 19  11  15  1   
 20  11  28  1   
 21  11  29  1   
 22  12  30  1   
 23  12  31  1   
 24  12  32  1   
 25  13  16  ar  
 26  13  33  1   
 27  14  16  ar  
 28  14  34  1   
 29  15  17  1   
 30  15  18  2   
 31  16  35  1   
 32  17  19  1   
 33  18  20  1   
 34  19  20  2   
 35  19  21  1   
 36  21  22  1   
 37  21  23  1   
 38  21  36  1   
 39  22  37  1   
 40  22  38  1   
 41  22  39  1   
 42  23  40  1   
 43  23  41  1   
 44  23  42  1   
@<TRIPOS>SUBSTRUCTURE
  1 ****   8 GROUP 4 **** **** 0

# MOE 2024.06 (io_trps.svl 2023.06)
