@<TRIPOS>MOLECULE
NONAME
40 41 1 0 0 
SMALL
USER_CHARGES


@<TRIPOS>ATOM
  1 O        0.1530    -0.6010    -1.4930 O.2   1 <1>  -0.5700 
  2 C        0.2070    -1.3010    -0.5020 C.2   1 <1>   0.7800 
  3 O        1.3500    -1.8490    -0.1200 O.3   1 <1>  -0.4300 
  4 N       -0.8670    -1.5790     0.2630 N.am  1 <1>  -0.7300 
  5 C        2.5250    -1.6060    -0.8600 C.3   1 <1>   0.2630 
  6 C       -2.2650    -1.2660    -0.0970 C.3   1 <1>   0.2200 
  7 C        3.6820    -2.3360    -0.1970 C.ar  1 <1>  -0.1440 
  8 C       -3.2100    -2.3410     0.4870 C.3   1 <1>   0.2000 
  9 C       -2.5970     0.1580     0.3740 C.3   1 <1>  -0.1600 
 10 C        3.7360    -3.7220    -0.2190 C.ar  1 <1>  -0.1500 
 11 C        4.6950    -1.6270     0.4310 C.ar  1 <1>  -0.1500 
 12 O       -2.8000    -3.6030     0.0770 O.3   1 <1>  -0.6800 
 13 C       -4.6860    -2.1770     0.1020 C.3   1 <1>  -0.1600 
 14 C       -3.8420     0.7230    -0.3300 C.3   1 <1>  -0.1600 
 15 C        4.7920    -4.3910     0.3750 C.ar  1 <1>  -0.1500 
 16 C        5.7520    -2.2960     1.0260 C.ar  1 <1>  -0.1500 
 17 C       -5.3580    -1.0450     0.8960 C.3   1 <1>  -0.1600 
 18 C       -5.1930     0.3670     0.3120 C.3   1 <1>  -0.1600 
 19 C        5.8010    -3.6780     0.9970 C.ar  1 <1>  -0.1500 
 20 H       -0.7570    -2.3340     0.9410 H     1 <1>   0.3700 
 21 H        2.3760    -1.9670    -1.8630 H     1 <1>   0.0800 
 22 H        2.6980    -0.5440    -0.8840 H     1 <1>   0.0800 
 23 H       -2.3450    -1.2900    -1.1710 H     1 <1>   0.0800 
 24 H       -3.1280    -2.3300     1.5610 H     1 <1>   0.0800 
 25 H       -2.7130     0.1920     1.4430 H     1 <1>   0.0800 
 26 H       -1.7680     0.7930     0.1120 H     1 <1>   0.0800 
 27 H        2.9510    -4.2820    -0.6980 H     1 <1>   0.1500 
 28 H        4.6670    -0.5520     0.4630 H     1 <1>   0.1500 
 29 H       -2.7830    -3.6500    -0.8980 H     1 <1>   0.4000 
 30 H       -4.7960    -2.0120    -0.9550 H     1 <1>   0.0800 
 31 H       -5.1970    -3.0910     0.3540 H     1 <1>   0.0800 
 32 H       -3.7630     1.7970    -0.3450 H     1 <1>   0.0800 
 33 H       -3.8430     0.4060    -1.3590 H     1 <1>   0.0800 
 34 H        4.8260    -5.4670     0.3540 H     1 <1>   0.1500 
 35 H        6.5350    -1.7400     1.5120 H     1 <1>   0.1500 
 36 H       -6.4130    -1.2510     0.9550 H     1 <1>   0.0800 
 37 H       -4.9910    -1.0550     1.9090 H     1 <1>   0.0800 
 38 H       -5.9560     0.5210    -0.4310 H     1 <1>   0.0800 
 39 H       -5.3900     1.0710     1.1030 H     1 <1>   0.0800 
 40 H        6.6220    -4.1980     1.4590 H     1 <1>   0.1500 
@<TRIPOS>BOND
  1   1   2  2   
  2   2   3  1   
  3   2   4  am  
  4   3   5  1   
  5   4   6  1   
  6   4  20  1   
  7   5   7  1   
  8   5  21  1   
  9   5  22  1   
 10   6   8  1   
 11   6   9  1   
 12   6  23  1   
 13   7  10  ar  
 14   7  11  ar  
 15   8  12  1   
 16   8  13  1   
 17   8  24  1   
 18   9  14  1   
 19   9  25  1   
 20   9  26  1   
 21  10  15  ar  
 22  10  27  1   
 23  11  16  ar  
 24  11  28  1   
 25  12  29  1   
 26  13  17  1   
 27  13  30  1   
 28  13  31  1   
 29  14  18  1   
 30  14  32  1   
 31  14  33  1   
 32  15  19  ar  
 33  15  34  1   
 34  16  19  ar  
 35  16  35  1   
 36  17  18  1   
 37  17  36  1   
 38  17  37  1   
 39  18  38  1   
 40  18  39  1   
 41  19  40  1   
@<TRIPOS>SUBSTRUCTURE
  1 ****   2 GROUP 4 **** **** 0

# MOE 2024.06 (io_trps.svl 2023.06)
