@<TRIPOS>MOLECULE
NONAME
54 57 1 0 0 
SMALL
USER_CHARGES


@<TRIPOS>ATOM
  1 O       -0.7610     0.8830    -1.5320 O.2   1 <1>  -0.5700 
  2 C       -1.7750     1.1400    -0.9250 C.2   1 <1>   0.5690 
  3 N       -2.9260     0.4140    -1.1050 N.am  1 <1>  -0.6600 
  4 C       -1.7530     2.3080     0.0500 C.3   1 <1>  -0.0990 
  5 C       -4.2210     0.6480    -0.4050 C.3   1 <1>   0.1400 
  6 C       -2.9800    -0.7280    -2.0620 C.3   1 <1>   0.1400 
  7 C       -0.3740     2.9610     0.2100 C.3   1 <1>   0.0200 
  8 C       -4.5970    -0.6100     0.3810 C.3   1 <1>  -0.1600 
  9 C       -3.3560    -2.0050    -1.3060 C.3   1 <1>  -0.1600 
 10 C       -0.4580     4.1410     1.1650 C.2   1 <1>  -0.3320 
 11 C       -4.6710    -1.8480    -0.5290 C.3   1 <1>   0.4240 
 12 N       -0.8830     5.3840     0.8380 N.pl3 1 <1>   0.3140 
 13 C       -0.1360     4.1740     2.4760 C.2   1 <1>  -0.1500 
 14 O       -5.6540    -1.6070    -1.5090 O.3   1 <1>  -0.5600 
 15 C       -4.9730    -3.1260     0.2860 C.ar  1 <1>  -0.1430 
 16 N       -0.8540     6.2050     1.9010 N.2   1 <1>  -0.7070 
 17 C       -1.3210     5.8710    -0.4770 C.3   1 <1>   0.0160 
 18 C       -0.4030     5.4770     2.8750 C.2   1 <1>   0.1390 
 19 C       -6.9800    -1.8750    -1.1750 C.3   1 <1>   0.1200 
 20 C       -6.1420    -3.8510     0.0810 C.ar  1 <1>  -0.1430 
 21 C       -4.0760    -3.5750     1.2500 C.ar  1 <1>  -0.1500 
 22 C       -7.1400    -3.3760    -0.9560 C.3   1 <1>  -0.0170 
 23 C       -6.4030    -4.9980     0.8150 C.ar  1 <1>  -0.1500 
 24 C       -4.3350    -4.7170     1.9840 C.ar  1 <1>  -0.1500 
 25 C       -5.4970    -5.4380     1.7740 C.ar  1 <1>   0.0830 
 26 O       -5.6750    -6.5470     2.5340 O.3   1 <1>  -0.3630 
 27 C       -6.8140    -7.3640     2.3830 C.3   1 <1>   0.0400 
 28 H       -2.0710     1.9560     1.0140 H     1 <1>   0.0800 
 29 H       -2.4560     3.0430    -0.2920 H     1 <1>   0.0800 
 30 H       -4.9810     0.8610    -1.1390 H     1 <1>   0.0800 
 31 H       -4.1650     1.4870     0.2630 H     1 <1>   0.0800 
 32 H       -2.0300    -0.8660    -2.5500 H     1 <1>   0.0800 
 33 H       -3.7150    -0.5190    -2.8210 H     1 <1>   0.0800 
 34 H        0.0040     3.2830    -0.7460 H     1 <1>   0.0800 
 35 H        0.3170     2.2340     0.6020 H     1 <1>   0.0800 
 36 H       -5.5350    -0.4650     0.8820 H     1 <1>   0.0800 
 37 H       -3.8550    -0.7660     1.1410 H     1 <1>   0.0800 
 38 H       -2.5520    -2.2420    -0.6360 H     1 <1>   0.0800 
 39 H       -3.4510    -2.8230    -1.9970 H     1 <1>   0.0800 
 40 H        0.2440     3.3870     3.1020 H     1 <1>   0.1500 
 41 H       -0.5980     5.5900    -1.2190 H     1 <1>   0.0800 
 42 H       -1.4020     6.9420    -0.4440 H     1 <1>   0.0800 
 43 H       -2.2770     5.4460    -0.7110 H     1 <1>   0.0800 
 44 H       -0.2580     5.8500     3.8750 H     1 <1>   0.1500 
 45 H       -7.5990    -1.5460    -1.9910 H     1 <1>   0.0800 
 46 H       -7.2420    -1.3240    -0.2880 H     1 <1>   0.0800 
 47 H       -3.1630    -3.0390     1.4400 H     1 <1>   0.1500 
 48 H       -6.9720    -3.8930    -1.8840 H     1 <1>   0.0800 
 49 H       -8.1430    -3.5810    -0.6300 H     1 <1>   0.0800 
 50 H       -7.3110    -5.5380     0.6300 H     1 <1>   0.1500 
 51 H       -3.6370    -5.0580     2.7270 H     1 <1>   0.1500 
 52 H       -6.7330    -8.1810     3.0780 H     1 <1>   0.0800 
 53 H       -6.8420    -7.7420     1.3760 H     1 <1>   0.0800 
 54 H       -7.6920    -6.7830     2.6020 H     1 <1>   0.0800 
@<TRIPOS>BOND
  1   1   2  2   
  2   2   3  am  
  3   2   4  1   
  4   3   5  1   
  5   3   6  1   
  6   4   7  1   
  7   4  28  1   
  8   4  29  1   
  9   5   8  1   
 10   5  30  1   
 11   5  31  1   
 12   6   9  1   
 13   6  32  1   
 14   6  33  1   
 15   7  10  1   
 16   7  34  1   
 17   7  35  1   
 18   8  11  1   
 19   8  36  1   
 20   8  37  1   
 21   9  11  1   
 22   9  38  1   
 23   9  39  1   
 24  10  12  1   
 25  10  13  2   
 26  11  14  1   
 27  11  15  1   
 28  12  16  1   
 29  12  17  1   
 30  13  18  1   
 31  13  40  1   
 32  14  19  1   
 33  15  20  ar  
 34  15  21  ar  
 35  16  18  2   
 36  17  41  1   
 37  17  42  1   
 38  17  43  1   
 39  18  44  1   
 40  19  22  1   
 41  19  45  1   
 42  19  46  1   
 43  20  22  1   
 44  20  23  ar  
 45  21  24  ar  
 46  21  47  1   
 47  22  48  1   
 48  22  49  1   
 49  23  25  ar  
 50  23  50  1   
 51  24  25  ar  
 52  24  51  1   
 53  25  26  1   
 54  26  27  1   
 55  27  52  1   
 56  27  53  1   
 57  27  54  1   
@<TRIPOS>SUBSTRUCTURE
  1 ****   8 GROUP 4 **** **** 0

# MOE 2024.06 (io_trps.svl 2023.06)
