@<TRIPOS>MOLECULE
NONAME
42 45 1 0 0 
SMALL
USER_CHARGES


@<TRIPOS>ATOM
  1 S       -0.8790    -4.2010    -1.8200 S.3   1 <1>  -0.2420 
  2 C       -1.9460    -3.6770    -0.5150 C.2   1 <1>   0.6510 
  3 C       -0.4060    -2.5290    -2.1790 C.2   1 <1>  -0.0490 
  4 N       -2.6450    -4.5020     0.1970 N.2   1 <1>  -0.6210 
  5 N       -1.9050    -2.3130    -0.4160 N.am  1 <1>  -0.2290 
  6 C       -1.0420    -1.6920    -1.3470 C.2   1 <1>  -0.0410 
  7 C       -3.4220    -3.9350     1.1720 C.2   1 <1>   0.0330 
  8 C       -2.6920    -1.7220     0.5410 C.2   1 <1>   0.6160 
  9 C       -3.4650    -2.5880     1.3560 C.2   1 <1>  -0.1360 
 10 C       -4.2270    -4.9080     2.0320 C.3   1 <1>   0.4810 
 11 O       -2.7210    -0.5100     0.6720 O.2   1 <1>  -0.5700 
 12 N       -4.9210    -5.8830     1.1500 N.4   1 <1>  -0.9590 
 13 C       -6.0140    -5.3210     0.3030 C.3   1 <1>   0.3430 
 14 C       -5.4360    -7.1110     1.8000 C.3   1 <1>   0.3430 
 15 C       -7.0460    -6.4440     0.1300 C.3   1 <1>   0.2000 
 16 C       -6.4640    -7.6860     0.8210 C.3   1 <1>  -0.0800 
 17 O       -8.2240    -6.0840     0.7740 O.3   1 <1>  -0.6800 
 18 C       -5.8560    -8.7060    -0.1750 C.3   1 <1>  -0.0160 
 19 C       -4.4790    -8.3510    -0.7290 C.ar  1 <1>   0.1670 
 20 N       -4.3880    -7.2330    -1.4340 N.ar  1 <1>  -0.6200 
 21 C       -3.3920    -9.1880    -0.4770 C.ar  1 <1>   0.1600 
 22 C       -3.1600    -7.0270    -1.8890 C.ar  1 <1>   0.1600 
 23 N       -2.1610    -8.9570    -0.8940 N.ar  1 <1>  -0.6200 
 24 C       -2.0800    -7.8570    -1.6210 C.ar  1 <1>   0.1600 
 25 H        0.2990    -2.3740    -2.9780 H     1 <1>   0.1500 
 26 H       -0.9570    -0.6170    -1.3240 H     1 <1>   0.1500 
 27 H       -4.0650    -2.1100     2.1090 H     1 <1>   0.1500 
 28 H       -4.9370    -4.3750     2.6420 H     1 <1>   0.0800 
 29 H       -3.5430    -5.4340     2.6780 H     1 <1>   0.0800 
 30 H       -4.2030    -6.1770     0.4530 H     1 <1>   0.4500 
 31 H       -6.4770    -4.4670     0.7690 H     1 <1>   0.0800 
 32 H       -5.6160    -5.0350    -0.6580 H     1 <1>   0.0800 
 33 H       -4.6420    -7.8120     2.0040 H     1 <1>   0.0800 
 34 H       -5.9290    -6.8530     2.7230 H     1 <1>   0.0800 
 35 H       -7.2780    -6.6070    -0.9090 H     1 <1>   0.0800 
 36 H       -7.2370    -8.2030     1.3640 H     1 <1>   0.0800 
 37 H       -8.1550    -6.0950     1.7470 H     1 <1>   0.4000 
 38 H       -6.5310    -8.8460    -1.0020 H     1 <1>   0.0800 
 39 H       -5.7890    -9.6590     0.3220 H     1 <1>   0.0800 
 40 H       -3.5390   -10.0870     0.0960 H     1 <1>   0.1500 
 41 H       -2.9960    -6.1570    -2.5020 H     1 <1>   0.1500 
 42 H       -1.1150    -7.6000    -2.0240 H     1 <1>   0.1500 
@<TRIPOS>BOND
  1   1   2  1   
  2   1   3  1   
  3   2   4  2   
  4   2   5  1   
  5   3   6  2   
  6   3  25  1   
  7   4   7  1   
  8   5   6  1   
  9   5   8  am  
 10   6  26  1   
 11   7   9  2   
 12   7  10  1   
 13   8   9  1   
 14   8  11  2   
 15   9  27  1   
 16  10  12  1   
 17  10  28  1   
 18  10  29  1   
 19  12  13  1   
 20  12  14  1   
 21  12  30  1   
 22  13  15  1   
 23  13  31  1   
 24  13  32  1   
 25  14  16  1   
 26  14  33  1   
 27  14  34  1   
 28  15  16  1   
 29  15  17  1   
 30  15  35  1   
 31  16  18  1   
 32  16  36  1   
 33  17  37  1   
 34  18  19  1   
 35  18  38  1   
 36  18  39  1   
 37  19  20  ar  
 38  19  21  ar  
 39  20  22  ar  
 40  21  23  ar  
 41  21  40  1   
 42  22  24  ar  
 43  22  41  1   
 44  23  24  ar  
 45  24  42  1   
@<TRIPOS>SUBSTRUCTURE
  1 ****   4 GROUP 4 **** **** 0

# MOE 2024.06 (io_trps.svl 2023.06)
