@<TRIPOS>MOLECULE
NONAME
55 57 1 0 0 
SMALL
USER_CHARGES


@<TRIPOS>ATOM
  1 O        0.7220     1.7980     0.8450 O.3   1 <1>  -0.5600 
  2 C       -0.6510     1.7610     0.5160 C.3   1 <1>   0.2000 
  3 C        1.0610     0.9030     1.8770 C.3   1 <1>   0.1200 
  4 C       -1.0540     0.3240     0.1300 C.3   1 <1>   0.1200 
  5 C       -0.9070     2.7690    -0.6220 C.3   1 <1>   0.3430 
  6 C        0.6280    -0.5300     1.5180 C.3   1 <1>   0.1200 
  7 O       -0.7250    -0.5480     1.1650 O.3   1 <1>  -0.5600 
  8 N        0.2850     2.8580    -1.5330 N.4   1 <1>  -0.9590 
  9 C        0.6530     4.2640    -1.8740 C.3   1 <1>   0.3430 
 10 C        0.1100     2.0290    -2.7670 C.3   1 <1>   0.2630 
 11 C        1.3670     4.9780    -0.7050 C.3   1 <1>  -0.0800 
 12 C        1.5450     6.4730    -1.0310 C.3   1 <1>  -0.1600 
 13 C        2.7490     4.3630    -0.3900 C.3   1 <1>  -0.1600 
 14 C        2.3080     7.2260     0.0640 C.3   1 <1>   0.3430 
 15 C        3.4960     5.1420     0.6990 C.3   1 <1>   0.3430 
 16 N        3.6270     6.5690     0.2990 N.4   1 <1>  -0.9590 
 17 C        4.4430     7.3370     1.2850 C.3   1 <1>   0.4860 
 18 C        4.7550     8.6950     0.6910 C.ar  1 <1>  -0.1440 
 19 C        5.7010     8.8180    -0.3180 C.ar  1 <1>  -0.1500 
 20 C        4.0910     9.8270     1.1460 C.ar  1 <1>  -0.1500 
 21 C        5.9670    10.0560    -0.8760 C.ar  1 <1>  -0.1500 
 22 C        4.3590    11.0630     0.5860 C.ar  1 <1>  -0.1500 
 23 C        5.2940    11.1780    -0.4260 C.ar  1 <1>  -0.1500 
 24 H       -1.2210     2.0560     1.3810 H     1 <1>   0.0800 
 25 H        0.5750     1.2190     2.7860 H     1 <1>   0.0800 
 26 H        2.1250     0.9430     2.0250 H     1 <1>   0.0800 
 27 H       -0.5510    -0.0060    -0.7600 H     1 <1>   0.0800 
 28 H       -2.1170     0.2550    -0.0220 H     1 <1>   0.0800 
 29 H       -1.0900     3.7300    -0.1700 H     1 <1>   0.0800 
 30 H       -1.7950     2.4970    -1.1690 H     1 <1>   0.0800 
 31 H        0.7560    -1.1830     2.3640 H     1 <1>   0.0800 
 32 H        1.2070    -0.9140     0.6960 H     1 <1>   0.0800 
 33 H        1.0470     2.4440    -0.9600 H     1 <1>   0.4500 
 34 H       -0.2360     4.8100    -2.1470 H     1 <1>   0.0800 
 35 H        1.3120     4.2650    -2.7280 H     1 <1>   0.0800 
 36 H       -0.7110     2.4020    -3.3580 H     1 <1>   0.0800 
 37 H       -0.0910     1.0030    -2.5070 H     1 <1>   0.0800 
 38 H        1.0060     2.0560    -3.3660 H     1 <1>   0.0800 
 39 H        0.7480     4.9090     0.1740 H     1 <1>   0.0800 
 40 H        0.5800     6.9370    -1.1460 H     1 <1>   0.0800 
 41 H        2.0700     6.5960    -1.9630 H     1 <1>   0.0800 
 42 H        3.3570     4.3370    -1.2780 H     1 <1>   0.0800 
 43 H        2.6360     3.3500    -0.0510 H     1 <1>   0.0800 
 44 H        1.7320     7.2270     0.9750 H     1 <1>   0.0800 
 45 H        2.4540     8.2500    -0.2440 H     1 <1>   0.0800 
 46 H        4.4730     4.7070     0.8450 H     1 <1>   0.0800 
 47 H        2.9540     5.0720     1.6280 H     1 <1>   0.0800 
 48 H        4.1510     6.6260    -0.5840 H     1 <1>   0.4500 
 49 H        5.3670     6.8220     1.4890 H     1 <1>   0.0800 
 50 H        3.9050     7.4540     2.2120 H     1 <1>   0.0800 
 51 H        6.2460     7.9630    -0.6800 H     1 <1>   0.1500 
 52 H        3.3640     9.7650     1.9380 H     1 <1>   0.1500 
 53 H        6.7010    10.1530    -1.6580 H     1 <1>   0.1500 
 54 H        3.8450    11.9420     0.9390 H     1 <1>   0.1500 
 55 H        5.5030    12.1410    -0.8600 H     1 <1>   0.1500 
@<TRIPOS>BOND
  1   1   2  1   
  2   1   3  1   
  3   2   4  1   
  4   2   5  1   
  5   2  24  1   
  6   3   6  1   
  7   3  25  1   
  8   3  26  1   
  9   4   7  1   
 10   4  27  1   
 11   4  28  1   
 12   5   8  1   
 13   5  29  1   
 14   5  30  1   
 15   6   7  1   
 16   6  31  1   
 17   6  32  1   
 18   8   9  1   
 19   8  10  1   
 20   8  33  1   
 21   9  11  1   
 22   9  34  1   
 23   9  35  1   
 24  10  36  1   
 25  10  37  1   
 26  10  38  1   
 27  11  12  1   
 28  11  13  1   
 29  11  39  1   
 30  12  14  1   
 31  12  40  1   
 32  12  41  1   
 33  13  15  1   
 34  13  42  1   
 35  13  43  1   
 36  14  16  1   
 37  14  44  1   
 38  14  45  1   
 39  15  16  1   
 40  15  46  1   
 41  15  47  1   
 42  16  17  1   
 43  16  48  1   
 44  17  18  1   
 45  17  49  1   
 46  17  50  1   
 47  18  19  ar  
 48  18  20  ar  
 49  19  21  ar  
 50  19  51  1   
 51  20  22  ar  
 52  20  52  1   
 53  21  23  ar  
 54  21  53  1   
 55  22  23  ar  
 56  22  54  1   
 57  23  55  1   
@<TRIPOS>SUBSTRUCTURE
  1 ****  13 GROUP 4 **** **** 0

# MOE 2024.06 (io_trps.svl 2023.06)
