@<TRIPOS>MOLECULE
NONAME
41 43 1 0 0 
SMALL
USER_CHARGES


@<TRIPOS>ATOM
  1 CL      -0.6840     2.1960     2.0760 Cl    1 <1>  -0.1770 
  2 C       -1.5340     0.7270     1.6660 C.ar  1 <1>   0.1770 
  3 C       -2.4880     0.7400     0.6530 C.ar  1 <1>   0.0860 
  4 C       -1.2200    -0.4230     2.3690 C.ar  1 <1>  -0.1500 
  5 C       -3.1110    -0.4720     0.3680 C.ar  1 <1>   0.1770 
  6 C       -2.8180     1.9440    -0.0590 C.2   1 <1>   0.5440 
  7 C       -1.8630    -1.6110     2.0660 C.ar  1 <1>  -0.1500 
  8 CL      -4.3000    -0.5600    -0.9060 Cl    1 <1>  -0.1770 
  9 C       -2.8130    -1.6340     1.0590 C.ar  1 <1>  -0.1500 
 10 O       -3.7420     2.6290     0.3230 O.2   1 <1>  -0.5700 
 11 N       -2.0690     2.3170    -1.1400 N.am  1 <1>  -0.7300 
 12 C       -2.2370     3.4020    -2.1390 C.3   1 <1>   0.4000 
 13 C       -1.0940     4.4040    -2.0100 C.2   1 <1>   0.0070 
 14 C       -3.6190     4.0600    -2.1630 C.3   1 <1>  -0.2400 
 15 N       -0.2050     4.5450    -2.9360 N.2   1 <1>  -0.3380 
 16 N       -0.8570     5.2250    -0.9730 N.pl3 1 <1>   0.0480 
 17 N        0.6490     5.4790    -2.5280 N.2   1 <1>  -0.3380 
 18 C        0.2460     5.8670    -1.3700 C.2   1 <1>   0.0370 
 19 C       -1.6120     5.4060     0.3010 C.3   1 <1>   0.1760 
 20 C       -2.4600     6.6780     0.2520 C.3   1 <1>  -0.1600 
 21 C       -0.6820     5.6320     1.4990 C.3   1 <1>  -0.1600 
 22 C       -1.5440     7.8050     0.7280 C.3   1 <1>  -0.1600 
 23 C       -0.5330     7.1500     1.6750 C.3   1 <1>  -0.1600 
 24 H       -0.4770    -0.3860     3.1470 H     1 <1>   0.1500 
 25 H       -1.6260    -2.5120     2.6100 H     1 <1>   0.1500 
 26 H       -3.3220    -2.5480     0.8070 H     1 <1>   0.1500 
 27 H       -1.2130     1.7910    -1.3240 H     1 <1>   0.3700 
 28 H       -2.1200     2.9380    -3.1040 H     1 <1>   0.0800 
 29 H       -3.8220     4.5930    -1.2560 H     1 <1>   0.0800 
 30 H       -4.3770     3.3120    -2.3100 H     1 <1>   0.0800 
 31 H       -3.6650     4.7570    -2.9800 H     1 <1>   0.0800 
 32 H        0.7340     6.6190    -0.7790 H     1 <1>   0.1500 
 33 H       -2.2260     4.5440     0.4690 H     1 <1>   0.0800 
 34 H       -3.2720     6.5720     0.9510 H     1 <1>   0.0800 
 35 H       -2.8700     6.8660    -0.7260 H     1 <1>   0.0800 
 36 H        0.2650     5.1340     1.3820 H     1 <1>   0.0800 
 37 H       -1.1630     5.2340     2.3760 H     1 <1>   0.0800 
 38 H       -2.1010     8.5870     1.2160 H     1 <1>   0.0800 
 39 H       -1.0260     8.2280    -0.1170 H     1 <1>   0.0800 
 40 H        0.4660     7.4710     1.4380 H     1 <1>   0.0800 
 41 H       -0.7460     7.4220     2.6960 H     1 <1>   0.0800 
@<TRIPOS>BOND
  1   1   2  1   
  2   2   3  ar  
  3   2   4  ar  
  4   3   5  ar  
  5   3   6  1   
  6   4   7  ar  
  7   4  24  1   
  8   5   8  1   
  9   5   9  ar  
 10   6  10  2   
 11   6  11  am  
 12   7   9  ar  
 13   7  25  1   
 14   9  26  1   
 15  11  12  1   
 16  11  27  1   
 17  12  13  1   
 18  12  14  1   
 19  12  28  1   
 20  13  15  2   
 21  13  16  1   
 22  14  29  1   
 23  14  30  1   
 24  14  31  1   
 25  15  17  1   
 26  16  18  1   
 27  16  19  1   
 28  17  18  2   
 29  18  32  1   
 30  19  20  1   
 31  19  21  1   
 32  19  33  1   
 33  20  22  1   
 34  20  34  1   
 35  20  35  1   
 36  21  23  1   
 37  21  36  1   
 38  21  37  1   
 39  22  23  1   
 40  22  38  1   
 41  22  39  1   
 42  23  40  1   
 43  23  41  1   
@<TRIPOS>SUBSTRUCTURE
  1 ****  11 GROUP 4 **** **** 0

# MOE 2024.06 (io_trps.svl 2023.06)
