@<TRIPOS>MOLECULE
NONAME
57 60 1 0 0 
SMALL
USER_CHARGES


@<TRIPOS>ATOM
  1 O       -1.4200     0.3640     0.2680 O.2   1 <1>  -0.5700 
  2 C       -2.1950     1.1420    -0.2630 C.2   1 <1>   0.5440 
  3 N       -3.2740     0.5960    -0.9250 N.am  1 <1>  -0.6600 
  4 C       -1.9950     2.5770    -0.1540 C.ar  1 <1>   0.0860 
  5 C       -3.2230    -0.8330    -1.3290 C.3   1 <1>   0.1400 
  6 C       -4.6520     1.0890    -0.6570 C.3   1 <1>   0.1400 
  7 C       -2.3870     3.4560    -1.1650 C.ar  1 <1>  -0.1500 
  8 C       -1.3940     3.1390     0.9730 C.ar  1 <1>  -0.1500 
  9 C       -3.7780    -1.6920    -0.1710 C.3   1 <1>   0.4230 
 10 C       -5.2470     0.2520     0.4850 C.3   1 <1>  -0.1600 
 11 C       -2.2020     4.8210    -1.0480 C.ar  1 <1>  -0.1500 
 12 C       -1.2090     4.5030     1.0900 C.ar  1 <1>  -0.1500 
 13 N       -3.5810    -3.1900    -0.3610 N.4   1 <1>  -0.9590 
 14 C       -5.2320    -1.2820     0.2140 C.3   1 <1>   0.0000 
 15 C       -1.6120     5.3740     0.0840 C.ar  1 <1>   0.0000 
 16 C       -4.4520    -4.0370     0.5160 C.3   1 <1>   0.3430 
 17 C       -3.6450    -3.6770    -1.7770 C.3   1 <1>   0.2630 
 18 C       -5.6450    -2.0240     1.5210 C.3   1 <1>  -0.1600 
 19 C       -6.2120    -1.6350    -0.9420 C.3   1 <1>   0.1200 
 20 C       -1.4180     6.8000     0.2070 C.ar  1 <1>   0.0000 
 21 C       -4.8230    -3.2970     1.8000 C.3   1 <1>  -0.1600 
 22 O       -7.4730    -1.1050    -0.7270 O.3   1 <1>  -0.6800 
 23 C       -0.1470     7.3340     0.4140 C.ar  1 <1>  -0.1500 
 24 C       -2.4950     7.6820     0.1240 C.ar  1 <1>  -0.1500 
 25 C        0.0440     8.6980     0.5340 C.ar  1 <1>  -0.1500 
 26 C       -2.3140     9.0480     0.2430 C.ar  1 <1>  -0.1500 
 27 C       -1.0400     9.5530     0.4480 C.ar  1 <1>   0.0820 
 28 O       -0.8460    10.8720     0.5670 O.3   1 <1>  -0.5330 
 29 H       -3.7910    -0.9590    -2.2310 H     1 <1>   0.0800 
 30 H       -2.2010    -1.1060    -1.5290 H     1 <1>   0.0800 
 31 H       -4.6340     2.1270    -0.3690 H     1 <1>   0.0800 
 32 H       -5.2520     1.0030    -1.5470 H     1 <1>   0.0800 
 33 H       -2.8360     3.0620    -2.0590 H     1 <1>   0.1500 
 34 H       -1.0660     2.4890     1.7660 H     1 <1>   0.1500 
 35 H       -3.1760    -1.4190     0.6810 H     1 <1>   0.0800 
 36 H       -4.6720     0.4710     1.3700 H     1 <1>   0.0800 
 37 H       -6.2470     0.5960     0.6810 H     1 <1>   0.0800 
 38 H       -2.5120     5.4730    -1.8460 H     1 <1>   0.1500 
 39 H       -0.7470     4.9050     1.9750 H     1 <1>   0.1500 
 40 H       -2.6140    -3.3500    -0.0360 H     1 <1>   0.4500 
 41 H       -5.3610    -4.2880    -0.0070 H     1 <1>   0.0800 
 42 H       -3.9440    -4.9570     0.7590 H     1 <1>   0.0800 
 43 H       -4.6200    -3.4940    -2.1960 H     1 <1>   0.0800 
 44 H       -3.4490    -4.7370    -1.8160 H     1 <1>   0.0800 
 45 H       -2.9070    -3.1770    -2.3840 H     1 <1>   0.0800 
 46 H       -5.5320    -1.3780     2.3760 H     1 <1>   0.0800 
 47 H       -6.6890    -2.2850     1.4840 H     1 <1>   0.0800 
 48 H       -6.3250    -2.6980    -1.0530 H     1 <1>   0.0800 
 49 H       -5.8750    -1.2310    -1.8800 H     1 <1>   0.0800 
 50 H       -5.3940    -3.9530     2.4350 H     1 <1>   0.0800 
 51 H       -3.9230    -3.0470     2.3360 H     1 <1>   0.0800 
 52 H       -7.8910    -1.4590     0.0830 H     1 <1>   0.4000 
 53 H        0.6980     6.6710     0.4760 H     1 <1>   0.1500 
 54 H       -3.4830     7.2870    -0.0310 H     1 <1>   0.1500 
 55 H        1.0260     9.1060     0.6930 H     1 <1>   0.1500 
 56 H       -3.1580     9.7090     0.1760 H     1 <1>   0.1500 
 57 H       -1.6650    11.3920     0.4950 H     1 <1>   0.4500 
@<TRIPOS>BOND
  1   1   2  2   
  2   2   3  am  
  3   2   4  1   
  4   3   5  1   
  5   3   6  1   
  6   4   7  ar  
  7   4   8  ar  
  8   5   9  1   
  9   5  29  1   
 10   5  30  1   
 11   6  10  1   
 12   6  31  1   
 13   6  32  1   
 14   7  11  ar  
 15   7  33  1   
 16   8  12  ar  
 17   8  34  1   
 18   9  13  1   
 19   9  14  1   
 20   9  35  1   
 21  10  14  1   
 22  10  36  1   
 23  10  37  1   
 24  11  15  ar  
 25  11  38  1   
 26  12  15  ar  
 27  12  39  1   
 28  13  16  1   
 29  13  17  1   
 30  13  40  1   
 31  14  18  1   
 32  14  19  1   
 33  15  20  1   
 34  16  21  1   
 35  16  41  1   
 36  16  42  1   
 37  17  43  1   
 38  17  44  1   
 39  17  45  1   
 40  18  21  1   
 41  18  46  1   
 42  18  47  1   
 43  19  22  1   
 44  19  48  1   
 45  19  49  1   
 46  20  23  ar  
 47  20  24  ar  
 48  21  50  1   
 49  21  51  1   
 50  22  52  1   
 51  23  25  ar  
 52  23  53  1   
 53  24  26  ar  
 54  24  54  1   
 55  25  27  ar  
 56  25  55  1   
 57  26  27  ar  
 58  26  56  1   
 59  27  28  1   
 60  28  57  1   
@<TRIPOS>SUBSTRUCTURE
  1 ****   4 GROUP 4 **** **** 0

# MOE 2024.06 (io_trps.svl 2023.06)
