@<TRIPOS>MOLECULE
NONAME
49 52 1 0 0 
SMALL
USER_CHARGES


@<TRIPOS>ATOM
  1 O       -0.3250     0.2360     0.0960 O.2   1 <1>  -0.5700 
  2 C       -0.9350     1.2820    -0.0660 C.2   1 <1>   0.7150 
  3 N       -2.3160     1.2480     0.0710 N.am  1 <1>  -0.6600 
  4 C       -0.2000     2.4930    -0.3850 C.2   1 <1>   0.1020 
  5 C       -3.0370    -0.0650     0.0190 C.3   1 <1>   0.1400 
  6 C       -3.0970     2.5120     0.2470 C.3   1 <1>   0.1400 
  7 N       -0.6260     3.4710    -1.1440 N.2   1 <1>  -0.3380 
  8 N        1.0490     2.7730     0.0450 N.pl3 1 <1>   0.0480 
  9 C       -4.3100    -0.0300    -0.8340 C.3   1 <1>   0.1400 
 10 C       -4.3810     2.3590     1.0680 C.3   1 <1>  -0.1600 
 11 N        0.3330     4.3800    -1.2200 N.2   1 <1>  -0.3380 
 12 C        1.3240     3.9480    -0.5180 C.2   1 <1>   0.0070 
 13 C        1.9470     2.0110     0.9420 C.3   1 <1>   0.0960 
 14 N       -5.4920     0.4090    -0.0350 N.am  1 <1>  -0.6600 
 15 C       -5.5750     1.8680     0.2460 C.3   1 <1>   0.1400 
 16 C        2.6350     4.7220    -0.3940 C.3   1 <1>   0.0200 
 17 C        3.1550     1.4540     0.1730 C.3   1 <1>  -0.1600 
 18 C       -6.5880    -0.4090     0.1650 C.2   1 <1>   0.7160 
 19 C        3.9140     3.8930    -0.1420 C.3   1 <1>  -0.1600 
 20 C        3.8710     2.4730    -0.7360 C.3   1 <1>  -0.1600 
 21 O       -7.6830     0.0980     0.3180 O.2   1 <1>  -0.5700 
 22 C       -6.4850    -1.8500     0.1770 C.2   1 <1>  -0.0860 
 23 C       -7.3870    -2.7490    -0.3000 C.2   1 <1>  -0.0100 
 24 C       -5.4500    -2.6560     0.7010 C.2   1 <1>  -0.1500 
 25 O       -6.9770    -3.9820    -0.1280 O.3   1 <1>  -0.2800 
 26 C       -5.8110    -3.9360     0.4790 C.2   1 <1>  -0.0100 
 27 H       -3.2700    -0.3840     1.0190 H     1 <1>   0.0800 
 28 H       -2.3880    -0.8070    -0.4130 H     1 <1>   0.0800 
 29 H       -3.3270     2.9210    -0.7230 H     1 <1>   0.0800 
 30 H       -2.4740     3.2290     0.7550 H     1 <1>   0.0800 
 31 H       -4.4880    -1.0150    -1.2270 H     1 <1>   0.0800 
 32 H       -4.1680     0.6250    -1.6770 H     1 <1>   0.0800 
 33 H       -4.6390     3.3400     1.4270 H     1 <1>   0.0800 
 34 H       -4.2230     1.7410     1.9340 H     1 <1>   0.0800 
 35 H        1.4130     1.2100     1.4170 H     1 <1>   0.0800 
 36 H        2.2810     2.6740     1.7180 H     1 <1>   0.0800 
 37 H       -5.6390     2.4070    -0.6840 H     1 <1>   0.0800 
 38 H       -6.4730     2.0800     0.8030 H     1 <1>   0.0800 
 39 H        2.5290     5.4590     0.3820 H     1 <1>   0.0800 
 40 H        2.7660     5.2590    -1.3170 H     1 <1>   0.0800 
 41 H        2.8370     0.6130    -0.4200 H     1 <1>   0.0800 
 42 H        3.8580     1.0790     0.8960 H     1 <1>   0.0800 
 43 H        4.1140     3.8370     0.9140 H     1 <1>   0.0800 
 44 H        4.7390     4.4250    -0.5830 H     1 <1>   0.0800 
 45 H        3.3900     2.5050    -1.7000 H     1 <1>   0.0800 
 46 H        4.8780     2.1280    -0.9010 H     1 <1>   0.0800 
 47 H       -8.3390    -2.5710    -0.7710 H     1 <1>   0.1500 
 48 H       -4.5640    -2.2930     1.1880 H     1 <1>   0.1500 
 49 H       -5.3140    -4.8610     0.7180 H     1 <1>   0.1500 
@<TRIPOS>BOND
  1   1   2  2   
  2   2   3  am  
  3   2   4  1   
  4   3   5  1   
  5   3   6  1   
  6   4   7  2   
  7   4   8  1   
  8   5   9  1   
  9   5  27  1   
 10   5  28  1   
 11   6  10  1   
 12   6  29  1   
 13   6  30  1   
 14   7  11  1   
 15   8  12  1   
 16   8  13  1   
 17   9  14  1   
 18   9  31  1   
 19   9  32  1   
 20  10  15  1   
 21  10  33  1   
 22  10  34  1   
 23  11  12  2   
 24  12  16  1   
 25  13  17  1   
 26  13  35  1   
 27  13  36  1   
 28  14  15  1   
 29  14  18  am  
 30  15  37  1   
 31  15  38  1   
 32  16  19  1   
 33  16  39  1   
 34  16  40  1   
 35  17  20  1   
 36  17  41  1   
 37  17  42  1   
 38  18  21  2   
 39  18  22  1   
 40  19  20  1   
 41  19  43  1   
 42  19  44  1   
 43  20  45  1   
 44  20  46  1   
 45  22  23  2   
 46  22  24  1   
 47  23  25  1   
 48  23  47  1   
 49  24  26  2   
 50  24  48  1   
 51  25  26  1   
 52  26  49  1   
@<TRIPOS>SUBSTRUCTURE
  1 ****   3 GROUP 4 **** **** 0

# MOE 2024.06 (io_trps.svl 2023.06)
