@<TRIPOS>MOLECULE
NONAME
45 47 1 0 0 
SMALL
USER_CHARGES


@<TRIPOS>ATOM
  1 O        2.6660    -1.2610     1.4980 O.2   1 <1>  -0.5700 
  2 C        2.0710    -1.1730     0.4500 C.2   1 <1>   0.5690 
  3 N        1.7890     0.0260    -0.1510 N.am  1 <1>  -0.4940 
  4 C        1.6360    -2.4560    -0.2730 C.3   1 <1>   0.1710 
  5 C        1.9660     1.3560     0.3030 C.2   1 <1>  -0.0880 
  6 N        0.2640    -2.9650     0.0230 N.3   1 <1>  -0.8100 
  7 N        3.0200     1.8720     1.0050 N.pl3 1 <1>   0.3140 
  8 C        1.1020     2.3810     0.1020 C.2   1 <1>  -0.1810 
  9 C        0.0170    -4.2120    -0.7270 C.3   1 <1>   0.2530 
 10 C       -0.8010    -1.9610    -0.2020 C.3   1 <1>   0.1100 
 11 N        2.8300     3.1920     1.2600 N.2   1 <1>  -0.7070 
 12 C        4.2660     1.1740     1.4190 C.3   1 <1>   0.0960 
 13 C        1.6900     3.4780     0.7180 C.2   1 <1>   0.1390 
 14 C       -0.2360     2.3990    -0.6150 C.3   1 <1>  -0.0590 
 15 C       -1.0360    -5.0900    -0.0700 C.ar  1 <1>  -0.1430 
 16 C       -2.1760    -2.3790     0.3370 C.3   1 <1>   0.1200 
 17 C        5.5080     2.0800     1.3940 C.3   1 <1>  -0.2400 
 18 C       -2.3600    -4.6770     0.0090 C.ar  1 <1>   0.0830 
 19 C       -0.6960    -6.3410     0.4230 C.ar  1 <1>  -0.1500 
 20 O       -2.7240    -3.4480    -0.4050 O.3   1 <1>  -0.3630 
 21 C       -3.3340    -5.5130     0.5300 C.ar  1 <1>  -0.1500 
 22 C       -1.6650    -7.1730     0.9610 C.ar  1 <1>  -0.1500 
 23 C       -2.9860    -6.7630     1.0080 C.ar  1 <1>  -0.1500 
 24 H        1.2290    -0.0450    -0.9980 H     1 <1>   0.3700 
 25 H        2.3430    -3.2180     0.0040 H     1 <1>   0.0800 
 26 H        1.7340    -2.2980    -1.3320 H     1 <1>   0.0800 
 27 H        0.9300    -4.7800    -0.7880 H     1 <1>   0.0800 
 28 H       -0.2900    -3.9820    -1.7330 H     1 <1>   0.0800 
 29 H       -0.8840    -1.7270    -1.2500 H     1 <1>   0.0800 
 30 H       -0.5420    -1.0590     0.3230 H     1 <1>   0.0800 
 31 H        4.4280     0.3500     0.7510 H     1 <1>   0.0800 
 32 H        4.1140     0.7850     2.4090 H     1 <1>   0.0800 
 33 H        1.2580     4.4640     0.7500 H     1 <1>   0.1500 
 34 H       -0.5240     1.4090    -0.9150 H     1 <1>   0.0800 
 35 H       -0.1730     3.0240    -1.4870 H     1 <1>   0.0800 
 36 H       -0.9920     2.7930     0.0410 H     1 <1>   0.0800 
 37 H       -2.8620    -1.5560     0.2540 H     1 <1>   0.0800 
 38 H       -2.1060    -2.6650     1.3730 H     1 <1>   0.0800 
 39 H        5.6440     2.4950     0.4110 H     1 <1>   0.0800 
 40 H        6.3800     1.5100     1.6540 H     1 <1>   0.0800 
 41 H        5.3980     2.8800     2.1040 H     1 <1>   0.0800 
 42 H        0.3240    -6.6790     0.3870 H     1 <1>   0.1500 
 43 H       -4.3540    -5.1770     0.5640 H     1 <1>   0.1500 
 44 H       -1.3900    -8.1420     1.3400 H     1 <1>   0.1500 
 45 H       -3.7390    -7.4130     1.4190 H     1 <1>   0.1500 
@<TRIPOS>BOND
  1   1   2  2   
  2   2   3  am  
  3   2   4  1   
  4   3   5  1   
  5   3  24  1   
  6   4   6  1   
  7   4  25  1   
  8   4  26  1   
  9   5   7  1   
 10   5   8  2   
 11   6   9  1   
 12   6  10  1   
 13   7  11  1   
 14   7  12  1   
 15   8  13  1   
 16   8  14  1   
 17   9  15  1   
 18   9  27  1   
 19   9  28  1   
 20  10  16  1   
 21  10  29  1   
 22  10  30  1   
 23  11  13  2   
 24  12  17  1   
 25  12  31  1   
 26  12  32  1   
 27  13  33  1   
 28  14  34  1   
 29  14  35  1   
 30  14  36  1   
 31  15  18  ar  
 32  15  19  ar  
 33  16  20  1   
 34  16  37  1   
 35  16  38  1   
 36  17  39  1   
 37  17  40  1   
 38  17  41  1   
 39  18  20  1   
 40  18  21  ar  
 41  19  22  ar  
 42  19  42  1   
 43  21  23  ar  
 44  21  43  1   
 45  22  23  ar  
 46  22  44  1   
 47  23  45  1   
@<TRIPOS>SUBSTRUCTURE
  1 ****   6 GROUP 4 **** **** 0

# MOE 2024.06 (io_trps.svl 2023.06)
