@<TRIPOS>MOLECULE
NONAME
51 53 1 0 0 
SMALL
USER_CHARGES


@<TRIPOS>ATOM
  1 O        2.0740    -0.1440     1.2650 O.2   1 <1>  -0.5700 
  2 C        2.6850    -1.1270     0.8890 C.2   1 <1>   0.5440 
  3 N        4.0460    -0.9840     0.7530 N.am  1 <1>  -0.6600 
  4 C        1.9950    -2.3530     0.5210 C.ar  1 <1>   0.0860 
  5 C        4.8060    -0.1410     1.7560 C.3   1 <1>   0.1400 
  6 C        4.6700    -1.2540    -0.5780 C.3   1 <1>   0.1400 
  7 C        0.6640    -2.3310     0.1020 C.ar  1 <1>  -0.1500 
  8 C        2.6320    -3.5930     0.5690 C.ar  1 <1>  -0.1500 
  9 C        5.0000     1.3400     1.3310 C.3   1 <1>   0.4230 
 10 C        5.4290    -0.0520    -1.1800 C.3   1 <1>  -0.0800 
 11 C       -0.0090    -3.4830    -0.2720 C.ar  1 <1>  -0.1440 
 12 C        1.9760    -4.7510     0.1980 C.ar  1 <1>  -0.1500 
 13 N        4.0800     1.6230     0.1700 N.4   1 <1>  -0.9590 
 14 C        6.5080     1.6900     1.1230 C.3   1 <1>   0.1200 
 15 C        6.8490     0.0540    -0.5930 C.3   1 <1>   0.1200 
 16 C        4.6610     1.2950    -1.1620 C.3   1 <1>   0.3430 
 17 C        0.6610    -4.6960    -0.2240 C.ar  1 <1>  -0.1500 
 18 C       -1.4670    -3.4040    -0.7240 C.3   1 <1>   0.0630 
 19 C        3.5070     3.0350     0.2240 C.3   1 <1>   0.2370 
 20 O        7.0750     1.3330    -0.1140 O.3   1 <1>  -0.5600 
 21 C       -2.3740    -4.2160     0.2060 C.3   1 <1>  -0.2400 
 22 C       -1.6170    -3.8730    -2.1750 C.3   1 <1>  -0.2400 
 23 C        4.4660     4.1750     0.5810 C.2   1 <1>   0.9060 
 24 O        4.8280     4.2710     1.7610 O.co2 1 <1>  -0.9000 
 25 O        4.8870     4.8970    -0.3230 O.co2 1 <1>  -0.9000 
 26 H        4.2570    -0.1380     2.6830 H     1 <1>   0.0800 
 27 H        5.7520    -0.6030     1.9730 H     1 <1>   0.0800 
 28 H        5.3350    -2.0970    -0.4880 H     1 <1>   0.0800 
 29 H        3.8950    -1.5400    -1.2710 H     1 <1>   0.0800 
 30 H        0.1530    -1.3850     0.0750 H     1 <1>   0.1500 
 31 H        3.6510    -3.6550     0.9070 H     1 <1>   0.1500 
 32 H        4.6740     1.9350     2.1700 H     1 <1>   0.0800 
 33 H        5.5770    -0.2910    -2.2170 H     1 <1>   0.0800 
 34 H        2.4840    -5.7000     0.2400 H     1 <1>   0.1500 
 35 H        3.2920     0.9690     0.3440 H     1 <1>   0.4500 
 36 H        7.0980     1.2360     1.8980 H     1 <1>   0.0800 
 37 H        6.6430     2.7520     1.2210 H     1 <1>   0.0800 
 38 H        7.5740    -0.1150    -1.3700 H     1 <1>   0.0800 
 39 H        7.0390    -0.6540     0.1950 H     1 <1>   0.0800 
 40 H        3.8650     1.2600    -1.8870 H     1 <1>   0.0800 
 41 H        5.3350     2.0860    -1.4560 H     1 <1>   0.0800 
 42 H        0.1610    -5.6050    -0.5100 H     1 <1>   0.1500 
 43 H       -1.7900    -2.3770    -0.6780 H     1 <1>   0.0800 
 44 H        3.0600     3.2830    -0.7210 H     1 <1>   0.0800 
 45 H        2.7320     3.0630     0.9690 H     1 <1>   0.0800 
 46 H       -2.1320    -5.2630     0.1610 H     1 <1>   0.0800 
 47 H       -3.4040    -4.0890    -0.0740 H     1 <1>   0.0800 
 48 H       -2.2510    -3.8790     1.2200 H     1 <1>   0.0800 
 49 H       -1.3530    -4.9110    -2.2710 H     1 <1>   0.0800 
 50 H       -0.9740    -3.2960    -2.8150 H     1 <1>   0.0800 
 51 H       -2.6320    -3.7450    -2.5050 H     1 <1>   0.0800 
@<TRIPOS>BOND
  1   1   2  2   
  2   2   3  am  
  3   2   4  1   
  4   3   5  1   
  5   3   6  1   
  6   4   7  ar  
  7   4   8  ar  
  8   5   9  1   
  9   5  26  1   
 10   5  27  1   
 11   6  10  1   
 12   6  28  1   
 13   6  29  1   
 14   7  11  ar  
 15   7  30  1   
 16   8  12  ar  
 17   8  31  1   
 18   9  13  1   
 19   9  14  1   
 20   9  32  1   
 21  10  15  1   
 22  10  16  1   
 23  10  33  1   
 24  11  17  ar  
 25  11  18  1   
 26  12  17  ar  
 27  12  34  1   
 28  13  16  1   
 29  13  19  1   
 30  13  35  1   
 31  14  20  1   
 32  14  36  1   
 33  14  37  1   
 34  15  20  1   
 35  15  38  1   
 36  15  39  1   
 37  16  40  1   
 38  16  41  1   
 39  17  42  1   
 40  18  21  1   
 41  18  22  1   
 42  18  43  1   
 43  19  23  1   
 44  19  44  1   
 45  19  45  1   
 46  21  46  1   
 47  21  47  1   
 48  21  48  1   
 49  22  49  1   
 50  22  50  1   
 51  22  51  1   
 52  23  24  ar  
 53  23  25  ar  
@<TRIPOS>SUBSTRUCTURE
  1 ****   2 GROUP 4 **** **** 0

# MOE 2024.06 (io_trps.svl 2023.06)
