@<TRIPOS>MOLECULE
NONAME
41 43 1 0 0 
SMALL
USER_CHARGES


@<TRIPOS>ATOM
  1 CL       0.9680     1.0200    -0.9790 Cl    1 <1>  -0.1770 
  2 C        2.1340    -0.1710    -0.4560 C.ar  1 <1>   0.1770 
  3 C        3.1720     0.1960     0.3950 C.ar  1 <1>   0.0860 
  4 C        1.9960    -1.4630    -0.9260 C.ar  1 <1>  -0.1500 
  5 C        3.3240     1.5470     0.8790 C.2   1 <1>   0.5440 
  6 C        4.0780    -0.7980     0.7620 C.ar  1 <1>  -0.1500 
  7 C        2.9120    -2.4290    -0.5480 C.ar  1 <1>  -0.1500 
  8 O        2.8940     1.8220     1.9840 O.2   1 <1>  -0.5700 
  9 N        3.9730     2.5200     0.1390 N.am  1 <1>  -0.6600 
 10 C        3.9590    -2.0970     0.2980 C.ar  1 <1>  -0.1430 
 11 C        4.3900     3.8050     0.7900 C.3   1 <1>   0.1400 
 12 C        4.4720     2.2790    -1.2520 C.3   1 <1>   0.1400 
 13 C        4.9600    -3.1600     0.7130 C.3   1 <1>  -0.0970 
 14 C        5.9170     3.9860     0.9540 C.3   1 <1>   0.2200 
 15 C        6.0060     2.2860    -1.4090 C.3   1 <1>  -0.0190 
 16 N        6.5340     4.4650    -0.3160 N.am  1 <1>  -0.6600 
 17 C        6.6860     2.7710     1.5360 C.3   1 <1>   0.1200 
 18 C        6.5470     3.6960    -1.4430 C.2   1 <1>   0.5690 
 19 C        6.8270     1.4090    -0.4440 C.3   1 <1>   0.1200 
 20 C        7.0780     5.8530    -0.3000 C.3   1 <1>   0.0600 
 21 O        6.4630     1.5410     0.8960 O.3   1 <1>  -0.5600 
 22 O        6.9880     4.1030    -2.4930 O.2   1 <1>  -0.5700 
 23 H        1.1790    -1.7080    -1.5800 H     1 <1>   0.1500 
 24 H        4.8840    -0.5270     1.4250 H     1 <1>   0.1500 
 25 H        2.8080    -3.4370    -0.9110 H     1 <1>   0.1500 
 26 H        3.9950     4.6280     0.2210 H     1 <1>   0.0800 
 27 H        3.9520     3.8720     1.7690 H     1 <1>   0.0800 
 28 H        4.1080     1.3360    -1.6140 H     1 <1>   0.0800 
 29 H        4.0550     3.0350    -1.8950 H     1 <1>   0.0800 
 30 H        5.3390    -3.6700    -0.1540 H     1 <1>   0.0800 
 31 H        4.4850    -3.8760     1.3590 H     1 <1>   0.0800 
 32 H        5.7890    -2.7210     1.2400 H     1 <1>   0.0800 
 33 H        6.0390     4.7780     1.6720 H     1 <1>   0.0800 
 34 H        6.1970     1.8890    -2.3890 H     1 <1>   0.0800 
 35 H        6.3760     2.6340     2.5560 H     1 <1>   0.0800 
 36 H        7.7440     2.9670     1.5330 H     1 <1>   0.0800 
 37 H        7.8780     1.6270    -0.5340 H     1 <1>   0.0800 
 38 H        6.6760     0.3750    -0.6970 H     1 <1>   0.0800 
 39 H        7.8420     5.9370     0.4530 H     1 <1>   0.0800 
 40 H        6.2880     6.5520    -0.0870 H     1 <1>   0.0800 
 41 H        7.5110     6.1070    -1.2530 H     1 <1>   0.0800 
@<TRIPOS>BOND
  1   1   2  1   
  2   2   3  ar  
  3   2   4  ar  
  4   3   5  1   
  5   3   6  ar  
  6   4   7  ar  
  7   4  23  1   
  8   5   8  2   
  9   5   9  am  
 10   6  10  ar  
 11   6  24  1   
 12   7  10  ar  
 13   7  25  1   
 14   9  11  1   
 15   9  12  1   
 16  10  13  1   
 17  11  14  1   
 18  11  26  1   
 19  11  27  1   
 20  12  15  1   
 21  12  28  1   
 22  12  29  1   
 23  13  30  1   
 24  13  31  1   
 25  13  32  1   
 26  14  16  1   
 27  14  17  1   
 28  14  33  1   
 29  15  18  1   
 30  15  19  1   
 31  15  34  1   
 32  16  18  am  
 33  16  20  1   
 34  17  21  1   
 35  17  35  1   
 36  17  36  1   
 37  18  22  2   
 38  19  21  1   
 39  19  37  1   
 40  19  38  1   
 41  20  39  1   
 42  20  40  1   
 43  20  41  1   
@<TRIPOS>SUBSTRUCTURE
  1 ****   9 GROUP 4 **** **** 0

# MOE 2024.06 (io_trps.svl 2023.06)
