@<TRIPOS>MOLECULE
NONAME
53 56 1 0 0 
SMALL
USER_CHARGES


@<TRIPOS>ATOM
  1 O       -0.3340     0.1260    -0.1740 O.2   1 <1>  -0.5700 
  2 C       -0.6610     1.1040     0.4710 C.2   1 <1>   0.6900 
  3 N       -1.9650     1.2730     0.8660 N.am  1 <1>  -0.6600 
  4 N        0.2520     2.0530     0.8260 N.am  1 <1>  -0.5470 
  5 C       -2.5870     2.6140     1.1070 C.3   1 <1>   0.1400 
  6 C       -2.9550     0.1660     0.7430 C.3   1 <1>   0.1400 
  7 C        1.5690     2.2960     0.4050 C.ar  1 <1>   0.1170 
  8 C       -3.5700     2.9750    -0.0230 C.3   1 <1>   0.1430 
  9 C       -3.9570     0.4810    -0.3750 C.3   1 <1>  -0.1600 
 10 C        2.4410     3.0130     1.2300 C.ar  1 <1>  -0.1440 
 11 C        2.0270     1.8650    -0.8360 C.ar  1 <1>  -0.1500 
 12 C       -4.1910     4.3200     0.3060 C.ar  1 <1>   0.1670 
 13 C       -4.6220     1.8550    -0.1770 C.3   1 <1>  -0.1600 
 14 C       -2.8340     3.2680    -1.3600 C.3   1 <1>  -0.1600 
 15 C        3.7340     3.2820     0.8070 C.ar  1 <1>  -0.1500 
 16 C        1.9970     3.5070     2.6020 C.3   1 <1>  -0.0970 
 17 C        3.3160     2.1340    -1.2520 C.ar  1 <1>  -0.1500 
 18 N       -5.0880     4.5390     1.2420 N.ar  1 <1>  -0.6200 
 19 C       -3.6870     5.3120    -0.4820 C.ar  1 <1>  -0.1440 
 20 C       -2.6580     4.7930    -1.4540 C.3   1 <1>  -0.0170 
 21 C        4.1790     2.8440    -0.4370 C.ar  1 <1>   0.0820 
 22 C       -5.4740     5.8030     1.3460 C.ar  1 <1>   0.4770 
 23 C       -4.1550     6.5870    -0.2850 C.ar  1 <1>   0.1600 
 24 O        5.4300     3.0700    -0.9210 O.3   1 <1>  -0.3630 
 25 N       -5.0600     6.8450     0.6370 N.ar  1 <1>  -0.6200 
 26 C       -6.5130     6.1010     2.3990 C.3   1 <1>  -0.0970 
 27 C        6.3990     3.7390    -0.1450 C.3   1 <1>   0.0400 
 28 H       -0.0520     2.6040     1.6190 H     1 <1>   0.3700 
 29 H       -1.8400     3.3840     1.1800 H     1 <1>   0.0800 
 30 H       -3.1200     2.5840     2.0420 H     1 <1>   0.0800 
 31 H       -3.4760     0.0610     1.6800 H     1 <1>   0.0800 
 32 H       -2.4580    -0.7670     0.5360 H     1 <1>   0.0800 
 33 H       -4.7120    -0.2850    -0.3960 H     1 <1>   0.0800 
 34 H       -3.4400     0.4500    -1.3190 H     1 <1>   0.0800 
 35 H        1.3720     1.3140    -1.4870 H     1 <1>   0.1500 
 36 H       -5.2790     2.0730    -1.0000 H     1 <1>   0.0800 
 37 H       -5.2260     1.8210     0.7140 H     1 <1>   0.0800 
 38 H       -3.4510     2.9540    -2.1830 H     1 <1>   0.0800 
 39 H       -1.8920     2.7550    -1.4400 H     1 <1>   0.0800 
 40 H        4.3890     3.8320     1.4530 H     1 <1>   0.1500 
 41 H        1.6410     2.6810     3.1930 H     1 <1>   0.0800 
 42 H        1.2120     4.2340     2.4970 H     1 <1>   0.0800 
 43 H        2.8130     3.9660     3.1300 H     1 <1>   0.0800 
 44 H        3.6610     1.7940    -2.2120 H     1 <1>   0.1500 
 45 H       -2.8360     5.1500    -2.4540 H     1 <1>   0.0800 
 46 H       -1.6720     5.0820    -1.1320 H     1 <1>   0.0800 
 47 H       -3.7880     7.4030    -0.8830 H     1 <1>   0.1500 
 48 H       -6.7030     5.2320     3.0010 H     1 <1>   0.0800 
 49 H       -7.4260     6.4040     1.9210 H     1 <1>   0.0800 
 50 H       -6.1660     6.8970     3.0320 H     1 <1>   0.0800 
 51 H        7.3090     3.7850    -0.7160 H     1 <1>   0.0800 
 52 H        6.5630     3.1850     0.7620 H     1 <1>   0.0800 
 53 H        6.0500     4.7340     0.0660 H     1 <1>   0.0800 
@<TRIPOS>BOND
  1   1   2  2   
  2   2   3  am  
  3   2   4  am  
  4   3   5  1   
  5   3   6  1   
  6   4   7  1   
  7   4  28  1   
  8   5   8  1   
  9   5  29  1   
 10   5  30  1   
 11   6   9  1   
 12   6  31  1   
 13   6  32  1   
 14   7  10  ar  
 15   7  11  ar  
 16   8  12  1   
 17   8  13  1   
 18   8  14  1   
 19   9  13  1   
 20   9  33  1   
 21   9  34  1   
 22  10  15  ar  
 23  10  16  1   
 24  11  17  ar  
 25  11  35  1   
 26  12  18  ar  
 27  12  19  ar  
 28  13  36  1   
 29  13  37  1   
 30  14  20  1   
 31  14  38  1   
 32  14  39  1   
 33  15  21  ar  
 34  15  40  1   
 35  16  41  1   
 36  16  42  1   
 37  16  43  1   
 38  17  21  ar  
 39  17  44  1   
 40  18  22  ar  
 41  19  20  1   
 42  19  23  ar  
 43  20  45  1   
 44  20  46  1   
 45  21  24  1   
 46  22  25  ar  
 47  22  26  1   
 48  23  25  ar  
 49  23  47  1   
 50  24  27  1   
 51  26  48  1   
 52  26  49  1   
 53  26  50  1   
 54  27  51  1   
 55  27  52  1   
 56  27  53  1   
@<TRIPOS>SUBSTRUCTURE
  1 ****   5 GROUP 4 **** **** 0

# MOE 2024.06 (io_trps.svl 2023.06)
