@<TRIPOS>MOLECULE
NONAME
43 45 1 0 0 
SMALL
USER_CHARGES


@<TRIPOS>ATOM
  1 S        0.0270    -0.6830    -0.7000 S.o2  1 <1>   1.5010 
  2 O       -1.1710    -0.0630    -1.2150 O.2   1 <1>  -0.6500 
  3 O        0.5390    -1.8580    -1.3720 O.2   1 <1>  -0.6500 
  4 N       -0.4330    -1.1950     0.8320 N.am  1 <1>  -0.9140 
  5 C        1.3400     0.5260    -0.3830 C.2   1 <1>  -0.0630 
  6 C       -0.8810    -2.5860     0.9050 C.3   1 <1>   0.1960 
  7 C        1.1960     1.7770     0.1110 C.2   1 <1>  -0.1400 
  8 C        2.7150     0.2030    -0.6290 C.2   1 <1>  -0.1500 
  9 C       -2.1670    -2.8070     0.0840 C.3   1 <1>   0.2000 
 10 S        2.7490     2.5740     0.2720 S.3   1 <1>  -0.0800 
 11 C       -0.0130     2.5900     0.5350 C.3   1 <1>  -0.0600 
 12 C        3.6170     1.1720    -0.3400 C.2   1 <1>   0.0410 
 13 O       -3.1250    -1.8750     0.5120 O.3   1 <1>  -0.5600 
 14 C       -2.7430    -4.2300     0.2280 C.3   1 <1>   0.3430 
 15 C        5.0530     1.2160    -0.4520 C.2   1 <1>   0.2880 
 16 C       -4.3010    -1.8620    -0.2450 C.3   1 <1>   0.1200 
 17 N       -4.0560    -4.3590    -0.4990 N.4   1 <1>  -0.9060 
 18 N        5.7850     0.2360    -0.8860 N.2   1 <1>  -0.4100 
 19 C        5.8830     2.2950    -0.1200 C.2   1 <1>  -0.1500 
 20 C       -4.9980    -3.2360    -0.1610 C.3   1 <1>   0.3430 
 21 O        7.0190     0.6410    -0.8440 O.3   1 <1>  -0.0190 
 22 C        7.1240     1.8610    -0.3940 C.2   1 <1>  -0.0400 
 23 C        8.5020     2.5020    -0.2760 C.3   1 <1>   1.2000 
 24 F        9.1300     2.5840    -1.4430 F     1 <1>  -0.3400 
 25 F        9.3070     1.8370     0.5420 F     1 <1>  -0.3400 
 26 F        8.4330     3.7420     0.1970 F     1 <1>  -0.3400 
 27 H       -1.2590    -0.6220     1.0250 H     1 <1>   0.4200 
 28 H       -1.0750    -2.8280     1.9360 H     1 <1>   0.0800 
 29 H       -0.0970    -3.2410     0.5620 H     1 <1>   0.0800 
 30 H        2.9890    -0.7630    -1.0210 H     1 <1>   0.1500 
 31 H       -1.9550    -2.6260    -0.9560 H     1 <1>   0.0800 
 32 H       -0.9220     2.0350     0.3990 H     1 <1>   0.0800 
 33 H       -0.0720     3.4900    -0.0510 H     1 <1>   0.0800 
 34 H        0.0730     2.8600     1.5730 H     1 <1>   0.0800 
 35 H       -2.8840    -4.4370     1.2770 H     1 <1>   0.0800 
 36 H       -2.0340    -4.9440    -0.1600 H     1 <1>   0.0800 
 37 H       -4.0570    -1.6020    -1.2620 H     1 <1>   0.0800 
 38 H       -4.9410    -1.0950     0.1560 H     1 <1>   0.0800 
 39 H       -4.4960    -5.2640    -0.2830 H     1 <1>   0.4500 
 40 H       -3.8790    -4.3460    -1.5120 H     1 <1>   0.4500 
 41 H        5.5600     3.2450     0.2670 H     1 <1>   0.1500 
 42 H       -5.8470    -3.2490    -0.8260 H     1 <1>   0.0800 
 43 H       -5.3680    -3.3620     0.8440 H     1 <1>   0.0800 
@<TRIPOS>BOND
  1   1   2  2   
  2   1   3  2   
  3   1   4  am  
  4   1   5  1   
  5   4   6  1   
  6   4  27  1   
  7   5   7  2   
  8   5   8  1   
  9   6   9  1   
 10   6  28  1   
 11   6  29  1   
 12   7  10  1   
 13   7  11  1   
 14   8  12  2   
 15   8  30  1   
 16   9  13  1   
 17   9  14  1   
 18   9  31  1   
 19  10  12  1   
 20  11  32  1   
 21  11  33  1   
 22  11  34  1   
 23  12  15  1   
 24  13  16  1   
 25  14  17  1   
 26  14  35  1   
 27  14  36  1   
 28  15  18  2   
 29  15  19  1   
 30  16  20  1   
 31  16  37  1   
 32  16  38  1   
 33  17  20  1   
 34  17  39  1   
 35  17  40  1   
 36  18  21  1   
 37  19  22  2   
 38  19  41  1   
 39  20  42  1   
 40  20  43  1   
 41  21  22  1   
 42  22  23  1   
 43  23  24  1   
 44  23  25  1   
 45  23  26  1   
@<TRIPOS>SUBSTRUCTURE
  1 ****   8 GROUP 4 **** **** 0

# MOE 2024.06 (io_trps.svl 2023.06)
