@<TRIPOS>MOLECULE
NONAME
45 46 1 0 0 
SMALL
USER_CHARGES


@<TRIPOS>ATOM
  1 CL      -1.9140     0.0590    -2.3790 Cl    1 <1>  -0.1770 
  2 C       -2.3250    -0.8680    -0.9480 C.ar  1 <1>   0.1770 
  3 C       -2.0270    -0.4660     0.3610 C.ar  1 <1>   0.0830 
  4 C       -2.9800    -2.0600    -1.1890 C.ar  1 <1>  -0.1500 
  5 O       -1.3930     0.6660     0.7660 O.3   1 <1>  -0.3630 
  6 C       -2.4150    -1.3050     1.3950 C.ar  1 <1>  -0.1500 
  7 C       -3.3660    -2.9110    -0.1530 C.ar  1 <1>   0.0860 
  8 C       -0.9390     1.6870    -0.0910 C.3   1 <1>   0.0400 
  9 C       -3.0690    -2.4970     1.1470 C.ar  1 <1>  -0.1500 
 10 C       -4.0440    -4.1640    -0.4360 C.2   1 <1>   0.5440 
 11 O       -4.6620    -4.3180    -1.4710 O.2   1 <1>  -0.5700 
 12 N       -4.0140    -5.2010     0.4510 N.am  1 <1>  -0.7300 
 13 C       -4.6650    -6.5130     0.2320 C.3   1 <1>   0.2200 
 14 C       -6.1290    -6.4270     0.6730 C.3   1 <1>  -0.0800 
 15 C       -4.0800    -7.5600     1.1770 C.3   1 <1>   0.1200 
 16 C       -6.2020    -7.3560     1.8910 C.3   1 <1>   0.1200 
 17 C       -7.1320    -6.6870    -0.4740 C.3   1 <1>  -0.0550 
 18 O       -4.8850    -7.5070     2.3100 O.3   1 <1>  -0.5600 
 19 S       -7.1970    -8.3450    -1.1740 S.o2  1 <1>   1.3330 
 20 O       -5.8680    -8.9160    -1.1700 O.2   1 <1>  -0.6500 
 21 O       -7.9490    -8.3040    -2.4070 O.2   1 <1>  -0.6500 
 22 N       -8.1390    -9.2100    -0.0550 N.am  1 <1>  -0.8490 
 23 C       -9.5840    -9.0440    -0.2550 C.3   1 <1>   0.1160 
 24 C       -7.8050   -10.6380    -0.0350 C.3   1 <1>   0.1160 
 25 H       -3.1970    -2.3420    -2.2050 H     1 <1>   0.1500 
 26 H       -2.1980    -1.0090     2.4070 H     1 <1>   0.1500 
 27 H       -0.5020     2.4600     0.5150 H     1 <1>   0.0800 
 28 H       -1.7750     2.0850    -0.6370 H     1 <1>   0.0800 
 29 H       -0.1940     1.2830    -0.7530 H     1 <1>   0.0800 
 30 H       -3.3600    -3.1090     1.9820 H     1 <1>   0.1500 
 31 H       -3.5720    -5.0970     1.3650 H     1 <1>   0.3700 
 32 H       -4.5410    -6.8100    -0.7960 H     1 <1>   0.0800 
 33 H       -6.3270    -5.4320     1.0310 H     1 <1>   0.0800 
 34 H       -3.0570    -7.3650     1.4440 H     1 <1>   0.0800 
 35 H       -4.1680    -8.5460     0.7540 H     1 <1>   0.0800 
 36 H       -6.5700    -8.3360     1.6520 H     1 <1>   0.0800 
 37 H       -6.7800    -6.9370     2.6960 H     1 <1>   0.0800 
 38 H       -6.8850    -6.0050    -1.2650 H     1 <1>   0.0800 
 39 H       -8.1130    -6.4190    -0.1360 H     1 <1>   0.0800 
 40 H      -10.1260    -9.5330     0.5370 H     1 <1>   0.0800 
 41 H       -9.8850    -9.4690    -1.1990 H     1 <1>   0.0800 
 42 H       -9.8440    -8.0000    -0.2500 H     1 <1>   0.0800 
 43 H       -8.4140   -11.1550     0.6880 H     1 <1>   0.0800 
 44 H       -6.7720   -10.7720     0.2400 H     1 <1>   0.0800 
 45 H       -7.9630   -11.0730    -1.0080 H     1 <1>   0.0800 
@<TRIPOS>BOND
  1   1   2  1   
  2   2   3  ar  
  3   2   4  ar  
  4   3   5  1   
  5   3   6  ar  
  6   4   7  ar  
  7   4  25  1   
  8   5   8  1   
  9   6   9  ar  
 10   6  26  1   
 11   7   9  ar  
 12   7  10  1   
 13   8  27  1   
 14   8  28  1   
 15   8  29  1   
 16   9  30  1   
 17  10  11  2   
 18  10  12  am  
 19  12  13  1   
 20  12  31  1   
 21  13  14  1   
 22  13  15  1   
 23  13  32  1   
 24  14  16  1   
 25  14  17  1   
 26  14  33  1   
 27  15  18  1   
 28  15  34  1   
 29  15  35  1   
 30  16  18  1   
 31  16  36  1   
 32  16  37  1   
 33  17  19  1   
 34  17  38  1   
 35  17  39  1   
 36  19  20  2   
 37  19  21  2   
 38  19  22  am  
 39  22  23  1   
 40  22  24  1   
 41  23  40  1   
 42  23  41  1   
 43  23  42  1   
 44  24  43  1   
 45  24  44  1   
 46  24  45  1   
@<TRIPOS>SUBSTRUCTURE
  1 ****  12 GROUP 4 **** **** 0

# MOE 2024.06 (io_trps.svl 2023.06)
