@<TRIPOS>MOLECULE
NONAME
53 55 1 0 0 
SMALL
USER_CHARGES


@<TRIPOS>ATOM
  1 CL      -0.3600    -0.6300     0.0390 Cl    1 <1>  -0.1770 
  2 C       -1.9760    -0.0090     0.2470 C.ar  1 <1>   0.1770 
  3 C       -2.3310     0.5780     1.4460 C.ar  1 <1>  -0.1500 
  4 C       -2.8840    -0.1100    -0.7900 C.ar  1 <1>  -0.1500 
  5 C       -3.6150     1.0680     1.6050 C.ar  1 <1>  -0.1500 
  6 C       -4.1650     0.3830    -0.6200 C.ar  1 <1>  -0.1500 
  7 C       -4.5610     0.9790     0.5800 C.ar  1 <1>   0.0530 
  8 C       -5.8900     1.5040     0.7670 C.2   1 <1>   0.0870 
  9 O       -6.0460     2.6520     1.3790 O.3   1 <1>  -0.0190 
 10 C       -7.1330     1.0590     0.4340 C.2   1 <1>  -0.0860 
 11 N       -7.2960     3.0150     1.4730 N.2   1 <1>  -0.4100 
 12 C       -7.9640     2.0810     0.9060 C.2   1 <1>   0.3720 
 13 C       -7.5600    -0.1580    -0.1890 C.2   1 <1>   0.7160 
 14 N       -9.3450     2.1420     0.8300 N.pl3 1 <1>  -0.8520 
 15 O       -6.8080    -1.1050    -0.3270 O.2   1 <1>  -0.5700 
 16 N       -8.8400    -0.3210    -0.6250 N.am  1 <1>  -0.7300 
 17 C       -9.8620     2.8060    -0.3980 C.3   1 <1>   0.2090 
 18 C       -9.4000    -1.5340    -1.2620 C.3   1 <1>   0.1400 
 19 C      -11.3200     2.4120    -0.6750 C.3   1 <1>   0.1200 
 20 C       -9.6140    -2.6360    -0.2010 C.3   1 <1>   0.4230 
 21 O      -11.4390     1.0250    -0.8260 O.3   1 <1>  -0.5600 
 22 N       -9.0330    -3.9560    -0.5610 N.4   1 <1>  -0.9590 
 23 C      -11.0760    -2.9550     0.0850 C.3   1 <1>  -0.1600 
 24 C      -12.7540     0.6090    -1.0250 C.3   1 <1>   0.0400 
 25 C       -9.6670    -4.9330     0.3580 C.3   1 <1>   0.3430 
 26 C       -7.5380    -3.9650    -0.4740 C.3   1 <1>   0.2630 
 27 C      -11.0760    -4.3980     0.5960 C.3   1 <1>  -0.1600 
 28 H       -1.6090     0.6490     2.2390 H     1 <1>   0.1500 
 29 H       -2.5850    -0.5680    -1.7160 H     1 <1>   0.1500 
 30 H       -3.8940     1.5270     2.5380 H     1 <1>   0.1500 
 31 H       -4.8690     0.3090    -1.4300 H     1 <1>   0.1500 
 32 H       -9.6690     2.6810     1.6420 H     1 <1>   0.4000 
 33 H       -9.5230     0.4230    -0.3770 H     1 <1>   0.3700 
 34 H       -9.2570     2.5400    -1.2490 H     1 <1>   0.0800 
 35 H       -9.8000     3.8740    -0.2720 H     1 <1>   0.0800 
 36 H       -8.7130    -1.8710    -2.0190 H     1 <1>   0.0800 
 37 H      -10.3280    -1.2740    -1.7400 H     1 <1>   0.0800 
 38 H      -11.6580     2.8840    -1.5820 H     1 <1>   0.0800 
 39 H      -11.9440     2.7290     0.1430 H     1 <1>   0.0800 
 40 H       -9.1530    -2.3080     0.7170 H     1 <1>   0.0800 
 41 H       -9.3280    -4.1800    -1.5200 H     1 <1>   0.4500 
 42 H      -11.6590    -2.8870    -0.8180 H     1 <1>   0.0800 
 43 H      -11.4800    -2.2670     0.8080 H     1 <1>   0.0800 
 44 H      -12.7600    -0.4590    -1.1390 H     1 <1>   0.0800 
 45 H      -13.1440     1.0700    -1.9170 H     1 <1>   0.0800 
 46 H      -13.3480     0.8840    -0.1690 H     1 <1>   0.0800 
 47 H       -9.1300    -4.9550     1.2930 H     1 <1>   0.0800 
 48 H       -9.6820    -5.9250    -0.0670 H     1 <1>   0.0800 
 49 H       -7.2170    -3.6630     0.5100 H     1 <1>   0.0800 
 50 H       -7.1170    -3.2760    -1.1880 H     1 <1>   0.0800 
 51 H       -7.1530    -4.9510    -0.6800 H     1 <1>   0.0800 
 52 H      -11.7980    -4.9930     0.0640 H     1 <1>   0.0800 
 53 H      -11.3070    -4.4420     1.6470 H     1 <1>   0.0800 
@<TRIPOS>BOND
  1   1   2  1   
  2   2   3  ar  
  3   2   4  ar  
  4   3   5  ar  
  5   3  28  1   
  6   4   6  ar  
  7   4  29  1   
  8   5   7  ar  
  9   5  30  1   
 10   6   7  ar  
 11   6  31  1   
 12   7   8  1   
 13   8   9  1   
 14   8  10  2   
 15   9  11  1   
 16  10  12  1   
 17  10  13  1   
 18  11  12  2   
 19  12  14  1   
 20  13  15  2   
 21  13  16  am  
 22  14  17  1   
 23  14  32  1   
 24  16  18  1   
 25  16  33  1   
 26  17  19  1   
 27  17  34  1   
 28  17  35  1   
 29  18  20  1   
 30  18  36  1   
 31  18  37  1   
 32  19  21  1   
 33  19  38  1   
 34  19  39  1   
 35  20  22  1   
 36  20  23  1   
 37  20  40  1   
 38  21  24  1   
 39  22  25  1   
 40  22  26  1   
 41  22  41  1   
 42  23  27  1   
 43  23  42  1   
 44  23  43  1   
 45  24  44  1   
 46  24  45  1   
 47  24  46  1   
 48  25  27  1   
 49  25  47  1   
 50  25  48  1   
 51  26  49  1   
 52  26  50  1   
 53  26  51  1   
 54  27  52  1   
 55  27  53  1   
@<TRIPOS>SUBSTRUCTURE
  1 ****  13 GROUP 4 **** **** 0

# MOE 2024.06 (io_trps.svl 2023.06)
