@<TRIPOS>MOLECULE
NONAME
48 51 1 0 0 
SMALL
USER_CHARGES


@<TRIPOS>ATOM
  1 O       -0.4010     0.3000    -0.0280 O.2   1 <1>  -0.5700 
  2 C       -1.4670     0.8970    -0.0840 C.2   1 <1>   0.7160 
  3 N       -2.6110     0.1370    -0.2280 N.am  1 <1>  -0.6600 
  4 C       -1.4520     2.3620     0.0000 C.2   1 <1>   0.2030 
  5 C       -3.9980     0.6600    -0.3220 C.3   1 <1>   0.1400 
  6 C       -2.6120    -1.3460    -0.2580 C.3   1 <1>   0.1400 
  7 N       -2.4870     3.1880     0.0050 N.2   1 <1>  -0.7070 
  8 C       -0.2710     3.1160     0.0940 C.2   1 <1>  -0.1810 
  9 C       -4.8850    -0.5780    -0.4570 C.3   1 <1>   0.2000 
 10 C       -4.0510    -1.7420     0.0740 C.3   1 <1>  -0.0800 
 11 N       -1.9860     4.4290     0.1020 N.pl3 1 <1>   0.3000 
 12 C       -0.6410     4.4050     0.1620 C.2   1 <1>  -0.3320 
 13 C        1.1650     2.6310     0.1250 C.3   1 <1>   0.5240 
 14 O       -6.0510    -0.4600     0.2840 O.3   1 <1>  -0.6800 
 15 C       -4.4840    -3.0960    -0.5120 C.3   1 <1>  -0.0170 
 16 C        0.3340     5.5610     0.2810 C.3   1 <1>   0.0200 
 17 N        2.0570     3.7840    -0.2320 N.4   1 <1>  -0.9590 
 18 C       -3.6660    -4.2420     0.0600 C.ar  1 <1>   0.1670 
 19 C        1.7470     5.0150     0.5820 C.3   1 <1>   0.3430 
 20 C        3.4940     3.3920    -0.1390 C.3   1 <1>   0.2630 
 21 N       -2.5060    -4.4920    -0.5260 N.ar  1 <1>  -0.6200 
 22 C       -4.1490    -4.9620     1.1510 C.ar  1 <1>   0.1600 
 23 C       -1.8690    -5.5020     0.0450 C.ar  1 <1>   0.1600 
 24 N       -3.5120    -5.9700     1.7250 N.ar  1 <1>  -0.6200 
 25 C       -2.3550    -6.2160     1.1340 C.ar  1 <1>   0.1600 
 26 H       -4.2330     1.2100     0.5740 H     1 <1>   0.0800 
 27 H       -4.1000     1.2980    -1.1830 H     1 <1>   0.0800 
 28 H       -2.3400    -1.6790    -1.2450 H     1 <1>   0.0800 
 29 H       -1.9170    -1.7540     0.4570 H     1 <1>   0.0800 
 30 H       -5.1510    -0.7250    -1.4900 H     1 <1>   0.0800 
 31 H       -4.1300    -1.7760     1.1470 H     1 <1>   0.0800 
 32 H       -2.5900     5.2630     0.1280 H     1 <1>   0.2700 
 33 H        1.2940     1.8280    -0.5830 H     1 <1>   0.0800 
 34 H        1.3960     2.2600     1.1100 H     1 <1>   0.0800 
 35 H       -5.8420    -0.2430     1.2130 H     1 <1>   0.4000 
 36 H       -4.3750    -3.0870    -1.5830 H     1 <1>   0.0800 
 37 H       -5.5260    -3.2570    -0.2960 H     1 <1>   0.0800 
 38 H        0.3490     6.1220    -0.6360 H     1 <1>   0.0800 
 39 H        0.0350     6.2250     1.0740 H     1 <1>   0.0800 
 40 H        1.8230     4.0050    -1.2100 H     1 <1>   0.4500 
 41 H        1.8040     4.7650     1.6290 H     1 <1>   0.0800 
 42 H        2.4720     5.7860     0.3830 H     1 <1>   0.0800 
 43 H        3.7490     3.1410     0.8780 H     1 <1>   0.0800 
 44 H        4.1260     4.2040    -0.4620 H     1 <1>   0.0800 
 45 H        3.6900     2.5360    -0.7650 H     1 <1>   0.0800 
 46 H       -5.1020    -4.6920     1.5690 H     1 <1>   0.1500 
 47 H       -0.9150    -5.7790    -0.3680 H     1 <1>   0.1500 
 48 H       -1.7630    -7.0210     1.5290 H     1 <1>   0.1500 
@<TRIPOS>BOND
  1   1   2  2   
  2   2   3  am  
  3   2   4  1   
  4   3   5  1   
  5   3   6  1   
  6   4   7  2   
  7   4   8  1   
  8   5   9  1   
  9   5  26  1   
 10   5  27  1   
 11   6  10  1   
 12   6  28  1   
 13   6  29  1   
 14   7  11  1   
 15   8  12  2   
 16   8  13  1   
 17   9  10  1   
 18   9  14  1   
 19   9  30  1   
 20  10  15  1   
 21  10  31  1   
 22  11  12  1   
 23  11  32  1   
 24  12  16  1   
 25  13  17  1   
 26  13  33  1   
 27  13  34  1   
 28  14  35  1   
 29  15  18  1   
 30  15  36  1   
 31  15  37  1   
 32  16  19  1   
 33  16  38  1   
 34  16  39  1   
 35  17  19  1   
 36  17  20  1   
 37  17  40  1   
 38  18  21  ar  
 39  18  22  ar  
 40  19  41  1   
 41  19  42  1   
 42  20  43  1   
 43  20  44  1   
 44  20  45  1   
 45  21  23  ar  
 46  22  24  ar  
 47  22  46  1   
 48  23  25  ar  
 49  23  47  1   
 50  24  25  ar  
 51  25  48  1   
@<TRIPOS>SUBSTRUCTURE
  1 ****   3 GROUP 4 **** **** 0

# MOE 2024.06 (io_trps.svl 2023.06)
