@<TRIPOS>MOLECULE
NONAME
52 54 1 0 0 
SMALL
USER_CHARGES


@<TRIPOS>ATOM
  1 S       -0.0310     0.4220    -0.8770 S.o2  1 <1>   1.5010 
  2 O       -1.3180     1.0070    -1.1680 O.2   1 <1>  -0.6500 
  3 O        1.0490     0.5160    -1.8350 O.2   1 <1>  -0.6500 
  4 N       -0.2490    -1.2500    -0.6210 N.am  1 <1>  -0.8490 
  5 C        0.5370     1.0100     0.7210 C.2   1 <1>  -0.0630 
  6 C        1.0060    -2.0460    -0.7610 C.3   1 <1>   0.2760 
  7 C       -1.2910    -1.7530    -1.5380 C.3   1 <1>   0.1960 
  8 C        1.5970     1.7560     1.0790 C.2   1 <1>  -0.0400 
  9 C       -0.0520     0.7500     1.9420 C.2   1 <1>   0.1080 
 10 C        0.7800    -3.5530    -0.4320 C.3   1 <1>   0.0000 
 11 C        2.2050    -1.4790     0.0570 C.3   1 <1>   0.3430 
 12 C       -1.5890    -3.2360    -1.3090 C.3   1 <1>  -0.1600 
 13 O        1.6830     1.8880     2.3840 O.3   1 <1>  -0.0190 
 14 C        2.6660     2.4430     0.2470 C.3   1 <1>  -0.0600 
 15 N        0.6510     1.2510     2.8860 N.2   1 <1>  -0.4100 
 16 C       -1.3480     0.0020     2.1850 C.3   1 <1>  -0.0590 
 17 C        2.0890    -4.3610    -0.7000 C.3   1 <1>  -0.1600 
 18 C       -0.3160    -4.0880    -1.3820 C.3   1 <1>  -0.1600 
 19 C        0.2810    -3.7750     1.0300 C.3   1 <1>   0.1200 
 20 N        3.2510    -2.4980     0.4070 N.4   1 <1>  -0.9590 
 21 C        3.3930    -3.5520    -0.6220 C.3   1 <1>   0.3430 
 22 O        1.2720    -3.5680     1.9880 O.3   1 <1>  -0.6800 
 23 C        4.5300    -1.9010     0.8810 C.3   1 <1>   0.3430 
 24 C        5.2670    -1.1800    -0.2470 C.3   1 <1>  -0.2400 
 25 H        1.3030    -1.9920    -1.7960 H     1 <1>   0.0800 
 26 H       -2.2090    -1.2080    -1.3880 H     1 <1>   0.0800 
 27 H       -0.9810    -1.5990    -2.5600 H     1 <1>   0.0800 
 28 H        1.8250    -1.0750     0.9790 H     1 <1>   0.0800 
 29 H        2.6510    -0.6800    -0.5090 H     1 <1>   0.0800 
 30 H       -2.0820    -3.3570    -0.3610 H     1 <1>   0.0800 
 31 H       -2.2810    -3.5690    -2.0640 H     1 <1>   0.0800 
 32 H        2.4820     2.3350    -0.8050 H     1 <1>   0.0800 
 33 H        3.6330     2.0360     0.4790 H     1 <1>   0.0800 
 34 H        2.6760     3.4940     0.4790 H     1 <1>   0.0800 
 35 H       -2.0970     0.3100     1.4780 H     1 <1>   0.0800 
 36 H       -1.7090     0.2110     3.1760 H     1 <1>   0.0800 
 37 H       -1.1880    -1.0550     2.0940 H     1 <1>   0.0800 
 38 H        2.0660    -4.8030    -1.6810 H     1 <1>   0.0800 
 39 H        2.1520    -5.1860    -0.0120 H     1 <1>   0.0800 
 40 H        0.0370    -4.0660    -2.3990 H     1 <1>   0.0800 
 41 H       -0.5540    -5.1130    -1.1470 H     1 <1>   0.0800 
 42 H       -0.0630    -4.7890     1.1470 H     1 <1>   0.0800 
 43 H       -0.5370    -3.1150     1.2600 H     1 <1>   0.0800 
 44 H        2.8200    -2.9940     1.2180 H     1 <1>   0.4500 
 45 H        3.5980    -3.0950    -1.5770 H     1 <1>   0.0800 
 46 H        4.2110    -4.2100    -0.3780 H     1 <1>   0.0800 
 47 H        0.9130    -3.7620     2.8830 H     1 <1>   0.4000 
 48 H        4.3270    -1.2050     1.6800 H     1 <1>   0.0800 
 49 H        5.1630    -2.6790     1.2770 H     1 <1>   0.0800 
 50 H        4.6880    -0.3650    -0.6410 H     1 <1>   0.0800 
 51 H        5.5280    -1.8560    -1.0400 H     1 <1>   0.0800 
 52 H        6.1810    -0.7700     0.1440 H     1 <1>   0.0800 
@<TRIPOS>BOND
  1   1   2  2   
  2   1   3  2   
  3   1   4  am  
  4   1   5  1   
  5   4   6  1   
  6   4   7  1   
  7   5   8  2   
  8   5   9  1   
  9   6  10  1   
 10   6  11  1   
 11   6  25  1   
 12   7  12  1   
 13   7  26  1   
 14   7  27  1   
 15   8  13  1   
 16   8  14  1   
 17   9  15  2   
 18   9  16  1   
 19  10  17  1   
 20  10  18  1   
 21  10  19  1   
 22  11  20  1   
 23  11  28  1   
 24  11  29  1   
 25  12  18  1   
 26  12  30  1   
 27  12  31  1   
 28  13  15  1   
 29  14  32  1   
 30  14  33  1   
 31  14  34  1   
 32  16  35  1   
 33  16  36  1   
 34  16  37  1   
 35  17  21  1   
 36  17  38  1   
 37  17  39  1   
 38  18  40  1   
 39  18  41  1   
 40  19  22  1   
 41  19  42  1   
 42  19  43  1   
 43  20  21  1   
 44  20  23  1   
 45  20  44  1   
 46  21  45  1   
 47  21  46  1   
 48  22  47  1   
 49  23  24  1   
 50  23  48  1   
 51  23  49  1   
 52  24  50  1   
 53  24  51  1   
 54  24  52  1   
@<TRIPOS>SUBSTRUCTURE
  1 ****  11 GROUP 4 **** **** 0

# MOE 2024.06 (io_trps.svl 2023.06)
