@<TRIPOS>MOLECULE
NONAME
41 42 1 0 0 
SMALL
USER_CHARGES


@<TRIPOS>ATOM
  1 CL      -0.2080    -1.5090    -2.2510 Cl    1 <1>  -0.1770 
  2 C       -1.6690    -1.7790    -1.3270 C.ar  1 <1>   0.1770 
  3 C       -1.7170    -2.7510    -0.3350 C.ar  1 <1>   0.0820 
  4 C       -2.7760    -1.0060    -1.6030 C.ar  1 <1>  -0.1500 
  5 O       -0.6480    -3.5240    -0.0410 O.3   1 <1>  -0.3630 
  6 C       -2.8970    -2.9520     0.3630 C.ar  1 <1>  -0.1500 
  7 C       -3.9440    -1.2050    -0.8800 C.ar  1 <1>   0.0830 
  8 C        0.3240    -2.9480     0.8020 C.3   1 <1>   0.0400 
  9 C       -4.0290    -2.1820     0.1120 C.ar  1 <1>  -0.0090 
 10 O       -5.0130    -0.4390    -1.1800 O.3   1 <1>  -0.3630 
 11 S       -5.5540    -2.4470     1.0570 S.o2  1 <1>   1.4470 
 12 C       -5.0030     0.8820    -0.6880 C.3   1 <1>   0.0400 
 13 O       -5.3360    -3.5270     1.9950 O.2   1 <1>  -0.6500 
 14 O       -5.9930    -1.1760     1.5990 O.2   1 <1>  -0.6500 
 15 N       -6.6970    -2.9420    -0.0980 N.am  1 <1>  -0.8490 
 16 C       -6.4200    -4.2160    -0.7900 C.3   1 <1>   0.1960 
 17 C       -8.0960    -2.7920     0.3080 C.3   1 <1>   0.1960 
 18 C       -6.9030    -5.4490    -0.0150 C.3   1 <1>  -0.1860 
 19 C       -8.5720    -3.9700     1.1590 C.3   1 <1>  -0.1600 
 20 C       -6.7450    -6.6960    -0.8570 C.2   1 <1>   0.9060 
 21 C       -8.3640    -5.2700     0.3910 C.3   1 <1>   0.2000 
 22 O       -6.1760    -6.6250    -1.9500 O.co2 1 <1>  -0.9000 
 23 O       -7.2140    -7.7570    -0.4260 O.co2 1 <1>  -0.9000 
 24 O       -8.7360    -6.3220     1.1970 O.3   1 <1>  -0.6800 
 25 H       -2.7360    -0.2620    -2.3770 H     1 <1>   0.1500 
 26 H       -2.9290    -3.7250     1.1130 H     1 <1>   0.1500 
 27 H        1.1000    -3.6740     0.9640 H     1 <1>   0.0800 
 28 H       -0.1370    -2.6860     1.7370 H     1 <1>   0.0800 
 29 H        0.7340    -2.0750     0.3250 H     1 <1>   0.0800 
 30 H       -5.9440     1.3390    -0.9390 H     1 <1>   0.0800 
 31 H       -4.1950     1.4240    -1.1460 H     1 <1>   0.0800 
 32 H       -4.8840     0.8580     0.3810 H     1 <1>   0.0800 
 33 H       -6.9240    -4.1950    -1.7430 H     1 <1>   0.0800 
 34 H       -5.3670    -4.3110    -0.9980 H     1 <1>   0.0800 
 35 H       -8.2330    -1.8690     0.8460 H     1 <1>   0.0800 
 36 H       -8.7020    -2.7390    -0.5810 H     1 <1>   0.0800 
 37 H       -6.2970    -5.5780     0.8590 H     1 <1>   0.0800 
 38 H       -9.6160    -3.8510     1.3810 H     1 <1>   0.0800 
 39 H       -8.0240    -3.9960     2.0840 H     1 <1>   0.0800 
 40 H       -8.9900    -5.2960    -0.4860 H     1 <1>   0.0800 
 41 H       -8.3200    -7.1340     0.7810 H     1 <1>   0.4000 
@<TRIPOS>BOND
  1   1   2  1   
  2   2   3  ar  
  3   2   4  ar  
  4   3   5  1   
  5   3   6  ar  
  6   4   7  ar  
  7   4  25  1   
  8   5   8  1   
  9   6   9  ar  
 10   6  26  1   
 11   7   9  ar  
 12   7  10  1   
 13   8  27  1   
 14   8  28  1   
 15   8  29  1   
 16   9  11  1   
 17  10  12  1   
 18  11  13  2   
 19  11  14  2   
 20  11  15  am  
 21  12  30  1   
 22  12  31  1   
 23  12  32  1   
 24  15  16  1   
 25  15  17  1   
 26  16  18  1   
 27  16  33  1   
 28  16  34  1   
 29  17  19  1   
 30  17  35  1   
 31  17  36  1   
 32  18  20  1   
 33  18  21  1   
 34  18  37  1   
 35  19  21  1   
 36  19  38  1   
 37  19  39  1   
 38  20  22  ar  
 39  20  23  ar  
 40  21  24  1   
 41  21  40  1   
 42  24  41  1   
@<TRIPOS>SUBSTRUCTURE
  1 ****   9 GROUP 4 **** **** 0

# MOE 2024.06 (io_trps.svl 2023.06)
