@<TRIPOS>MOLECULE
NONAME
47 49 1 0 0 
SMALL
USER_CHARGES


@<TRIPOS>ATOM
  1 O       -1.8320     2.4860    -0.7110 O.3   1 <1>  -0.5600 
  2 C       -1.3310     2.0570    -1.9540 C.3   1 <1>   0.2000 
  3 C       -2.1750     1.4790     0.2090 C.3   1 <1>   0.2640 
  4 C        0.1900     1.8310    -1.8330 C.3   1 <1>   0.3430 
  5 C       -1.5980     3.2060    -2.9460 C.3   1 <1>  -0.1600 
  6 C       -0.9320     0.9180     0.8930 C.ar  1 <1>   0.1660 
  7 N        0.7560     3.0550    -1.2000 N.4   1 <1>  -0.9590 
  8 C       -0.3720     4.1240    -3.1810 C.3   1 <1>  -0.1600 
  9 N       -0.4940    -0.2640     0.4770 N.ar  1 <1>  -0.6200 
 10 C       -0.3130     1.6640     1.8840 C.ar  1 <1>  -0.1500 
 11 C        0.5350     4.3260    -1.9530 C.3   1 <1>   0.3430 
 12 C        2.1030     2.9050    -0.5960 C.3   1 <1>   0.5240 
 13 C        0.5780    -0.7330     1.0990 C.ar  1 <1>   0.1600 
 14 C        0.8160     1.1760     2.5050 C.ar  1 <1>  -0.1500 
 15 C        2.2620     3.9410     0.5150 C.2   1 <1>   0.1080 
 16 C        1.2620    -0.0620     2.0980 C.ar  1 <1>  -0.1500 
 17 N        1.2500     4.4700     1.1460 N.2   1 <1>  -0.7070 
 18 C        3.4770     4.4360     0.9730 C.2   1 <1>  -0.1500 
 19 N        1.8010     5.3240     2.0330 N.pl3 1 <1>   0.3140 
 20 C        3.1440     5.3150     1.9400 C.2   1 <1>  -0.3020 
 21 C        0.9870     6.1390     2.9600 C.3   1 <1>   0.0960 
 22 C        0.6490     7.5020     2.3440 C.3   1 <1>  -0.2400 
 23 H       -1.8480     1.1630    -2.2620 H     1 <1>   0.0800 
 24 H       -2.7270     0.7030    -0.2920 H     1 <1>   0.0800 
 25 H       -2.8170     1.9250     0.9480 H     1 <1>   0.0800 
 26 H        0.6180     1.6750    -2.8090 H     1 <1>   0.0800 
 27 H        0.3910     0.9610    -1.2360 H     1 <1>   0.0800 
 28 H       -2.4340     3.7900    -2.5970 H     1 <1>   0.0800 
 29 H       -1.8860     2.7850    -3.8940 H     1 <1>   0.0800 
 30 H        0.1610     3.1910    -0.3590 H     1 <1>   0.4500 
 31 H       -0.7060     5.0850    -3.5320 H     1 <1>   0.0800 
 32 H        0.2310     3.7040    -3.9670 H     1 <1>   0.0800 
 33 H       -0.7080     2.6240     2.1690 H     1 <1>   0.1500 
 34 H        1.4790     4.7380    -2.2720 H     1 <1>   0.0800 
 35 H        0.0760     5.0410    -1.2870 H     1 <1>   0.0800 
 36 H        2.8690     3.0340    -1.3410 H     1 <1>   0.0800 
 37 H        2.1970     1.9240    -0.1590 H     1 <1>   0.0800 
 38 H        0.9310    -1.7060     0.7980 H     1 <1>   0.1500 
 39 H        1.3180     1.7350     3.2770 H     1 <1>   0.1500 
 40 H        2.1270    -0.5090     2.5550 H     1 <1>   0.1500 
 41 H        4.4620     4.1710     0.6270 H     1 <1>   0.1500 
 42 H        3.7790     5.9260     2.5570 H     1 <1>   0.1500 
 43 H        1.5360     6.2700     3.8740 H     1 <1>   0.0800 
 44 H        0.0830     5.6000     3.1780 H     1 <1>   0.0800 
 45 H        1.5490     8.0530     2.1320 H     1 <1>   0.0800 
 46 H        0.0540     8.0750     3.0320 H     1 <1>   0.0800 
 47 H        0.0880     7.3710     1.4360 H     1 <1>   0.0800 
@<TRIPOS>BOND
  1   1   2  1   
  2   1   3  1   
  3   2   4  1   
  4   2   5  1   
  5   2  23  1   
  6   3   6  1   
  7   3  24  1   
  8   3  25  1   
  9   4   7  1   
 10   4  26  1   
 11   4  27  1   
 12   5   8  1   
 13   5  28  1   
 14   5  29  1   
 15   6   9  ar  
 16   6  10  ar  
 17   7  11  1   
 18   7  12  1   
 19   7  30  1   
 20   8  11  1   
 21   8  31  1   
 22   8  32  1   
 23   9  13  ar  
 24  10  14  ar  
 25  10  33  1   
 26  11  34  1   
 27  11  35  1   
 28  12  15  1   
 29  12  36  1   
 30  12  37  1   
 31  13  16  ar  
 32  13  38  1   
 33  14  16  ar  
 34  14  39  1   
 35  15  17  2   
 36  15  18  1   
 37  16  40  1   
 38  17  19  1   
 39  18  20  2   
 40  18  41  1   
 41  19  20  1   
 42  19  21  1   
 43  20  42  1   
 44  21  22  1   
 45  21  43  1   
 46  21  44  1   
 47  22  45  1   
 48  22  46  1   
 49  22  47  1   
@<TRIPOS>SUBSTRUCTURE
  1 ****   7 GROUP 4 **** **** 0

# MOE 2024.06 (io_trps.svl 2023.06)
