@<TRIPOS>MOLECULE
NONAME
47 49 1 0 0 
SMALL
USER_CHARGES


@<TRIPOS>ATOM
  1 CL      -0.2160     0.1380    -0.4340 Cl    1 <1>  -0.1770 
  2 C        0.1680     1.7910    -0.0350 C.ar  1 <1>   0.1770 
  3 C        0.5230     2.6840    -1.0310 C.ar  1 <1>   0.1600 
  4 C        0.1190     2.2090     1.2740 C.ar  1 <1>  -0.1500 
  5 N        0.8300     3.9560    -0.8180 N.ar  1 <1>  -0.6200 
  6 C        0.4330     3.5320     1.5050 C.ar  1 <1>  -0.1500 
  7 C        0.7800     4.3910     0.4560 C.ar  1 <1>   0.3960 
  8 C        1.1030     5.7910     0.7530 C.2   1 <1>   0.5440 
  9 O        1.5610     6.1240     1.8350 O.2   1 <1>  -0.5700 
 10 N        0.9800     6.8040    -0.1730 N.am  1 <1>  -0.6600 
 11 C        2.0210     6.9660    -1.2340 C.3   1 <1>   0.1400 
 12 C        0.1500     8.0080     0.1040 C.3   1 <1>   0.1400 
 13 C        3.3610     7.4420    -0.6340 C.3   1 <1>   0.3430 
 14 C        0.8820     9.0430     0.9750 C.3   1 <1>  -0.1600 
 15 N        3.1650     8.1860     0.6540 N.4   1 <1>  -0.9590 
 16 C        2.3060     9.3910     0.5340 C.3   1 <1>   0.3430 
 17 C        4.4390     8.4330     1.3810 C.3   1 <1>   0.5230 
 18 C        5.3680     9.3720     0.6280 C.2   1 <1>  -0.1400 
 19 S        6.9420     9.5770     1.3770 S.3   1 <1>  -0.0800 
 20 C        5.2950    10.1110    -0.4990 C.2   1 <1>  -0.1500 
 21 C        7.4670    10.6780     0.1170 C.2   1 <1>  -0.1400 
 22 C        6.4850    10.8500    -0.7870 C.2   1 <1>  -0.1500 
 23 C        8.8770    11.2310     0.2470 C.3   1 <1>   0.0200 
 24 C        9.2360    12.1790    -0.9000 C.3   1 <1>  -0.2400 
 25 H        0.5510     2.3240    -2.0460 H     1 <1>   0.1500 
 26 H       -0.1530     1.5310     2.0650 H     1 <1>   0.1500 
 27 H        0.4110     3.9150     2.5110 H     1 <1>   0.1500 
 28 H        1.6810     7.6770    -1.9670 H     1 <1>   0.0800 
 29 H        2.1720     6.0310    -1.7470 H     1 <1>   0.0800 
 30 H       -0.7530     7.7010     0.6060 H     1 <1>   0.0800 
 31 H       -0.1430     8.4560    -0.8320 H     1 <1>   0.0800 
 32 H        3.8860     8.0500    -1.3510 H     1 <1>   0.0800 
 33 H        3.9680     6.5710    -0.4450 H     1 <1>   0.0800 
 34 H        0.8970     8.7030     1.9960 H     1 <1>   0.0800 
 35 H        0.2990     9.9470     0.9680 H     1 <1>   0.0800 
 36 H        2.6050     7.5250     1.2380 H     1 <1>   0.4500 
 37 H        2.6860    10.1750     1.1690 H     1 <1>   0.0800 
 38 H        2.3050     9.7520    -0.4810 H     1 <1>   0.0800 
 39 H        4.9480     7.4960     1.5390 H     1 <1>   0.0800 
 40 H        4.2270     8.8560     2.3500 H     1 <1>   0.0800 
 41 H        4.4590    10.1930    -1.1690 H     1 <1>   0.1500 
 42 H        6.5480    11.4770    -1.6600 H     1 <1>   0.1500 
 43 H        9.5740    10.4120     0.2630 H     1 <1>   0.0800 
 44 H        8.9610    11.7580     1.1820 H     1 <1>   0.0800 
 45 H        9.1790    11.6630    -1.8430 H     1 <1>   0.0800 
 46 H       10.2380    12.5470    -0.7720 H     1 <1>   0.0800 
 47 H        8.5620    13.0170    -0.9180 H     1 <1>   0.0800 
@<TRIPOS>BOND
  1   1   2  1   
  2   2   3  ar  
  3   2   4  ar  
  4   3   5  ar  
  5   3  25  1   
  6   4   6  ar  
  7   4  26  1   
  8   5   7  ar  
  9   6   7  ar  
 10   6  27  1   
 11   7   8  1   
 12   8   9  2   
 13   8  10  am  
 14  10  11  1   
 15  10  12  1   
 16  11  13  1   
 17  11  28  1   
 18  11  29  1   
 19  12  14  1   
 20  12  30  1   
 21  12  31  1   
 22  13  15  1   
 23  13  32  1   
 24  13  33  1   
 25  14  16  1   
 26  14  34  1   
 27  14  35  1   
 28  15  16  1   
 29  15  17  1   
 30  15  36  1   
 31  16  37  1   
 32  16  38  1   
 33  17  18  1   
 34  17  39  1   
 35  17  40  1   
 36  18  19  1   
 37  18  20  2   
 38  19  21  1   
 39  20  22  1   
 40  20  41  1   
 41  21  22  2   
 42  21  23  1   
 43  22  42  1   
 44  23  24  1   
 45  23  43  1   
 46  23  44  1   
 47  24  45  1   
 48  24  46  1   
 49  24  47  1   
@<TRIPOS>SUBSTRUCTURE
  1 ****  13 GROUP 4 **** **** 0

# MOE 2024.06 (io_trps.svl 2023.06)
