@<TRIPOS>MOLECULE
NONAME
41 42 1 0 0 
SMALL
USER_CHARGES


@<TRIPOS>ATOM
  1 CL       1.5620     0.8100    -1.6170 Cl    1 <1>  -0.1770 
  2 C        0.5970     1.8870    -0.6310 C.ar  1 <1>   0.1770 
  3 C        1.1140     2.4920     0.5120 C.ar  1 <1>  -0.1440 
  4 C       -0.7040     2.1130    -1.0440 C.ar  1 <1>  -0.1500 
  5 C        0.2820     3.3440     1.2290 C.ar  1 <1>  -0.1500 
  6 C        2.5400     2.2650     1.0140 C.3   1 <1>   0.3640 
  7 C       -1.5180     2.9600    -0.3150 C.ar  1 <1>  -0.1500 
  8 C       -1.0210     3.5760     0.8210 C.ar  1 <1>  -0.1500 
  9 N        2.7000     0.8260     1.3370 N.am  1 <1>  -0.7300 
 10 C        3.6270     2.8030     0.0400 C.3   1 <1>   0.2610 
 11 C        3.7190     0.0650     0.8840 C.2   1 <1>   0.5690 
 12 O        4.8620     2.1020     0.1790 O.3   1 <1>  -0.5600 
 13 C        3.8370     4.3020     0.2830 C.2   1 <1>   0.5690 
 14 O        3.7950    -1.1020     1.1750 O.2   1 <1>  -0.5700 
 15 C        4.7690     0.7090    -0.0220 C.3   1 <1>   0.1810 
 16 O        2.8880     5.0500     0.2590 O.2   1 <1>  -0.5700 
 17 N        5.0930     4.7590     0.5320 N.am  1 <1>  -0.7300 
 18 C        5.4870     6.1670     0.7310 C.3   1 <1>   0.1400 
 19 C        6.6430     6.4940    -0.2090 C.3   1 <1>  -0.1600 
 20 C        7.0560     7.9570    -0.0700 C.3   1 <1>   0.1200 
 21 O        8.1340     8.1690    -0.9170 O.3   1 <1>  -0.5600 
 22 C        8.6080     9.4760    -0.9130 C.3   1 <1>   0.0400 
 23 H       -1.0730     1.6290    -1.9300 H     1 <1>   0.1500 
 24 H        0.6430     3.8440     2.1120 H     1 <1>   0.1500 
 25 H        2.6580     2.8020     1.9400 H     1 <1>   0.0800 
 26 H       -2.5310     3.1430    -0.6300 H     1 <1>   0.1500 
 27 H       -1.6490     4.2420     1.3880 H     1 <1>   0.1500 
 28 H        1.9700     0.3800     1.8950 H     1 <1>   0.3700 
 29 H        3.3050     2.6870    -0.9770 H     1 <1>   0.0800 
 30 H        4.5220     0.5250    -1.0520 H     1 <1>   0.0800 
 31 H        5.7320     0.2800     0.1880 H     1 <1>   0.0800 
 32 H        5.8460     4.0630     0.5360 H     1 <1>   0.3700 
 33 H        4.6490     6.8130     0.5260 H     1 <1>   0.0800 
 34 H        5.7860     6.3090     1.7560 H     1 <1>   0.0800 
 35 H        6.3370     6.3160    -1.2250 H     1 <1>   0.0800 
 36 H        7.4860     5.8700     0.0270 H     1 <1>   0.0800 
 37 H        7.3630     8.1750     0.9390 H     1 <1>   0.0800 
 38 H        6.2500     8.6100    -0.3620 H     1 <1>   0.0800 
 39 H        9.4370     9.5320    -1.5960 H     1 <1>   0.0800 
 40 H        8.9380     9.7320     0.0790 H     1 <1>   0.0800 
 41 H        7.8250    10.1400    -1.2380 H     1 <1>   0.0800 
@<TRIPOS>BOND
  1   1   2  1   
  2   2   3  ar  
  3   2   4  ar  
  4   3   5  ar  
  5   3   6  1   
  6   4   7  ar  
  7   4  23  1   
  8   5   8  ar  
  9   5  24  1   
 10   6   9  1   
 11   6  10  1   
 12   6  25  1   
 13   7   8  ar  
 14   7  26  1   
 15   8  27  1   
 16   9  11  am  
 17   9  28  1   
 18  10  12  1   
 19  10  13  1   
 20  10  29  1   
 21  11  14  2   
 22  11  15  1   
 23  12  15  1   
 24  13  16  2   
 25  13  17  am  
 26  15  30  1   
 27  15  31  1   
 28  17  18  1   
 29  17  32  1   
 30  18  19  1   
 31  18  33  1   
 32  18  34  1   
 33  19  20  1   
 34  19  35  1   
 35  19  36  1   
 36  20  21  1   
 37  20  37  1   
 38  20  38  1   
 39  21  22  1   
 40  22  39  1   
 41  22  40  1   
 42  22  41  1   
@<TRIPOS>SUBSTRUCTURE
  1 ****  10 GROUP 4 **** **** 0

# MOE 2024.06 (io_trps.svl 2023.06)
