@<TRIPOS>MOLECULE
NONAME
53 56 1 0 0 
SMALL
USER_CHARGES


@<TRIPOS>ATOM
  1 F       -1.1680    -1.1630     2.4200 F     1 <1>  -0.3400 
  2 C       -1.6610    -2.1570     1.6890 C.3   1 <1>   1.1640 
  3 F       -2.5430    -1.6020     0.8650 F     1 <1>  -0.3400 
  4 F       -2.3570    -2.9190     2.5240 F     1 <1>  -0.3400 
  5 C       -0.5720    -2.9580     0.9580 C.ar  1 <1>  -0.1440 
  6 C       -0.8720    -3.6530    -0.2090 C.ar  1 <1>  -0.1500 
  7 C        0.7290    -3.0180     1.4480 C.ar  1 <1>  -0.1500 
  8 C        0.0940    -4.3910    -0.8750 C.ar  1 <1>  -0.1440 
  9 C        1.7000    -3.7480     0.7860 C.ar  1 <1>  -0.1500 
 10 C        1.3840    -4.4310    -0.3730 C.ar  1 <1>  -0.1500 
 11 C       -0.2700    -5.1420    -2.1480 C.3   1 <1>   0.2840 
 12 N       -1.2300    -6.2460    -1.8530 N.am  1 <1>  -0.6600 
 13 C       -2.5520    -6.1130    -2.1980 C.2   1 <1>   0.5690 
 14 C       -0.5990    -7.4790    -1.2790 C.3   1 <1>   0.1400 
 15 O       -2.9700    -5.0700    -2.6420 O.2   1 <1>  -0.5700 
 16 C       -3.5840    -7.2250    -2.1010 C.3   1 <1>  -0.0990 
 17 C       -1.2810    -8.0710    -0.0060 C.3   1 <1>   0.2800 
 18 C       -3.1970    -8.5100    -1.3750 C.3   1 <1>   0.1200 
 19 O       -2.6730    -8.1800    -0.1320 O.3   1 <1>  -0.5600 
 20 C       -1.0820    -7.1400     1.2020 C.3   1 <1>  -0.1600 
 21 C       -0.7440    -9.4970     0.2810 C.3   1 <1>  -0.1600 
 22 C        0.3620    -7.1370     1.7110 C.3   1 <1>   0.2090 
 23 C       -0.0430    -9.6270     1.6330 C.3   1 <1>   0.2090 
 24 N        0.9300    -8.5180     1.7800 N.pl3 1 <1>  -0.8380 
 25 C        2.2170    -8.7450     1.3210 C.ar  1 <1>   0.4100 
 26 N        2.5170    -8.2980     0.1060 N.ar  1 <1>  -0.6200 
 27 C        3.1420    -9.4460     2.1140 C.ar  1 <1>   0.1600 
 28 C        3.7580    -8.5910    -0.2450 C.ar  1 <1>   0.1600 
 29 N        4.3800    -9.7420     1.7620 N.ar  1 <1>  -0.6200 
 30 C        4.6590    -9.2870     0.5500 C.ar  1 <1>   0.1600 
 31 H       -1.8740    -3.6300    -0.6120 H     1 <1>   0.1500 
 32 H        0.9970    -2.4960     2.3520 H     1 <1>   0.1500 
 33 H        2.7030    -3.7860     1.1740 H     1 <1>   0.1500 
 34 H        2.1480    -5.0010    -0.8760 H     1 <1>   0.1500 
 35 H        0.6130    -5.5520    -2.6030 H     1 <1>   0.0800 
 36 H       -0.6950    -4.4470    -2.8520 H     1 <1>   0.0800 
 37 H        0.4230    -7.2630    -1.0300 H     1 <1>   0.0800 
 38 H       -0.5580    -8.2250    -2.0510 H     1 <1>   0.0800 
 39 H       -3.8880    -7.4750    -3.0990 H     1 <1>   0.0800 
 40 H       -4.4450    -6.8170    -1.6050 H     1 <1>   0.0800 
 41 H       -2.5000    -9.1080    -1.9360 H     1 <1>   0.0800 
 42 H       -4.0800    -9.1010    -1.2020 H     1 <1>   0.0800 
 43 H       -1.7230    -7.4560     2.0060 H     1 <1>   0.0800 
 44 H       -1.3680    -6.1380     0.9440 H     1 <1>   0.0800 
 45 H       -0.0300    -9.7810    -0.4710 H     1 <1>   0.0800 
 46 H       -1.5430   -10.2150     0.2470 H     1 <1>   0.0800 
 47 H        0.3950    -6.6940     2.6910 H     1 <1>   0.0800 
 48 H        0.9690    -6.5310     1.0650 H     1 <1>   0.0800 
 49 H        0.4640   -10.5760     1.6930 H     1 <1>   0.0800 
 50 H       -0.7620    -9.5800     2.4340 H     1 <1>   0.0800 
 51 H        2.8090    -9.7640     3.0840 H     1 <1>   0.1500 
 52 H        4.0820    -8.2640    -1.2170 H     1 <1>   0.1500 
 53 H        5.6480    -9.4770     0.1730 H     1 <1>   0.1500 
@<TRIPOS>BOND
  1   1   2  1   
  2   2   3  1   
  3   2   4  1   
  4   2   5  1   
  5   5   6  ar  
  6   5   7  ar  
  7   6   8  ar  
  8   6  31  1   
  9   7   9  ar  
 10   7  32  1   
 11   8  10  ar  
 12   8  11  1   
 13   9  10  ar  
 14   9  33  1   
 15  10  34  1   
 16  11  12  1   
 17  11  35  1   
 18  11  36  1   
 19  12  13  am  
 20  12  14  1   
 21  13  15  2   
 22  13  16  1   
 23  14  17  1   
 24  14  37  1   
 25  14  38  1   
 26  16  18  1   
 27  16  39  1   
 28  16  40  1   
 29  17  19  1   
 30  17  20  1   
 31  17  21  1   
 32  18  19  1   
 33  18  41  1   
 34  18  42  1   
 35  20  22  1   
 36  20  43  1   
 37  20  44  1   
 38  21  23  1   
 39  21  45  1   
 40  21  46  1   
 41  22  24  1   
 42  22  47  1   
 43  22  48  1   
 44  23  24  1   
 45  23  49  1   
 46  23  50  1   
 47  24  25  1   
 48  25  26  ar  
 49  25  27  ar  
 50  26  28  ar  
 51  27  29  ar  
 52  27  51  1   
 53  28  30  ar  
 54  28  52  1   
 55  29  30  ar  
 56  30  53  1   
@<TRIPOS>SUBSTRUCTURE
  1 ****  20 GROUP 4 **** **** 0

# MOE 2024.06 (io_trps.svl 2023.06)
