@<TRIPOS>MOLECULE
NONAME
47 50 1 0 0 
SMALL
USER_CHARGES


@<TRIPOS>ATOM
  1 O        1.8640     1.0670    -1.3450 O.2   1 <1>  -0.5700 
  2 C        2.1570     0.3070    -0.4310 C.2   1 <1>   0.5440 
  3 N        3.1020     0.6860     0.5180 N.am  1 <1>  -0.2980 
  4 C        1.5650    -0.9970    -0.3090 C.ar  1 <1>   0.0860 
  5 N        3.5380    -0.1270     1.5360 N.2   1 <1>  -0.5120 
  6 C        3.7060     2.0420     0.4600 C.3   1 <1>   0.1400 
  7 C        2.0050    -1.8120     0.7440 C.ar  1 <1>   0.0860 
  8 C        0.5870    -1.4860    -1.1800 C.ar  1 <1>  -0.1500 
  9 C        3.0070    -1.2950     1.6220 C.2   1 <1>   0.3040 
 10 C        4.8750     2.0490    -0.5290 C.3   1 <1>   0.2090 
 11 C        1.4530    -3.0890     0.8930 C.ar  1 <1>  -0.1500 
 12 C        0.0540    -2.7460    -1.0180 C.ar  1 <1>  -0.1500 
 13 N        5.5170     3.3900    -0.6030 N.pl3 1 <1>  -0.8690 
 14 C        0.4890    -3.5520     0.0250 C.ar  1 <1>  -0.1500 
 15 C        6.1780     3.9770     0.4460 C.ar  1 <1>   0.4100 
 16 N        6.0390     5.2850     0.4700 N.ar  1 <1>  -0.6200 
 17 C        6.9270     3.2680     1.3990 C.ar  1 <1>   0.1600 
 18 C        6.6830     5.8840     1.4880 C.ar  1 <1>   0.3960 
 19 N        7.5580     3.8180     2.4160 N.ar  1 <1>  -0.6200 
 20 C        6.6530     7.3400     1.6650 C.2   1 <1>   0.5440 
 21 C        7.4070     5.1360     2.4240 C.ar  1 <1>   0.1600 
 22 O        6.7570     7.7970     2.7920 O.2   1 <1>  -0.5700 
 23 N        6.5470     8.2520     0.6280 N.am  1 <1>  -0.6600 
 24 C        6.6360     9.7150     0.8370 C.3   1 <1>   0.1400 
 25 C        6.5060     7.9310    -0.8180 C.3   1 <1>   0.1400 
 26 C        7.0330    10.2750    -0.5230 C.3   1 <1>  -0.1600 
 27 C        6.4600     9.2810    -1.5280 C.3   1 <1>  -0.1600 
 28 H        4.0560     2.3080     1.4420 H     1 <1>   0.0800 
 29 H        2.9610     2.7550     0.1550 H     1 <1>   0.0800 
 30 H        0.2500    -0.8580    -1.9890 H     1 <1>   0.1500 
 31 H        3.3320    -1.9470     2.4130 H     1 <1>   0.0600 
 32 H        4.5120     1.7870    -1.5090 H     1 <1>   0.0800 
 33 H        5.6030     1.3140    -0.2320 H     1 <1>   0.0800 
 34 H        1.7880    -3.7180     1.7010 H     1 <1>   0.1500 
 35 H       -0.7000    -3.1100    -1.6970 H     1 <1>   0.1500 
 36 H        4.9750     4.0780    -1.1350 H     1 <1>   0.4000 
 37 H        0.0700    -4.5370     0.1470 H     1 <1>   0.1500 
 38 H        6.9940     2.2020     1.2960 H     1 <1>   0.1500 
 39 H        7.8910     5.6660     3.2260 H     1 <1>   0.1500 
 40 H        7.3630     9.9580     1.5940 H     1 <1>   0.0800 
 41 H        5.6690    10.0840     1.1330 H     1 <1>   0.0800 
 42 H        5.6340     7.3450    -1.0560 H     1 <1>   0.0800 
 43 H        7.3950     7.3880    -1.0880 H     1 <1>   0.0800 
 44 H        8.1070    10.2890    -0.5930 H     1 <1>   0.0800 
 45 H        6.6570    11.2720    -0.6690 H     1 <1>   0.0800 
 46 H        5.4340     9.5270    -1.7390 H     1 <1>   0.0800 
 47 H        7.0120     9.2650    -2.4500 H     1 <1>   0.0800 
@<TRIPOS>BOND
  1   1   2  2   
  2   2   3  am  
  3   2   4  1   
  4   3   5  1   
  5   3   6  1   
  6   4   7  ar  
  7   4   8  ar  
  8   5   9  2   
  9   6  10  1   
 10   6  28  1   
 11   6  29  1   
 12   7   9  1   
 13   7  11  ar  
 14   8  12  ar  
 15   8  30  1   
 16   9  31  1   
 17  10  13  1   
 18  10  32  1   
 19  10  33  1   
 20  11  14  ar  
 21  11  34  1   
 22  12  14  ar  
 23  12  35  1   
 24  13  15  1   
 25  13  36  1   
 26  14  37  1   
 27  15  16  ar  
 28  15  17  ar  
 29  16  18  ar  
 30  17  19  ar  
 31  17  38  1   
 32  18  20  1   
 33  18  21  ar  
 34  19  21  ar  
 35  20  22  2   
 36  20  23  am  
 37  21  39  1   
 38  23  24  1   
 39  23  25  1   
 40  24  26  1   
 41  24  40  1   
 42  24  41  1   
 43  25  27  1   
 44  25  42  1   
 45  25  43  1   
 46  26  27  1   
 47  26  44  1   
 48  26  45  1   
 49  27  46  1   
 50  27  47  1   
@<TRIPOS>SUBSTRUCTURE
  1 ****   6 GROUP 4 **** **** 0

# MOE 2024.06 (io_trps.svl 2023.06)
