@<TRIPOS>MOLECULE
NONAME
58 62 1 0 0 
SMALL
USER_CHARGES


@<TRIPOS>ATOM
  1 S        0.5830    -0.3330     0.0130 S.3   1 <1>  -0.0800 
  2 C       -0.2180    -1.0530     1.3900 C.2   1 <1>   0.2280 
  3 C       -0.5470    -1.1470    -1.0310 C.2   1 <1>  -0.1100 
  4 N       -1.2130    -1.7900     1.0890 N.2   1 <1>  -0.5650 
  5 C       -1.4020    -1.8570    -0.2770 C.2   1 <1>   0.0460 
  6 C       -2.5400    -2.7260    -0.7860 C.3   1 <1>   0.0210 
  7 C       -3.9200    -2.4760    -0.0980 C.3   1 <1>   0.0610 
  8 C       -4.0660    -3.4440     1.0830 C.2   1 <1>   0.5690 
  9 C       -4.0970    -0.9970     0.3340 C.3   1 <1>   0.4230 
 10 C       -5.0700    -2.5980    -1.1420 C.3   1 <1>  -0.1600 
 11 O       -3.9460    -3.0400     2.2120 O.2   1 <1>  -0.5700 
 12 N       -4.3620    -4.7450     0.8350 N.am  1 <1>  -0.7300 
 13 N       -4.3970    -0.3660    -0.9590 N.4   1 <1>  -0.9060 
 14 C       -5.4320    -0.7020     1.0480 C.3   1 <1>  -0.1600 
 15 C       -5.5860    -1.1570    -1.2830 C.3   1 <1>   0.4230 
 16 C       -4.7420    -5.7260     1.8660 C.3   1 <1>   0.3210 
 17 C       -6.4660    -0.8290    -0.0790 C.3   1 <1>  -0.1600 
 18 C       -6.1230    -6.2190     1.4890 C.2   1 <1>  -0.1810 
 19 C       -7.3240    -5.6150     1.8490 C.2   1 <1>   0.1080 
 20 C       -6.4860    -7.2830     0.7390 C.2   1 <1>  -0.3320 
 21 N       -8.3460    -6.2340     1.3600 N.2   1 <1>  -0.7070 
 22 C       -7.4770    -4.3820     2.7130 C.3   1 <1>  -0.0590 
 23 N       -7.8480    -7.2940     0.6800 N.pl3 1 <1>   0.5930 
 24 C       -5.6050    -8.3150     0.0450 C.3   1 <1>  -0.0600 
 25 C       -8.6800    -8.2230    -0.0060 C.ar  1 <1>  -0.0230 
 26 C       -8.6890    -9.5710     0.3530 C.ar  1 <1>  -0.1500 
 27 C       -9.4990    -7.7920    -1.0500 C.ar  1 <1>  -0.1500 
 28 C       -9.4850   -10.4770    -0.3260 C.ar  1 <1>  -0.1500 
 29 C      -10.2990    -8.6880    -1.7370 C.ar  1 <1>  -0.1500 
 30 C      -10.2740   -10.0170    -1.3620 C.ar  1 <1>   0.1900 
 31 F      -11.0250   -10.8690    -2.0090 F     1 <1>  -0.1900 
 32 H        0.1770    -0.8230     2.3650 H     1 <1>   0.1500 
 33 H       -0.4290    -1.0070    -2.0900 H     1 <1>   0.1500 
 34 H       -2.6040    -2.5640    -1.8460 H     1 <1>   0.0800 
 35 H       -2.2510    -3.7540    -0.6530 H     1 <1>   0.0800 
 36 H       -3.2440    -0.5830     0.8480 H     1 <1>   0.0800 
 37 H       -5.8640    -3.2440    -0.8050 H     1 <1>   0.0800 
 38 H       -4.7390    -2.9690    -2.0950 H     1 <1>   0.0800 
 39 H       -4.5280    -5.0900    -0.1100 H     1 <1>   0.3700 
 40 H       -4.6250     0.6250    -0.8290 H     1 <1>   0.4500 
 41 H       -3.6280    -0.4720    -1.6270 H     1 <1>   0.4500 
 42 H       -5.6480    -1.3650     1.8650 H     1 <1>   0.0800 
 43 H       -5.4180     0.3000     1.4420 H     1 <1>   0.0800 
 44 H       -6.0380    -0.9300    -2.2370 H     1 <1>   0.0800 
 45 H       -4.0380    -6.5390     1.8690 H     1 <1>   0.0800 
 46 H       -4.7520    -5.2790     2.8460 H     1 <1>   0.0800 
 47 H       -6.9890     0.1000    -0.2330 H     1 <1>   0.0800 
 48 H       -7.1910    -1.6020     0.1160 H     1 <1>   0.0800 
 49 H       -6.7070    -3.6670     2.4960 H     1 <1>   0.0800 
 50 H       -7.4170    -4.6610     3.7490 H     1 <1>   0.0800 
 51 H       -8.4340    -3.9280     2.5340 H     1 <1>   0.0800 
 52 H       -4.5660    -8.0530     0.1300 H     1 <1>   0.0800 
 53 H       -5.8560    -8.3760    -0.9990 H     1 <1>   0.0800 
 54 H       -5.7450    -9.2840     0.4910 H     1 <1>   0.0800 
 55 H       -8.0750    -9.9090     1.1710 H     1 <1>   0.1500 
 56 H       -9.5090    -6.7480    -1.3160 H     1 <1>   0.1500 
 57 H       -9.4990   -11.5190    -0.0600 H     1 <1>   0.1500 
 58 H      -10.9330    -8.3660    -2.5430 H     1 <1>   0.1500 
@<TRIPOS>BOND
  1   1   2  1   
  2   1   3  1   
  3   2   4  2   
  4   2  32  1   
  5   3   5  2   
  6   3  33  1   
  7   4   5  1   
  8   5   6  1   
  9   6   7  1   
 10   6  34  1   
 11   6  35  1   
 12   7   8  1   
 13   7   9  1   
 14   7  10  1   
 15   8  11  2   
 16   8  12  am  
 17   9  13  1   
 18   9  14  1   
 19   9  36  1   
 20  10  15  1   
 21  10  37  1   
 22  10  38  1   
 23  12  16  1   
 24  12  39  1   
 25  13  15  1   
 26  13  40  1   
 27  13  41  1   
 28  14  17  1   
 29  14  42  1   
 30  14  43  1   
 31  15  17  1   
 32  15  44  1   
 33  16  18  1   
 34  16  45  1   
 35  16  46  1   
 36  17  47  1   
 37  17  48  1   
 38  18  19  1   
 39  18  20  2   
 40  19  21  2   
 41  19  22  1   
 42  20  23  1   
 43  20  24  1   
 44  21  23  1   
 45  22  49  1   
 46  22  50  1   
 47  22  51  1   
 48  23  25  1   
 49  24  52  1   
 50  24  53  1   
 51  24  54  1   
 52  25  26  ar  
 53  25  27  ar  
 54  26  28  ar  
 55  26  55  1   
 56  27  29  ar  
 57  27  56  1   
 58  28  30  ar  
 59  28  57  1   
 60  29  30  ar  
 61  29  58  1   
 62  30  31  1   
@<TRIPOS>SUBSTRUCTURE
  1 ****  12 GROUP 4 **** **** 0

# MOE 2024.06 (io_trps.svl 2023.06)
