@<TRIPOS>MOLECULE
NONAME
47 50 1 0 0 
SMALL
USER_CHARGES


@<TRIPOS>ATOM
  1 O        0.7120     1.6260     1.1520 O.co2 1 <1>  -0.9000 
  2 C        1.6920     0.8870     1.0990 C.2   1 <1>   0.9060 
  3 O        2.1180     0.2970     2.1060 O.co2 1 <1>  -0.9000 
  4 C        2.3520     0.6270    -0.2670 C.3   1 <1>  -0.1060 
  5 C        3.6120    -0.2430    -0.0960 C.3   1 <1>   0.4230 
  6 C        2.7250     2.0030    -0.9060 C.3   1 <1>  -0.1600 
  7 C        1.3820    -0.1660    -1.1750 C.3   1 <1>  -0.1600 
  8 N        3.2760    -1.5250     0.6130 N.4   1 <1>  -0.9590 
  9 C        4.7490     0.6170     0.4890 C.3   1 <1>   0.2090 
 10 C        4.1340     2.0900    -1.5120 C.3   1 <1>   0.2090 
 11 C        1.0670    -1.5410    -0.5550 C.3   1 <1>  -0.1600 
 12 C        2.3200    -2.3440    -0.1800 C.3   1 <1>   0.3430 
 13 C        4.4360    -2.3090     1.1090 C.3   1 <1>   0.2630 
 14 N        5.1800     1.6180    -0.5410 N.pl3 1 <1>  -0.8210 
 15 C        6.2350     2.4630    -0.1920 C.2   1 <1>   0.5990 
 16 N        6.9840     2.3000     0.8350 N.2   1 <1>  -0.4100 
 17 N        6.5570     3.5180    -0.9470 N.2   1 <1>  -0.5650 
 18 O        7.8120     3.2850     0.7580 O.3   1 <1>  -0.0190 
 19 C        7.5540     4.0060    -0.3000 C.2   1 <1>   0.4250 
 20 C        8.3400     5.1790    -0.6160 C.ar  1 <1>   0.0530 
 21 C        9.4210     5.5790     0.1730 C.ar  1 <1>  -0.1500 
 22 C        8.0390     5.9610    -1.7330 C.ar  1 <1>  -0.1500 
 23 C       10.1640     6.7030    -0.1380 C.ar  1 <1>  -0.1500 
 24 C        8.7780     7.0860    -2.0490 C.ar  1 <1>  -0.1500 
 25 C        9.8440     7.4600    -1.2510 C.ar  1 <1>  -0.1500 
 26 H        3.9490    -0.5160    -1.0800 H     1 <1>   0.0800 
 27 H        2.6740     2.7700    -0.1500 H     1 <1>   0.0800 
 28 H        1.9970     2.2790    -1.6480 H     1 <1>   0.0800 
 29 H        0.4640     0.3880    -1.2880 H     1 <1>   0.0800 
 30 H        1.8140    -0.2950    -2.1520 H     1 <1>   0.0800 
 31 H        2.7500    -1.1490     1.4490 H     1 <1>   0.4500 
 32 H        5.5970     0.0060     0.7330 H     1 <1>   0.0800 
 33 H        4.4210     1.1300     1.3780 H     1 <1>   0.0800 
 34 H        4.3130     3.1080    -1.8120 H     1 <1>   0.0800 
 35 H        4.1850     1.4800    -2.3970 H     1 <1>   0.0800 
 36 H        0.4750    -2.1150    -1.2460 H     1 <1>   0.0800 
 37 H        0.4680    -1.4060     0.3300 H     1 <1>   0.0800 
 38 H        2.8050    -2.6800    -1.0820 H     1 <1>   0.0800 
 39 H        2.0250    -3.2110     0.3880 H     1 <1>   0.0800 
 40 H        5.0650    -2.6100     0.2880 H     1 <1>   0.0800 
 41 H        4.0920    -3.1880     1.6290 H     1 <1>   0.0800 
 42 H        5.0160    -1.7170     1.7980 H     1 <1>   0.0800 
 43 H        9.6890     5.0060     1.0430 H     1 <1>   0.1500 
 44 H        7.2120     5.6800    -2.3610 H     1 <1>   0.1500 
 45 H       10.9940     6.9920     0.4850 H     1 <1>   0.1500 
 46 H        8.5250     7.6710    -2.9160 H     1 <1>   0.1500 
 47 H       10.4210     8.3350    -1.4950 H     1 <1>   0.1500 
@<TRIPOS>BOND
  1   1   2  ar  
  2   2   3  ar  
  3   2   4  1   
  4   4   5  1   
  5   4   6  1   
  6   4   7  1   
  7   5   8  1   
  8   5   9  1   
  9   5  26  1   
 10   6  10  1   
 11   6  27  1   
 12   6  28  1   
 13   7  11  1   
 14   7  29  1   
 15   7  30  1   
 16   8  12  1   
 17   8  13  1   
 18   8  31  1   
 19   9  14  1   
 20   9  32  1   
 21   9  33  1   
 22  10  14  1   
 23  10  34  1   
 24  10  35  1   
 25  11  12  1   
 26  11  36  1   
 27  11  37  1   
 28  12  38  1   
 29  12  39  1   
 30  13  40  1   
 31  13  41  1   
 32  13  42  1   
 33  14  15  1   
 34  15  16  2   
 35  15  17  1   
 36  16  18  1   
 37  17  19  2   
 38  18  19  1   
 39  19  20  1   
 40  20  21  ar  
 41  20  22  ar  
 42  21  23  ar  
 43  21  43  1   
 44  22  24  ar  
 45  22  44  1   
 46  23  25  ar  
 47  23  45  1   
 48  24  25  ar  
 49  24  46  1   
 50  25  47  1   
@<TRIPOS>SUBSTRUCTURE
  1 ****  14 GROUP 4 **** **** 0

# MOE 2024.06 (io_trps.svl 2023.06)
