@<TRIPOS>MOLECULE
NONAME
52 56 1 0 0 
SMALL
USER_CHARGES


@<TRIPOS>ATOM
  1 O        1.1380    -0.7000    -1.4540 O.3   1 <1>  -0.5600 
  2 C        1.6310    -1.9260    -0.9810 C.3   1 <1>   0.1200 
  3 C        2.0060     0.3900    -1.3110 C.3   1 <1>   0.1200 
  4 C        2.0120    -1.8330     0.5190 C.3   1 <1>   0.5180 
  5 C        2.3870     0.5840     0.1740 C.3   1 <1>   0.4230 
  6 N        2.9510    -0.6930     0.7540 N.4   1 <1>  -0.9590 
  7 C        2.6140    -3.1240     1.1090 C.3   1 <1>  -0.1950 
  8 C        3.3510     1.7860     0.3700 C.3   1 <1>   0.1100 
  9 C        4.3650    -0.9380     0.2930 C.3   1 <1>   0.3430 
 10 C        3.5460    -4.0490     0.3800 C.3   1 <1>  -0.2000 
 11 C        2.1500    -4.4940     0.7130 C.3   1 <1>  -0.2000 
 12 N        4.5610     1.4200     1.1450 N.3   1 <1>  -0.8100 
 13 C        5.2700     0.3000     0.4890 C.3   1 <1>   0.1100 
 14 C        5.4260     2.5740     1.4630 C.3   1 <1>   0.2900 
 15 C        5.9030     3.3020     0.2170 C.2   1 <1>  -0.3320 
 16 N        7.0210     2.9860    -0.4980 N.pl3 1 <1>   0.5930 
 17 C        5.3340     4.3740    -0.3760 C.2   1 <1>  -0.1500 
 18 N        7.1280     3.8150    -1.5640 N.2   1 <1>  -0.7070 
 19 C        7.9590     1.9400    -0.2610 C.ar  1 <1>  -0.0230 
 20 C        6.1380     4.6420    -1.4740 C.2   1 <1>   0.1390 
 21 C        8.2110     0.9910    -1.2490 C.ar  1 <1>  -0.1500 
 22 C        8.6400     1.8370     0.9490 C.ar  1 <1>  -0.1500 
 23 C        9.0880    -0.0540    -1.0200 C.ar  1 <1>  -0.1500 
 24 C        9.5160     0.7910     1.1800 C.ar  1 <1>  -0.1500 
 25 C        9.7370    -0.1580     0.1970 C.ar  1 <1>  -0.1500 
 26 H        0.8530    -2.6560    -1.1190 H     1 <1>   0.0800 
 27 H        2.4740    -2.2110    -1.5840 H     1 <1>   0.0800 
 28 H        2.8760     0.2230    -1.9220 H     1 <1>   0.0800 
 29 H        1.4930     1.2620    -1.6790 H     1 <1>   0.0800 
 30 H        1.0980    -1.6360     1.0550 H     1 <1>   0.0800 
 31 H        1.4760     0.8240     0.6950 H     1 <1>   0.0800 
 32 H        3.0350    -0.5110     1.7610 H     1 <1>   0.4500 
 33 H        2.7770    -3.0070     2.1670 H     1 <1>   0.1000 
 34 H        2.8220     2.5700     0.8830 H     1 <1>   0.0800 
 35 H        3.6420     2.1750    -0.5920 H     1 <1>   0.0800 
 36 H        4.7900    -1.7600     0.8450 H     1 <1>   0.0800 
 37 H        4.3720    -1.2110    -0.7480 H     1 <1>   0.0800 
 38 H        3.7810    -3.9140    -0.6620 H     1 <1>   0.1000 
 39 H        4.3590    -4.5090     0.9190 H     1 <1>   0.1000 
 40 H        2.0250    -5.2420     1.4790 H     1 <1>   0.1000 
 41 H        1.4650    -4.6450    -0.1040 H     1 <1>   0.1000 
 42 H        5.6190     0.6090    -0.4800 H     1 <1>   0.0800 
 43 H        6.1310     0.0190     1.0730 H     1 <1>   0.0800 
 44 H        4.8610     3.2640     2.0670 H     1 <1>   0.0800 
 45 H        6.2570     2.2460     2.0620 H     1 <1>   0.0800 
 46 H        4.4540     4.9270    -0.0970 H     1 <1>   0.1500 
 47 H        5.9670     5.4410    -2.1780 H     1 <1>   0.1500 
 48 H        7.7230     1.0810    -2.2050 H     1 <1>   0.1500 
 49 H        8.4950     2.5810     1.7130 H     1 <1>   0.1500 
 50 H        9.2750    -0.7810    -1.7920 H     1 <1>   0.1500 
 51 H       10.0360     0.7190     2.1200 H     1 <1>   0.1500 
 52 H       10.4230    -0.9690     0.3760 H     1 <1>   0.1500 
@<TRIPOS>BOND
  1   1   2  1   
  2   1   3  1   
  3   2   4  1   
  4   2  26  1   
  5   2  27  1   
  6   3   5  1   
  7   3  28  1   
  8   3  29  1   
  9   4   6  1   
 10   4   7  1   
 11   4  30  1   
 12   5   6  1   
 13   5   8  1   
 14   5  31  1   
 15   6   9  1   
 16   6  32  1   
 17   7  10  1   
 18   7  11  1   
 19   7  33  1   
 20   8  12  1   
 21   8  34  1   
 22   8  35  1   
 23   9  13  1   
 24   9  36  1   
 25   9  37  1   
 26  10  11  1   
 27  10  38  1   
 28  10  39  1   
 29  11  40  1   
 30  11  41  1   
 31  12  13  1   
 32  12  14  1   
 33  13  42  1   
 34  13  43  1   
 35  14  15  1   
 36  14  44  1   
 37  14  45  1   
 38  15  16  1   
 39  15  17  2   
 40  16  18  1   
 41  16  19  1   
 42  17  20  1   
 43  17  46  1   
 44  18  20  2   
 45  19  21  ar  
 46  19  22  ar  
 47  20  47  1   
 48  21  23  ar  
 49  21  48  1   
 50  22  24  ar  
 51  22  49  1   
 52  23  25  ar  
 53  23  50  1   
 54  24  25  ar  
 55  24  51  1   
 56  25  52  1   
@<TRIPOS>SUBSTRUCTURE
  1 ****  13 GROUP 4 **** **** 0

# MOE 2024.06 (io_trps.svl 2023.06)
