@<TRIPOS>MOLECULE
NONAME
56 59 1 0 0 
SMALL
USER_CHARGES


@<TRIPOS>ATOM
  1 O        1.1400     0.1820    -0.4630 O.3   1 <1>  -0.5600 
  2 C        2.3050     0.2010    -1.2230 C.3   1 <1>   0.2000 
  3 C        0.5180    -1.0700    -0.3460 C.3   1 <1>   0.2640 
  4 C        3.5000    -0.1720    -0.3420 C.3   1 <1>  -0.1600 
  5 C        2.4700     1.6160    -1.7720 C.3   1 <1>  -0.1600 
  6 C       -0.7400    -1.0140     0.5180 C.ar  1 <1>   0.1660 
  7 C        4.8060    -0.0600    -1.1300 C.3   1 <1>   0.2090 
  8 C        3.7730     1.7370    -2.5630 C.3   1 <1>   0.2090 
  9 N       -1.4310    -2.1470     0.5850 N.ar  1 <1>  -0.6200 
 10 C       -1.1120     0.1490     1.1810 C.ar  1 <1>  -0.1500 
 11 N        4.9280     1.2930    -1.7310 N.pl3 1 <1>  -0.8380 
 12 C       -2.5240    -2.1160     1.3310 C.ar  1 <1>   0.1600 
 13 C       -2.2530     0.1660     1.9550 C.ar  1 <1>  -0.1500 
 14 C        5.7190     2.2400    -1.1030 C.ar  1 <1>   0.4100 
 15 C       -2.9720    -1.0060     2.0250 C.ar  1 <1>  -0.1500 
 16 N        5.1770     3.3660    -0.7550 N.ar  1 <1>  -0.6200 
 17 C        7.0700     1.9590    -0.8620 C.ar  1 <1>  -0.1500 
 18 C        5.9370     4.2930    -0.1130 C.ar  1 <1>   0.3100 
 19 C        7.8790     2.8470    -0.2230 C.ar  1 <1>  -0.1440 
 20 C        7.3110     4.0850     0.1980 C.ar  1 <1>   0.0000 
 21 C        5.3100     5.5140     0.2580 C.ar  1 <1>   0.0820 
 22 C        9.3360     2.4490    -0.0140 C.3   1 <1>  -0.0970 
 23 C        7.9960     5.1240     0.8950 C.ar  1 <1>   0.0820 
 24 O        3.9910     5.6820    -0.0660 O.3   1 <1>  -0.3620 
 25 C        6.0140     6.4900     0.9220 C.ar  1 <1>  -0.1500 
 26 O        9.3050     4.9420     1.2190 O.3   1 <1>  -0.3620 
 27 C        7.3520     6.2920     1.2400 C.ar  1 <1>  -0.1500 
 28 C        3.2530     6.8200     0.3180 C.3   1 <1>   0.0400 
 29 C       10.0790     5.9060     1.9000 C.3   1 <1>   0.0400 
 30 H        2.2040    -0.4890    -2.0450 H     1 <1>   0.0800 
 31 H        1.2100    -1.7650     0.0930 H     1 <1>   0.0800 
 32 H        0.2500    -1.4080    -1.3310 H     1 <1>   0.0800 
 33 H        3.4020    -1.1770     0.0220 H     1 <1>   0.0800 
 34 H        3.5490     0.4970     0.4990 H     1 <1>   0.0800 
 35 H        2.4960     2.3230    -0.9620 H     1 <1>   0.0800 
 36 H        1.6430     1.8580    -2.4120 H     1 <1>   0.0800 
 37 H        4.8280    -0.7940    -1.9170 H     1 <1>   0.0800 
 38 H        5.6330    -0.2510    -0.4690 H     1 <1>   0.0800 
 39 H        3.9140     2.7580    -2.8770 H     1 <1>   0.0800 
 40 H        3.7260     1.1250    -3.4470 H     1 <1>   0.0800 
 41 H       -0.5150     1.0400     1.0950 H     1 <1>   0.1500 
 42 H       -3.0940    -3.0260     1.3930 H     1 <1>   0.1500 
 43 H       -2.5620     1.0540     2.4780 H     1 <1>   0.1500 
 44 H       -3.8720    -1.0620     2.6110 H     1 <1>   0.1500 
 45 H        7.4390     1.0170    -1.2140 H     1 <1>   0.1500 
 46 H        9.5420     1.4820    -0.4360 H     1 <1>   0.0800 
 47 H        9.5590     2.4080     1.0370 H     1 <1>   0.0800 
 48 H        9.9850     3.1630    -0.4880 H     1 <1>   0.0800 
 49 H        5.5660     7.4200     1.2120 H     1 <1>   0.1500 
 50 H        7.8490     7.0870     1.7610 H     1 <1>   0.1500 
 51 H        2.2440     6.6920    -0.0290 H     1 <1>   0.0800 
 52 H        3.6890     7.6890    -0.1410 H     1 <1>   0.0800 
 53 H        3.2630     6.8980     1.3900 H     1 <1>   0.0800 
 54 H       11.0710     5.5100     2.0230 H     1 <1>   0.0800 
 55 H        9.6380     6.0910     2.8640 H     1 <1>   0.0800 
 56 H       10.1160     6.8050     1.3100 H     1 <1>   0.0800 
@<TRIPOS>BOND
  1   1   2  1   
  2   1   3  1   
  3   2   4  1   
  4   2   5  1   
  5   2  30  1   
  6   3   6  1   
  7   3  31  1   
  8   3  32  1   
  9   4   7  1   
 10   4  33  1   
 11   4  34  1   
 12   5   8  1   
 13   5  35  1   
 14   5  36  1   
 15   6   9  ar  
 16   6  10  ar  
 17   7  11  1   
 18   7  37  1   
 19   7  38  1   
 20   8  11  1   
 21   8  39  1   
 22   8  40  1   
 23   9  12  ar  
 24  10  13  ar  
 25  10  41  1   
 26  11  14  1   
 27  12  15  ar  
 28  12  42  1   
 29  13  15  ar  
 30  13  43  1   
 31  14  16  ar  
 32  14  17  ar  
 33  15  44  1   
 34  16  18  ar  
 35  17  19  ar  
 36  17  45  1   
 37  18  20  ar  
 38  18  21  ar  
 39  19  20  ar  
 40  19  22  1   
 41  20  23  ar  
 42  21  24  1   
 43  21  25  ar  
 44  22  46  1   
 45  22  47  1   
 46  22  48  1   
 47  23  26  1   
 48  23  27  ar  
 49  24  28  1   
 50  25  27  ar  
 51  25  49  1   
 52  26  29  1   
 53  27  50  1   
 54  28  51  1   
 55  28  52  1   
 56  28  53  1   
 57  29  54  1   
 58  29  55  1   
 59  29  56  1   
@<TRIPOS>SUBSTRUCTURE
  1 ****  16 GROUP 4 **** **** 0

# MOE 2024.06 (io_trps.svl 2023.06)
