@<TRIPOS>MOLECULE
NONAME
41 43 1 0 0 
SMALL
USER_CHARGES


@<TRIPOS>ATOM
  1 S        0.0850     0.3380     1.4650 S.o2  1 <1>   1.4470 
  2 O        0.5710    -0.7220     2.3190 O.2   1 <1>  -0.6500 
  3 O       -0.5070     1.5250     2.0430 O.2   1 <1>  -0.6500 
  4 N        1.4500     0.9020     0.6240 N.am  1 <1>  -0.8490 
  5 C       -0.9920    -0.3080     0.1560 C.ar  1 <1>  -0.0090 
  6 C        2.3440     1.6300     1.5570 C.3   1 <1>   0.1960 
  7 C        2.1790    -0.1840    -0.0510 C.3   1 <1>   0.1960 
  8 C       -1.1340    -1.6760    -0.0530 C.ar  1 <1>  -0.1500 
  9 C       -1.6790     0.5540    -0.6920 C.ar  1 <1>  -0.1500 
 10 C        3.4860     2.4580     0.8980 C.3   1 <1>   0.4230 
 11 C        3.2050     0.3510    -1.0720 C.3   1 <1>  -0.0800 
 12 C       -1.9240    -2.1670    -1.0770 C.ar  1 <1>  -0.1500 
 13 C       -2.4730     0.0710    -1.7190 C.ar  1 <1>  -0.1500 
 14 N        3.2230     2.8860    -0.5360 N.4   1 <1>  -0.9590 
 15 C        4.8610     1.7750     1.0530 C.3   1 <1>   0.1200 
 16 C        4.6660     0.1340    -0.6520 C.3   1 <1>   0.1200 
 17 C        2.9000     1.7890    -1.5190 C.3   1 <1>   0.3430 
 18 C       -2.5940    -1.2930    -1.9130 C.ar  1 <1>  -0.1500 
 19 C        2.1090     3.8860    -0.5610 C.3   1 <1>   0.2630 
 20 O        4.8430     0.4300     0.6920 O.3   1 <1>  -0.5600 
 21 H        1.7570     2.3330     2.1240 H     1 <1>   0.0800 
 22 H        2.7590     0.9410     2.2760 H     1 <1>   0.0800 
 23 H        2.6520    -0.8290     0.6750 H     1 <1>   0.0800 
 24 H        1.4740    -0.7920    -0.5930 H     1 <1>   0.0800 
 25 H       -0.6220    -2.3690     0.5950 H     1 <1>   0.1500 
 26 H       -1.5980     1.6170    -0.5440 H     1 <1>   0.1500 
 27 H        3.5670     3.3600     1.4810 H     1 <1>   0.0800 
 28 H        3.0780    -0.2510    -1.9540 H     1 <1>   0.0800 
 29 H       -2.0230    -3.2300    -1.2220 H     1 <1>   0.1500 
 30 H       -3.0010     0.7530    -2.3630 H     1 <1>   0.1500 
 31 H        4.0760     3.3500    -0.8700 H     1 <1>   0.4500 
 32 H        5.1450     1.8010     2.0910 H     1 <1>   0.0800 
 33 H        5.6240     2.2820     0.4890 H     1 <1>   0.0800 
 34 H        5.3550     0.7140    -1.2430 H     1 <1>   0.0800 
 35 H        4.9190    -0.9070    -0.7680 H     1 <1>   0.0800 
 36 H        1.8470     1.8280    -1.7490 H     1 <1>   0.0800 
 37 H        3.4290     1.9820    -2.4380 H     1 <1>   0.0800 
 38 H       -3.2120    -1.6730    -2.7090 H     1 <1>   0.1500 
 39 H        1.1940     3.4280    -0.2170 H     1 <1>   0.0800 
 40 H        1.9550     4.2530    -1.5630 H     1 <1>   0.0800 
 41 H        2.3370     4.7220     0.0800 H     1 <1>   0.0800 
@<TRIPOS>BOND
  1   1   2  2   
  2   1   3  2   
  3   1   4  am  
  4   1   5  1   
  5   4   6  1   
  6   4   7  1   
  7   5   8  ar  
  8   5   9  ar  
  9   6  10  1   
 10   6  21  1   
 11   6  22  1   
 12   7  11  1   
 13   7  23  1   
 14   7  24  1   
 15   8  12  ar  
 16   8  25  1   
 17   9  13  ar  
 18   9  26  1   
 19  10  14  1   
 20  10  15  1   
 21  10  27  1   
 22  11  16  1   
 23  11  17  1   
 24  11  28  1   
 25  12  18  ar  
 26  12  29  1   
 27  13  18  ar  
 28  13  30  1   
 29  14  17  1   
 30  14  19  1   
 31  14  31  1   
 32  15  20  1   
 33  15  32  1   
 34  15  33  1   
 35  16  20  1   
 36  16  34  1   
 37  16  35  1   
 38  17  36  1   
 39  17  37  1   
 40  18  38  1   
 41  19  39  1   
 42  19  40  1   
 43  19  41  1   
@<TRIPOS>SUBSTRUCTURE
  1 ****   4 GROUP 4 **** **** 0

# MOE 2024.06 (io_trps.svl 2023.06)
