@<TRIPOS>MOLECULE
NONAME
53 55 1 0 0 
SMALL
USER_CHARGES


@<TRIPOS>ATOM
  1 S       -0.3010    -0.6420     0.4660 S.o2  1 <1>   1.4470 
  2 O       -1.6260    -0.0950     0.2730 O.2   1 <1>  -0.6500 
  3 O       -0.0240    -1.3930     1.6680 O.2   1 <1>  -0.6500 
  4 N       -0.2180    -1.7010    -0.8380 N.am  1 <1>  -0.9140 
  5 C        1.0370     0.5830     0.1670 C.ar  1 <1>  -0.0090 
  6 C       -0.7670    -3.0570    -0.7010 C.3   1 <1>   0.2760 
  7 C        0.8240     1.9700     0.2760 C.ar  1 <1>  -0.1430 
  8 C        2.3280     0.1520    -0.1720 C.ar  1 <1>  -0.1430 
  9 C       -2.1370    -3.1940    -0.0480 C.3   1 <1>  -0.0800 
 10 C        0.0690    -4.0510     0.0930 C.3   1 <1>   0.1200 
 11 C        1.8200     2.8860    -0.0740 C.ar  1 <1>  -0.1430 
 12 C       -0.5130     2.4990     0.8100 C.3   1 <1>  -0.0970 
 13 C        3.3200     1.0630    -0.4830 C.ar  1 <1>  -0.1500 
 14 C        2.7370    -1.3190    -0.2120 C.3   1 <1>  -0.0970 
 15 C       -2.1160    -4.6360     0.4760 C.3   1 <1>   0.1200 
 16 C       -3.3000    -2.8910    -1.0040 C.3   1 <1>  -0.0170 
 17 O       -0.8070    -5.1080     0.3340 O.3   1 <1>  -0.5600 
 18 C        3.0780     2.4260    -0.4520 C.ar  1 <1>   0.0820 
 19 C        1.5620     4.3980    -0.0530 C.3   1 <1>  -0.0970 
 20 C       -4.6340    -3.0080    -0.2860 C.ar  1 <1>  -0.1430 
 21 O        4.0400     3.3350    -0.7660 O.3   1 <1>  -0.3630 
 22 C       -5.0560    -2.0370     0.5990 C.ar  1 <1>  -0.1500 
 23 C       -5.4870    -4.0770    -0.4730 C.ar  1 <1>  -0.1500 
 24 C        5.3450     2.9620    -1.1480 C.3   1 <1>   0.0400 
 25 C       -6.2750    -2.1790     1.2400 C.ar  1 <1>   0.1600 
 26 C       -6.6860    -4.1220     0.2180 C.ar  1 <1>   0.1600 
 27 N       -7.1010    -3.1990     1.0710 N.ar  1 <1>  -0.6200 
 28 H       -0.7870    -1.2240    -1.5330 H     1 <1>   0.4200 
 29 H       -0.8290    -3.4690    -1.6940 H     1 <1>   0.0800 
 30 H       -2.2200    -2.5680     0.8200 H     1 <1>   0.0800 
 31 H        0.3820    -3.6650     1.0450 H     1 <1>   0.0800 
 32 H        0.9110    -4.4150    -0.4660 H     1 <1>   0.0800 
 33 H       -0.4310     3.4830     1.2300 H     1 <1>   0.0800 
 34 H       -0.8760     1.8820     1.6120 H     1 <1>   0.0800 
 35 H       -1.2450     2.5250     0.0220 H     1 <1>   0.0800 
 36 H        4.2910     0.6950    -0.7500 H     1 <1>   0.1500 
 37 H        3.8040    -1.4240    -0.1380 H     1 <1>   0.0800 
 38 H        2.4230    -1.7680    -1.1370 H     1 <1>   0.0800 
 39 H        2.3120    -1.8630     0.6110 H     1 <1>   0.0800 
 40 H       -2.7630    -5.2850    -0.0880 H     1 <1>   0.0800 
 41 H       -2.3830    -4.6760     1.5190 H     1 <1>   0.0800 
 42 H       -3.2740    -3.5620    -1.8450 H     1 <1>   0.0800 
 43 H       -3.2010    -1.8880    -1.3810 H     1 <1>   0.0800 
 44 H        0.5940     4.6230    -0.4600 H     1 <1>   0.0800 
 45 H        2.2750     4.9420    -0.6440 H     1 <1>   0.0800 
 46 H        1.6180     4.7620     0.9570 H     1 <1>   0.0800 
 47 H       -4.4460    -1.1730     0.7960 H     1 <1>   0.1500 
 48 H       -5.2340    -4.8740    -1.1470 H     1 <1>   0.1500 
 49 H        5.9040     3.8590    -1.3440 H     1 <1>   0.0800 
 50 H        5.2910     2.3630    -2.0390 H     1 <1>   0.0800 
 51 H        5.8020     2.4170    -0.3410 H     1 <1>   0.0800 
 52 H       -6.5870    -1.4120     1.9280 H     1 <1>   0.1500 
 53 H       -7.3400    -4.9630     0.0610 H     1 <1>   0.1500 
@<TRIPOS>BOND
  1   1   2  2   
  2   1   3  2   
  3   1   4  am  
  4   1   5  1   
  5   4   6  1   
  6   4  28  1   
  7   5   7  ar  
  8   5   8  ar  
  9   6   9  1   
 10   6  10  1   
 11   6  29  1   
 12   7  11  ar  
 13   7  12  1   
 14   8  13  ar  
 15   8  14  1   
 16   9  15  1   
 17   9  16  1   
 18   9  30  1   
 19  10  17  1   
 20  10  31  1   
 21  10  32  1   
 22  11  18  ar  
 23  11  19  1   
 24  12  33  1   
 25  12  34  1   
 26  12  35  1   
 27  13  18  ar  
 28  13  36  1   
 29  14  37  1   
 30  14  38  1   
 31  14  39  1   
 32  15  17  1   
 33  15  40  1   
 34  15  41  1   
 35  16  20  1   
 36  16  42  1   
 37  16  43  1   
 38  18  21  1   
 39  19  44  1   
 40  19  45  1   
 41  19  46  1   
 42  20  22  ar  
 43  20  23  ar  
 44  21  24  1   
 45  22  25  ar  
 46  22  47  1   
 47  23  26  ar  
 48  23  48  1   
 49  24  49  1   
 50  24  50  1   
 51  24  51  1   
 52  25  27  ar  
 53  25  52  1   
 54  26  27  ar  
 55  26  53  1   
@<TRIPOS>SUBSTRUCTURE
  1 ****   1 GROUP 4 **** **** 0

# MOE 2024.06 (io_trps.svl 2023.06)
