@<TRIPOS>MOLECULE
NONAME
48 50 1 0 0 
SMALL
USER_CHARGES


@<TRIPOS>ATOM
  1 O       -0.1900     0.4090    -0.1050 O.2   1 <1>  -0.5700 
  2 C       -0.0250     1.5950     0.0280 C.2   1 <1>   0.5690 
  3 N        1.1850     2.1710     0.3000 N.am  1 <1>  -0.5470 
  4 C       -1.2300     2.4970    -0.1340 C.3   1 <1>  -0.0990 
  5 C        2.4420     1.5730     0.5270 C.ar  1 <1>   0.1170 
  6 C       -2.5100     1.6600    -0.0490 C.3   1 <1>   0.3430 
  7 C        3.6160     2.2980     0.3080 C.ar  1 <1>   0.1600 
  8 C        2.5820     0.2720     0.9860 C.ar  1 <1>  -0.1500 
  9 N       -3.7390     2.4960    -0.1960 N.4   1 <1>  -0.9590 
 10 N        4.8500     1.8590     0.4980 N.ar  1 <1>  -0.6200 
 11 C        3.8580    -0.2080     1.1860 C.ar  1 <1>  -0.1500 
 12 C       -4.9370     1.7170     0.2880 C.3   1 <1>   0.3430 
 13 C       -3.9490     2.9870    -1.5850 C.3   1 <1>   0.3430 
 14 C        4.9430     0.6120     0.9310 C.ar  1 <1>   0.1600 
 15 C       -6.3010     2.2820    -0.1880 C.3   1 <1>   0.0000 
 16 C       -5.0610     4.0440    -1.5840 C.3   1 <1>  -0.1600 
 17 C       -7.3810     2.0820     0.8910 C.3   1 <1>   0.2000 
 18 C       -6.1730     3.7830    -0.5470 C.3   1 <1>  -0.1600 
 19 C       -6.8660     1.4800    -1.3810 C.3   1 <1>  -0.1600 
 20 O       -7.1800     0.8570     1.5080 O.3   1 <1>  -0.6800 
 21 C       -8.7130     2.0290     0.1430 C.3   1 <1>  -0.1600 
 22 C       -8.3920     1.5860    -1.2900 C.3   1 <1>  -0.1600 
 23 H        1.2030     3.1910     0.3070 H     1 <1>   0.3700 
 24 H       -1.2220     3.2330     0.6480 H     1 <1>   0.0800 
 25 H       -1.1540     2.9790    -1.0900 H     1 <1>   0.0800 
 26 H       -2.5250     1.1590     0.9070 H     1 <1>   0.0800 
 27 H       -2.4920     0.8960    -0.8110 H     1 <1>   0.0800 
 28 H        3.5280     3.3070    -0.0500 H     1 <1>   0.1500 
 29 H        1.7310    -0.3530     1.1860 H     1 <1>   0.1500 
 30 H       -3.6650     3.3210     0.4120 H     1 <1>   0.4500 
 31 H        4.0130    -1.2120     1.5380 H     1 <1>   0.1500 
 32 H       -4.8660     0.6910    -0.0350 H     1 <1>   0.0800 
 33 H       -4.9290     1.7060     1.3660 H     1 <1>   0.0800 
 34 H       -3.0460     3.4170    -1.9850 H     1 <1>   0.0800 
 35 H       -4.2380     2.1600    -2.2140 H     1 <1>   0.0800 
 36 H        5.9350     0.2250     1.0920 H     1 <1>   0.1500 
 37 H       -4.6330     5.0160    -1.4090 H     1 <1>   0.0800 
 38 H       -5.4910     4.0710    -2.5700 H     1 <1>   0.0800 
 39 H       -7.3700     2.8450     1.6520 H     1 <1>   0.0800 
 40 H       -7.1060     4.1710    -0.9190 H     1 <1>   0.0800 
 41 H       -5.9410     4.3310     0.3510 H     1 <1>   0.0800 
 42 H       -6.5120     1.8150    -2.3400 H     1 <1>   0.0800 
 43 H       -6.6040     0.4410    -1.2710 H     1 <1>   0.0800 
 44 H       -7.9700     0.6110     2.0320 H     1 <1>   0.4000 
 45 H       -9.4250     1.3750     0.6170 H     1 <1>   0.0800 
 46 H       -9.1350     3.0180     0.1110 H     1 <1>   0.0800 
 47 H       -8.8490     0.6350    -1.5110 H     1 <1>   0.0800 
 48 H       -8.7610     2.3160    -1.9900 H     1 <1>   0.0800 
@<TRIPOS>BOND
  1   1   2  2   
  2   2   3  am  
  3   2   4  1   
  4   3   5  1   
  5   3  23  1   
  6   4   6  1   
  7   4  24  1   
  8   4  25  1   
  9   5   7  ar  
 10   5   8  ar  
 11   6   9  1   
 12   6  26  1   
 13   6  27  1   
 14   7  10  ar  
 15   7  28  1   
 16   8  11  ar  
 17   8  29  1   
 18   9  12  1   
 19   9  13  1   
 20   9  30  1   
 21  10  14  ar  
 22  11  14  ar  
 23  11  31  1   
 24  12  15  1   
 25  12  32  1   
 26  12  33  1   
 27  13  16  1   
 28  13  34  1   
 29  13  35  1   
 30  14  36  1   
 31  15  17  1   
 32  15  18  1   
 33  15  19  1   
 34  16  18  1   
 35  16  37  1   
 36  16  38  1   
 37  17  20  1   
 38  17  21  1   
 39  17  39  1   
 40  18  40  1   
 41  18  41  1   
 42  19  22  1   
 43  19  42  1   
 44  19  43  1   
 45  20  44  1   
 46  21  22  1   
 47  21  45  1   
 48  21  46  1   
 49  22  47  1   
 50  22  48  1   
@<TRIPOS>SUBSTRUCTURE
  1 ****   6 GROUP 4 **** **** 0

# MOE 2024.06 (io_trps.svl 2023.06)
