@<TRIPOS>MOLECULE
NONAME
52 55 1 0 0 
SMALL
USER_CHARGES


@<TRIPOS>ATOM
  1 F        0.9960    -2.8500    -2.0290 F     1 <1>  -0.1900 
  2 C       -0.0110    -3.4050    -1.4030 C.ar  1 <1>   0.1900 
  3 C       -0.3120    -3.1060    -0.0700 C.ar  1 <1>   0.0820 
  4 C       -0.7670    -4.3020    -2.1320 C.ar  1 <1>  -0.1500 
  5 O        0.3550    -2.2410     0.7490 O.3   1 <1>  -0.3630 
  6 C       -1.4010    -3.7450     0.5010 C.ar  1 <1>  -0.1500 
  7 C       -1.8480    -4.9210    -1.5320 C.ar  1 <1>  -0.1500 
  8 C        1.5220    -1.5560     0.3540 C.3   1 <1>   0.0400 
  9 C       -2.1880    -4.6600    -0.2020 C.ar  1 <1>   0.0530 
 10 C       -3.3140    -5.3070     0.4280 C.2   1 <1>   0.0870 
 11 O       -3.9240    -4.7510     1.4500 O.3   1 <1>  -0.0190 
 12 C       -3.9560    -6.4750     0.1830 C.2   1 <1>  -0.2330 
 13 N       -4.9320    -5.4620     1.8900 N.2   1 <1>  -0.4100 
 14 C       -4.9760    -6.5020     1.1330 C.2   1 <1>   0.3720 
 15 C       -3.7090    -7.5000    -0.7720 C.2   1 <1>   1.0330 
 16 N       -5.9300    -7.5180     1.2630 N.pl3 1 <1>  -0.8210 
 17 O       -4.2790    -7.5030    -1.8810 O.co2 1 <1>  -0.9000 
 18 O       -3.0390    -8.5110    -0.5130 O.co2 1 <1>  -0.9000 
 19 C       -6.8020    -7.8190     0.1050 C.3   1 <1>   0.2090 
 20 C       -6.5920    -7.7640     2.5640 C.3   1 <1>   0.2090 
 21 C       -7.0050    -9.3440     0.0730 C.3   1 <1>   0.0000 
 22 C       -6.9750    -9.2550     2.6330 C.3   1 <1>  -0.1600 
 23 C       -7.7270    -9.7590     1.3770 C.3   1 <1>  -0.1600 
 24 C       -5.6460   -10.0330    -0.0790 C.3   1 <1>   0.3430 
 25 C       -7.7340    -9.7810    -1.2040 C.3   1 <1>  -0.1600 
 26 N       -5.3690   -10.0080    -1.5340 N.4   1 <1>  -0.9590 
 27 C       -6.6460    -9.9500    -2.2700 C.3   1 <1>   0.3430 
 28 C       -4.3470   -10.9880    -1.9670 C.3   1 <1>   0.2630 
 29 H       -0.5150    -4.5140    -3.1550 H     1 <1>   0.1500 
 30 H       -1.6420    -3.5260     1.5260 H     1 <1>   0.1500 
 31 H       -2.4380    -5.6130    -2.1090 H     1 <1>   0.1500 
 32 H        1.8650    -0.9710     1.1890 H     1 <1>   0.0800 
 33 H        1.2850    -0.9070    -0.4710 H     1 <1>   0.0800 
 34 H        2.2740    -2.2740     0.0780 H     1 <1>   0.0800 
 35 H       -6.3720    -7.4540    -0.8080 H     1 <1>   0.0800 
 36 H       -7.7470    -7.3200     0.2340 H     1 <1>   0.0800 
 37 H       -7.4680    -7.1430     2.6420 H     1 <1>   0.0800 
 38 H       -5.9220    -7.5140     3.3700 H     1 <1>   0.0800 
 39 H       -7.5790    -9.4190     3.5080 H     1 <1>   0.0800 
 40 H       -6.0690    -9.8200     2.7620 H     1 <1>   0.0800 
 41 H       -7.8290   -10.8290     1.4260 H     1 <1>   0.0800 
 42 H       -8.7170    -9.3360     1.3770 H     1 <1>   0.0800 
 43 H       -5.7190   -11.0510     0.2600 H     1 <1>   0.0800 
 44 H       -4.8730    -9.5270     0.4790 H     1 <1>   0.0800 
 45 H       -8.4820    -9.0740    -1.5160 H     1 <1>   0.0800 
 46 H       -8.2090   -10.7340    -1.0530 H     1 <1>   0.0800 
 47 H       -4.8890    -9.0770    -1.6810 H     1 <1>   0.4500 
 48 H       -6.6320    -9.1020    -2.9360 H     1 <1>   0.0800 
 49 H       -6.8070   -10.8510    -2.8390 H     1 <1>   0.0800 
 50 H       -4.6900   -11.9940    -1.7990 H     1 <1>   0.0800 
 51 H       -3.4380   -10.8230    -1.4080 H     1 <1>   0.0800 
 52 H       -4.1270   -10.8520    -3.0120 H     1 <1>   0.0800 
@<TRIPOS>BOND
  1   1   2  1   
  2   2   3  ar  
  3   2   4  ar  
  4   3   5  1   
  5   3   6  ar  
  6   4   7  ar  
  7   4  29  1   
  8   5   8  1   
  9   6   9  ar  
 10   6  30  1   
 11   7   9  ar  
 12   7  31  1   
 13   8  32  1   
 14   8  33  1   
 15   8  34  1   
 16   9  10  1   
 17  10  11  1   
 18  10  12  2   
 19  11  13  1   
 20  12  14  1   
 21  12  15  1   
 22  13  14  2   
 23  14  16  1   
 24  15  17  ar  
 25  15  18  ar  
 26  16  19  1   
 27  16  20  1   
 28  19  21  1   
 29  19  35  1   
 30  19  36  1   
 31  20  22  1   
 32  20  37  1   
 33  20  38  1   
 34  21  23  1   
 35  21  24  1   
 36  21  25  1   
 37  22  23  1   
 38  22  39  1   
 39  22  40  1   
 40  23  41  1   
 41  23  42  1   
 42  24  26  1   
 43  24  43  1   
 44  24  44  1   
 45  25  27  1   
 46  25  45  1   
 47  25  46  1   
 48  26  27  1   
 49  26  28  1   
 50  26  47  1   
 51  27  48  1   
 52  27  49  1   
 53  28  50  1   
 54  28  51  1   
 55  28  52  1   
@<TRIPOS>SUBSTRUCTURE
  1 ****  12 GROUP 4 **** **** 0

# MOE 2024.06 (io_trps.svl 2023.06)
