@<TRIPOS>MOLECULE
NONAME
51 55 1 0 0 
SMALL
USER_CHARGES


@<TRIPOS>ATOM
  1 S       -0.3380     0.7990    -2.1510 S.3   1 <1>  -0.0800 
  2 C       -0.1270     1.9840    -0.8790 C.2   1 <1>  -0.1400 
  3 C        1.2550     1.1770    -2.7910 C.2   1 <1>  -0.1100 
  4 C        1.0650     2.5900    -0.9510 C.2   1 <1>  -0.1810 
  5 C       -1.1860     2.2640     0.1530 C.3   1 <1>   0.0200 
  6 C        1.8580     2.1310    -2.0550 C.2   1 <1>  -0.1500 
  7 C        1.4710     3.6530     0.0730 C.3   1 <1>   0.4610 
  8 C       -0.8460     3.6160     0.8010 C.3   1 <1>   0.1200 
  9 O        0.5220     3.6940     1.1250 O.3   1 <1>  -0.5600 
 10 C        1.5650     5.0400    -0.5770 C.3   1 <1>  -0.1600 
 11 C        2.8090     3.2880     0.7230 C.3   1 <1>  -0.1600 
 12 C        2.0360     6.1080     0.4120 C.3   1 <1>   0.1400 
 13 C        3.2640     4.3600     1.7130 C.3   1 <1>   0.1400 
 14 N        3.3240     5.6810     1.0260 N.am  1 <1>  -0.6600 
 15 C        4.4830     6.4450     1.0110 C.2   1 <1>   0.7160 
 16 O        5.5400     5.8580     1.1930 O.2   1 <1>  -0.5700 
 17 C        4.5130     7.8920     0.7850 C.2   1 <1>   0.2030 
 18 N        3.5250     8.7620     0.9390 N.2   1 <1>  -0.7070 
 19 C        5.6660     8.5670     0.3810 C.2   1 <1>  -0.1500 
 20 N        4.0450     9.9560     0.6390 N.pl3 1 <1>   0.3140 
 21 C        5.3500     9.8800     0.2860 C.2   1 <1>  -0.2050 
 22 C        3.2450    11.1840     0.7500 C.3   1 <1>   0.0160 
 23 C        6.1800    10.9970    -0.0840 C.ar  1 <1>   0.0530 
 24 C        5.8900    11.7810    -1.1970 C.ar  1 <1>  -0.1500 
 25 C        7.3030    11.3200     0.6700 C.ar  1 <1>  -0.1500 
 26 C        6.6850    12.8600    -1.5370 C.ar  1 <1>  -0.1500 
 27 C        8.1030    12.3980     0.3350 C.ar  1 <1>  -0.1500 
 28 C        7.7940    13.1720    -0.7700 C.ar  1 <1>  -0.1500 
 29 H        1.5750     0.6360    -3.6640 H     1 <1>   0.1500 
 30 H       -1.1910     1.4860     0.8940 H     1 <1>   0.0800 
 31 H       -2.1570     2.3140    -0.3060 H     1 <1>   0.0800 
 32 H        2.8380     2.5340    -2.2460 H     1 <1>   0.1500 
 33 H       -1.4060     3.7440     1.7100 H     1 <1>   0.0800 
 34 H       -1.0860     4.4230     0.1330 H     1 <1>   0.0800 
 35 H        0.6170     5.3190    -0.9960 H     1 <1>   0.0800 
 36 H        2.2670     4.9990    -1.3880 H     1 <1>   0.0800 
 37 H        3.5670     3.1790    -0.0300 H     1 <1>   0.0800 
 38 H        2.7110     2.3430     1.2260 H     1 <1>   0.0800 
 39 H        1.3050     6.2490     1.1900 H     1 <1>   0.0800 
 40 H        2.1490     7.0350    -0.1190 H     1 <1>   0.0800 
 41 H        4.2240     4.0940     2.1200 H     1 <1>   0.0800 
 42 H        2.5650     4.4240     2.5300 H     1 <1>   0.0800 
 43 H        6.6180     8.1020     0.1910 H     1 <1>   0.1500 
 44 H        2.3560    10.9760     1.3150 H     1 <1>   0.0800 
 45 H        2.9790    11.5200    -0.2340 H     1 <1>   0.0800 
 46 H        3.8220    11.9380     1.2510 H     1 <1>   0.0800 
 47 H        5.0370    11.5360    -1.8030 H     1 <1>   0.1500 
 48 H        7.5450    10.7190     1.5280 H     1 <1>   0.1500 
 49 H        6.4460    13.4560    -2.4010 H     1 <1>   0.1500 
 50 H        8.9670    12.6340     0.9320 H     1 <1>   0.1500 
 51 H        8.4150    14.0110    -1.0330 H     1 <1>   0.1500 
@<TRIPOS>BOND
  1   1   2  1   
  2   1   3  1   
  3   2   4  2   
  4   2   5  1   
  5   3   6  2   
  6   3  29  1   
  7   4   6  1   
  8   4   7  1   
  9   5   8  1   
 10   5  30  1   
 11   5  31  1   
 12   6  32  1   
 13   7   9  1   
 14   7  10  1   
 15   7  11  1   
 16   8   9  1   
 17   8  33  1   
 18   8  34  1   
 19  10  12  1   
 20  10  35  1   
 21  10  36  1   
 22  11  13  1   
 23  11  37  1   
 24  11  38  1   
 25  12  14  1   
 26  12  39  1   
 27  12  40  1   
 28  13  14  1   
 29  13  41  1   
 30  13  42  1   
 31  14  15  am  
 32  15  16  2   
 33  15  17  1   
 34  17  18  2   
 35  17  19  1   
 36  18  20  1   
 37  19  21  2   
 38  19  43  1   
 39  20  21  1   
 40  20  22  1   
 41  21  23  1   
 42  22  44  1   
 43  22  45  1   
 44  22  46  1   
 45  23  24  ar  
 46  23  25  ar  
 47  24  26  ar  
 48  24  47  1   
 49  25  27  ar  
 50  25  48  1   
 51  26  28  ar  
 52  26  49  1   
 53  27  28  ar  
 54  27  50  1   
 55  28  51  1   
@<TRIPOS>SUBSTRUCTURE
  1 ****  14 GROUP 4 **** **** 0

# MOE 2024.06 (io_trps.svl 2023.06)
