@<TRIPOS>MOLECULE
NONAME
48 50 1 0 0 
SMALL
USER_CHARGES


@<TRIPOS>ATOM
  1 O       -0.4410     0.3430    -0.4290 O.2   1 <1>  -0.5700 
  2 C       -1.5220     0.8830    -0.4030 C.2   1 <1>   0.5690 
  3 N       -2.6740     0.1520    -0.3260 N.am  1 <1>  -0.6600 
  4 C       -1.6070     2.4040    -0.4670 C.3   1 <1>  -0.0990 
  5 C       -4.0620     0.6730    -0.3830 C.3   1 <1>   0.1400 
  6 C       -2.6660    -1.3270    -0.2450 C.3   1 <1>   0.1400 
  7 C       -0.2530     3.1230    -0.3030 C.3   1 <1>  -0.1600 
  8 C       -4.9340    -0.5700    -0.5540 C.3   1 <1>   0.2000 
  9 C       -4.1190    -1.7230     0.0270 C.3   1 <1>  -0.0800 
 10 C       -0.3810     4.6520    -0.4060 C.3   1 <1>  -0.0800 
 11 O       -6.1380    -0.4460     0.1210 O.3   1 <1>  -0.6800 
 12 C       -4.5050    -3.0880    -0.5620 C.3   1 <1>   0.0200 
 13 C        0.9670     5.3570    -0.2850 C.3   1 <1>  -0.1600 
 14 C       -1.2150     5.2890     0.7060 C.3   1 <1>  -0.1600 
 15 C       -3.6230    -4.1890    -0.0040 C.2   1 <1>  -0.0400 
 16 C        0.6190     6.7990     0.0830 C.3   1 <1>  -0.1600 
 17 C       -0.7420     6.7430     0.7850 C.3   1 <1>  -0.1600 
 18 O       -3.6500    -4.4630     1.2730 O.3   1 <1>  -0.0190 
 19 C       -2.7380    -5.0120    -0.5850 C.2   1 <1>  -0.1500 
 20 N       -2.8270    -5.4230     1.5790 N.2   1 <1>  -0.4100 
 21 C       -2.2640    -5.7740     0.4790 C.2   1 <1>   0.1080 
 22 C       -1.2250    -6.8680     0.3670 C.3   1 <1>  -0.0590 
 23 H       -2.0340     2.6730    -1.4150 H     1 <1>   0.0800 
 24 H       -2.2710     2.7320     0.3100 H     1 <1>   0.0800 
 25 H       -4.2880     1.1760     0.5400 H     1 <1>   0.0800 
 26 H       -4.1840     1.3410    -1.2170 H     1 <1>   0.0800 
 27 H       -2.3230    -1.7240    -1.1860 H     1 <1>   0.0800 
 28 H       -2.0100    -1.6650     0.5410 H     1 <1>   0.0800 
 29 H        0.4180     2.7790    -1.0720 H     1 <1>   0.0800 
 30 H        0.1780     2.8540     0.6460 H     1 <1>   0.0800 
 31 H       -5.1450    -0.7230    -1.5990 H     1 <1>   0.0800 
 32 H       -4.2430    -1.7480     1.0960 H     1 <1>   0.0800 
 33 H       -0.8140     4.9150    -1.3570 H     1 <1>   0.0800 
 34 H       -5.9870    -0.4060     1.0860 H     1 <1>   0.4000 
 35 H       -4.4080    -3.0670    -1.6330 H     1 <1>   0.0800 
 36 H       -5.5310    -3.3070    -0.3240 H     1 <1>   0.0800 
 37 H        1.5380     4.9170     0.5150 H     1 <1>   0.0800 
 38 H        1.5360     5.2990    -1.1970 H     1 <1>   0.0800 
 39 H       -2.2700     5.2260     0.5050 H     1 <1>   0.0800 
 40 H       -1.0030     4.8010     1.6420 H     1 <1>   0.0800 
 41 H        1.3760     7.2320     0.7150 H     1 <1>   0.0800 
 42 H        0.5350     7.3880    -0.8140 H     1 <1>   0.0800 
 43 H       -1.4380     7.3880     0.2770 H     1 <1>   0.0800 
 44 H       -0.6630     7.0580     1.8120 H     1 <1>   0.0800 
 45 H       -2.4380    -5.0930    -1.6130 H     1 <1>   0.1500 
 46 H       -1.5650    -7.6260    -0.3130 H     1 <1>   0.0800 
 47 H       -1.0570    -7.3140     1.3310 H     1 <1>   0.0800 
 48 H       -0.3000    -6.4560     0.0090 H     1 <1>   0.0800 
@<TRIPOS>BOND
  1   1   2  2   
  2   2   3  am  
  3   2   4  1   
  4   3   5  1   
  5   3   6  1   
  6   4   7  1   
  7   4  23  1   
  8   4  24  1   
  9   5   8  1   
 10   5  25  1   
 11   5  26  1   
 12   6   9  1   
 13   6  27  1   
 14   6  28  1   
 15   7  10  1   
 16   7  29  1   
 17   7  30  1   
 18   8   9  1   
 19   8  11  1   
 20   8  31  1   
 21   9  12  1   
 22   9  32  1   
 23  10  13  1   
 24  10  14  1   
 25  10  33  1   
 26  11  34  1   
 27  12  15  1   
 28  12  35  1   
 29  12  36  1   
 30  13  16  1   
 31  13  37  1   
 32  13  38  1   
 33  14  17  1   
 34  14  39  1   
 35  14  40  1   
 36  15  18  1   
 37  15  19  2   
 38  16  17  1   
 39  16  41  1   
 40  16  42  1   
 41  17  43  1   
 42  17  44  1   
 43  18  20  1   
 44  19  21  1   
 45  19  45  1   
 46  20  21  2   
 47  21  22  1   
 48  22  46  1   
 49  22  47  1   
 50  22  48  1   
@<TRIPOS>SUBSTRUCTURE
  1 ****   3 GROUP 4 **** **** 0

# MOE 2024.06 (io_trps.svl 2023.06)
