@<TRIPOS>MOLECULE
NONAME
63 66 1 0 0 
SMALL
USER_CHARGES


@<TRIPOS>ATOM
  1 O        0.3620     1.4460    -1.5560 O.2   1 <1>  -0.5700 
  2 C        0.1980     1.7700    -0.3990 C.2   1 <1>   0.5440 
  3 N        1.1350     1.3250     0.4830 N.am  1 <1>  -0.7300 
  4 C       -0.9030     2.6270    -0.0100 C.ar  1 <1>   0.0860 
  5 C        1.5500     1.9900     1.7380 C.3   1 <1>   0.1400 
  6 C       -1.1700     3.8050    -0.7030 C.ar  1 <1>  -0.1500 
  7 C       -1.7320     2.3090     1.0640 C.ar  1 <1>  -0.1500 
  8 C        2.3180     3.2890     1.4550 C.3   1 <1>  -0.1600 
  9 C       -2.1930     4.6660    -0.3270 C.ar  1 <1>   0.0830 
 10 C       -2.7640     3.1460     1.4420 C.ar  1 <1>  -0.1500 
 11 C        3.6940     3.0820     0.7890 C.3   1 <1>   0.2200 
 12 O       -2.3880     5.8090    -1.0390 O.3   1 <1>  -0.3630 
 13 C       -3.0070     4.3330     0.7690 C.ar  1 <1>   0.0830 
 14 N        4.7180     4.1100     1.1580 N.am  1 <1>  -0.6600 
 15 C        3.6920     2.9780    -0.7450 C.3   1 <1>  -0.1600 
 16 C       -1.2640     6.6060    -1.3360 C.3   1 <1>   0.1200 
 17 O       -4.0350     5.0680     1.2720 O.3   1 <1>  -0.3630 
 18 C        4.5570     5.4460     1.4510 C.2   1 <1>   0.5690 
 19 C        6.0890     3.6240     0.8380 C.3   1 <1>   0.1400 
 20 C        5.0840     2.5700    -1.2610 C.3   1 <1>  -0.1600 
 21 C       -1.7360     8.0490    -1.5520 C.3   1 <1>  -0.1600 
 22 C       -4.2290     6.4300     0.9700 C.3   1 <1>   0.0400 
 23 O        5.4500     6.0890     1.9510 O.2   1 <1>  -0.5700 
 24 C        3.2780     6.1940     1.1160 C.3   1 <1>  -0.0990 
 25 C        6.1940     3.4700    -0.6860 C.3   1 <1>  -0.1600 
 26 C       -0.5720     9.0200    -1.8260 C.3   1 <1>   0.0960 
 27 C        3.5080     7.6600     0.7290 C.3   1 <1>   0.0210 
 28 N        0.4840     8.8930    -0.8010 N.pl3 1 <1>   0.3140 
 29 C        2.1890     8.2600     0.2850 C.2   1 <1>   0.0460 
 30 N        0.2650     9.1230     0.4970 N.2   1 <1>  -0.4180 
 31 C        1.6950     8.3560    -0.9570 C.2   1 <1>  -0.3020 
 32 N        1.3010     8.7430     1.1590 N.2   1 <1>  -0.2270 
 33 H        1.8230     0.6950     0.0660 H     1 <1>   0.3700 
 34 H        2.1630     1.3140     2.3110 H     1 <1>   0.0800 
 35 H        0.6770     2.2160     2.3260 H     1 <1>   0.0800 
 36 H       -0.5590     4.0300    -1.5580 H     1 <1>   0.1500 
 37 H       -1.5650     1.3930     1.6020 H     1 <1>   0.1500 
 38 H        2.4750     3.7560     2.4110 H     1 <1>   0.0800 
 39 H        1.6920     3.9310     0.8650 H     1 <1>   0.0800 
 40 H       -3.3960     2.8850     2.2720 H     1 <1>   0.1500 
 41 H        4.0590     2.1420     1.1690 H     1 <1>   0.0800 
 42 H        3.4050     3.9220    -1.1710 H     1 <1>   0.0800 
 43 H        2.9820     2.2460    -1.0800 H     1 <1>   0.0800 
 44 H       -0.7940     6.2140    -2.2210 H     1 <1>   0.0800 
 45 H       -0.5870     6.5450    -0.5000 H     1 <1>   0.0800 
 46 H        6.2610     2.6790     1.3250 H     1 <1>   0.0800 
 47 H        6.8380     4.3150     1.1850 H     1 <1>   0.0800 
 48 H        5.1010     2.6140    -2.3360 H     1 <1>   0.0800 
 49 H        5.2790     1.5510    -0.9720 H     1 <1>   0.0800 
 50 H       -2.2570     8.3820    -0.6710 H     1 <1>   0.0800 
 51 H       -2.4220     8.0800    -2.3800 H     1 <1>   0.0800 
 52 H       -4.9900     6.8130     1.6250 H     1 <1>   0.0800 
 53 H       -4.5510     6.5170    -0.0520 H     1 <1>   0.0800 
 54 H       -3.3060     6.9580     1.1310 H     1 <1>   0.0800 
 55 H        2.6170     6.1530     1.9610 H     1 <1>   0.0800 
 56 H        2.8080     5.7220     0.2780 H     1 <1>   0.0800 
 57 H        7.1570     3.0620    -0.9370 H     1 <1>   0.0800 
 58 H        6.1300     4.4470    -1.1320 H     1 <1>   0.0800 
 59 H       -0.9290    10.0340    -1.8190 H     1 <1>   0.0800 
 60 H       -0.1390     8.8150    -2.7880 H     1 <1>   0.0800 
 61 H        4.2170     7.7150    -0.0780 H     1 <1>   0.0800 
 62 H        3.8990     8.2170     1.5630 H     1 <1>   0.0800 
 63 H        2.1110     8.0640    -1.9030 H     1 <1>   0.1500 
@<TRIPOS>BOND
  1   1   2  2   
  2   2   3  am  
  3   2   4  1   
  4   3   5  1   
  5   3  33  1   
  6   4   6  ar  
  7   4   7  ar  
  8   5   8  1   
  9   5  34  1   
 10   5  35  1   
 11   6   9  ar  
 12   6  36  1   
 13   7  10  ar  
 14   7  37  1   
 15   8  11  1   
 16   8  38  1   
 17   8  39  1   
 18   9  12  1   
 19   9  13  ar  
 20  10  13  ar  
 21  10  40  1   
 22  11  14  1   
 23  11  15  1   
 24  11  41  1   
 25  12  16  1   
 26  13  17  1   
 27  14  18  am  
 28  14  19  1   
 29  15  20  1   
 30  15  42  1   
 31  15  43  1   
 32  16  21  1   
 33  16  44  1   
 34  16  45  1   
 35  17  22  1   
 36  18  23  2   
 37  18  24  1   
 38  19  25  1   
 39  19  46  1   
 40  19  47  1   
 41  20  25  1   
 42  20  48  1   
 43  20  49  1   
 44  21  26  1   
 45  21  50  1   
 46  21  51  1   
 47  22  52  1   
 48  22  53  1   
 49  22  54  1   
 50  24  27  1   
 51  24  55  1   
 52  24  56  1   
 53  25  57  1   
 54  25  58  1   
 55  26  28  1   
 56  26  59  1   
 57  26  60  1   
 58  27  29  1   
 59  27  61  1   
 60  27  62  1   
 61  28  30  1   
 62  28  31  1   
 63  29  31  2   
 64  29  32  1   
 65  30  32  2   
 66  31  63  1   
@<TRIPOS>SUBSTRUCTURE
  1 ****   8 GROUP 4 **** **** 0

# MOE 2024.06 (io_trps.svl 2023.06)
