@<TRIPOS>MOLECULE
NONAME
44 45 1 0 0 
SMALL
USER_CHARGES


@<TRIPOS>ATOM
  1 S        1.0150     0.6860     0.0040 S.o2  1 <1>   1.3330 
  2 O        0.8890    -0.7540    -0.0510 O.2   1 <1>  -0.6500 
  3 O       -0.1140     1.5140    -0.3530 O.2   1 <1>  -0.6500 
  4 N        1.4600     1.1060     1.5890 N.am  1 <1>  -0.8490 
  5 C        2.4320     1.1590    -0.9890 C.3   1 <1>  -0.0550 
  6 C        1.3990     2.5510     1.8420 C.3   1 <1>   0.1160 
  7 C        0.6540     0.3950     2.5850 C.3   1 <1>   0.1160 
  8 C        3.6690     0.2490    -0.8190 C.3   1 <1>  -0.0800 
  9 C        4.8650     0.6290    -1.6800 C.3   1 <1>   0.2200 
 10 C        4.2730     0.2340     0.5890 C.3   1 <1>   0.1200 
 11 N        5.0730     2.0910    -1.6270 N.am  1 <1>  -0.7300 
 12 C        5.9890    -0.0580    -0.9160 C.3   1 <1>   0.1200 
 13 O        5.6510     0.0520     0.4350 O.3   1 <1>  -0.5600 
 14 C        4.6920     2.9940    -2.5670 C.2   1 <1>   0.5690 
 15 O        4.3350     2.6400    -3.6640 O.2   1 <1>  -0.5700 
 16 C        4.6600     4.4780    -2.2480 C.3   1 <1>   0.1570 
 17 N        5.0430     4.7430    -0.8480 N.pl3 1 <1>   0.3140 
 18 N        4.3340     4.2730     0.2030 N.2   1 <1>  -0.7070 
 19 C        6.1440     5.3990    -0.4320 C.2   1 <1>  -0.3020 
 20 C        5.0050     4.6390     1.2490 C.2   1 <1>   0.1080 
 21 C        6.1490     5.3520     0.9160 C.2   1 <1>  -0.1500 
 22 C        4.5690     4.3040     2.6570 C.3   1 <1>  -0.0590 
 23 H        2.1440     1.1330    -2.0220 H     1 <1>   0.0800 
 24 H        2.6860     2.1740    -0.7570 H     1 <1>   0.0800 
 25 H        1.7420     2.7660     2.8390 H     1 <1>   0.0800 
 26 H        0.3890     2.9130     1.7340 H     1 <1>   0.0800 
 27 H        2.0310     3.0810     1.1500 H     1 <1>   0.0800 
 28 H        0.9680     0.6620     3.5790 H     1 <1>   0.0800 
 29 H        0.7790    -0.6690     2.4680 H     1 <1>   0.0800 
 30 H       -0.3890     0.6360     2.4640 H     1 <1>   0.0800 
 31 H        3.3860    -0.7610    -1.0630 H     1 <1>   0.0800 
 32 H        4.7850     0.2880    -2.6990 H     1 <1>   0.0800 
 33 H        3.8740    -0.5640     1.1920 H     1 <1>   0.0800 
 34 H        4.1280     1.1760     1.0890 H     1 <1>   0.0800 
 35 H        5.2480     2.4410    -0.6730 H     1 <1>   0.3700 
 36 H        6.9490     0.3970    -1.0890 H     1 <1>   0.0800 
 37 H        6.0300    -1.1060    -1.1590 H     1 <1>   0.0800 
 38 H        3.6650     4.8470    -2.4020 H     1 <1>   0.0800 
 39 H        5.3320     4.9950    -2.9030 H     1 <1>   0.0800 
 40 H        6.8550     5.8510    -1.1000 H     1 <1>   0.1500 
 41 H        6.8670     5.7630     1.6030 H     1 <1>   0.1500 
 42 H        5.2960     4.6540     3.3660 H     1 <1>   0.0800 
 43 H        4.4660     3.2400     2.7570 H     1 <1>   0.0800 
 44 H        3.6250     4.7720     2.8610 H     1 <1>   0.0800 
@<TRIPOS>BOND
  1   1   2  2   
  2   1   3  2   
  3   1   4  am  
  4   1   5  1   
  5   4   6  1   
  6   4   7  1   
  7   5   8  1   
  8   5  23  1   
  9   5  24  1   
 10   6  25  1   
 11   6  26  1   
 12   6  27  1   
 13   7  28  1   
 14   7  29  1   
 15   7  30  1   
 16   8   9  1   
 17   8  10  1   
 18   8  31  1   
 19   9  11  1   
 20   9  12  1   
 21   9  32  1   
 22  10  13  1   
 23  10  33  1   
 24  10  34  1   
 25  11  14  am  
 26  11  35  1   
 27  12  13  1   
 28  12  36  1   
 29  12  37  1   
 30  14  15  2   
 31  14  16  1   
 32  16  17  1   
 33  16  38  1   
 34  16  39  1   
 35  17  18  1   
 36  17  19  1   
 37  18  20  2   
 38  19  21  2   
 39  19  40  1   
 40  20  21  1   
 41  20  22  1   
 42  21  41  1   
 43  22  42  1   
 44  22  43  1   
 45  22  44  1   
@<TRIPOS>SUBSTRUCTURE
  1 ****   5 GROUP 4 **** **** 0

# MOE 2024.06 (io_trps.svl 2023.06)
