@<TRIPOS>MOLECULE
NONAME
58 60 1 0 0 
SMALL
USER_CHARGES


@<TRIPOS>ATOM
  1 CL      -1.3360    -0.8980     2.3300 Cl    1 <1>  -0.1770 
  2 C       -2.2990    -1.1000     0.8810 C.ar  1 <1>   0.1770 
  3 C       -2.9140    -0.0320     0.2230 C.ar  1 <1>   0.0820 
  4 C       -2.4510    -2.3960     0.4230 C.ar  1 <1>  -0.1500 
  5 O       -2.8320     1.2720     0.5870 O.3   1 <1>  -0.3630 
  6 C       -3.6910    -0.3030    -0.8920 C.ar  1 <1>  -0.1500 
  7 C       -3.2360    -2.6580    -0.6930 C.ar  1 <1>  -0.1430 
  8 C       -1.6010     1.8350     0.9830 C.3   1 <1>   0.1200 
  9 C       -3.8490    -1.6000    -1.3510 C.ar  1 <1>  -0.1500 
 10 C       -3.4300    -4.0820    -1.1800 C.3   1 <1>   0.4870 
 11 C       -1.6150     3.3190     0.6120 C.3   1 <1>  -0.1600 
 12 N       -4.3780    -4.7690    -0.2520 N.4   1 <1>  -0.9590 
 13 C       -0.3050     4.0060     1.0140 C.3   1 <1>  -0.2400 
 14 C       -4.4010    -6.2590    -0.4960 C.3   1 <1>   0.3430 
 15 C       -5.7400    -4.1610    -0.3670 C.3   1 <1>   0.3430 
 16 C       -5.4270    -7.0310     0.3980 C.3   1 <1>   0.4230 
 17 C       -6.7030    -4.8550     0.6020 C.3   1 <1>  -0.1600 
 18 N       -5.4500    -8.5490     0.2170 N.4   1 <1>  -0.9590 
 19 C       -6.8430    -6.3840     0.3720 C.3   1 <1>   0.0000 
 20 C       -6.6590    -9.2130     0.8180 C.3   1 <1>   0.3430 
 21 C       -5.2950    -9.0260    -1.2000 C.3   1 <1>   0.2630 
 22 C       -7.6740    -6.9770     1.5460 C.3   1 <1>  -0.1600 
 23 C       -7.6250    -6.6360    -0.9510 C.3   1 <1>   0.1200 
 24 C       -7.2270    -8.3900     1.9750 C.3   1 <1>  -0.1600 
 25 O       -6.8470    -6.3620    -2.0680 O.3   1 <1>  -0.6800 
 26 H       -1.9460    -3.1820     0.9560 H     1 <1>   0.1500 
 27 H       -4.1680     0.5170    -1.4000 H     1 <1>   0.1500 
 28 H       -1.5000     1.7170     2.0470 H     1 <1>   0.0800 
 29 H       -0.8010     1.3250     0.4740 H     1 <1>   0.0800 
 30 H       -4.4550    -1.7640    -2.2270 H     1 <1>   0.1500 
 31 H       -2.4760    -4.5840    -1.1830 H     1 <1>   0.0800 
 32 H       -3.8200    -4.0800    -2.1850 H     1 <1>   0.0800 
 33 H       -1.7540     3.4170    -0.4510 H     1 <1>   0.0800 
 34 H       -2.4360     3.8010     1.1130 H     1 <1>   0.0800 
 35 H       -4.0340    -4.5560     0.6950 H     1 <1>   0.4500 
 36 H        0.5300     3.5510     0.5110 H     1 <1>   0.0800 
 37 H       -0.1530     3.9320     2.0770 H     1 <1>   0.0800 
 38 H       -0.3400     5.0470     0.7460 H     1 <1>   0.0800 
 39 H       -4.6480    -6.4320    -1.5300 H     1 <1>   0.0800 
 40 H       -3.4180    -6.6600    -0.3170 H     1 <1>   0.0800 
 41 H       -5.6960    -3.1090    -0.1300 H     1 <1>   0.0800 
 42 H       -6.1050    -4.2580    -1.3770 H     1 <1>   0.0800 
 43 H       -5.0790    -6.8690     1.4050 H     1 <1>   0.0800 
 44 H       -6.3610    -4.6520     1.6030 H     1 <1>   0.0800 
 45 H       -7.6690    -4.3870     0.5090 H     1 <1>   0.0800 
 46 H       -4.6490    -8.9270     0.7480 H     1 <1>   0.4500 
 47 H       -7.4270    -9.3210     0.0690 H     1 <1>   0.0800 
 48 H       -6.4010   -10.2020     1.1660 H     1 <1>   0.0800 
 49 H       -6.1040    -8.6640    -1.8130 H     1 <1>   0.0800 
 50 H       -5.3010   -10.1040    -1.2340 H     1 <1>   0.0800 
 51 H       -4.3640    -8.6840    -1.6210 H     1 <1>   0.0800 
 52 H       -7.6150    -6.3480     2.4190 H     1 <1>   0.0800 
 53 H       -8.7180    -7.0040     1.2760 H     1 <1>   0.0800 
 54 H       -8.5010    -6.0090    -0.9940 H     1 <1>   0.0800 
 55 H       -7.9520    -7.6580    -1.0280 H     1 <1>   0.0800 
 56 H       -8.0700    -8.9110     2.3970 H     1 <1>   0.0800 
 57 H       -6.4850    -8.3240     2.7540 H     1 <1>   0.0800 
 58 H       -7.4060    -6.3790    -2.8810 H     1 <1>   0.4000 
@<TRIPOS>BOND
  1   1   2  1   
  2   2   3  ar  
  3   2   4  ar  
  4   3   5  1   
  5   3   6  ar  
  6   4   7  ar  
  7   4  26  1   
  8   5   8  1   
  9   6   9  ar  
 10   6  27  1   
 11   7   9  ar  
 12   7  10  1   
 13   8  11  1   
 14   8  28  1   
 15   8  29  1   
 16   9  30  1   
 17  10  12  1   
 18  10  31  1   
 19  10  32  1   
 20  11  13  1   
 21  11  33  1   
 22  11  34  1   
 23  12  14  1   
 24  12  15  1   
 25  12  35  1   
 26  13  36  1   
 27  13  37  1   
 28  13  38  1   
 29  14  16  1   
 30  14  39  1   
 31  14  40  1   
 32  15  17  1   
 33  15  41  1   
 34  15  42  1   
 35  16  18  1   
 36  16  19  1   
 37  16  43  1   
 38  17  19  1   
 39  17  44  1   
 40  17  45  1   
 41  18  20  1   
 42  18  21  1   
 43  18  46  1   
 44  19  22  1   
 45  19  23  1   
 46  20  24  1   
 47  20  47  1   
 48  20  48  1   
 49  21  49  1   
 50  21  50  1   
 51  21  51  1   
 52  22  24  1   
 53  22  52  1   
 54  22  53  1   
 55  23  25  1   
 56  23  54  1   
 57  23  55  1   
 58  24  56  1   
 59  24  57  1   
 60  25  58  1   
@<TRIPOS>SUBSTRUCTURE
  1 ****  12 GROUP 4 **** **** 0

# MOE 2024.06 (io_trps.svl 2023.06)
