@<TRIPOS>MOLECULE
NONAME
43 45 1 0 0 
SMALL
USER_CHARGES


@<TRIPOS>ATOM
  1 O        0.1470     1.0630     1.5870 O.3   1 <1>  -0.6800 
  2 C        0.9700     0.1910     0.8960 C.3   1 <1>   0.1200 
  3 C        1.9040     1.0300     0.0100 C.3   1 <1>   0.3430 
  4 N        2.8350     0.2020    -0.8230 N.4   1 <1>  -0.9590 
  5 C        3.8540    -0.5240    -0.0170 C.3   1 <1>   0.5230 
  6 C        3.4820     0.9770    -1.9140 C.3   1 <1>   0.5240 
  7 C        3.3470    -1.9470     0.1810 C.2   1 <1>   0.0060 
  8 C        4.1660     2.2070    -1.3590 C.2   1 <1>  -0.1810 
  9 N        2.3070    -2.4260    -0.4340 N.2   1 <1>  -0.5650 
 10 N        3.9420    -2.8390     1.0090 N.pl3 1 <1>   0.0330 
 11 C        5.3440     2.2820    -0.6870 C.2   1 <1>  -0.0260 
 12 C        3.7170     3.5140    -1.4510 C.2   1 <1>   0.1390 
 13 C        2.2190    -3.6930     0.0170 C.2   1 <1>   0.0770 
 14 C        3.2070    -3.9590     0.8970 C.2   1 <1>  -0.3020 
 15 N        6.2250     1.2880    -0.3150 N.2   1 <1>  -0.5760 
 16 N        5.5450     3.6200    -0.4170 N.pl3 1 <1>   0.6010 
 17 N        4.5210     4.3660    -0.8860 N.2   1 <1>  -0.7070 
 18 C        7.3010     1.6760     0.2930 C.2   1 <1>   0.3750 
 19 C        6.6980     4.0170     0.2460 C.2   1 <1>  -0.1690 
 20 C        7.5760     3.0410     0.5970 C.2   1 <1>  -0.1360 
 21 C        8.3200     0.6380     0.7090 C.3   1 <1>  -0.1790 
 22 C        6.9040     5.4990     0.5280 C.3   1 <1>  -0.1020 
 23 H       -0.4950     0.5800     2.1490 H     1 <1>   0.4000 
 24 H        0.3490    -0.4550     0.2990 H     1 <1>   0.0800 
 25 H        1.5200    -0.3860     1.6180 H     1 <1>   0.0800 
 26 H        2.4740     1.6970     0.6360 H     1 <1>   0.0800 
 27 H        1.2860     1.6280    -0.6390 H     1 <1>   0.0800 
 28 H        2.2930    -0.5830    -1.2330 H     1 <1>   0.4500 
 29 H        4.0170    -0.0300     0.9260 H     1 <1>   0.0800 
 30 H        4.7880    -0.5700    -0.5510 H     1 <1>   0.0800 
 31 H        2.7400     1.2790    -2.6350 H     1 <1>   0.0800 
 32 H        4.2090     0.3630    -2.4200 H     1 <1>   0.0800 
 33 H        4.7750    -2.7170     1.5970 H     1 <1>   0.2700 
 34 H        2.8030     3.8270    -1.9330 H     1 <1>   0.1500 
 35 H        1.4410    -4.3620    -0.3190 H     1 <1>   0.1500 
 36 H        3.4200    -4.8680     1.4340 H     1 <1>   0.1500 
 37 H        8.4940     3.2660     1.1090 H     1 <1>   0.1500 
 38 H        9.2800     0.8840     0.2920 H     1 <1>   0.0800 
 39 H        8.0340    -0.3360     0.3560 H     1 <1>   0.0800 
 40 H        8.3990     0.6120     1.7800 H     1 <1>   0.0800 
 41 H        6.1010     5.8740     1.1380 H     1 <1>   0.0800 
 42 H        6.9150     6.0520    -0.3960 H     1 <1>   0.0800 
 43 H        7.8340     5.6690     1.0410 H     1 <1>   0.0800 
@<TRIPOS>BOND
  1   1   2  1   
  2   1  23  1   
  3   2   3  1   
  4   2  24  1   
  5   2  25  1   
  6   3   4  1   
  7   3  26  1   
  8   3  27  1   
  9   4   5  1   
 10   4   6  1   
 11   4  28  1   
 12   5   7  1   
 13   5  29  1   
 14   5  30  1   
 15   6   8  1   
 16   6  31  1   
 17   6  32  1   
 18   7   9  2   
 19   7  10  1   
 20   8  11  2   
 21   8  12  1   
 22   9  13  1   
 23  10  14  1   
 24  10  33  1   
 25  11  15  1   
 26  11  16  1   
 27  12  17  2   
 28  12  34  1   
 29  13  14  2   
 30  13  35  1   
 31  14  36  1   
 32  15  18  2   
 33  16  17  1   
 34  16  19  1   
 35  18  20  1   
 36  18  21  1   
 37  19  20  2   
 38  19  22  1   
 39  20  37  1   
 40  21  38  1   
 41  21  39  1   
 42  21  40  1   
 43  22  41  1   
 44  22  42  1   
 45  22  43  1   
@<TRIPOS>SUBSTRUCTURE
  1 ****   5 GROUP 4 **** **** 0

# MOE 2024.06 (io_trps.svl 2023.06)
