@<TRIPOS>MOLECULE
NONAME
51 53 1 0 0 
SMALL
USER_CHARGES


@<TRIPOS>ATOM
  1 O        3.2480    -0.8790     2.0850 O.co2 1 <1>  -0.9000 
  2 C        3.0280    -0.6350     0.8970 C.2   1 <1>   0.9060 
  3 O        3.4670    -1.3480    -0.0080 O.co2 1 <1>  -0.9000 
  4 C        2.3430     0.6830     0.5140 C.3   1 <1>  -0.1060 
  5 C        3.1080     1.2110    -0.7240 C.3   1 <1>   0.2000 
  6 C        2.5210     1.7180     1.6640 C.3   1 <1>  -0.1600 
  7 C        0.8550     0.3500     0.2340 C.3   1 <1>  -0.0170 
  8 O        2.6430     2.4810    -1.0900 O.3   1 <1>  -0.6800 
  9 C        4.5960     1.3620    -0.3590 C.3   1 <1>   0.3430 
 10 C        4.0100     1.9480     1.9630 C.3   1 <1>   0.3430 
 11 C        0.0300     1.4970    -0.3390 C.ar  1 <1>  -0.1440 
 12 N        4.7200     2.3980     0.7250 N.4   1 <1>  -0.9590 
 13 C       -0.5360     2.4480     0.4950 C.ar  1 <1>  -0.1500 
 14 C       -0.1640     1.5960    -1.7090 C.ar  1 <1>  -0.1500 
 15 C        6.1280     2.7700     1.0200 C.3   1 <1>   0.3430 
 16 C       -1.2660     3.4980    -0.0330 C.ar  1 <1>  -0.1500 
 17 C       -0.8930     2.6460    -2.2400 C.ar  1 <1>  -0.1500 
 18 C        6.7860     3.4940    -0.1560 C.3   1 <1>  -0.0170 
 19 C       -1.4420     3.6000    -1.4020 C.ar  1 <1>  -0.1500 
 20 C        8.1560     3.9800     0.2760 C.ar  1 <1>  -0.1440 
 21 C        9.2410     3.1150     0.2450 C.ar  1 <1>  -0.1500 
 22 C        8.3320     5.2850     0.7160 C.ar  1 <1>  -0.1500 
 23 C       10.4890     3.5480     0.6550 C.ar  1 <1>  -0.1500 
 24 C        9.5800     5.7220     1.1260 C.ar  1 <1>  -0.1500 
 25 C       10.6540     4.8480     1.0960 C.ar  1 <1>   0.0820 
 26 O       11.8680     5.2530     1.4930 O.3   1 <1>  -0.5330 
 27 H        2.9900     0.5450    -1.5630 H     1 <1>   0.0800 
 28 H        2.0490     1.3460     2.5570 H     1 <1>   0.0800 
 29 H        2.0580     2.6580     1.4240 H     1 <1>   0.0800 
 30 H        0.8120    -0.4800    -0.4510 H     1 <1>   0.0800 
 31 H        0.3970     0.0090     1.1470 H     1 <1>   0.0800 
 32 H        1.6570     2.4480    -1.1530 H     1 <1>   0.4000 
 33 H        5.1310     1.6650    -1.2410 H     1 <1>   0.0800 
 34 H        4.9980     0.4170    -0.0290 H     1 <1>   0.0800 
 35 H        4.4500     1.0300     2.3250 H     1 <1>   0.0800 
 36 H        4.1050     2.6920     2.7370 H     1 <1>   0.0800 
 37 H        4.1810     3.1960     0.3520 H     1 <1>   0.4500 
 38 H       -0.4130     2.3720     1.5620 H     1 <1>   0.1500 
 39 H        0.2530     0.8540    -2.3710 H     1 <1>   0.1500 
 40 H        6.1510     3.4250     1.8760 H     1 <1>   0.0800 
 41 H        6.6960     1.8870     1.2650 H     1 <1>   0.0800 
 42 H       -1.7010     4.2350     0.6200 H     1 <1>   0.1500 
 43 H       -1.0360     2.7180    -3.3040 H     1 <1>   0.1500 
 44 H        6.8990     2.8310    -0.9940 H     1 <1>   0.0800 
 45 H        6.1840     4.3320    -0.4570 H     1 <1>   0.0800 
 46 H       -2.0090     4.4160    -1.8130 H     1 <1>   0.1500 
 47 H        9.1290     2.1000    -0.0990 H     1 <1>   0.1500 
 48 H        7.5030     5.9710     0.7410 H     1 <1>   0.1500 
 49 H       11.3370     2.8870     0.6360 H     1 <1>   0.1500 
 50 H        9.7090     6.7330     1.4650 H     1 <1>   0.1500 
 51 H       11.8940     6.1860     1.7680 H     1 <1>   0.4500 
@<TRIPOS>BOND
  1   1   2  ar  
  2   2   3  ar  
  3   2   4  1   
  4   4   5  1   
  5   4   6  1   
  6   4   7  1   
  7   5   8  1   
  8   5   9  1   
  9   5  27  1   
 10   6  10  1   
 11   6  28  1   
 12   6  29  1   
 13   7  11  1   
 14   7  30  1   
 15   7  31  1   
 16   8  32  1   
 17   9  12  1   
 18   9  33  1   
 19   9  34  1   
 20  10  12  1   
 21  10  35  1   
 22  10  36  1   
 23  11  13  ar  
 24  11  14  ar  
 25  12  15  1   
 26  12  37  1   
 27  13  16  ar  
 28  13  38  1   
 29  14  17  ar  
 30  14  39  1   
 31  15  18  1   
 32  15  40  1   
 33  15  41  1   
 34  16  19  ar  
 35  16  42  1   
 36  17  19  ar  
 37  17  43  1   
 38  18  20  1   
 39  18  44  1   
 40  18  45  1   
 41  19  46  1   
 42  20  21  ar  
 43  20  22  ar  
 44  21  23  ar  
 45  21  47  1   
 46  22  24  ar  
 47  22  48  1   
 48  23  25  ar  
 49  23  49  1   
 50  24  25  ar  
 51  24  50  1   
 52  25  26  1   
 53  26  51  1   
@<TRIPOS>SUBSTRUCTURE
  1 ****  12 GROUP 4 **** **** 0

# MOE 2024.06 (io_trps.svl 2023.06)
