@<TRIPOS>MOLECULE
NONAME
45 47 1 0 0 
SMALL
USER_CHARGES


@<TRIPOS>ATOM
  1 O       -0.7800     1.0730    -1.8800 O.co2 1 <1>  -0.9000 
  2 C       -0.2990     1.4300    -0.7910 C.2   1 <1>   0.9060 
  3 O        0.8830     1.1940    -0.5010 O.co2 1 <1>  -0.9000 
  4 C       -1.2100     2.0450     0.3070 C.3   1 <1>   0.2280 
  5 N       -2.5140     1.3370     0.4700 N.3   1 <1>  -0.6890 
  6 C       -1.5240     3.5290     0.1060 C.ar  1 <1>  -0.1440 
  7 C       -3.1200     1.4040     1.8220 C.3   1 <1>   0.2100 
  8 C       -2.3160    -0.1180     0.7160 C.3   1 <1>   0.2100 
  9 C       -2.0410     3.9800    -1.0990 C.ar  1 <1>  -0.1500 
 10 C       -1.3100     4.4400     1.1310 C.ar  1 <1>  -0.1500 
 11 C       -3.6680    -0.0170     1.4750 C.3   1 <1>   0.4720 
 12 C       -2.3470     5.3180    -1.2860 C.ar  1 <1>  -0.1440 
 13 C       -1.6160     5.7780     0.9530 C.ar  1 <1>  -0.1500 
 14 N       -4.8390     0.0210     0.5310 N.4   1 <1>  -0.9280 
 15 C       -2.1360     6.2160    -0.2520 C.ar  1 <1>  -0.1500 
 16 C       -2.9040     5.7880    -2.6170 C.3   1 <1>  -0.0970 
 17 C       -6.0710     0.5700     1.1530 C.3   1 <1>   0.3430 
 18 C       -5.0450    -1.2700    -0.1780 C.3   1 <1>   0.3430 
 19 C       -7.1460     0.7650     0.0820 C.3   1 <1>  -0.1600 
 20 C       -6.1100    -1.0970    -1.2620 C.3   1 <1>  -0.1600 
 21 C       -7.4190    -0.5300    -0.6960 C.3   1 <1>  -0.1600 
 22 H       -0.6480     1.9440     1.2170 H     1 <1>   0.0800 
 23 H       -3.8630     2.1760     1.9040 H     1 <1>   0.0000 
 24 H       -2.3850     1.4100     2.6100 H     1 <1>   0.0000 
 25 H       -1.4720    -0.3240     1.3540 H     1 <1>   0.0000 
 26 H       -2.3360    -0.6980    -0.1880 H     1 <1>   0.0000 
 27 H       -2.1970     3.2720    -1.8960 H     1 <1>   0.1500 
 28 H       -0.9010     4.1090     2.0690 H     1 <1>   0.1500 
 29 H       -3.7940    -0.6900     2.3040 H     1 <1>   0.0000 
 30 H       -1.4470     6.4780     1.7510 H     1 <1>   0.1500 
 31 H       -4.4950     0.7040    -0.1710 H     1 <1>   0.4500 
 32 H       -2.3700     7.2570    -0.3840 H     1 <1>   0.1500 
 33 H       -2.5240     5.1750    -3.4140 H     1 <1>   0.0800 
 34 H       -2.6170     6.8070    -2.8060 H     1 <1>   0.0800 
 35 H       -3.9770     5.7210    -2.6070 H     1 <1>   0.0800 
 36 H       -5.8580     1.5180     1.6210 H     1 <1>   0.0800 
 37 H       -6.4310    -0.1110     1.9070 H     1 <1>   0.0800 
 38 H       -5.3620    -2.0240     0.5240 H     1 <1>   0.0800 
 39 H       -4.1230    -1.5930    -0.6350 H     1 <1>   0.0800 
 40 H       -6.8300     1.5390    -0.5960 H     1 <1>   0.0800 
 41 H       -8.0540     1.0990     0.5510 H     1 <1>   0.0800 
 42 H       -6.3010    -2.0500    -1.7230 H     1 <1>   0.0800 
 43 H       -5.7270    -0.4430    -2.0270 H     1 <1>   0.0800 
 44 H       -8.1090    -0.3340    -1.5000 H     1 <1>   0.0800 
 45 H       -7.8730    -1.2550    -0.0420 H     1 <1>   0.0800 
@<TRIPOS>BOND
  1   1   2  ar  
  2   2   3  ar  
  3   2   4  1   
  4   4   5  1   
  5   4   6  1   
  6   4  22  1   
  7   5   7  1   
  8   5   8  1   
  9   6   9  ar  
 10   6  10  ar  
 11   7  11  1   
 12   7  23  1   
 13   7  24  1   
 14   8  11  1   
 15   8  25  1   
 16   8  26  1   
 17   9  12  ar  
 18   9  27  1   
 19  10  13  ar  
 20  10  28  1   
 21  11  14  1   
 22  11  29  1   
 23  12  15  ar  
 24  12  16  1   
 25  13  15  ar  
 26  13  30  1   
 27  14  17  1   
 28  14  18  1   
 29  14  31  1   
 30  15  32  1   
 31  16  33  1   
 32  16  34  1   
 33  16  35  1   
 34  17  19  1   
 35  17  36  1   
 36  17  37  1   
 37  18  20  1   
 38  18  38  1   
 39  18  39  1   
 40  19  21  1   
 41  19  40  1   
 42  19  41  1   
 43  20  21  1   
 44  20  42  1   
 45  20  43  1   
 46  21  44  1   
 47  21  45  1   
@<TRIPOS>SUBSTRUCTURE
  1 ****   5 GROUP 4 **** **** 0

# MOE 2024.06 (io_trps.svl 2023.06)
