@<TRIPOS>MOLECULE
NONAME
53 56 1 0 0 
SMALL
USER_CHARGES


@<TRIPOS>ATOM
  1 O        0.3400    -0.9380     3.7910 O.3   1 <1>  -0.6800 
  2 C        0.7670    -1.4220     2.5620 C.3   1 <1>   0.2000 
  3 C        1.5910    -2.6840     2.8320 C.3   1 <1>  -0.0800 
  4 C        1.7590    -0.3970     1.9880 C.3   1 <1>   0.3430 
  5 C        2.9590    -2.0860     3.1790 C.3   1 <1>   0.3430 
  6 C        1.6320    -3.6950     1.6520 C.3   1 <1>  -0.0170 
  7 N        3.1310    -0.9440     2.2420 N.4   1 <1>  -0.9590 
  8 C        2.5620    -3.2730     0.5130 C.ar  1 <1>  -0.1440 
  9 C        4.1020     0.0940     2.6630 C.3   1 <1>   0.4860 
 10 C        2.1660    -2.3980    -0.5270 C.ar  1 <1>   0.0000 
 11 C        3.8570    -3.7050     0.5150 C.ar  1 <1>  -0.1500 
 12 C        4.2080     1.1100     1.5410 C.ar  1 <1>  -0.1440 
 13 C        3.1780    -1.9060    -1.3870 C.ar  1 <1>   0.3100 
 14 C        0.8380    -1.9710    -0.7610 C.ar  1 <1>  -0.1500 
 15 C        4.7670    -3.2090    -0.4240 C.ar  1 <1>   0.1600 
 16 C        3.6480     2.3710     1.6800 C.ar  1 <1>  -0.1500 
 17 C        4.8480     0.7810     0.3540 C.ar  1 <1>  -0.1500 
 18 N        4.4690    -2.3130    -1.3080 N.ar  1 <1>  -0.6200 
 19 C        2.8430    -0.9510    -2.3580 C.ar  1 <1>  -0.1500 
 20 C        0.5410    -1.0460    -1.7250 C.ar  1 <1>  -0.1500 
 21 C        3.7170     3.2820     0.6400 C.ar  1 <1>  -0.1500 
 22 C        4.9100     1.6970    -0.6810 C.ar  1 <1>  -0.1500 
 23 C        1.5560    -0.5180    -2.5250 C.ar  1 <1>  -0.1500 
 24 C        4.3430     2.9560    -0.5550 C.ar  1 <1>   0.0730 
 25 C        4.4020     3.8960    -1.6330 C.1   1 <1>  -0.0730 
 26 C        4.4500     4.6750    -2.5330 C.1   1 <1>  -0.2000 
 27 C        4.5080     5.6460    -3.6580 C.3   1 <1>   0.3200 
 28 O        5.7430     5.5150    -4.2530 O.3   1 <1>  -0.6800 
 29 H       -0.4470    -1.4250     4.1180 H     1 <1>   0.4000 
 30 H       -0.0960    -1.5680     1.9360 H     1 <1>   0.0800 
 31 H        1.1950    -3.2080     3.6860 H     1 <1>   0.0800 
 32 H        1.6170     0.5520     2.4760 H     1 <1>   0.0800 
 33 H        1.6100    -0.2710     0.9290 H     1 <1>   0.0800 
 34 H        3.7530    -2.8090     3.0810 H     1 <1>   0.0800 
 35 H        2.9310    -1.7180     4.1930 H     1 <1>   0.0800 
 36 H        0.6400    -3.8930     1.2880 H     1 <1>   0.0800 
 37 H        1.9890    -4.6350     2.0380 H     1 <1>   0.0800 
 38 H        3.4580    -1.3200     1.3380 H     1 <1>   0.4500 
 39 H        3.7680     0.5740     3.5680 H     1 <1>   0.0800 
 40 H        5.0690    -0.3490     2.8410 H     1 <1>   0.0800 
 41 H        4.2220    -4.4160     1.2360 H     1 <1>   0.1500 
 42 H        0.0330    -2.3850    -0.1850 H     1 <1>   0.1500 
 43 H        5.7800    -3.5780    -0.3970 H     1 <1>   0.1500 
 44 H        3.1540     2.6610     2.5920 H     1 <1>   0.1500 
 45 H        5.3040    -0.1840     0.2140 H     1 <1>   0.1500 
 46 H        3.6350    -0.5700    -2.9780 H     1 <1>   0.1500 
 47 H       -0.4730    -0.7210    -1.8920 H     1 <1>   0.1500 
 48 H        3.2800     4.2590     0.7510 H     1 <1>   0.1500 
 49 H        5.4040     1.4320    -1.6010 H     1 <1>   0.1500 
 50 H        1.3130     0.2160    -3.2760 H     1 <1>   0.1500 
 51 H        4.4080     6.6560    -3.2980 H     1 <1>   0.0800 
 52 H        3.7510     5.4420    -4.3950 H     1 <1>   0.0800 
 53 H        6.4110     5.3650    -3.5570 H     1 <1>   0.4000 
@<TRIPOS>BOND
  1   1   2  1   
  2   1  29  1   
  3   2   3  1   
  4   2   4  1   
  5   2  30  1   
  6   3   5  1   
  7   3   6  1   
  8   3  31  1   
  9   4   7  1   
 10   4  32  1   
 11   4  33  1   
 12   5   7  1   
 13   5  34  1   
 14   5  35  1   
 15   6   8  1   
 16   6  36  1   
 17   6  37  1   
 18   7   9  1   
 19   7  38  1   
 20   8  10  ar  
 21   8  11  ar  
 22   9  12  1   
 23   9  39  1   
 24   9  40  1   
 25  10  13  ar  
 26  10  14  ar  
 27  11  15  ar  
 28  11  41  1   
 29  12  16  ar  
 30  12  17  ar  
 31  13  18  ar  
 32  13  19  ar  
 33  14  20  ar  
 34  14  42  1   
 35  15  18  ar  
 36  15  43  1   
 37  16  21  ar  
 38  16  44  1   
 39  17  22  ar  
 40  17  45  1   
 41  19  23  ar  
 42  19  46  1   
 43  20  23  ar  
 44  20  47  1   
 45  21  24  ar  
 46  21  48  1   
 47  22  24  ar  
 48  22  49  1   
 49  23  50  1   
 50  24  25  1   
 51  25  26  3   
 52  26  27  1   
 53  27  28  1   
 54  27  51  1   
 55  27  52  1   
 56  28  53  1   
@<TRIPOS>SUBSTRUCTURE
  1 ****  17 GROUP 4 **** **** 0

# MOE 2024.06 (io_trps.svl 2023.06)
