@<TRIPOS>MOLECULE
NONAME
44 47 1 0 0 
SMALL
USER_CHARGES


@<TRIPOS>ATOM
  1 O       -0.6380     0.5240     0.4970 O.2   1 <1>  -0.5700 
  2 C       -1.6270     1.1070     0.0930 C.2   1 <1>   0.5440 
  3 N       -2.7720     0.3800    -0.1790 N.am  1 <1>  -0.6600 
  4 C       -1.5800     2.5440    -0.0770 C.ar  1 <1>   0.0860 
  5 C       -4.1060     1.0440    -0.2930 C.3   1 <1>   0.2200 
  6 C       -2.7170    -1.1130    -0.1970 C.3   1 <1>   0.0600 
  7 C       -1.3660     3.3880     1.0000 C.ar  1 <1>  -0.1500 
  8 C       -1.7730     3.1210    -1.3510 C.ar  1 <1>  -0.1500 
  9 C       -5.1850     0.4580     0.6140 C.3   1 <1>  -0.1600 
 10 C       -4.7030     0.9530    -1.6930 C.3   1 <1>  -0.1600 
 11 C       -1.3720     4.7720     0.8310 C.ar  1 <1>   0.0000 
 12 C       -1.7790     4.4820    -1.5380 C.ar  1 <1>  -0.1500 
 13 C       -6.5010     0.9410    -0.0090 C.3   1 <1>  -0.0800 
 14 C       -6.1940     1.2510    -1.4870 C.3   1 <1>  -0.0800 
 15 C       -1.5820     5.3130    -0.4330 C.ar  1 <1>  -0.1520 
 16 C       -1.2030     5.8650     1.7080 C.2   1 <1>  -0.1500 
 17 C       -7.0250     2.2460     0.6080 C.3   1 <1>  -0.1600 
 18 C       -6.5500     2.7300    -1.7030 C.3   1 <1>  -0.1600 
 19 N       -1.5420     6.6780    -0.3310 N.pl3 1 <1>   0.0330 
 20 C       -1.3130     7.0000     0.9770 C.2   1 <1>  -0.3020 
 21 C       -7.5140     3.0640    -0.5760 C.3   1 <1>   0.2000 
 22 O       -7.4530     4.4080    -0.2830 O.3   1 <1>  -0.6800 
 23 H       -4.0200     2.0860    -0.0400 H     1 <1>   0.0800 
 24 H       -3.4340    -1.5140    -0.8900 H     1 <1>   0.0800 
 25 H       -2.9200    -1.4920     0.7890 H     1 <1>   0.0800 
 26 H       -1.7370    -1.4440    -0.4960 H     1 <1>   0.0800 
 27 H       -1.1960     2.9770     1.9790 H     1 <1>   0.1500 
 28 H       -1.9150     2.4590    -2.1870 H     1 <1>   0.1500 
 29 H       -5.1740    -0.6150     0.5780 H     1 <1>   0.0800 
 30 H       -5.0660     0.7790     1.6340 H     1 <1>   0.0800 
 31 H       -4.2380     1.6410    -2.3750 H     1 <1>   0.0800 
 32 H       -4.6000    -0.0460    -2.0760 H     1 <1>   0.0800 
 33 H       -1.9280     4.9100    -2.5140 H     1 <1>   0.1500 
 34 H       -7.2580     0.1780     0.0610 H     1 <1>   0.0800 
 35 H       -6.7980     0.6340    -2.1310 H     1 <1>   0.0800 
 36 H       -1.0200     5.7670     2.7640 H     1 <1>   0.1500 
 37 H       -6.2260     2.7690     1.1060 H     1 <1>   0.0800 
 38 H       -7.8210     2.0580     1.3060 H     1 <1>   0.0800 
 39 H       -7.0060     2.8870    -2.6640 H     1 <1>   0.0800 
 40 H       -5.6680     3.3420    -1.6180 H     1 <1>   0.0800 
 41 H       -1.6570     7.3370    -1.1080 H     1 <1>   0.2700 
 42 H       -1.2390     8.0210     1.3090 H     1 <1>   0.1500 
 43 H       -8.5260     2.8040    -0.8390 H     1 <1>   0.0800 
 44 H       -6.5450     4.6500    -0.0220 H     1 <1>   0.4000 
@<TRIPOS>BOND
  1   1   2  2   
  2   2   3  am  
  3   2   4  1   
  4   3   5  1   
  5   3   6  1   
  6   4   7  ar  
  7   4   8  ar  
  8   5   9  1   
  9   5  10  1   
 10   5  23  1   
 11   6  24  1   
 12   6  25  1   
 13   6  26  1   
 14   7  11  ar  
 15   7  27  1   
 16   8  12  ar  
 17   8  28  1   
 18   9  13  1   
 19   9  29  1   
 20   9  30  1   
 21  10  14  1   
 22  10  31  1   
 23  10  32  1   
 24  11  15  ar  
 25  11  16  1   
 26  12  15  ar  
 27  12  33  1   
 28  13  14  1   
 29  13  17  1   
 30  13  34  1   
 31  14  18  1   
 32  14  35  1   
 33  15  19  1   
 34  16  20  2   
 35  16  36  1   
 36  17  21  1   
 37  17  37  1   
 38  17  38  1   
 39  18  21  1   
 40  18  39  1   
 41  18  40  1   
 42  19  20  1   
 43  19  41  1   
 44  20  42  1   
 45  21  22  1   
 46  21  43  1   
 47  22  44  1   
@<TRIPOS>SUBSTRUCTURE
  1 ****   5 GROUP 4 **** **** 0

# MOE 2024.06 (io_trps.svl 2023.06)
