@<TRIPOS>MOLECULE
NONAME
40 42 1 0 0 
SMALL
USER_CHARGES


@<TRIPOS>ATOM
  1 O        0.8970    -0.8360    -1.3080 O.2   1 <1>  -0.5700 
  2 C        1.5820    -0.9910    -0.3250 C.2   1 <1>   0.5690 
  3 N        2.2930     0.0240     0.2570 N.am  1 <1>  -0.4940 
  4 C        1.6730    -2.3750     0.3030 C.3   1 <1>  -0.0190 
  5 C        2.3180     1.3980    -0.0890 C.2   1 <1>  -0.0880 
  6 C        2.1860    -3.4700    -0.6570 C.3   1 <1>  -0.0220 
  7 C        0.3310    -2.8890     0.8680 C.3   1 <1>  -0.0220 
  8 N        3.4460     2.1540    -0.2040 N.pl3 1 <1>   0.3140 
  9 C        1.2770     2.2250    -0.3540 C.2   1 <1>  -0.1810 
 10 C        1.4090    -4.6850    -0.2120 C.2   1 <1>  -0.2880 
 11 C        0.4130    -4.3730     0.6070 C.2   1 <1>  -0.2880 
 12 N        3.1460     3.4400    -0.5170 N.2   1 <1>  -0.7070 
 13 C        4.8510     1.6720    -0.0660 C.3   1 <1>   0.1760 
 14 C        1.8540     3.4630    -0.6110 C.2   1 <1>   0.1390 
 15 C       -0.2100     1.9260    -0.3790 C.3   1 <1>  -0.0590 
 16 C        5.6090     2.3460     1.0780 C.3   1 <1>  -0.1600 
 17 C        5.7170     1.9550    -1.2950 C.3   1 <1>  -0.1600 
 18 C        7.0930     2.1970     0.7220 C.3   1 <1>  -0.1600 
 19 C        7.1560     1.8820    -0.7790 C.3   1 <1>  -0.1600 
 20 H        2.8620    -0.2380     1.0600 H     1 <1>   0.3700 
 21 H        2.3620    -2.3410     1.1270 H     1 <1>   0.0800 
 22 H        3.2470    -3.6160    -0.5520 H     1 <1>   0.0800 
 23 H        1.9470    -3.2460    -1.6830 H     1 <1>   0.0800 
 24 H       -0.5080    -2.4750     0.3350 H     1 <1>   0.0800 
 25 H        0.2420    -2.6730     1.9180 H     1 <1>   0.0800 
 26 H        1.6970    -5.6540    -0.5870 H     1 <1>   0.1500 
 27 H       -0.3130    -5.0240     1.0660 H     1 <1>   0.1500 
 28 H        4.8430     0.6120     0.1010 H     1 <1>   0.0800 
 29 H        1.2980     4.3510    -0.8600 H     1 <1>   0.1500 
 30 H       -0.4300     1.0720     0.2340 H     1 <1>   0.0800 
 31 H       -0.5170     1.7130    -1.3870 H     1 <1>   0.0800 
 32 H       -0.7660     2.7690    -0.0100 H     1 <1>   0.0800 
 33 H        5.3790     1.9010     2.0300 H     1 <1>   0.0800 
 34 H        5.3620     3.3950     1.1040 H     1 <1>   0.0800 
 35 H        5.5240     2.9520    -1.6540 H     1 <1>   0.0800 
 36 H        5.5350     1.2480    -2.0840 H     1 <1>   0.0800 
 37 H        7.5330     1.3900     1.2830 H     1 <1>   0.0800 
 38 H        7.6260     3.1050     0.9490 H     1 <1>   0.0800 
 39 H        7.7880     2.5800    -1.3020 H     1 <1>   0.0800 
 40 H        7.5440     0.8880    -0.9220 H     1 <1>   0.0800 
@<TRIPOS>BOND
  1   1   2  2   
  2   2   3  am  
  3   2   4  1   
  4   3   5  1   
  5   3  20  1   
  6   4   6  1   
  7   4   7  1   
  8   4  21  1   
  9   5   8  1   
 10   5   9  2   
 11   6  10  1   
 12   6  22  1   
 13   6  23  1   
 14   7  11  1   
 15   7  24  1   
 16   7  25  1   
 17   8  12  1   
 18   8  13  1   
 19   9  14  1   
 20   9  15  1   
 21  10  11  2   
 22  10  26  1   
 23  11  27  1   
 24  12  14  2   
 25  13  16  1   
 26  13  17  1   
 27  13  28  1   
 28  14  29  1   
 29  15  30  1   
 30  15  31  1   
 31  15  32  1   
 32  16  18  1   
 33  16  33  1   
 34  16  34  1   
 35  17  19  1   
 36  17  35  1   
 37  17  36  1   
 38  18  19  1   
 39  18  37  1   
 40  18  38  1   
 41  19  39  1   
 42  19  40  1   
@<TRIPOS>SUBSTRUCTURE
  1 ****   3 GROUP 4 **** **** 0

# MOE 2024.06 (io_trps.svl 2023.06)
