@<TRIPOS>MOLECULE
NONAME
49 51 1 0 0 
SMALL
USER_CHARGES


@<TRIPOS>ATOM
  1 O        3.3290    -1.2220    -1.0880 O.2   1 <1>  -0.5700 
  2 C        2.1430    -1.0630    -1.2510 C.2   1 <1>   0.5690 
  3 N        1.5610     0.1570    -1.4740 N.am  1 <1>  -0.4940 
  4 C        1.2450    -2.2840    -1.2040 C.3   1 <1>  -0.0990 
  5 C        2.0940     1.4640    -1.6190 C.2   1 <1>  -0.0880 
  6 C        0.8760    -2.6900     0.2350 C.3   1 <1>  -0.0800 
  7 N        3.1910     2.0250    -1.0270 N.pl3 1 <1>   0.3140 
  8 C        1.5590     2.4300    -2.4030 C.2   1 <1>  -0.1500 
  9 C        0.1120    -4.0260     0.2340 C.3   1 <1>   0.1200 
 10 C        0.0450    -1.6080     0.9510 C.3   1 <1>  -0.1600 
 11 N        3.3620     3.3090    -1.4300 N.2   1 <1>  -0.7070 
 12 C        4.1330     1.4230    -0.0490 C.3   1 <1>   0.1760 
 13 C        2.3830     3.5360    -2.2470 C.2   1 <1>   0.1390 
 14 O       -0.2250    -4.3770     1.5410 O.3   1 <1>  -0.5600 
 15 C       -0.4270    -2.1270     2.3150 C.3   1 <1>  -0.1600 
 16 C        4.4290     2.3640     1.1300 C.3   1 <1>  -0.1600 
 17 C        5.4420     1.0480    -0.7580 C.3   1 <1>  -0.1600 
 18 C       -1.0990    -3.4980     2.1780 C.3   1 <1>   0.1200 
 19 C        5.4240     1.7160     2.0880 C.3   1 <1>   0.3430 
 20 C        6.4010     0.3960     0.2260 C.3   1 <1>   0.3430 
 21 N        6.6690     1.3410     1.3520 N.4   1 <1>  -0.9590 
 22 C        7.6910     0.7760     2.2840 C.3   1 <1>   0.2630 
 23 H        0.5620     0.1030    -1.6760 H     1 <1>   0.3700 
 24 H        1.7750    -3.0940    -1.6730 H     1 <1>   0.0800 
 25 H        0.3550    -2.1050    -1.7790 H     1 <1>   0.0800 
 26 H        1.7900    -2.8470     0.7840 H     1 <1>   0.0800 
 27 H        0.6880     2.3850    -3.0300 H     1 <1>   0.1500 
 28 H        0.7300    -4.8140    -0.1610 H     1 <1>   0.0800 
 29 H       -0.7920    -3.9660    -0.3470 H     1 <1>   0.0800 
 30 H       -0.8180    -1.3610     0.3570 H     1 <1>   0.0800 
 31 H        0.6260    -0.7140     1.0950 H     1 <1>   0.0800 
 32 H        3.6700     0.5480     0.3610 H     1 <1>   0.0800 
 33 H        2.2350     4.4800    -2.7460 H     1 <1>   0.1500 
 34 H       -1.1180    -1.4300     2.7540 H     1 <1>   0.0800 
 35 H        0.4130    -2.2240     2.9810 H     1 <1>   0.0800 
 36 H        3.5150     2.5720     1.6580 H     1 <1>   0.0800 
 37 H        4.8310     3.2990     0.7800 H     1 <1>   0.0800 
 38 H        5.8990     1.9220    -1.1890 H     1 <1>   0.0800 
 39 H        5.2410     0.3570    -1.5570 H     1 <1>   0.0800 
 40 H       -1.3270    -3.9060     3.1470 H     1 <1>   0.0800 
 41 H       -2.0070    -3.4350     1.6020 H     1 <1>   0.0800 
 42 H        4.9810     0.8350     2.5260 H     1 <1>   0.0800 
 43 H        5.6590     2.4070     2.8820 H     1 <1>   0.0800 
 44 H        7.3210     0.1500    -0.2800 H     1 <1>   0.0800 
 45 H        5.9650    -0.5170     0.6020 H     1 <1>   0.0800 
 46 H        7.0480     2.2050     0.9350 H     1 <1>   0.4500 
 47 H        7.3260    -0.1330     2.7340 H     1 <1>   0.0800 
 48 H        7.9160     1.4830     3.0660 H     1 <1>   0.0800 
 49 H        8.6020     0.5550     1.7500 H     1 <1>   0.0800 
@<TRIPOS>BOND
  1   1   2  2   
  2   2   3  am  
  3   2   4  1   
  4   3   5  1   
  5   3  23  1   
  6   4   6  1   
  7   4  24  1   
  8   4  25  1   
  9   5   7  1   
 10   5   8  2   
 11   6   9  1   
 12   6  10  1   
 13   6  26  1   
 14   7  11  1   
 15   7  12  1   
 16   8  13  1   
 17   8  27  1   
 18   9  14  1   
 19   9  28  1   
 20   9  29  1   
 21  10  15  1   
 22  10  30  1   
 23  10  31  1   
 24  11  13  2   
 25  12  16  1   
 26  12  17  1   
 27  12  32  1   
 28  13  33  1   
 29  14  18  1   
 30  15  18  1   
 31  15  34  1   
 32  15  35  1   
 33  16  19  1   
 34  16  36  1   
 35  16  37  1   
 36  17  20  1   
 37  17  38  1   
 38  17  39  1   
 39  18  40  1   
 40  18  41  1   
 41  19  21  1   
 42  19  42  1   
 43  19  43  1   
 44  20  21  1   
 45  20  44  1   
 46  20  45  1   
 47  21  22  1   
 48  21  46  1   
 49  22  47  1   
 50  22  48  1   
 51  22  49  1   
@<TRIPOS>SUBSTRUCTURE
  1 ****   1 GROUP 4 **** **** 0

# MOE 2024.06 (io_trps.svl 2023.06)
