@<TRIPOS>MOLECULE
NONAME
55 58 1 0 0 
SMALL
USER_CHARGES


@<TRIPOS>ATOM
  1 F       -1.4250    -2.2130     2.8920 F     1 <1>  -0.1900 
  2 C       -1.6470    -3.1850     2.0430 C.ar  1 <1>   0.1900 
  3 C       -1.3900    -3.0500     0.6750 C.ar  1 <1>   0.0820 
  4 C       -2.1480    -4.3590     2.5700 C.ar  1 <1>  -0.1500 
  5 O       -0.9010    -1.9470     0.0360 O.3   1 <1>  -0.3630 
  6 C       -1.6530    -4.1390    -0.1400 C.ar  1 <1>  -0.1500 
  7 C       -2.4000    -5.4260     1.7280 C.ar  1 <1>  -0.1500 
  8 C       -0.6490    -0.7260     0.6950 C.3   1 <1>   0.0400 
  9 C       -2.1610    -5.3450     0.3530 C.ar  1 <1>   0.0530 
 10 C       -2.4200    -6.4560    -0.5350 C.2   1 <1>   0.0870 
 11 O       -1.9470    -6.4460    -1.7620 O.3   1 <1>  -0.0190 
 12 C       -3.1150    -7.6160    -0.4060 C.2   1 <1>  -0.2330 
 13 N       -2.2800    -7.5080    -2.4510 N.2   1 <1>  -0.4100 
 14 C       -2.9630    -8.2300    -1.6420 C.2   1 <1>   0.3720 
 15 C       -3.9480    -8.1710     0.6040 C.2   1 <1>   1.0330 
 16 N       -3.5360    -9.4510    -1.9680 N.pl3 1 <1>  -0.8520 
 17 O       -4.8060    -7.4850     1.1740 O.co2 1 <1>  -0.9000 
 18 O       -4.0350    -9.4070     0.7460 O.co2 1 <1>  -0.9000 
 19 C       -4.7830    -9.3390    -2.7500 C.3   1 <1>   0.2890 
 20 C       -6.0090    -8.9020    -1.8880 C.3   1 <1>   0.3430 
 21 C       -4.9660   -10.6490    -3.5160 C.3   1 <1>  -0.2400 
 22 N       -6.3320    -9.7010    -0.6530 N.4   1 <1>  -0.9590 
 23 C       -6.7510   -11.1100    -0.8870 C.3   1 <1>   0.4860 
 24 C       -7.2500    -8.9400     0.2400 C.3   1 <1>   0.3430 
 25 C       -7.4550   -11.7580     0.3000 C.ar  1 <1>  -0.1430 
 26 C       -7.3210    -9.6090     1.6100 C.3   1 <1>  -0.0170 
 27 C       -7.7310   -11.0640     1.4730 C.ar  1 <1>  -0.1430 
 28 C       -7.8350   -13.0880     0.1950 C.ar  1 <1>  -0.1500 
 29 C       -8.3750   -11.7000     2.5210 C.ar  1 <1>  -0.1500 
 30 C       -8.4820   -13.7200     1.2430 C.ar  1 <1>  -0.1500 
 31 C       -8.7520   -13.0260     2.4070 C.ar  1 <1>  -0.1500 
 32 H       -2.3400    -4.4380     3.6250 H     1 <1>   0.1500 
 33 H       -1.4560    -4.0390    -1.1920 H     1 <1>   0.1500 
 34 H       -2.7900    -6.3340     2.1510 H     1 <1>   0.1500 
 35 H       -0.3120    -0.0150    -0.0380 H     1 <1>   0.0800 
 36 H        0.1170    -0.8770     1.4340 H     1 <1>   0.0800 
 37 H       -1.5610    -0.3770     1.1480 H     1 <1>   0.0800 
 38 H       -3.6950    -9.9410    -1.0680 H     1 <1>   0.4000 
 39 H       -4.6380    -8.5670    -3.4900 H     1 <1>   0.0800 
 40 H       -6.8760    -8.8770    -2.5250 H     1 <1>   0.0800 
 41 H       -5.8170    -7.8860    -1.5830 H     1 <1>   0.0800 
 42 H       -4.9030   -11.5000    -2.8660 H     1 <1>   0.0800 
 43 H       -4.1810   -10.7350    -4.2470 H     1 <1>   0.0800 
 44 H       -5.9070   -10.6570    -4.0350 H     1 <1>   0.0800 
 45 H       -5.4590    -9.7510    -0.0680 H     1 <1>   0.4500 
 46 H       -5.8810   -11.6990    -1.1200 H     1 <1>   0.0800 
 47 H       -7.4180   -11.1450    -1.7310 H     1 <1>   0.0800 
 48 H       -8.2350    -8.9000    -0.1920 H     1 <1>   0.0800 
 49 H       -6.8840    -7.9330     0.3690 H     1 <1>   0.0800 
 50 H       -8.0280    -9.0780     2.2190 H     1 <1>   0.0800 
 51 H       -6.3600    -9.5440     2.0930 H     1 <1>   0.0800 
 52 H       -7.6310   -13.6490    -0.7000 H     1 <1>   0.1500 
 53 H       -8.5830   -11.1690     3.4340 H     1 <1>   0.1500 
 54 H       -8.7730   -14.7530     1.1550 H     1 <1>   0.1500 
 55 H       -9.2510   -13.5160     3.2240 H     1 <1>   0.1500 
@<TRIPOS>BOND
  1   1   2  1   
  2   2   3  ar  
  3   2   4  ar  
  4   3   5  1   
  5   3   6  ar  
  6   4   7  ar  
  7   4  32  1   
  8   5   8  1   
  9   6   9  ar  
 10   6  33  1   
 11   7   9  ar  
 12   7  34  1   
 13   8  35  1   
 14   8  36  1   
 15   8  37  1   
 16   9  10  1   
 17  10  11  1   
 18  10  12  2   
 19  11  13  1   
 20  12  14  1   
 21  12  15  1   
 22  13  14  2   
 23  14  16  1   
 24  15  17  ar  
 25  15  18  ar  
 26  16  19  1   
 27  16  38  1   
 28  19  20  1   
 29  19  21  1   
 30  19  39  1   
 31  20  22  1   
 32  20  40  1   
 33  20  41  1   
 34  21  42  1   
 35  21  43  1   
 36  21  44  1   
 37  22  23  1   
 38  22  24  1   
 39  22  45  1   
 40  23  25  1   
 41  23  46  1   
 42  23  47  1   
 43  24  26  1   
 44  24  48  1   
 45  24  49  1   
 46  25  27  ar  
 47  25  28  ar  
 48  26  27  1   
 49  26  50  1   
 50  26  51  1   
 51  27  29  ar  
 52  28  30  ar  
 53  28  52  1   
 54  29  31  ar  
 55  29  53  1   
 56  30  31  ar  
 57  30  54  1   
 58  31  55  1   
@<TRIPOS>SUBSTRUCTURE
  1 ****  15 GROUP 4 **** **** 0

# MOE 2024.06 (io_trps.svl 2023.06)
