@<TRIPOS>MOLECULE
NONAME
49 50 1 0 0 
SMALL
USER_CHARGES


@<TRIPOS>ATOM
  1 S        0.4820     2.2990    -1.4600 S.o2  1 <1>   1.3330 
  2 O        0.5450     1.0980    -2.2610 O.2   1 <1>  -0.6500 
  3 O        0.2020     3.5600    -2.1120 O.2   1 <1>  -0.6500 
  4 N        1.9610     2.4290    -0.6430 N.am  1 <1>  -0.8490 
  5 C       -0.7530     2.0380    -0.1730 C.3   1 <1>  -0.0550 
  6 C        2.9700     3.1670    -1.4060 C.3   1 <1>   0.1160 
  7 C        2.5200     1.1500    -0.2000 C.3   1 <1>   0.1160 
  8 C       -0.9470     3.0920     0.9490 C.3   1 <1>  -0.0800 
  9 C       -1.1590     4.5290     0.4570 C.3   1 <1>   0.2000 
 10 C        0.2250     3.1820     1.9350 C.3   1 <1>   0.1400 
 11 O       -2.0310     5.1450     1.3400 O.3   1 <1>  -0.6800 
 12 C        0.2040     5.2130     0.5860 C.3   1 <1>   0.1400 
 13 N        0.9220     4.4530     1.6390 N.am  1 <1>  -0.6600 
 14 C        2.2240     4.6670     2.0130 C.2   1 <1>   0.5690 
 15 O        2.7950     3.8920     2.7490 O.2   1 <1>  -0.5700 
 16 C        2.9780     5.9140     1.5580 C.3   1 <1>   0.1810 
 17 O        3.1330     5.9510     0.1440 O.3   1 <1>  -0.3630 
 18 C        3.1610     7.1500    -0.4960 C.ar  1 <1>   0.0820 
 19 C        3.8680     8.2730    -0.0400 C.ar  1 <1>   0.0820 
 20 C        2.4360     7.2240    -1.6750 C.ar  1 <1>  -0.1500 
 21 O        4.6130     8.1770     1.1000 O.3   1 <1>  -0.3620 
 22 C        3.8020     9.4550    -0.7740 C.ar  1 <1>  -0.1500 
 23 C        2.3850     8.4020    -2.3980 C.ar  1 <1>  -0.1500 
 24 C        5.5520     9.1670     1.4570 C.3   1 <1>   0.0400 
 25 C        3.0650     9.5180    -1.9440 C.ar  1 <1>  -0.1500 
 26 H       -1.7000     1.9300    -0.6660 H     1 <1>   0.0800 
 27 H       -0.5520     1.0950     0.2960 H     1 <1>   0.0800 
 28 H        3.8590     3.3010    -0.8130 H     1 <1>   0.0800 
 29 H        2.5980     4.1410    -1.6690 H     1 <1>   0.0800 
 30 H        3.2190     2.6380    -2.3110 H     1 <1>   0.0800 
 31 H        3.3940     1.3230     0.4060 H     1 <1>   0.0800 
 32 H        2.7930     0.5430    -1.0480 H     1 <1>   0.0800 
 33 H        1.8010     0.6130     0.3930 H     1 <1>   0.0800 
 34 H       -1.8180     2.7720     1.4950 H     1 <1>   0.0800 
 35 H       -1.5770     4.6010    -0.5330 H     1 <1>   0.0800 
 36 H        0.9010     2.3500     1.8450 H     1 <1>   0.0800 
 37 H       -0.1410     3.2210     2.9470 H     1 <1>   0.0800 
 38 H       -1.5900     5.2380     2.2080 H     1 <1>   0.4000 
 39 H        0.1060     6.2540     0.8410 H     1 <1>   0.0800 
 40 H        0.7470     5.1290    -0.3360 H     1 <1>   0.0800 
 41 H        3.9580     5.9210     1.9980 H     1 <1>   0.0800 
 42 H        2.4380     6.7880     1.8710 H     1 <1>   0.0800 
 43 H        1.9070     6.3570    -2.0290 H     1 <1>   0.1500 
 44 H        4.3160    10.3400    -0.4540 H     1 <1>   0.1500 
 45 H        1.8160     8.4490    -3.3110 H     1 <1>   0.1500 
 46 H        6.0920     8.8190     2.3190 H     1 <1>   0.0800 
 47 H        5.0290    10.0750     1.6970 H     1 <1>   0.0800 
 48 H        6.2320     9.3150     0.6360 H     1 <1>   0.0800 
 49 H        3.0220    10.4360    -2.5040 H     1 <1>   0.1500 
@<TRIPOS>BOND
  1   1   2  2   
  2   1   3  2   
  3   1   4  am  
  4   1   5  1   
  5   4   6  1   
  6   4   7  1   
  7   5   8  1   
  8   5  26  1   
  9   5  27  1   
 10   6  28  1   
 11   6  29  1   
 12   6  30  1   
 13   7  31  1   
 14   7  32  1   
 15   7  33  1   
 16   8   9  1   
 17   8  10  1   
 18   8  34  1   
 19   9  11  1   
 20   9  12  1   
 21   9  35  1   
 22  10  13  1   
 23  10  36  1   
 24  10  37  1   
 25  11  38  1   
 26  12  13  1   
 27  12  39  1   
 28  12  40  1   
 29  13  14  am  
 30  14  15  2   
 31  14  16  1   
 32  16  17  1   
 33  16  41  1   
 34  16  42  1   
 35  17  18  1   
 36  18  19  ar  
 37  18  20  ar  
 38  19  21  1   
 39  19  22  ar  
 40  20  23  ar  
 41  20  43  1   
 42  21  24  1   
 43  22  25  ar  
 44  22  44  1   
 45  23  25  ar  
 46  23  45  1   
 47  24  46  1   
 48  24  47  1   
 49  24  48  1   
 50  25  49  1   
@<TRIPOS>SUBSTRUCTURE
  1 ****  17 GROUP 4 **** **** 0

# MOE 2024.06 (io_trps.svl 2023.06)
