@<TRIPOS>MOLECULE
NONAME
53 56 1 0 0 
SMALL
USER_CHARGES


@<TRIPOS>ATOM
  1 O        0.1150     1.5330    -0.9620 O.2   1 <1>  -0.5700 
  2 C       -0.2220     2.6900    -1.0650 C.2   1 <1>   0.5690 
  3 N       -0.9930     3.3410    -0.1410 N.am  1 <1>  -0.5090 
  4 C        0.2080     3.4620    -2.3070 C.3   1 <1>   0.1810 
  5 C       -1.5460     4.6990    -0.4380 C.3   1 <1>   0.3640 
  6 C       -1.4780     2.7090     1.1060 C.3   1 <1>   0.0490 
  7 O        0.3970     4.8210    -2.0130 O.3   1 <1>  -0.5600 
  8 C       -3.0220     4.6010    -0.8390 C.ar  1 <1>  -0.1440 
  9 C       -0.7570     5.4950    -1.5180 C.3   1 <1>   0.2610 
 10 C       -1.1210     3.3460     2.4140 C.3   1 <1>  -0.2000 
 11 C       -0.5030     2.0420     2.0240 C.3   1 <1>  -0.2000 
 12 C       -3.5290     3.5330    -1.5710 C.ar  1 <1>  -0.1500 
 13 C       -3.8850     5.6240    -0.4690 C.ar  1 <1>  -0.1500 
 14 C       -0.3600     6.8500    -0.9260 C.2   1 <1>   0.5690 
 15 C       -4.8670     3.4930    -1.9210 C.ar  1 <1>  -0.1500 
 16 C       -5.2240     5.5870    -0.8180 C.ar  1 <1>  -0.1500 
 17 O       -1.2230     7.6090    -0.5520 O.2   1 <1>  -0.5700 
 18 N        0.9570     7.1480    -0.7940 N.am  1 <1>  -0.7300 
 19 C       -5.7240     4.5150    -1.5500 C.ar  1 <1>   0.0820 
 20 C        1.5260     8.2820    -0.0430 C.3   1 <1>   0.2350 
 21 O       -7.0190     4.4000    -1.9350 O.3   1 <1>  -0.3620 
 22 C        2.4950     7.8040     1.0590 C.3   1 <1>  -0.1900 
 23 C       -7.9690     5.3900    -1.6120 C.3   1 <1>   0.0400 
 24 C        2.2480     6.5030     1.7730 C.3   1 <1>  -0.2000 
 25 C        3.4040     6.6330     0.8100 C.3   1 <1>  -0.2000 
 26 C        3.0030     9.0290     1.8470 C.3   1 <1>   0.2150 
 27 O        3.9380     8.6510     2.7900 O.3   1 <1>  -0.6800 
 28 H       -0.5350     3.3700    -3.0780 H     1 <1>   0.0800 
 29 H        1.1420     3.0690    -2.6670 H     1 <1>   0.0800 
 30 H       -1.5050     5.2590     0.4800 H     1 <1>   0.0800 
 31 H       -2.4560     2.2690     0.9950 H     1 <1>   0.1000 
 32 H       -1.3980     5.6850    -2.3600 H     1 <1>   0.0800 
 33 H       -0.4860     4.2140     2.4330 H     1 <1>   0.1000 
 34 H       -1.8470     3.3440     3.2070 H     1 <1>   0.1000 
 35 H       -0.8140     1.1490     2.5360 H     1 <1>   0.1000 
 36 H        0.5320     2.0110     1.7340 H     1 <1>   0.1000 
 37 H       -2.8970     2.7170    -1.8740 H     1 <1>   0.1500 
 38 H       -3.5200     6.4670     0.0950 H     1 <1>   0.1500 
 39 H       -5.2580     2.6650    -2.4850 H     1 <1>   0.1500 
 40 H       -5.8570     6.3980    -0.5140 H     1 <1>   0.1500 
 41 H        1.6290     6.4500    -1.1250 H     1 <1>   0.3700 
 42 H        2.0490     8.9240    -0.7310 H     1 <1>   0.0800 
 43 H        0.7270     8.8510     0.4030 H     1 <1>   0.0800 
 44 H       -8.9180     5.0880    -2.0190 H     1 <1>   0.0800 
 45 H       -7.6640     6.3230    -2.0510 H     1 <1>   0.0800 
 46 H       -8.0400     5.4710    -0.5420 H     1 <1>   0.0800 
 47 H        2.4660     6.4060     2.8210 H     1 <1>   0.1000 
 48 H        1.4180     5.8820     1.4860 H     1 <1>   0.1000 
 49 H        3.3530     6.0910    -0.1180 H     1 <1>   0.1000 
 50 H        4.4070     6.6480     1.2020 H     1 <1>   0.1000 
 51 H        2.1870     9.5060     2.3640 H     1 <1>   0.0800 
 52 H        3.4720     9.7440     1.1940 H     1 <1>   0.0800 
 53 H        3.6850     7.7800     3.1510 H     1 <1>   0.4000 
@<TRIPOS>BOND
  1   1   2  2   
  2   2   3  am  
  3   2   4  1   
  4   3   5  1   
  5   3   6  1   
  6   4   7  1   
  7   4  28  1   
  8   4  29  1   
  9   5   8  1   
 10   5   9  1   
 11   5  30  1   
 12   6  10  1   
 13   6  11  1   
 14   6  31  1   
 15   7   9  1   
 16   8  12  ar  
 17   8  13  ar  
 18   9  14  1   
 19   9  32  1   
 20  10  11  1   
 21  10  33  1   
 22  10  34  1   
 23  11  35  1   
 24  11  36  1   
 25  12  15  ar  
 26  12  37  1   
 27  13  16  ar  
 28  13  38  1   
 29  14  17  2   
 30  14  18  am  
 31  15  19  ar  
 32  15  39  1   
 33  16  19  ar  
 34  16  40  1   
 35  18  20  1   
 36  18  41  1   
 37  19  21  1   
 38  20  22  1   
 39  20  42  1   
 40  20  43  1   
 41  21  23  1   
 42  22  24  1   
 43  22  25  1   
 44  22  26  1   
 45  23  44  1   
 46  23  45  1   
 47  23  46  1   
 48  24  25  1   
 49  24  47  1   
 50  24  48  1   
 51  25  49  1   
 52  25  50  1   
 53  26  27  1   
 54  26  51  1   
 55  26  52  1   
 56  27  53  1   
@<TRIPOS>SUBSTRUCTURE
  1 ****   5 GROUP 4 **** **** 0

# MOE 2024.06 (io_trps.svl 2023.06)
