@<TRIPOS>MOLECULE
NONAME
60 63 1 0 0 
SMALL
USER_CHARGES


@<TRIPOS>ATOM
  1 S       -1.9210     0.0000    -0.6410 S.o2  1 <1>   1.3330 
  2 O       -0.5230     0.1530    -0.9540 O.2   1 <1>  -0.6500 
  3 O       -2.8890    -0.2020    -1.6990 O.2   1 <1>  -0.6500 
  4 N       -2.4210     1.3820     0.2050 N.am  1 <1>  -0.8490 
  5 C       -2.1200    -1.3590     0.5250 C.3   1 <1>  -0.0550 
  6 C       -1.5560     1.7040     1.3510 C.3   1 <1>   0.1160 
  7 C       -2.4300     2.5540    -0.6830 C.3   1 <1>   0.1160 
  8 C       -3.5370    -1.5800     1.1100 C.3   1 <1>  -0.1600 
  9 C       -4.4880    -2.3770     0.2040 C.3   1 <1>   0.3430 
 10 N       -5.1230    -1.5300    -0.8370 N.4   1 <1>  -0.9590 
 11 C       -6.2210    -0.6650    -0.2820 C.3   1 <1>   0.3430 
 12 C       -5.6150    -2.3550    -1.9750 C.3   1 <1>   0.3430 
 13 C       -6.7990     0.2900    -1.3400 C.3   1 <1>   0.1430 
 14 C       -6.1190    -1.4390    -3.0930 C.3   1 <1>  -0.1600 
 15 C       -7.9910     1.0130    -0.7550 C.ar  1 <1>   0.1670 
 16 C       -7.2250    -0.4890    -2.6020 C.3   1 <1>  -0.1600 
 17 C       -5.8360     1.4580    -1.6730 C.3   1 <1>  -0.1600 
 18 N       -8.9630     0.4360    -0.0930 N.ar  1 <1>  -0.6200 
 19 C       -7.9360     2.3500    -0.9940 C.ar  1 <1>  -0.1440 
 20 C       -6.6990     2.7300    -1.7690 C.3   1 <1>  -0.0170 
 21 C       -9.9410     1.2550     0.3290 C.ar  1 <1>   0.6200 
 22 C       -8.9630     3.1220    -0.5170 C.ar  1 <1>   0.1600 
 23 N       -9.9630     2.5820     0.1420 N.ar  1 <1>  -0.6200 
 24 C      -11.0630     0.6580     1.0400 C.ar  1 <1>   0.0000 
 25 C      -12.3450     1.2140     0.9770 C.ar  1 <1>  -0.1500 
 26 C      -10.9170    -0.4950     1.8160 C.ar  1 <1>  -0.1500 
 27 C      -13.4170     0.6540     1.6460 C.ar  1 <1>  -0.1500 
 28 C      -11.9850    -1.0620     2.4890 C.ar  1 <1>  -0.1500 
 29 C      -13.2390    -0.4880     2.4050 C.ar  1 <1>  -0.1500 
 30 H       -1.4480    -1.1880     1.3440 H     1 <1>   0.0800 
 31 H       -1.7900    -2.2660     0.0550 H     1 <1>   0.0800 
 32 H       -1.5750     0.9100     2.0760 H     1 <1>   0.0800 
 33 H       -1.9040     2.6010     1.8370 H     1 <1>   0.0800 
 34 H       -0.5380     1.8580     1.0290 H     1 <1>   0.0800 
 35 H       -3.0480     2.3700    -1.5450 H     1 <1>   0.0800 
 36 H       -1.4310     2.7730    -1.0270 H     1 <1>   0.0800 
 37 H       -2.8180     3.4140    -0.1640 H     1 <1>   0.0800 
 38 H       -3.9730    -0.6460     1.4180 H     1 <1>   0.0800 
 39 H       -3.4100    -2.1670     2.0040 H     1 <1>   0.0800 
 40 H       -5.2610    -2.8270     0.8070 H     1 <1>   0.0800 
 41 H       -3.9340    -3.1760    -0.2640 H     1 <1>   0.0800 
 42 H       -4.3980    -0.9030    -1.2450 H     1 <1>   0.4500 
 43 H       -5.8540    -0.0810     0.5450 H     1 <1>   0.0800 
 44 H       -7.0200    -1.2890     0.0830 H     1 <1>   0.0800 
 45 H       -6.4170    -2.9960    -1.6450 H     1 <1>   0.0800 
 46 H       -4.8170    -2.9720    -2.3550 H     1 <1>   0.0800 
 47 H       -6.5050    -2.0460    -3.8930 H     1 <1>   0.0800 
 48 H       -5.2900    -0.8790    -3.4910 H     1 <1>   0.0800 
 49 H       -7.5000     0.1960    -3.3860 H     1 <1>   0.0800 
 50 H       -8.1010    -1.0730    -2.3700 H     1 <1>   0.0800 
 51 H       -5.2670     1.2980    -2.5710 H     1 <1>   0.0800 
 52 H       -5.1490     1.5900    -0.8550 H     1 <1>   0.0800 
 53 H       -6.9630     2.9380    -2.7920 H     1 <1>   0.0800 
 54 H       -6.2020     3.5830    -1.3390 H     1 <1>   0.0800 
 55 H       -8.9700     4.1870    -0.6760 H     1 <1>   0.1500 
 56 H      -12.5050     2.1030     0.3910 H     1 <1>   0.1500 
 57 H       -9.9500    -0.9560     1.8970 H     1 <1>   0.1500 
 58 H      -14.3910     1.1070     1.5770 H     1 <1>   0.1500 
 59 H      -11.8410    -1.9500     3.0790 H     1 <1>   0.1500 
 60 H      -14.0720    -0.9260     2.9270 H     1 <1>   0.1500 
@<TRIPOS>BOND
  1   1   2  2   
  2   1   3  2   
  3   1   4  am  
  4   1   5  1   
  5   4   6  1   
  6   4   7  1   
  7   5   8  1   
  8   5  30  1   
  9   5  31  1   
 10   6  32  1   
 11   6  33  1   
 12   6  34  1   
 13   7  35  1   
 14   7  36  1   
 15   7  37  1   
 16   8   9  1   
 17   8  38  1   
 18   8  39  1   
 19   9  10  1   
 20   9  40  1   
 21   9  41  1   
 22  10  11  1   
 23  10  12  1   
 24  10  42  1   
 25  11  13  1   
 26  11  43  1   
 27  11  44  1   
 28  12  14  1   
 29  12  45  1   
 30  12  46  1   
 31  13  15  1   
 32  13  16  1   
 33  13  17  1   
 34  14  16  1   
 35  14  47  1   
 36  14  48  1   
 37  15  18  ar  
 38  15  19  ar  
 39  16  49  1   
 40  16  50  1   
 41  17  20  1   
 42  17  51  1   
 43  17  52  1   
 44  18  21  ar  
 45  19  20  1   
 46  19  22  ar  
 47  20  53  1   
 48  20  54  1   
 49  21  23  ar  
 50  21  24  1   
 51  22  23  ar  
 52  22  55  1   
 53  24  25  ar  
 54  24  26  ar  
 55  25  27  ar  
 56  25  56  1   
 57  26  28  ar  
 58  26  57  1   
 59  27  29  ar  
 60  27  58  1   
 61  28  29  ar  
 62  28  59  1   
 63  29  60  1   
@<TRIPOS>SUBSTRUCTURE
  1 ****  13 GROUP 4 **** **** 0

# MOE 2024.06 (io_trps.svl 2023.06)
