@<TRIPOS>MOLECULE
NONAME
45 48 1 0 0 
SMALL
USER_CHARGES


@<TRIPOS>ATOM
  1 S        0.2540    -0.1250    -1.3850 S.3   1 <1>  -0.0800 
  2 C       -0.8040    -1.4210    -1.8930 C.2   1 <1>  -0.1100 
  3 C        0.5230    -0.9010     0.1610 C.2   1 <1>  -0.1100 
  4 C       -0.9500    -2.3660    -0.9320 C.2   1 <1>  -0.0860 
  5 C       -0.1670    -2.0530     0.2390 C.2   1 <1>  -0.1500 
  6 C       -1.7650    -3.5590    -1.0450 C.2   1 <1>   0.7160 
  7 O       -1.7460    -4.1930    -2.0830 O.2   1 <1>  -0.5700 
  8 N       -2.5760    -3.9970    -0.0160 N.am  1 <1>  -0.6600 
  9 C       -3.1250    -5.3860    -0.0510 C.3   1 <1>   0.1400 
 10 C       -3.0510    -3.0910     1.0710 C.3   1 <1>   0.1400 
 11 C       -4.4160    -5.4550    -0.8820 C.3   1 <1>   0.1400 
 12 C       -4.5590    -3.1780     1.3510 C.3   1 <1>  -0.1600 
 13 N       -5.5770    -4.8280    -0.1730 N.am  1 <1>  -0.6600 
 14 C       -5.4310    -3.3700     0.1060 C.3   1 <1>   0.1400 
 15 C       -6.7550    -5.4940     0.1020 C.2   1 <1>   0.5440 
 16 O       -7.7520    -4.8600     0.3810 O.2   1 <1>  -0.5700 
 17 C       -6.8430    -6.9300     0.0740 C.ar  1 <1>   0.0860 
 18 C       -7.7670    -7.5950    -0.7060 C.ar  1 <1>   0.1600 
 19 C       -6.0140    -7.7380     0.8260 C.ar  1 <1>   0.1600 
 20 N       -7.8440    -8.9080    -0.7680 N.ar  1 <1>  -0.6200 
 21 N       -6.0580    -9.0510     0.7880 N.ar  1 <1>  -0.6200 
 22 C       -6.9810    -9.5690    -0.0110 C.ar  1 <1>   0.5880 
 23 C       -7.0490   -11.0890    -0.0720 C.3   1 <1>  -0.0680 
 24 C       -8.3330   -11.8200     0.1980 C.3   1 <1>  -0.2000 
 25 C       -7.2040   -11.9120     1.1750 C.3   1 <1>  -0.2000 
 26 H       -1.2280    -1.3610    -2.8800 H     1 <1>   0.1500 
 27 H        1.1830    -0.4080     0.8530 H     1 <1>   0.1500 
 28 H       -0.1570    -2.7210     1.0820 H     1 <1>   0.1500 
 29 H       -3.3020    -5.7440     0.9470 H     1 <1>   0.0800 
 30 H       -2.3940    -6.0340    -0.5040 H     1 <1>   0.0800 
 31 H       -2.8330    -2.0720     0.7990 H     1 <1>   0.0800 
 32 H       -2.5080    -3.3090     1.9750 H     1 <1>   0.0800 
 33 H       -4.6240    -6.4840    -1.1080 H     1 <1>   0.0800 
 34 H       -4.2600    -4.9550    -1.8230 H     1 <1>   0.0800 
 35 H       -4.8490    -2.2580     1.8250 H     1 <1>   0.0800 
 36 H       -4.7610    -3.9610     2.0590 H     1 <1>   0.0800 
 37 H       -5.0030    -2.8690    -0.7460 H     1 <1>   0.0800 
 38 H       -6.3980    -2.9310     0.2860 H     1 <1>   0.0800 
 39 H       -8.4600    -7.0170    -1.2970 H     1 <1>   0.1500 
 40 H       -5.2910    -7.2780     1.4770 H     1 <1>   0.1500 
 41 H       -6.4130   -11.4770    -0.8450 H     1 <1>   0.1000 
 42 H       -8.5720   -12.6750    -0.4100 H     1 <1>   0.1000 
 43 H       -9.2040   -11.2440     0.4610 H     1 <1>   0.1000 
 44 H       -7.2900   -11.4010     2.1190 H     1 <1>   0.1000 
 45 H       -6.6520   -12.8330     1.2530 H     1 <1>   0.1000 
@<TRIPOS>BOND
  1   1   2  1   
  2   1   3  1   
  3   2   4  2   
  4   2  26  1   
  5   3   5  2   
  6   3  27  1   
  7   4   5  1   
  8   4   6  1   
  9   5  28  1   
 10   6   7  2   
 11   6   8  am  
 12   8   9  1   
 13   8  10  1   
 14   9  11  1   
 15   9  29  1   
 16   9  30  1   
 17  10  12  1   
 18  10  31  1   
 19  10  32  1   
 20  11  13  1   
 21  11  33  1   
 22  11  34  1   
 23  12  14  1   
 24  12  35  1   
 25  12  36  1   
 26  13  14  1   
 27  13  15  am  
 28  14  37  1   
 29  14  38  1   
 30  15  16  2   
 31  15  17  1   
 32  17  18  ar  
 33  17  19  ar  
 34  18  20  ar  
 35  18  39  1   
 36  19  21  ar  
 37  19  40  1   
 38  20  22  ar  
 39  21  22  ar  
 40  22  23  1   
 41  23  24  1   
 42  23  25  1   
 43  23  41  1   
 44  24  25  1   
 45  24  42  1   
 46  24  43  1   
 47  25  44  1   
 48  25  45  1   
@<TRIPOS>SUBSTRUCTURE
  1 ****  11 GROUP 4 **** **** 0

# MOE 2024.06 (io_trps.svl 2023.06)
