@<TRIPOS>MOLECULE
NONAME
42 43 1 0 0 
SMALL
USER_CHARGES


@<TRIPOS>ATOM
  1 O       -0.6640    -0.1900     1.3280 O.2   1 <1>  -0.5700 
  2 C       -1.1400     0.4270     0.4060 C.2   1 <1>   0.5690 
  3 N       -1.7270    -0.1990    -0.6420 N.am  1 <1>  -0.7300 
  4 C       -1.1000     1.9520     0.4370 C.3   1 <1>  -0.0190 
  5 C       -1.9600    -1.6580    -0.7430 C.3   1 <1>   0.2840 
  6 C       -2.5090     2.5710     0.3560 C.3   1 <1>  -0.1600 
  7 C       -0.1710     2.5300    -0.6590 C.3   1 <1>  -0.1600 
  8 C       -3.4590    -1.9320    -0.8410 C.ar  1 <1>   0.1660 
  9 C       -2.4830     4.1010     0.5590 C.3   1 <1>   0.2000 
 10 C       -0.4710     4.0010    -1.0120 C.3   1 <1>  -0.1600 
 11 N       -3.9700    -1.8060    -2.0610 N.ar  1 <1>  -0.6200 
 12 C       -4.2060    -2.2740     0.2860 C.ar  1 <1>  -0.1430 
 13 O       -3.5090     4.6630    -0.2220 O.3   1 <1>  -0.5600 
 14 C       -1.1270     4.7410     0.1570 C.3   1 <1>   0.2000 
 15 C       -5.2660    -2.0420    -2.1730 C.ar  1 <1>   0.1600 
 16 C       -5.5580    -2.5140     0.1400 C.ar  1 <1>  -0.1500 
 17 C       -3.5890    -2.3860     1.6760 C.3   1 <1>  -0.0970 
 18 C       -4.7860     4.5840     0.3310 C.3   1 <1>   0.0400 
 19 O       -1.3400     6.0480    -0.2300 O.3   1 <1>  -0.6800 
 20 C       -6.0920    -2.3940    -1.1230 C.ar  1 <1>  -0.1500 
 21 H       -2.2090     0.3370    -1.3660 H     1 <1>   0.3700 
 22 H       -0.6870     2.2260     1.3930 H     1 <1>   0.0800 
 23 H       -1.4770    -2.0290    -1.6290 H     1 <1>   0.0800 
 24 H       -1.5270    -2.1650     0.1000 H     1 <1>   0.0800 
 25 H       -3.1370     2.1250     1.1070 H     1 <1>   0.0800 
 26 H       -2.9280     2.3490    -0.6100 H     1 <1>   0.0800 
 27 H        0.8460     2.4460    -0.3150 H     1 <1>   0.0800 
 28 H       -0.2480     1.9460    -1.5600 H     1 <1>   0.0800 
 29 H       -2.6630     4.3410     1.5930 H     1 <1>   0.0800 
 30 H       -1.1450     4.0270    -1.8520 H     1 <1>   0.0800 
 31 H        0.4400     4.4980    -1.2960 H     1 <1>   0.0800 
 32 H       -0.4540     4.7500     0.9960 H     1 <1>   0.0800 
 33 H       -5.6940    -1.9490    -3.1570 H     1 <1>   0.1500 
 34 H       -6.1800    -2.7840     0.9760 H     1 <1>   0.1500 
 35 H       -4.3470    -2.5350     2.4240 H     1 <1>   0.0800 
 36 H       -3.0540    -1.4850     1.9210 H     1 <1>   0.0800 
 37 H       -2.9090    -3.2180     1.7150 H     1 <1>   0.0800 
 38 H       -5.4740     5.0560    -0.3490 H     1 <1>   0.0800 
 39 H       -4.7980     5.1020     1.2740 H     1 <1>   0.0800 
 40 H       -5.0620     3.5520     0.4600 H     1 <1>   0.0800 
 41 H       -2.2460     6.0670    -0.6130 H     1 <1>   0.4000 
 42 H       -7.1380    -2.5700    -1.2940 H     1 <1>   0.1500 
@<TRIPOS>BOND
  1   1   2  2   
  2   2   3  am  
  3   2   4  1   
  4   3   5  1   
  5   3  21  1   
  6   4   6  1   
  7   4   7  1   
  8   4  22  1   
  9   5   8  1   
 10   5  23  1   
 11   5  24  1   
 12   6   9  1   
 13   6  25  1   
 14   6  26  1   
 15   7  10  1   
 16   7  27  1   
 17   7  28  1   
 18   8  11  ar  
 19   8  12  ar  
 20   9  13  1   
 21   9  14  1   
 22   9  29  1   
 23  10  14  1   
 24  10  30  1   
 25  10  31  1   
 26  11  15  ar  
 27  12  16  ar  
 28  12  17  1   
 29  13  18  1   
 30  14  19  1   
 31  14  32  1   
 32  15  20  ar  
 33  15  33  1   
 34  16  20  ar  
 35  16  34  1   
 36  17  35  1   
 37  17  36  1   
 38  17  37  1   
 39  18  38  1   
 40  18  39  1   
 41  18  40  1   
 42  19  41  1   
 43  20  42  1   
@<TRIPOS>SUBSTRUCTURE
  1 ****   3 GROUP 4 **** **** 0

# MOE 2024.06 (io_trps.svl 2023.06)
