@<TRIPOS>MOLECULE
NONAME
37 38 1 0 0 
SMALL
USER_CHARGES


@<TRIPOS>ATOM
  1 O       -0.0260    -0.2610     0.6020 O.2   1 <1>  -0.5700 
  2 C        0.0670    -1.4600     0.4260 C.2   1 <1>   0.7800 
  3 O        1.2250    -2.0350     0.0950 O.3   1 <1>  -0.4300 
  4 N       -1.0040    -2.2900     0.5540 N.am  1 <1>  -0.6600 
  5 C        2.4660    -1.3950    -0.1050 C.3   1 <1>   0.2800 
  6 C       -2.4800    -1.7750     0.7600 C.3   1 <1>   0.2200 
  7 C       -0.9940    -3.8810     0.2010 C.3   1 <1>   0.1400 
  8 C        2.9320    -0.7210     1.1910 C.3   1 <1>  -0.2400 
  9 C        3.4390    -2.5180    -0.4660 C.3   1 <1>  -0.2400 
 10 C        2.3730    -0.4110    -1.2770 C.3   1 <1>  -0.2400 
 11 C       -2.5560    -3.0530     0.3850 C.3   1 <1>  -0.1600 
 12 C       -4.0540    -2.2020     0.5750 C.3   1 <1>  -0.1600 
 13 C       -2.5570    -4.3360     0.0130 C.3   1 <1>  -0.0800 
 14 C       -4.1100    -3.8480     0.2310 C.3   1 <1>  -0.0800 
 15 C       -5.0170    -4.1730    -0.9680 C.3   1 <1>   0.1200 
 16 O       -6.2910    -3.6910    -0.7210 O.3   1 <1>  -0.6800 
 17 H       -2.4650    -1.4950     1.8040 H     1 <1>   0.0800 
 18 H       -0.5300    -4.4250     1.0090 H     1 <1>   0.0800 
 19 H       -0.4240    -4.0530    -0.6980 H     1 <1>   0.0800 
 20 H        2.9140    -1.4240     2.0050 H     1 <1>   0.0800 
 21 H        2.3090     0.1190     1.4370 H     1 <1>   0.0800 
 22 H        3.9360    -0.3570     1.0760 H     1 <1>   0.0800 
 23 H        3.4980    -3.2330     0.3360 H     1 <1>   0.0800 
 24 H        4.4220    -2.1200    -0.6380 H     1 <1>   0.0800 
 25 H        3.1150    -3.0190    -1.3600 H     1 <1>   0.0800 
 26 H        1.7510     0.4290    -1.0290 H     1 <1>   0.0800 
 27 H        1.9740    -0.9020    -2.1460 H     1 <1>   0.0800 
 28 H        3.3490    -0.0320    -1.5160 H     1 <1>   0.0800 
 29 H       -2.5450    -2.7310    -0.7530 H     1 <1>   0.0800 
 30 H       -2.5390    -3.3700     1.5250 H     1 <1>   0.0800 
 31 H       -4.4950    -1.6230    -0.2230 H     1 <1>   0.0800 
 32 H       -4.6170    -1.9780     1.4670 H     1 <1>   0.0800 
 33 H       -2.5500    -4.6280    -1.0270 H     1 <1>   0.0800 
 34 H       -4.5100    -4.3750     1.0860 H     1 <1>   0.0800 
 35 H       -5.0810    -5.2360    -1.1300 H     1 <1>   0.0800 
 36 H       -4.6560    -3.6970    -1.8630 H     1 <1>   0.0800 
 37 H       -6.6550    -4.0840     0.0950 H     1 <1>   0.4000 
@<TRIPOS>BOND
  1   1   2  2   
  2   2   3  1   
  3   2   4  am  
  4   3   5  1   
  5   4   6  1   
  6   4   7  1   
  7   5   8  1   
  8   5   9  1   
  9   5  10  1   
 10   6  11  1   
 11   6  12  1   
 12   6  17  1   
 13   7  13  1   
 14   7  18  1   
 15   7  19  1   
 16   8  20  1   
 17   8  21  1   
 18   8  22  1   
 19   9  23  1   
 20   9  24  1   
 21   9  25  1   
 22  10  26  1   
 23  10  27  1   
 24  10  28  1   
 25  11  13  1   
 26  11  29  1   
 27  11  30  1   
 28  12  14  1   
 29  12  31  1   
 30  12  32  1   
 31  13  14  1   
 32  13  33  1   
 33  14  15  1   
 34  14  34  1   
 35  15  16  1   
 36  15  35  1   
 37  15  36  1   
 38  16  37  1   
@<TRIPOS>SUBSTRUCTURE
  1 ****   4 GROUP 4 **** **** 0

# MOE 2024.06 (io_trps.svl 2023.06)
