@<TRIPOS>MOLECULE
NONAME
43 45 1 0 0 
SMALL
USER_CHARGES


@<TRIPOS>ATOM
  1 O        0.7270     1.3680     0.1660 O.3   1 <1>  -0.0190 
  2 N        1.4410     0.2820     0.2430 N.2   1 <1>  -0.4100 
  3 C        1.2460     2.2320    -0.6650 C.2   1 <1>  -0.0400 
  4 C        2.4330     0.4500    -0.5560 C.2   1 <1>   0.1080 
  5 C        2.3640     1.6950    -1.1750 C.2   1 <1>  -0.1500 
  6 C        0.5730     3.5730    -0.8870 C.3   1 <1>   0.0200 
  7 C        3.5230    -0.5730    -0.7850 C.3   1 <1>  -0.0590 
  8 C        0.5100     4.3820     0.4170 C.3   1 <1>  -0.0800 
  9 C       -0.0520     5.7820     0.2120 C.3   1 <1>   0.2000 
 10 C        1.8810     4.6180     1.0550 C.3   1 <1>   0.2090 
 11 O       -1.4410     5.7490     0.2320 O.3   1 <1>  -0.6800 
 12 C        0.5260     6.6030     1.3610 C.3   1 <1>   0.2090 
 13 N        1.8400     5.9720     1.6770 N.pl3 1 <1>  -0.8380 
 14 C        2.9540     6.7620     1.4290 C.ar  1 <1>   0.4100 
 15 N        3.1020     7.1910     0.1840 N.ar  1 <1>  -0.6200 
 16 C        3.8550     7.0650     2.4580 C.ar  1 <1>   0.1600 
 17 C        4.1880     7.9370     0.0260 C.ar  1 <1>   0.4100 
 18 N        4.9470     7.8000     2.3250 N.ar  1 <1>  -0.6200 
 19 N        4.4120     8.4560    -1.2470 N.pl3 1 <1>  -0.8380 
 20 C        5.0760     8.2170     1.0760 C.ar  1 <1>   0.1600 
 21 C        4.2750     9.9260    -1.4150 C.3   1 <1>   0.1290 
 22 C        3.9590     7.6710    -2.4280 C.3   1 <1>   0.1290 
 23 H        3.0620     2.0960    -1.8860 H     1 <1>   0.1500 
 24 H        1.1210     4.1230    -1.6320 H     1 <1>   0.0800 
 25 H       -0.4240     3.4100    -1.2580 H     1 <1>   0.0800 
 26 H        4.4840    -0.1310    -0.5980 H     1 <1>   0.0800 
 27 H        3.4840    -0.9260    -1.7990 H     1 <1>   0.0800 
 28 H        3.3880    -1.4080    -0.1210 H     1 <1>   0.0800 
 29 H       -0.0880     3.8550     1.1390 H     1 <1>   0.0800 
 30 H        0.2700     6.2050    -0.7240 H     1 <1>   0.0800 
 31 H        2.6560     4.5820     0.3060 H     1 <1>   0.0800 
 32 H        2.0880     3.8700     1.8010 H     1 <1>   0.0800 
 33 H       -1.7600     5.3310     1.0550 H     1 <1>   0.4000 
 34 H       -0.1050     6.5410     2.2300 H     1 <1>   0.0800 
 35 H        0.6430     7.6330     1.0700 H     1 <1>   0.0800 
 36 H        3.6380     6.6650     3.4310 H     1 <1>   0.1500 
 37 H        5.9340     8.8180     0.8420 H     1 <1>   0.1500 
 38 H        4.9720    10.2730    -2.1580 H     1 <1>   0.0800 
 39 H        4.4760    10.4340    -0.4870 H     1 <1>   0.0800 
 40 H        3.2730    10.1660    -1.7280 H     1 <1>   0.0800 
 41 H        4.5070     7.9730    -3.3030 H     1 <1>   0.0800 
 42 H        2.9070     7.8280    -2.5900 H     1 <1>   0.0800 
 43 H        4.1310     6.6220    -2.2560 H     1 <1>   0.0800 
@<TRIPOS>BOND
  1   1   2  1   
  2   1   3  1   
  3   2   4  2   
  4   3   5  2   
  5   3   6  1   
  6   4   5  1   
  7   4   7  1   
  8   5  23  1   
  9   6   8  1   
 10   6  24  1   
 11   6  25  1   
 12   7  26  1   
 13   7  27  1   
 14   7  28  1   
 15   8   9  1   
 16   8  10  1   
 17   8  29  1   
 18   9  11  1   
 19   9  12  1   
 20   9  30  1   
 21  10  13  1   
 22  10  31  1   
 23  10  32  1   
 24  11  33  1   
 25  12  13  1   
 26  12  34  1   
 27  12  35  1   
 28  13  14  1   
 29  14  15  ar  
 30  14  16  ar  
 31  15  17  ar  
 32  16  18  ar  
 33  16  36  1   
 34  17  19  1   
 35  17  20  ar  
 36  18  20  ar  
 37  19  21  1   
 38  19  22  1   
 39  20  37  1   
 40  21  38  1   
 41  21  39  1   
 42  21  40  1   
 43  22  41  1   
 44  22  42  1   
 45  22  43  1   
@<TRIPOS>SUBSTRUCTURE
  1 ****  10 GROUP 4 **** **** 0

# MOE 2024.06 (io_trps.svl 2023.06)
