@<TRIPOS>MOLECULE
NONAME
44 45 1 0 0 
SMALL
USER_CHARGES


@<TRIPOS>ATOM
  1 CL       0.3310     0.4370    -1.9360 Cl    1 <1>  -0.1770 
  2 C        1.5510    -0.6160    -1.2480 C.ar  1 <1>   0.1770 
  3 C        2.5740    -0.0890    -0.4670 C.ar  1 <1>   0.0820 
  4 C        1.4630    -1.9720    -1.5090 C.ar  1 <1>  -0.1500 
  5 O        2.6020     1.2560    -0.2570 O.3   1 <1>  -0.3630 
  6 C        3.5220    -0.9610     0.0590 C.ar  1 <1>  -0.1500 
  7 C        2.4070    -2.8420    -0.9820 C.ar  1 <1>  -0.1440 
  8 C        3.6460     1.8670     0.4680 C.3   1 <1>   0.0400 
  9 C        3.4320    -2.3210    -0.1940 C.ar  1 <1>   0.0820 
 10 C        2.3220    -4.3330    -1.2830 C.3   1 <1>   0.2540 
 11 O        4.3760    -3.1330     0.3240 O.3   1 <1>  -0.3630 
 12 N        1.6270    -5.0730    -0.2130 N.3   1 <1>  -0.8100 
 13 C        4.1240    -3.5990     1.6310 C.3   1 <1>   0.0400 
 14 C        1.8110    -6.5510    -0.3840 C.3   1 <1>   0.2510 
 15 C        0.1960    -4.6990    -0.1460 C.3   1 <1>   0.1100 
 16 C        0.6120    -7.4720    -0.0190 C.2   1 <1>   0.5690 
 17 C        3.0540    -6.9370     0.4270 C.3   1 <1>  -0.2400 
 18 C       -0.5390    -5.5070     0.9260 C.3   1 <1>   0.1400 
 19 O        0.7010    -8.6500    -0.2970 O.2   1 <1>  -0.5700 
 20 N       -0.5040    -6.9510     0.5800 N.am  1 <1>  -0.6600 
 21 C       -1.8610    -7.6140     0.4280 C.3   1 <1>   0.0340 
 22 C       -2.9140    -6.8450    -0.3860 C.2   1 <1>   0.9060 
 23 O       -2.5750    -6.1420    -1.3510 O.co2 1 <1>  -0.9000 
 24 O       -4.0940    -6.9140    -0.0210 O.co2 1 <1>  -0.9000 
 25 H        0.6570    -2.3390    -2.1190 H     1 <1>   0.1500 
 26 H        4.3370    -0.6150     0.6620 H     1 <1>   0.1500 
 27 H        3.4670     2.9270     0.4810 H     1 <1>   0.0800 
 28 H        4.5810     1.6600    -0.0220 H     1 <1>   0.0800 
 29 H        3.6440     1.4850     1.4740 H     1 <1>   0.0800 
 30 H        3.3230    -4.7140    -1.3920 H     1 <1>   0.0800 
 31 H        1.8120    -4.4900    -2.2180 H     1 <1>   0.0800 
 32 H        4.8950    -4.3000     1.8930 H     1 <1>   0.0800 
 33 H        3.1640    -4.0840     1.6520 H     1 <1>   0.0800 
 34 H        4.1340    -2.7640     2.3070 H     1 <1>   0.0800 
 35 H        2.0080    -6.7560    -1.4220 H     1 <1>   0.0800 
 36 H       -0.2870    -4.8650    -1.0960 H     1 <1>   0.0800 
 37 H        0.1040    -3.6570     0.1010 H     1 <1>   0.0800 
 38 H        2.8700    -6.7660     1.4710 H     1 <1>   0.0800 
 39 H        3.9080    -6.3670     0.1140 H     1 <1>   0.0800 
 40 H        3.2680    -7.9810     0.2850 H     1 <1>   0.0800 
 41 H       -1.5550    -5.1590     0.9920 H     1 <1>   0.0800 
 42 H       -0.0700    -5.3550     1.8810 H     1 <1>   0.0800 
 43 H       -2.2720    -7.7810     1.4050 H     1 <1>   0.0800 
 44 H       -1.7450    -8.5710    -0.0420 H     1 <1>   0.0800 
@<TRIPOS>BOND
  1   1   2  1   
  2   2   3  ar  
  3   2   4  ar  
  4   3   5  1   
  5   3   6  ar  
  6   4   7  ar  
  7   4  25  1   
  8   5   8  1   
  9   6   9  ar  
 10   6  26  1   
 11   7   9  ar  
 12   7  10  1   
 13   8  27  1   
 14   8  28  1   
 15   8  29  1   
 16   9  11  1   
 17  10  12  1   
 18  10  30  1   
 19  10  31  1   
 20  11  13  1   
 21  12  14  1   
 22  12  15  1   
 23  13  32  1   
 24  13  33  1   
 25  13  34  1   
 26  14  16  1   
 27  14  17  1   
 28  14  35  1   
 29  15  18  1   
 30  15  36  1   
 31  15  37  1   
 32  16  19  2   
 33  16  20  am  
 34  17  38  1   
 35  17  39  1   
 36  17  40  1   
 37  18  20  1   
 38  18  41  1   
 39  18  42  1   
 40  20  21  1   
 41  21  22  1   
 42  21  43  1   
 43  21  44  1   
 44  22  23  ar  
 45  22  24  ar  
@<TRIPOS>SUBSTRUCTURE
  1 ****  12 GROUP 4 **** **** 0

# MOE 2024.06 (io_trps.svl 2023.06)
