@<TRIPOS>MOLECULE
NONAME
52 53 1 0 0 
SMALL
USER_CHARGES


@<TRIPOS>ATOM
  1 O        0.1550    -0.1020    -0.1310 O.2   1 <1>  -0.5700 
  2 C        1.1010    -0.7650    -0.4910 C.2   1 <1>   0.5690 
  3 N        2.2260    -0.1840    -1.0280 N.am  1 <1>  -0.6600 
  4 C        1.0060    -2.2790    -0.3430 C.3   1 <1>  -0.0990 
  5 C        3.3620    -0.9620    -1.5960 C.3   1 <1>   0.1400 
  6 C        2.2950     1.3050    -1.1430 C.3   1 <1>   0.1400 
  7 C       -0.2020    -2.7490     0.4960 C.3   1 <1>  -0.0990 
  8 C        4.4460    -1.1720    -0.5320 C.3   1 <1>  -0.1600 
  9 C        3.7090     1.8950    -1.0230 C.3   1 <1>  -0.1600 
 10 C       -0.2950    -4.2610     0.6630 C.2   1 <1>   0.5690 
 11 C        5.3240     0.0610    -0.2680 C.3   1 <1>  -0.1600 
 12 C        4.5440     1.3210     0.1330 C.3   1 <1>  -0.1600 
 13 O        0.6370    -4.9340     0.2880 O.2   1 <1>  -0.5700 
 14 N       -1.4060    -4.8290     1.2340 N.am  1 <1>  -0.6600 
 15 C       -1.4530    -6.3030     1.4360 C.3   1 <1>   0.3200 
 16 C       -2.5500    -4.0420     1.8030 C.3   1 <1>   0.1400 
 17 C       -2.1500    -6.9490     0.2570 C.2   1 <1>  -0.3320 
 18 C       -3.6460    -3.7320     0.7700 C.3   1 <1>   0.1200 
 19 N       -3.2520    -7.7200     0.3430 N.pl3 1 <1>   0.0330 
 20 C       -1.8330    -6.8860    -1.0540 C.2   1 <1>   0.0770 
 21 O       -4.2640    -4.8970     0.3520 O.3   1 <1>  -0.6800 
 22 C       -3.5450    -8.0590    -0.9300 C.2   1 <1>   0.0060 
 23 N       -2.7170    -7.5780    -1.7970 N.2   1 <1>  -0.5650 
 24 C       -4.7400    -8.9120    -1.2960 C.3   1 <1>  -0.0600 
 25 H        1.9040    -2.6370     0.1240 H     1 <1>   0.0800 
 26 H        0.9370    -2.7140    -1.3230 H     1 <1>   0.0800 
 27 H        3.7690    -0.4520    -2.4520 H     1 <1>   0.0800 
 28 H        3.0130    -1.9200    -1.9390 H     1 <1>   0.0800 
 29 H        1.6910     1.7410    -0.3650 H     1 <1>   0.0800 
 30 H        1.8640     1.5980    -2.0850 H     1 <1>   0.0800 
 31 H       -1.0980    -2.3980     0.0210 H     1 <1>   0.0800 
 32 H       -0.1370    -2.3030     1.4710 H     1 <1>   0.0800 
 33 H        5.0890    -1.9690    -0.8630 H     1 <1>   0.0800 
 34 H        3.9890    -1.4930     0.3870 H     1 <1>   0.0800 
 35 H        3.5930     2.9520    -0.8640 H     1 <1>   0.0800 
 36 H        4.2320     1.7840    -1.9560 H     1 <1>   0.0800 
 37 H        5.9140     0.2720    -1.1430 H     1 <1>   0.0800 
 38 H        6.0100    -0.1810     0.5250 H     1 <1>   0.0800 
 39 H        3.9150     1.1190     0.9840 H     1 <1>   0.0800 
 40 H        5.2600     2.0680     0.4330 H     1 <1>   0.0800 
 41 H       -1.9700    -6.5310     2.3520 H     1 <1>   0.0800 
 42 H       -0.4550    -6.7010     1.5190 H     1 <1>   0.0800 
 43 H       -2.1820    -3.1120     2.1970 H     1 <1>   0.0800 
 44 H       -2.9900    -4.5740     2.6280 H     1 <1>   0.0800 
 45 H       -3.2400    -3.2330    -0.0930 H     1 <1>   0.0800 
 46 H       -4.4020    -3.1060     1.2110 H     1 <1>   0.0800 
 47 H       -3.7860    -7.9730     1.1790 H     1 <1>   0.2700 
 48 H       -1.0030    -6.3640    -1.5040 H     1 <1>   0.1500 
 49 H       -3.6070    -5.4700    -0.1130 H     1 <1>   0.4000 
 50 H       -4.6660    -9.8740    -0.8240 H     1 <1>   0.0800 
 51 H       -4.7730    -9.0510    -2.3610 H     1 <1>   0.0800 
 52 H       -5.6470    -8.4280    -0.9840 H     1 <1>   0.0800 
@<TRIPOS>BOND
  1   1   2  2   
  2   2   3  am  
  3   2   4  1   
  4   3   5  1   
  5   3   6  1   
  6   4   7  1   
  7   4  25  1   
  8   4  26  1   
  9   5   8  1   
 10   5  27  1   
 11   5  28  1   
 12   6   9  1   
 13   6  29  1   
 14   6  30  1   
 15   7  10  1   
 16   7  31  1   
 17   7  32  1   
 18   8  11  1   
 19   8  33  1   
 20   8  34  1   
 21   9  12  1   
 22   9  35  1   
 23   9  36  1   
 24  10  13  2   
 25  10  14  am  
 26  11  12  1   
 27  11  37  1   
 28  11  38  1   
 29  12  39  1   
 30  12  40  1   
 31  14  15  1   
 32  14  16  1   
 33  15  17  1   
 34  15  41  1   
 35  15  42  1   
 36  16  18  1   
 37  16  43  1   
 38  16  44  1   
 39  17  19  1   
 40  17  20  2   
 41  18  21  1   
 42  18  45  1   
 43  18  46  1   
 44  19  22  1   
 45  19  47  1   
 46  20  23  1   
 47  20  48  1   
 48  21  49  1   
 49  22  23  2   
 50  22  24  1   
 51  24  50  1   
 52  24  51  1   
 53  24  52  1   
@<TRIPOS>SUBSTRUCTURE
  1 ****   7 GROUP 4 **** **** 0

# MOE 2024.06 (io_trps.svl 2023.06)
