@<TRIPOS>MOLECULE
NONAME
47 49 1 0 0 
SMALL
USER_CHARGES


@<TRIPOS>ATOM
  1 O        0.6880    -0.5260    -1.3370 O.2   1 <1>  -0.5700 
  2 C        1.5000    -0.8680    -0.4900 C.2   1 <1>   0.5440 
  3 N        1.6560    -0.0770     0.6340 N.am  1 <1>  -0.6600 
  4 C        2.3170    -2.0600    -0.7050 C.ar  1 <1>   0.3960 
  5 C        2.6440    -0.4090     1.7060 C.3   1 <1>   0.1400 
  6 C        1.1940     1.3330     0.6460 C.3   1 <1>   0.1400 
  7 N        2.0280    -3.2080    -0.0660 N.ar  1 <1>  -0.6200 
  8 C        3.4090    -1.9580    -1.5630 C.ar  1 <1>  -0.1500 
  9 C        4.1080    -0.1840     1.2850 C.3   1 <1>   0.1400 
 10 C        2.2370     2.2540     0.0040 C.3   1 <1>  -0.1600 
 11 C        2.8180    -4.2380    -0.2960 C.ar  1 <1>   0.1670 
 12 C        4.2340    -3.0350    -1.7900 C.ar  1 <1>  -0.1500 
 13 N        4.3160     0.9280     0.3200 N.am  1 <1>  -0.6600 
 14 C        3.6210     2.2000     0.6620 C.3   1 <1>   0.1400 
 15 C        3.9190    -4.2040    -1.1360 C.ar  1 <1>  -0.1500 
 16 C        2.4590    -5.5170     0.4300 C.3   1 <1>  -0.0970 
 17 C        5.5870     0.9900    -0.2100 C.2   1 <1>   0.5440 
 18 O        5.8450     0.1630    -1.0820 O.2   1 <1>  -0.5700 
 19 C        6.5770     1.9640     0.1830 C.ar  1 <1>   0.0860 
 20 C        6.7150     2.5340     1.4730 C.ar  1 <1>  -0.1710 
 21 C        7.5080     2.4180    -0.7490 C.ar  1 <1>  -0.1500 
 22 O        5.9890     2.2110     2.4480 O.3   1 <1>  -0.8290 
 23 C        7.7250     3.4970     1.6730 C.ar  1 <1>   0.1600 
 24 C        8.4570     3.3630    -0.4320 C.ar  1 <1>   0.1670 
 25 N        8.5760     3.9200     0.7730 N.ar  1 <1>  -0.6200 
 26 C        9.4530     3.8400    -1.4650 C.3   1 <1>  -0.0970 
 27 H        2.5180    -1.4330     2.0080 H     1 <1>   0.0800 
 28 H        2.4460     0.1980     2.5720 H     1 <1>   0.0800 
 29 H        1.0070     1.6400     1.6600 H     1 <1>   0.0800 
 30 H        0.2660     1.4110     0.1050 H     1 <1>   0.0800 
 31 H        3.6130    -1.0100    -2.0320 H     1 <1>   0.1500 
 32 H        4.4880    -1.0900     0.8480 H     1 <1>   0.0800 
 33 H        4.7000     0.0110     2.1640 H     1 <1>   0.0800 
 34 H        1.8750     3.2620     0.0750 H     1 <1>   0.0800 
 35 H        2.3320     2.0200    -1.0420 H     1 <1>   0.0800 
 36 H        5.0880    -2.9530    -2.4410 H     1 <1>   0.1500 
 37 H        3.5470     2.3010     1.7320 H     1 <1>   0.0800 
 38 H        4.2060     3.0300     0.3070 H     1 <1>   0.0800 
 39 H        4.5290    -5.0770    -1.2780 H     1 <1>   0.1500 
 40 H        1.4640    -5.8170     0.1550 H     1 <1>   0.0800 
 41 H        2.4870    -5.3460     1.4910 H     1 <1>   0.0800 
 42 H        3.1420    -6.3090     0.1860 H     1 <1>   0.0800 
 43 H        7.4680     2.0100    -1.7400 H     1 <1>   0.1500 
 44 H        7.7830     3.9040     2.6650 H     1 <1>   0.1500 
 45 H        9.2990     3.3480    -2.4060 H     1 <1>   0.0800 
 46 H       10.4490     3.6330    -1.1190 H     1 <1>   0.0800 
 47 H        9.3450     4.9000    -1.6000 H     1 <1>   0.0800 
@<TRIPOS>BOND
  1   1   2  2   
  2   2   3  am  
  3   2   4  1   
  4   3   5  1   
  5   3   6  1   
  6   4   7  ar  
  7   4   8  ar  
  8   5   9  1   
  9   5  27  1   
 10   5  28  1   
 11   6  10  1   
 12   6  29  1   
 13   6  30  1   
 14   7  11  ar  
 15   8  12  ar  
 16   8  31  1   
 17   9  13  1   
 18   9  32  1   
 19   9  33  1   
 20  10  14  1   
 21  10  34  1   
 22  10  35  1   
 23  11  15  ar  
 24  11  16  1   
 25  12  15  ar  
 26  12  36  1   
 27  13  14  1   
 28  13  17  am  
 29  14  37  1   
 30  14  38  1   
 31  15  39  1   
 32  16  40  1   
 33  16  41  1   
 34  16  42  1   
 35  17  18  2   
 36  17  19  1   
 37  19  20  ar  
 38  19  21  ar  
 39  20  22  1   
 40  20  23  ar  
 41  21  24  ar  
 42  21  43  1   
 43  23  25  ar  
 44  23  44  1   
 45  24  25  ar  
 46  24  26  1   
 47  26  45  1   
 48  26  46  1   
 49  26  47  1   
@<TRIPOS>SUBSTRUCTURE
  1 ****  13 GROUP 4 **** **** 0

# MOE 2024.06 (io_trps.svl 2023.06)
