@<TRIPOS>MOLECULE
NONAME
38 39 1 0 0 
SMALL
USER_CHARGES


@<TRIPOS>ATOM
  1 S       -0.2600     0.6500    -0.2930 S.3   1 <1>  -0.0800 
  2 C        1.1600    -0.3010    -0.6610 C.2   1 <1>   0.1980 
  3 C        0.7660     1.9640     0.2020 C.2   1 <1>  -0.1400 
  4 N        2.2620     0.2990    -0.4460 N.2   1 <1>  -0.5650 
  5 C        0.9370    -1.7010    -1.1840 C.3   1 <1>  -0.0600 
  6 C        2.0470     1.5850     0.0540 C.2   1 <1>   0.0460 
  7 C        0.0740     3.2250     0.6870 C.3   1 <1>  -0.0600 
  8 C        3.2830     2.4300     0.3610 C.3   1 <1>   0.6040 
  9 N        4.2210     2.2650    -0.7880 N.4   1 <1>  -0.9590 
 10 C        3.9130     1.9340     1.6650 C.3   1 <1>  -0.2400 
 11 C        5.6130     2.7800    -0.5410 C.3   1 <1>   0.5230 
 12 C        3.6350     2.8740    -2.0230 C.3   1 <1>   0.2630 
 13 C        5.6620     4.2710    -0.2000 C.2   1 <1>   0.1980 
 14 S        7.2570     4.9600     0.0000 S.3   1 <1>  -0.0800 
 15 N        4.7070     5.1030    -0.0310 N.2   1 <1>  -0.5650 
 16 C        6.5220     6.4990     0.3360 C.2   1 <1>  -0.1100 
 17 C        5.1890     6.3660     0.2720 C.2   1 <1>   0.0460 
 18 C        4.1700     7.4620     0.4970 C.3   1 <1>  -0.0590 
 19 H        0.3790    -1.6640    -2.1020 H     1 <1>   0.0800 
 20 H        0.3880    -2.2760    -0.4610 H     1 <1>   0.0800 
 21 H        1.8810    -2.1800    -1.3670 H     1 <1>   0.0800 
 22 H       -0.5420     2.9970     1.5390 H     1 <1>   0.0800 
 23 H       -0.5540     3.6210    -0.0920 H     1 <1>   0.0800 
 24 H        0.7890     3.9750     0.9700 H     1 <1>   0.0800 
 25 H        2.9960     3.4630     0.4710 H     1 <1>   0.0800 
 26 H        4.2210     1.2410    -0.9190 H     1 <1>   0.4500 
 27 H        4.2860     0.9310     1.5550 H     1 <1>   0.0800 
 28 H        3.1580     1.9210     2.4320 H     1 <1>   0.0800 
 29 H        4.6930     2.5910     2.0000 H     1 <1>   0.0800 
 30 H        6.2140     2.6140    -1.4190 H     1 <1>   0.0800 
 31 H        6.0630     2.2310     0.2690 H     1 <1>   0.0800 
 32 H        3.5100     3.9380    -1.8960 H     1 <1>   0.0800 
 33 H        2.6710     2.4370    -2.2340 H     1 <1>   0.0800 
 34 H        4.2780     2.7000    -2.8700 H     1 <1>   0.0800 
 35 H        7.1650     7.3350     0.5450 H     1 <1>   0.1500 
 36 H        3.5280     7.2020     1.3190 H     1 <1>   0.0800 
 37 H        3.5710     7.5920    -0.3860 H     1 <1>   0.0800 
 38 H        4.6610     8.3910     0.7220 H     1 <1>   0.0800 
@<TRIPOS>BOND
  1   1   2  1   
  2   1   3  1   
  3   2   4  2   
  4   2   5  1   
  5   3   6  2   
  6   3   7  1   
  7   4   6  1   
  8   5  19  1   
  9   5  20  1   
 10   5  21  1   
 11   6   8  1   
 12   7  22  1   
 13   7  23  1   
 14   7  24  1   
 15   8   9  1   
 16   8  10  1   
 17   8  25  1   
 18   9  11  1   
 19   9  12  1   
 20   9  26  1   
 21  10  27  1   
 22  10  28  1   
 23  10  29  1   
 24  11  13  1   
 25  11  30  1   
 26  11  31  1   
 27  12  32  1   
 28  12  33  1   
 29  12  34  1   
 30  13  14  1   
 31  13  15  2   
 32  14  16  1   
 33  15  17  1   
 34  16  17  2   
 35  16  35  1   
 36  17  18  1   
 37  18  36  1   
 38  18  37  1   
 39  18  38  1   
@<TRIPOS>SUBSTRUCTURE
  1 ****   8 GROUP 4 **** **** 0

# MOE 2024.06 (io_trps.svl 2023.06)
