@<TRIPOS>MOLECULE
NONAME
48 51 1 0 0 
SMALL
USER_CHARGES


@<TRIPOS>ATOM
  1 S        0.0330    -1.7700    -0.7300 S.3   1 <1>  -0.0800 
  2 C        1.6300    -1.0180    -0.6280 C.ar  1 <1>   0.0400 
  3 C       -0.3890    -1.2230     0.8970 C.2   1 <1>  -0.1400 
  4 C        1.7850    -0.3980     0.6040 C.ar  1 <1>   0.0000 
  5 C        2.6080    -1.0210    -1.6050 C.ar  1 <1>  -0.1500 
  6 C        0.6270    -0.5320     1.4460 C.2   1 <1>  -0.1500 
  7 C       -1.7680    -1.5920     1.3950 C.3   1 <1>   0.5230 
  8 C        2.9890     0.2500     0.8600 C.ar  1 <1>  -0.1500 
  9 C        3.7970    -0.3700    -1.3300 C.ar  1 <1>  -0.1500 
 10 N       -2.7680    -0.9940     0.4770 N.4   1 <1>  -0.9590 
 11 C        3.9840     0.2610    -0.1030 C.ar  1 <1>  -0.1500 
 12 C       -4.1370    -1.5350     0.7400 C.3   1 <1>   0.3430 
 13 C       -2.7420     0.4960     0.5170 C.3   1 <1>   0.3430 
 14 C       -5.1600    -1.0220    -0.2970 C.3   1 <1>   0.0000 
 15 C       -3.7110     1.0590    -0.5250 C.3   1 <1>  -0.1600 
 16 C       -6.5530    -1.5630     0.0600 C.3   1 <1>   0.2000 
 17 C       -5.1370     0.5190    -0.3330 C.3   1 <1>  -0.1600 
 18 C       -4.9020    -1.6500    -1.6770 C.3   1 <1>  -0.1600 
 19 O       -6.6940    -1.6290     1.4470 O.3   1 <1>  -0.5600 
 20 C       -6.6420    -2.9600    -0.5670 C.3   1 <1>  -0.1600 
 21 C       -5.5070    -3.0520    -1.5960 C.3   1 <1>  -0.1600 
 22 C       -8.0080    -1.7690     1.8940 C.3   1 <1>   0.0400 
 23 H        2.4450    -1.5160    -2.5450 H     1 <1>   0.1500 
 24 H        0.6400    -0.0900     2.4270 H     1 <1>   0.1500 
 25 H       -1.9130    -1.2260     2.3980 H     1 <1>   0.0800 
 26 H       -1.8660    -2.6660     1.4010 H     1 <1>   0.0800 
 27 H        3.1440     0.7390     1.8060 H     1 <1>   0.1500 
 28 H        4.5830    -0.3510    -2.0660 H     1 <1>   0.1500 
 29 H       -2.4930    -1.2750    -0.4720 H     1 <1>   0.4500 
 30 H        4.9160     0.7630     0.0950 H     1 <1>   0.1500 
 31 H       -4.1260    -2.6120     0.7170 H     1 <1>   0.0800 
 32 H       -4.4590    -1.2300     1.7230 H     1 <1>   0.0800 
 33 H       -3.0320     0.8390     1.4970 H     1 <1>   0.0800 
 34 H       -1.7460     0.8570     0.3110 H     1 <1>   0.0800 
 35 H       -3.7250     2.1320    -0.4420 H     1 <1>   0.0800 
 36 H       -3.3520     0.8230    -1.5120 H     1 <1>   0.0800 
 37 H       -7.3140    -0.9190    -0.3500 H     1 <1>   0.0800 
 38 H       -5.7740     0.8860    -1.1200 H     1 <1>   0.0800 
 39 H       -5.5300     0.8960     0.5980 H     1 <1>   0.0800 
 40 H       -5.4380    -1.0940    -2.4300 H     1 <1>   0.0800 
 41 H       -3.8640    -1.6790    -1.9580 H     1 <1>   0.0800 
 42 H       -6.5290    -3.7310     0.1760 H     1 <1>   0.0800 
 43 H       -7.5940    -3.0780    -1.0550 H     1 <1>   0.0800 
 44 H       -4.7660    -3.7560    -1.2540 H     1 <1>   0.0800 
 45 H       -5.8700    -3.3780    -2.5570 H     1 <1>   0.0800 
 46 H       -7.9960    -1.8070     2.9690 H     1 <1>   0.0800 
 47 H       -8.4280    -2.6810     1.5070 H     1 <1>   0.0800 
 48 H       -8.5870    -0.9210     1.5710 H     1 <1>   0.0800 
@<TRIPOS>BOND
  1   1   2  1   
  2   1   3  1   
  3   2   4  ar  
  4   2   5  ar  
  5   3   6  2   
  6   3   7  1   
  7   4   6  1   
  8   4   8  ar  
  9   5   9  ar  
 10   5  23  1   
 11   6  24  1   
 12   7  10  1   
 13   7  25  1   
 14   7  26  1   
 15   8  11  ar  
 16   8  27  1   
 17   9  11  ar  
 18   9  28  1   
 19  10  12  1   
 20  10  13  1   
 21  10  29  1   
 22  11  30  1   
 23  12  14  1   
 24  12  31  1   
 25  12  32  1   
 26  13  15  1   
 27  13  33  1   
 28  13  34  1   
 29  14  16  1   
 30  14  17  1   
 31  14  18  1   
 32  15  17  1   
 33  15  35  1   
 34  15  36  1   
 35  16  19  1   
 36  16  20  1   
 37  16  37  1   
 38  17  38  1   
 39  17  39  1   
 40  18  21  1   
 41  18  40  1   
 42  18  41  1   
 43  19  22  1   
 44  20  21  1   
 45  20  42  1   
 46  20  43  1   
 47  21  44  1   
 48  21  45  1   
 49  22  46  1   
 50  22  47  1   
 51  22  48  1   
@<TRIPOS>SUBSTRUCTURE
  1 ****  10 GROUP 4 **** **** 0

# MOE 2024.06 (io_trps.svl 2023.06)
