@<TRIPOS>MOLECULE
NONAME
50 52 1 0 0 
SMALL
USER_CHARGES


@<TRIPOS>ATOM
  1 CL       1.1210    -6.0820    -2.4310 Cl    1 <1>  -0.1770 
  2 C       -0.3420    -6.2860    -1.5040 C.ar  1 <1>   0.1770 
  3 C       -0.3860    -7.2370    -0.5030 C.ar  1 <1>  -0.1500 
  4 C       -1.4400    -5.4940    -1.7770 C.ar  1 <1>  -0.1500 
  5 C       -1.5500    -7.3970     0.2280 C.ar  1 <1>  -0.1500 
  6 C       -2.5970    -5.6610    -1.0390 C.ar  1 <1>  -0.1500 
  7 C       -2.6840    -6.6190    -0.0240 C.ar  1 <1>   0.0530 
  8 C       -3.8950    -6.8090     0.7390 C.2   1 <1>   0.0870 
  9 O       -3.8760    -7.4600     1.8790 O.3   1 <1>  -0.0190 
 10 C       -5.1880    -6.4670     0.5170 C.2   1 <1>  -0.2330 
 11 N       -5.0610    -7.5690     2.4220 N.2   1 <1>  -0.4100 
 12 C       -5.8610    -6.9430     1.6360 C.2   1 <1>   0.3720 
 13 C       -5.8060    -5.8710    -0.6130 C.2   1 <1>   1.0330 
 14 N       -7.2280    -6.8500     1.9150 N.pl3 1 <1>  -0.8210 
 15 O       -6.0430    -4.6570    -0.6550 O.co2 1 <1>  -0.9000 
 16 O       -6.1570    -6.6040    -1.5530 O.co2 1 <1>  -0.9000 
 17 C       -8.1720    -7.4850     0.9340 C.3   1 <1>   0.2090 
 18 C       -7.6150    -5.4330     2.1850 C.3   1 <1>   0.1290 
 19 C       -8.1740    -9.0240     1.0410 C.3   1 <1>   0.3430 
 20 N       -6.8100    -9.6260     0.9070 N.4   1 <1>  -0.9590 
 21 C       -6.3070    -9.5600    -0.5030 C.3   1 <1>   0.4230 
 22 C       -6.7050   -10.9450     1.5870 C.3   1 <1>   0.2630 
 23 C       -6.9690   -10.5870    -1.4220 C.3   1 <1>  -0.1600 
 24 C       -4.8190    -9.8950    -0.5750 C.3   1 <1>  -0.1600 
 25 C       -6.0750   -11.8320    -1.4330 C.3   1 <1>  -0.1600 
 26 C       -4.6890   -11.3720    -0.9720 C.3   1 <1>  -0.1600 
 27 H        0.4810    -7.8410    -0.3040 H     1 <1>   0.1500 
 28 H       -1.3900    -4.7560    -2.5580 H     1 <1>   0.1500 
 29 H       -1.5790    -8.1390     1.0060 H     1 <1>   0.1500 
 30 H       -3.4430    -5.0310    -1.2580 H     1 <1>   0.1500 
 31 H       -7.9460    -7.1870    -0.0720 H     1 <1>   0.0800 
 32 H       -9.1700    -7.1390     1.1400 H     1 <1>   0.0800 
 33 H       -6.8350    -4.9360     2.7380 H     1 <1>   0.0800 
 34 H       -8.5190    -5.4020     2.7660 H     1 <1>   0.0800 
 35 H       -7.7670    -4.9000     1.2600 H     1 <1>   0.0800 
 36 H       -8.8320    -9.4320     0.2930 H     1 <1>   0.0800 
 37 H       -8.5760    -9.2750     2.0080 H     1 <1>   0.0800 
 38 H       -6.2090    -8.9610     1.4380 H     1 <1>   0.4500 
 39 H       -6.4740    -8.5730    -0.8890 H     1 <1>   0.0800 
 40 H       -7.3380   -11.6680     1.1010 H     1 <1>   0.0800 
 41 H       -7.0040   -10.8530     2.6190 H     1 <1>   0.0800 
 42 H       -5.6870   -11.2950     1.5570 H     1 <1>   0.0800 
 43 H       -6.9680   -10.1680    -2.4140 H     1 <1>   0.0800 
 44 H       -7.9850   -10.8100    -1.1560 H     1 <1>   0.0800 
 45 H       -4.2970    -9.6700     0.3370 H     1 <1>   0.0800 
 46 H       -4.3940    -9.2910    -1.3590 H     1 <1>   0.0800 
 47 H       -6.0320   -12.2620    -2.4200 H     1 <1>   0.0800 
 48 H       -6.4580   -12.5760    -0.7580 H     1 <1>   0.0800 
 49 H       -4.3590   -11.9630    -0.1350 H     1 <1>   0.0800 
 50 H       -3.9690   -11.4780    -1.7660 H     1 <1>   0.0800 
@<TRIPOS>BOND
  1   1   2  1   
  2   2   3  ar  
  3   2   4  ar  
  4   3   5  ar  
  5   3  27  1   
  6   4   6  ar  
  7   4  28  1   
  8   5   7  ar  
  9   5  29  1   
 10   6   7  ar  
 11   6  30  1   
 12   7   8  1   
 13   8   9  1   
 14   8  10  2   
 15   9  11  1   
 16  10  12  1   
 17  10  13  1   
 18  11  12  2   
 19  12  14  1   
 20  13  15  ar  
 21  13  16  ar  
 22  14  17  1   
 23  14  18  1   
 24  17  19  1   
 25  17  31  1   
 26  17  32  1   
 27  18  33  1   
 28  18  34  1   
 29  18  35  1   
 30  19  20  1   
 31  19  36  1   
 32  19  37  1   
 33  20  21  1   
 34  20  22  1   
 35  20  38  1   
 36  21  23  1   
 37  21  24  1   
 38  21  39  1   
 39  22  40  1   
 40  22  41  1   
 41  22  42  1   
 42  23  25  1   
 43  23  43  1   
 44  23  44  1   
 45  24  26  1   
 46  24  45  1   
 47  24  46  1   
 48  25  26  1   
 49  25  47  1   
 50  25  48  1   
 51  26  49  1   
 52  26  50  1   
@<TRIPOS>SUBSTRUCTURE
  1 ****  10 GROUP 4 **** **** 0

# MOE 2024.06 (io_trps.svl 2023.06)
