@<TRIPOS>MOLECULE
NONAME
49 51 1 0 0 
SMALL
USER_CHARGES


@<TRIPOS>ATOM
  1 F       -0.2950    -1.1450     1.3720 F     1 <1>  -0.1900 
  2 C        0.6450    -1.6110     0.5920 C.ar  1 <1>   0.1900 
  3 C        1.1690    -2.8760     0.8270 C.ar  1 <1>  -0.1440 
  4 C        1.0740    -0.8070    -0.4470 C.ar  1 <1>  -0.1500 
  5 C        2.1680    -3.3260    -0.0250 C.ar  1 <1>  -0.1500 
  6 C        0.6900    -3.7670     1.9730 C.3   1 <1>   0.0450 
  7 C        2.0670    -1.2780    -1.2880 C.ar  1 <1>  -0.1500 
  8 C        2.6110    -2.5350    -1.0740 C.ar  1 <1>  -0.1500 
  9 C        0.2240    -5.1350     1.4900 C.2   1 <1>   0.5690 
 10 O        0.8570    -6.0980     1.8560 O.2   1 <1>  -0.5700 
 11 N       -0.8730    -5.2930     0.6750 N.am  1 <1>  -0.6600 
 12 C       -1.1950    -6.6230     0.0840 C.3   1 <1>   0.1400 
 13 C       -1.8370    -4.2150     0.3150 C.3   1 <1>   0.1400 
 14 C       -2.6100    -7.0670     0.5140 C.3   1 <1>   0.4230 
 15 C       -3.2420    -4.6430     0.7560 C.3   1 <1>  -0.1600 
 16 N       -2.9670    -8.4850     0.0840 N.4   1 <1>  -0.9590 
 17 C       -3.6950    -6.0060     0.1580 C.3   1 <1>   0.0000 
 18 C       -4.4360    -8.7840     0.1130 C.3   1 <1>   0.3430 
 19 C       -2.3820    -8.9290    -1.2250 C.3   1 <1>   0.2630 
 20 C       -5.0470    -6.4140     0.8150 C.3   1 <1>  -0.1600 
 21 C       -3.8520    -5.8940    -1.3860 C.3   1 <1>   0.1200 
 22 C       -5.1520    -7.9150     1.1460 C.3   1 <1>  -0.1600 
 23 O       -4.6480    -4.8180    -1.7430 O.3   1 <1>  -0.6800 
 24 H        0.6400     0.1660    -0.5920 H     1 <1>   0.1500 
 25 H        2.6080    -4.2990     0.1240 H     1 <1>   0.1500 
 26 H       -0.1040    -3.3090     2.5310 H     1 <1>   0.0800 
 27 H        1.5090    -3.9060     2.6560 H     1 <1>   0.0800 
 28 H        2.4180    -0.6700    -2.1040 H     1 <1>   0.1500 
 29 H        3.3850    -2.9000    -1.7270 H     1 <1>   0.1500 
 30 H       -1.1190    -6.5400    -0.9840 H     1 <1>   0.0800 
 31 H       -0.4820    -7.3590     0.4130 H     1 <1>   0.0800 
 32 H       -1.5880    -3.2900     0.8020 H     1 <1>   0.0800 
 33 H       -1.8070    -4.0400    -0.7480 H     1 <1>   0.0800 
 34 H       -2.5780    -7.0800     1.5910 H     1 <1>   0.0800 
 35 H       -3.2360    -4.6970     1.8320 H     1 <1>   0.0800 
 36 H       -3.9360    -3.8640     0.4930 H     1 <1>   0.0800 
 37 H       -2.5440    -9.0830     0.8100 H     1 <1>   0.4500 
 38 H       -4.8680    -8.5880    -0.8550 H     1 <1>   0.0800 
 39 H       -4.5940    -9.8270     0.3400 H     1 <1>   0.0800 
 40 H       -2.7470    -8.3130    -2.0310 H     1 <1>   0.0800 
 41 H       -2.6540    -9.9530    -1.4270 H     1 <1>   0.0800 
 42 H       -1.3060    -8.8650    -1.2010 H     1 <1>   0.0800 
 43 H       -5.2000    -5.8730     1.7350 H     1 <1>   0.0800 
 44 H       -5.8660    -6.1410     0.1730 H     1 <1>   0.0800 
 45 H       -4.3020    -6.7760    -1.8030 H     1 <1>   0.0800 
 46 H       -2.9040    -5.7370    -1.8670 H     1 <1>   0.0800 
 47 H       -6.1910    -8.1950     1.1850 H     1 <1>   0.0800 
 48 H       -4.7370    -8.1120     2.1200 H     1 <1>   0.0800 
 49 H       -5.5620    -4.9020    -1.4060 H     1 <1>   0.4000 
@<TRIPOS>BOND
  1   1   2  1   
  2   2   3  ar  
  3   2   4  ar  
  4   3   5  ar  
  5   3   6  1   
  6   4   7  ar  
  7   4  24  1   
  8   5   8  ar  
  9   5  25  1   
 10   6   9  1   
 11   6  26  1   
 12   6  27  1   
 13   7   8  ar  
 14   7  28  1   
 15   8  29  1   
 16   9  10  2   
 17   9  11  am  
 18  11  12  1   
 19  11  13  1   
 20  12  14  1   
 21  12  30  1   
 22  12  31  1   
 23  13  15  1   
 24  13  32  1   
 25  13  33  1   
 26  14  16  1   
 27  14  17  1   
 28  14  34  1   
 29  15  17  1   
 30  15  35  1   
 31  15  36  1   
 32  16  18  1   
 33  16  19  1   
 34  16  37  1   
 35  17  20  1   
 36  17  21  1   
 37  18  22  1   
 38  18  38  1   
 39  18  39  1   
 40  19  40  1   
 41  19  41  1   
 42  19  42  1   
 43  20  22  1   
 44  20  43  1   
 45  20  44  1   
 46  21  23  1   
 47  21  45  1   
 48  21  46  1   
 49  22  47  1   
 50  22  48  1   
 51  23  49  1   
@<TRIPOS>SUBSTRUCTURE
  1 ****  11 GROUP 4 **** **** 0

# MOE 2024.06 (io_trps.svl 2023.06)
