@<TRIPOS>MOLECULE
NONAME
53 55 1 0 0 
SMALL
USER_CHARGES


@<TRIPOS>ATOM
  1 O        1.4790    -0.7920    -3.7280 O.2   1 <1>  -0.5700 
  2 C        2.0770    -1.2800    -2.7970 C.2   1 <1>   0.5690 
  3 N        3.0210    -0.5600    -2.1030 N.am  1 <1>  -0.6600 
  4 C        1.7610    -2.7360    -2.4600 C.3   1 <1>   0.1810 
  5 C        3.2570     0.8860    -2.4240 C.3   1 <1>   0.1400 
  6 C        3.7950    -1.1040    -0.9380 C.3   1 <1>   0.1400 
  7 O        1.4370    -2.9020    -1.0870 O.3   1 <1>  -0.3620 
  8 C        3.6340     1.6980    -1.1740 C.3   1 <1>   0.2090 
  9 C        5.0950    -0.3190    -0.6770 C.3   1 <1>   0.2090 
 10 C        1.1540    -4.1120    -0.5620 C.ar  1 <1>   0.0820 
 11 N        4.8520     1.1510    -0.4800 N.pl3 1 <1>  -0.8380 
 12 C        1.0900    -5.2870    -1.3050 C.ar  1 <1>  -0.1500 
 13 C        0.9200    -4.1650     0.8010 C.ar  1 <1>  -0.1500 
 14 C        5.7580     1.9530     0.1410 C.ar  1 <1>   0.1000 
 15 C        0.7970    -6.4860    -0.6810 C.ar  1 <1>  -0.1500 
 16 C        0.6280    -5.3670     1.4140 C.ar  1 <1>  -0.1500 
 17 C        5.4240     2.8510     1.1760 C.ar  1 <1>  -0.1430 
 18 C        7.1020     1.9010    -0.2500 C.ar  1 <1>  -0.1500 
 19 C        0.5520    -6.5630     0.6950 C.ar  1 <1>   0.0860 
 20 C        6.4000     3.6390     1.7360 C.ar  1 <1>   0.2110 
 21 C        3.9980     2.9430     1.7130 C.3   1 <1>  -0.0970 
 22 C        8.0440     2.7020     0.3360 C.ar  1 <1>   0.2110 
 23 C        0.2390    -7.8010     1.3790 C.2   1 <1>   0.4230 
 24 N        7.6880     3.5640     1.3170 N.ar  1 <1>  -0.1790 
 25 O        0.3480    -7.9210     2.5730 O.2   1 <1>  -0.5700 
 26 C       -0.2450    -9.0110     0.5770 C.3   1 <1>  -0.0990 
 27 C       -1.0570   -10.0290     1.3960 C.3   1 <1>  -0.2400 
 28 H        2.6130    -3.3480    -2.6870 H     1 <1>   0.0800 
 29 H        0.9160    -3.0560    -3.0420 H     1 <1>   0.0800 
 30 H        2.3690     1.3120    -2.8590 H     1 <1>   0.0800 
 31 H        4.0470     0.9610    -3.1490 H     1 <1>   0.0800 
 32 H        4.0440    -2.1350    -1.1150 H     1 <1>   0.0800 
 33 H        3.1790    -1.0580    -0.0570 H     1 <1>   0.0800 
 34 H        2.7980     1.6770    -0.4970 H     1 <1>   0.0800 
 35 H        3.8110     2.7210    -1.4560 H     1 <1>   0.0800 
 36 H        5.7520    -0.4610    -1.5170 H     1 <1>   0.0800 
 37 H        5.5780    -0.7180     0.1970 H     1 <1>   0.0800 
 38 H        1.2640    -5.2870    -2.3640 H     1 <1>   0.1500 
 39 H        0.9670    -3.2590     1.3770 H     1 <1>   0.1500 
 40 H        0.7660    -7.3770    -1.2830 H     1 <1>   0.1500 
 41 H        0.4530    -5.3880     2.4770 H     1 <1>   0.1500 
 42 H        7.3820     1.2240    -1.0370 H     1 <1>   0.1500 
 43 H        6.1620     4.3320     2.5270 H     1 <1>   0.1500 
 44 H        3.5870     1.9560     1.8400 H     1 <1>   0.0800 
 45 H        3.3770     3.4910     1.0270 H     1 <1>   0.0800 
 46 H        3.9670     3.4380     2.6670 H     1 <1>   0.0800 
 47 H        9.0770     2.6620     0.0270 H     1 <1>   0.1500 
 48 H        8.3980     4.1630     1.7520 H     1 <1>   0.4570 
 49 H        0.6130    -9.5060     0.1600 H     1 <1>   0.0800 
 50 H       -0.8650    -8.6700    -0.2320 H     1 <1>   0.0800 
 51 H       -0.4530   -10.4360     2.1890 H     1 <1>   0.0800 
 52 H       -1.3890   -10.8370     0.7680 H     1 <1>   0.0800 
 53 H       -1.9170    -9.5530     1.8340 H     1 <1>   0.0800 
@<TRIPOS>BOND
  1   1   2  2   
  2   2   3  am  
  3   2   4  1   
  4   3   5  1   
  5   3   6  1   
  6   4   7  1   
  7   4  28  1   
  8   4  29  1   
  9   5   8  1   
 10   5  30  1   
 11   5  31  1   
 12   6   9  1   
 13   6  32  1   
 14   6  33  1   
 15   7  10  1   
 16   8  11  1   
 17   8  34  1   
 18   8  35  1   
 19   9  11  1   
 20   9  36  1   
 21   9  37  1   
 22  10  12  ar  
 23  10  13  ar  
 24  11  14  1   
 25  12  15  ar  
 26  12  38  1   
 27  13  16  ar  
 28  13  39  1   
 29  14  17  ar  
 30  14  18  ar  
 31  15  19  ar  
 32  15  40  1   
 33  16  19  ar  
 34  16  41  1   
 35  17  20  ar  
 36  17  21  1   
 37  18  22  ar  
 38  18  42  1   
 39  19  23  1   
 40  20  24  ar  
 41  20  43  1   
 42  21  44  1   
 43  21  45  1   
 44  21  46  1   
 45  22  24  ar  
 46  22  47  1   
 47  23  25  2   
 48  23  26  1   
 49  24  48  1   
 50  26  27  1   
 51  26  49  1   
 52  26  50  1   
 53  27  51  1   
 54  27  52  1   
 55  27  53  1   
@<TRIPOS>SUBSTRUCTURE
  1 ****   6 GROUP 4 **** **** 0

# MOE 2024.06 (io_trps.svl 2023.06)
