@<TRIPOS>MOLECULE
NONAME
49 52 1 0 0 
SMALL
USER_CHARGES


@<TRIPOS>ATOM
  1 O       -0.6350     0.2340     0.1740 O.2   1 <1>  -0.5700 
  2 C       -1.6200     0.9290     0.0720 C.2   1 <1>   0.5690 
  3 N       -2.8320     0.4060    -0.3160 N.am  1 <1>  -0.6600 
  4 C       -1.4820     2.4130     0.3900 C.3   1 <1>  -0.0990 
  5 C       -4.0950     1.2070    -0.3480 C.3   1 <1>   0.2200 
  6 C       -2.9120    -1.0300    -0.7310 C.3   1 <1>   0.0600 
  7 C       -0.0320     2.8940     0.5410 C.3   1 <1>  -0.0160 
  8 C       -5.3300     0.4950     0.2040 C.3   1 <1>  -0.1600 
  9 C       -4.4910     1.6110    -1.7640 C.3   1 <1>  -0.1600 
 10 C       -0.0080     4.3850     0.8370 C.ar  1 <1>  -0.1440 
 11 C       -6.5100     1.2710    -0.3930 C.3   1 <1>  -0.0800 
 12 C       -5.9810     1.9650    -1.6610 C.3   1 <1>  -0.0800 
 13 C        0.0290     5.3010    -0.2100 C.ar  1 <1>  -0.1500 
 14 C       -0.0330     4.8350     2.1570 C.ar  1 <1>  -0.1500 
 15 C       -7.0370     2.3860     0.5230 C.3   1 <1>  -0.1600 
 16 C       -6.2400     3.4680    -1.4740 C.3   1 <1>  -0.1600 
 17 C        0.0390     6.6470     0.1000 C.ar  1 <1>   0.0820 
 18 C       -0.0220     6.1930     2.4500 C.ar  1 <1>  -0.1500 
 19 C       -7.3310     3.5420    -0.4190 C.3   1 <1>   0.2000 
 20 O        0.0710     7.6900    -0.7350 O.3   1 <1>  -0.3630 
 21 C        0.0140     7.0810     1.3930 C.ar  1 <1>   0.0820 
 22 O       -7.2600     4.7390     0.2590 O.3   1 <1>  -0.6800 
 23 C        0.0750     8.8630     0.0770 C.3   1 <1>   0.4000 
 24 O        0.0300     8.4180     1.4310 O.3   1 <1>  -0.3620 
 25 H       -1.9410     2.9780    -0.3990 H     1 <1>   0.0800 
 26 H       -2.0080     2.6120     1.3050 H     1 <1>   0.0800 
 27 H       -3.9780     2.1060     0.2300 H     1 <1>   0.0800 
 28 H       -3.5710    -1.1450    -1.5720 H     1 <1>   0.0800 
 29 H       -3.2740    -1.6230     0.0900 H     1 <1>   0.0800 
 30 H       -1.9420    -1.3990    -1.0160 H     1 <1>   0.0800 
 31 H        0.5140     2.6910    -0.3650 H     1 <1>   0.0800 
 32 H        0.4510     2.3550     1.3380 H     1 <1>   0.0800 
 33 H       -5.3880    -0.5150    -0.1560 H     1 <1>   0.0800 
 34 H       -5.3400     0.4880     1.2790 H     1 <1>   0.0800 
 35 H       -3.8960     2.4280    -2.1290 H     1 <1>   0.0800 
 36 H       -4.3810     0.7740    -2.4290 H     1 <1>   0.0800 
 37 H       -7.3170     0.6020    -0.6450 H     1 <1>   0.0800 
 38 H       -6.5150     1.6110    -2.5280 H     1 <1>   0.0800 
 39 H        0.0510     4.9880    -1.2370 H     1 <1>   0.1500 
 40 H       -0.0600     4.1250     2.9650 H     1 <1>   0.1500 
 41 H       -6.2800     2.6760     1.2300 H     1 <1>   0.0800 
 42 H       -7.9220     2.0770     1.0490 H     1 <1>   0.0800 
 43 H       -6.5560     3.9290    -2.3930 H     1 <1>   0.0800 
 44 H       -5.3520     3.9580    -1.1130 H     1 <1>   0.0800 
 45 H       -0.0410     6.5540     3.4620 H     1 <1>   0.1500 
 46 H       -8.3090     3.4450    -0.8610 H     1 <1>   0.0800 
 47 H       -6.3760     4.8470     0.6550 H     1 <1>   0.4000 
 48 H        0.9820     9.4150    -0.0910 H     1 <1>   0.0800 
 49 H       -0.7980     9.4540    -0.1380 H     1 <1>   0.0800 
@<TRIPOS>BOND
  1   1   2  2   
  2   2   3  am  
  3   2   4  1   
  4   3   5  1   
  5   3   6  1   
  6   4   7  1   
  7   4  25  1   
  8   4  26  1   
  9   5   8  1   
 10   5   9  1   
 11   5  27  1   
 12   6  28  1   
 13   6  29  1   
 14   6  30  1   
 15   7  10  1   
 16   7  31  1   
 17   7  32  1   
 18   8  11  1   
 19   8  33  1   
 20   8  34  1   
 21   9  12  1   
 22   9  35  1   
 23   9  36  1   
 24  10  13  ar  
 25  10  14  ar  
 26  11  12  1   
 27  11  15  1   
 28  11  37  1   
 29  12  16  1   
 30  12  38  1   
 31  13  17  ar  
 32  13  39  1   
 33  14  18  ar  
 34  14  40  1   
 35  15  19  1   
 36  15  41  1   
 37  15  42  1   
 38  16  19  1   
 39  16  43  1   
 40  16  44  1   
 41  17  20  1   
 42  17  21  ar  
 43  18  21  ar  
 44  18  45  1   
 45  19  22  1   
 46  19  46  1   
 47  20  23  1   
 48  21  24  1   
 49  22  47  1   
 50  23  24  1   
 51  23  48  1   
 52  23  49  1   
@<TRIPOS>SUBSTRUCTURE
  1 ****   4 GROUP 4 **** **** 0

# MOE 2024.06 (io_trps.svl 2023.06)
