@<TRIPOS>MOLECULE
NONAME
41 42 1 0 0 
SMALL
USER_CHARGES


@<TRIPOS>ATOM
  1 CL      -1.0660    -0.7390     1.4490 Cl    1 <1>  -0.1770 
  2 C       -1.0200    -2.3510     0.7910 C.ar  1 <1>   0.1770 
  3 C       -1.5890    -3.3900     1.4970 C.ar  1 <1>  -0.1500 
  4 C       -0.4150    -2.5700    -0.4340 C.ar  1 <1>  -0.1500 
  5 C       -1.5370    -4.6580     0.9490 C.ar  1 <1>   0.1900 
  6 C       -0.3760    -3.8520    -0.9590 C.ar  1 <1>  -0.1500 
  7 F       -2.1010    -5.6160     1.6340 F     1 <1>  -0.1900 
  8 C       -0.9310    -4.9420    -0.2800 C.ar  1 <1>   0.0860 
  9 C       -0.8640    -6.2720    -0.8550 C.2   1 <1>   0.5440 
 10 O       -0.8560    -6.4180    -2.0610 O.2   1 <1>  -0.5700 
 11 N       -0.8000    -7.3920    -0.0810 N.am  1 <1>  -0.7300 
 12 C       -0.7140    -8.7880    -0.5730 C.3   1 <1>   0.2200 
 13 C       -2.0670    -9.4750    -0.4820 C.3   1 <1>  -0.0800 
 14 C        0.0840    -9.6110     0.4270 C.3   1 <1>   0.1200 
 15 C       -2.1170    -9.9300     0.9820 C.3   1 <1>   0.1200 
 16 C       -3.2630    -8.6150    -0.9450 C.3   1 <1>  -0.0550 
 17 O       -0.8060    -9.8740     1.4680 O.3   1 <1>  -0.5600 
 18 S       -4.8260    -9.4940    -1.0150 S.o2  1 <1>   1.3330 
 19 O       -5.8500    -8.6060    -1.5150 O.2   1 <1>  -0.6500 
 20 O       -4.5970   -10.7640    -1.6690 O.2   1 <1>  -0.6500 
 21 N       -5.1900    -9.8080     0.6150 N.am  1 <1>  -0.8490 
 22 C       -5.7740    -8.6570     1.3120 C.3   1 <1>   0.1160 
 23 C       -6.0650   -10.9750     0.7680 C.3   1 <1>   0.1160 
 24 H       -2.0620    -3.2140     2.4460 H     1 <1>   0.1500 
 25 H        0.0180    -1.7420    -0.9690 H     1 <1>   0.1500 
 26 H        0.0930    -4.0190    -1.9150 H     1 <1>   0.1500 
 27 H       -0.8800    -7.3190     0.9390 H     1 <1>   0.3700 
 28 H       -0.2910    -8.8210    -1.5640 H     1 <1>   0.0800 
 29 H       -2.0290   -10.3600    -1.0950 H     1 <1>   0.0800 
 30 H        0.9460    -9.0900     0.8060 H     1 <1>   0.0800 
 31 H        0.3800   -10.5530    -0.0010 H     1 <1>   0.0800 
 32 H       -2.4850   -10.9380     1.0760 H     1 <1>   0.0800 
 33 H       -2.7120    -9.2680     1.5870 H     1 <1>   0.0800 
 34 H       -3.0420    -8.2460    -1.9280 H     1 <1>   0.0800 
 35 H       -3.3680    -7.7620    -0.3040 H     1 <1>   0.0800 
 36 H       -5.9040    -8.8850     2.3560 H     1 <1>   0.0800 
 37 H       -6.7320    -8.4040     0.8860 H     1 <1>   0.0800 
 38 H       -5.1240    -7.8030     1.2310 H     1 <1>   0.0800 
 39 H       -6.2670   -11.1570     1.8090 H     1 <1>   0.0800 
 40 H       -5.5870   -11.8500     0.3610 H     1 <1>   0.0800 
 41 H       -6.9950   -10.8150     0.2470 H     1 <1>   0.0800 
@<TRIPOS>BOND
  1   1   2  1   
  2   2   3  ar  
  3   2   4  ar  
  4   3   5  ar  
  5   3  24  1   
  6   4   6  ar  
  7   4  25  1   
  8   5   7  1   
  9   5   8  ar  
 10   6   8  ar  
 11   6  26  1   
 12   8   9  1   
 13   9  10  2   
 14   9  11  am  
 15  11  12  1   
 16  11  27  1   
 17  12  13  1   
 18  12  14  1   
 19  12  28  1   
 20  13  15  1   
 21  13  16  1   
 22  13  29  1   
 23  14  17  1   
 24  14  30  1   
 25  14  31  1   
 26  15  17  1   
 27  15  32  1   
 28  15  33  1   
 29  16  18  1   
 30  16  34  1   
 31  16  35  1   
 32  18  19  2   
 33  18  20  2   
 34  18  21  am  
 35  21  22  1   
 36  21  23  1   
 37  22  36  1   
 38  22  37  1   
 39  22  38  1   
 40  23  39  1   
 41  23  40  1   
 42  23  41  1   
@<TRIPOS>SUBSTRUCTURE
  1 ****  11 GROUP 4 **** **** 0

# MOE 2024.06 (io_trps.svl 2023.06)
