@<TRIPOS>MOLECULE
NONAME
53 55 1 0 0 
SMALL
USER_CHARGES


@<TRIPOS>ATOM
  1 O        2.3370    -0.2660    -3.3610 O.2   1 <1>  -0.5700 
  2 C        2.5620    -0.0770    -2.1880 C.2   1 <1>   0.7150 
  3 N        2.3950    -1.1270    -1.3450 N.am  1 <1>  -0.7300 
  4 C        2.9480     1.2060    -1.6780 C.2   1 <1>  -0.2370 
  5 C        2.1860    -0.9540     0.1170 C.3   1 <1>   0.1400 
  6 N        3.7350     1.3810    -0.5880 N.pl3 1 <1>   0.3140 
  7 C        2.6350     2.4580    -2.0980 C.2   1 <1>  -0.1500 
  8 C        3.5190    -0.6840     0.8410 C.3   1 <1>   0.2000 
  9 N        3.9090     2.6700    -0.2840 N.2   1 <1>  -0.7070 
 10 C        4.4570     0.3170     0.1410 C.3   1 <1>   0.0960 
 11 C        3.2380     3.3430    -1.2070 C.2   1 <1>   0.2030 
 12 O        4.1970    -1.8900     0.9370 O.3   1 <1>  -0.6800 
 13 C        3.1400     4.7930    -1.2870 C.2   1 <1>   0.7160 
 14 O        2.4810     5.3490    -2.1490 O.2   1 <1>  -0.5700 
 15 N        3.8030     5.5520    -0.3650 N.am  1 <1>  -0.7300 
 16 C        3.8260     7.0180    -0.2750 C.3   1 <1>   0.2200 
 17 C        5.2750     7.4910    -0.4210 C.3   1 <1>  -0.1600 
 18 C        3.2500     7.4300     1.0820 C.3   1 <1>  -0.1600 
 19 C        5.4210     9.0190    -0.2740 C.3   1 <1>   0.0000 
 20 C        3.2880     8.9540     1.3080 C.3   1 <1>   0.0000 
 21 C        4.7040     9.5110     1.0100 C.3   1 <1>  -0.1600 
 22 C        4.9160     9.7350    -1.5410 C.3   1 <1>  -0.2400 
 23 C        6.9170     9.3550    -0.1470 C.3   1 <1>  -0.2400 
 24 C        2.1950     9.6530     0.4780 C.3   1 <1>  -0.2400 
 25 C        2.9630     9.2350     2.7860 C.3   1 <1>  -0.2400 
 26 H        1.9850    -1.9550    -1.7830 H     1 <1>   0.3700 
 27 H        1.7140    -1.8290     0.5320 H     1 <1>   0.0800 
 28 H        1.5220    -0.1200     0.2780 H     1 <1>   0.0800 
 29 H        2.0340     2.7410    -2.9450 H     1 <1>   0.1500 
 30 H        3.3210    -0.3510     1.8460 H     1 <1>   0.0800 
 31 H        5.0980     0.7760     0.8700 H     1 <1>   0.0800 
 32 H        5.0700    -0.1960    -0.5760 H     1 <1>   0.0800 
 33 H        4.2480    -2.3140     0.0560 H     1 <1>   0.4000 
 34 H        4.3390     5.0320     0.3320 H     1 <1>   0.3700 
 35 H        3.2260     7.4310    -1.0670 H     1 <1>   0.0800 
 36 H        5.6520     7.1830    -1.3800 H     1 <1>   0.0800 
 37 H        5.8650     7.0100     0.3390 H     1 <1>   0.0800 
 38 H        3.8240     6.9490     1.8530 H     1 <1>   0.0800 
 39 H        2.2350     7.0800     1.1550 H     1 <1>   0.0800 
 40 H        4.6760    10.5860     1.0150 H     1 <1>   0.0800 
 41 H        5.3280     9.2250     1.8390 H     1 <1>   0.0800 
 42 H        3.9270     9.4320    -1.8150 H     1 <1>   0.0800 
 43 H        5.5540     9.5090    -2.3770 H     1 <1>   0.0800 
 44 H        4.9180    10.8010    -1.3970 H     1 <1>   0.0800 
 45 H        7.3470     8.8790     0.7160 H     1 <1>   0.0800 
 46 H        7.0580    10.4170    -0.0510 H     1 <1>   0.0800 
 47 H        7.4580     9.0190    -1.0150 H     1 <1>   0.0800 
 48 H        2.2300     9.3800    -0.5560 H     1 <1>   0.0800 
 49 H        2.2900    10.7220     0.5530 H     1 <1>   0.0800 
 50 H        1.2190     9.3790     0.8390 H     1 <1>   0.0800 
 51 H        3.6840     8.7680     3.4340 H     1 <1>   0.0800 
 52 H        1.9900     8.8540     3.0410 H     1 <1>   0.0800 
 53 H        2.9730    10.2940     2.9790 H     1 <1>   0.0800 
@<TRIPOS>BOND
  1   1   2  2   
  2   2   3  am  
  3   2   4  1   
  4   3   5  1   
  5   3  26  1   
  6   4   6  1   
  7   4   7  2   
  8   5   8  1   
  9   5  27  1   
 10   5  28  1   
 11   6   9  1   
 12   6  10  1   
 13   7  11  1   
 14   7  29  1   
 15   8  10  1   
 16   8  12  1   
 17   8  30  1   
 18   9  11  2   
 19  10  31  1   
 20  10  32  1   
 21  11  13  1   
 22  12  33  1   
 23  13  14  2   
 24  13  15  am  
 25  15  16  1   
 26  15  34  1   
 27  16  17  1   
 28  16  18  1   
 29  16  35  1   
 30  17  19  1   
 31  17  36  1   
 32  17  37  1   
 33  18  20  1   
 34  18  38  1   
 35  18  39  1   
 36  19  21  1   
 37  19  22  1   
 38  19  23  1   
 39  20  21  1   
 40  20  24  1   
 41  20  25  1   
 42  21  40  1   
 43  21  41  1   
 44  22  42  1   
 45  22  43  1   
 46  22  44  1   
 47  23  45  1   
 48  23  46  1   
 49  23  47  1   
 50  24  48  1   
 51  24  49  1   
 52  24  50  1   
 53  25  51  1   
 54  25  52  1   
 55  25  53  1   
@<TRIPOS>SUBSTRUCTURE
  1 ****  13 GROUP 4 **** **** 0

# MOE 2024.06 (io_trps.svl 2023.06)
