@<TRIPOS>MOLECULE
NONAME
36 36 1 0 0 
SMALL
USER_CHARGES


@<TRIPOS>ATOM
  1 O        0.2590     0.3010     0.2020 O.2   1 <1>  -0.5700 
  2 C        1.1220     1.1440     0.0540 C.2   1 <1>   0.7800 
  3 O        0.8060     2.4300    -0.1090 O.3   1 <1>  -0.4300 
  4 N        2.4530     0.8300     0.0540 N.am  1 <1>  -0.6600 
  5 C       -0.4830     3.0060    -0.1210 C.3   1 <1>   0.2800 
  6 C        3.5610     1.7690    -0.2960 C.3   1 <1>   0.2200 
  7 C        2.8970    -0.5750    -0.0680 C.3   1 <1>   0.1400 
  8 C       -1.3040     2.4470    -1.2880 C.3   1 <1>  -0.2400 
  9 C       -0.2470     4.5010    -0.3400 C.3   1 <1>  -0.2400 
 10 C       -1.1670     2.7960     1.2350 C.3   1 <1>  -0.2400 
 11 C        3.9440     2.7310     0.8640 C.3   1 <1>   0.2000 
 12 C        4.7240     0.8470    -0.6930 C.3   1 <1>  -0.1600 
 13 C        4.0920    -0.5050    -1.0050 C.3   1 <1>  -0.1600 
 14 O        2.9030     3.5970     1.1380 O.3   1 <1>  -0.6800 
 15 C        5.1530     3.6190     0.5630 C.3   1 <1>  -0.2400 
 16 H        3.2690     2.3480    -1.1560 H     1 <1>   0.0800 
 17 H        3.1930    -0.9350     0.9030 H     1 <1>   0.0800 
 18 H        2.1210    -1.2080    -0.4670 H     1 <1>   0.0800 
 19 H       -2.2290     2.9870    -1.3770 H     1 <1>   0.0800 
 20 H       -1.5480     1.4120    -1.1310 H     1 <1>   0.0800 
 21 H       -0.7600     2.5460    -2.2100 H     1 <1>   0.0800 
 22 H       -1.1830     5.0270    -0.3680 H     1 <1>   0.0800 
 23 H        0.2640     4.6660    -1.2720 H     1 <1>   0.0800 
 24 H        0.3460     4.9090     0.4600 H     1 <1>   0.0800 
 25 H       -2.0880     3.3490     1.2700 H     1 <1>   0.0800 
 26 H       -0.5330     3.1400     2.0320 H     1 <1>   0.0800 
 27 H       -1.4050     1.7600     1.3930 H     1 <1>   0.0800 
 28 H        4.1290     2.1550     1.7550 H     1 <1>   0.0800 
 29 H        5.2720     1.2410    -1.5300 H     1 <1>   0.0800 
 30 H        5.3990     0.7280     0.1370 H     1 <1>   0.0800 
 31 H        4.7700    -1.3250    -0.8500 H     1 <1>   0.0800 
 32 H        3.7410    -0.5240    -2.0220 H     1 <1>   0.0800 
 33 H        2.0550     3.1720     0.8700 H     1 <1>   0.4000 
 34 H        4.9810     4.1930    -0.3300 H     1 <1>   0.0800 
 35 H        6.0390     3.0260     0.4270 H     1 <1>   0.0800 
 36 H        5.3260     4.2890     1.3860 H     1 <1>   0.0800 
@<TRIPOS>BOND
  1   1   2  2   
  2   2   3  1   
  3   2   4  am  
  4   3   5  1   
  5   4   6  1   
  6   4   7  1   
  7   5   8  1   
  8   5   9  1   
  9   5  10  1   
 10   6  11  1   
 11   6  12  1   
 12   6  16  1   
 13   7  13  1   
 14   7  17  1   
 15   7  18  1   
 16   8  19  1   
 17   8  20  1   
 18   8  21  1   
 19   9  22  1   
 20   9  23  1   
 21   9  24  1   
 22  10  25  1   
 23  10  26  1   
 24  10  27  1   
 25  11  14  1   
 26  11  15  1   
 27  11  28  1   
 28  12  13  1   
 29  12  29  1   
 30  12  30  1   
 31  13  31  1   
 32  13  32  1   
 33  14  33  1   
 34  15  34  1   
 35  15  35  1   
 36  15  36  1   
@<TRIPOS>SUBSTRUCTURE
  1 ****   2 GROUP 4 **** **** 0

# MOE 2024.06 (io_trps.svl 2023.06)
