@<TRIPOS>MOLECULE
NONAME
48 51 1 0 0 
SMALL
USER_CHARGES


@<TRIPOS>ATOM
  1 O        2.3240    -0.4620     2.5780 O.2   1 <1>  -0.5700 
  2 C        2.7380    -1.3130     1.8140 C.2   1 <1>   0.5440 
  3 N        3.9750    -1.1050     1.2440 N.am  1 <1>  -0.6600 
  4 C        1.9050    -2.4400     1.4740 C.ar  1 <1>   0.0860 
  5 C        4.9160    -0.0690     1.8150 C.3   1 <1>   0.1400 
  6 C        4.2660    -1.5120    -0.1640 C.3   1 <1>   0.1400 
  7 C        1.0760    -2.3940     0.3510 C.ar  1 <1>   0.1400 
  8 C        1.8720    -3.6090     2.2250 C.ar  1 <1>  -0.1500 
  9 C        4.7510     1.3230     1.1490 C.3   1 <1>   0.4230 
 10 C        4.1470    -0.3480    -1.1820 C.3   1 <1>  -0.0800 
 11 O        0.9480    -1.3900    -0.5190 O.3   1 <1>  -0.2800 
 12 C        0.2620    -3.4500    -0.0180 C.ar  1 <1>   0.0000 
 13 C        1.0560    -4.6820     1.8670 C.ar  1 <1>  -0.1500 
 14 N        3.3670     1.3970     0.5530 N.4   1 <1>  -0.9590 
 15 C        5.9230     1.6250     0.1770 C.3   1 <1>   0.1200 
 16 C        5.5160     0.1780    -1.6370 C.3   1 <1>   0.1200 
 17 C        3.2180     0.8320    -0.8250 C.3   1 <1>   0.3430 
 18 C        0.0640    -1.7680    -1.4350 C.2   1 <1>  -0.0400 
 19 C        0.2490    -4.6120     0.7490 C.ar  1 <1>  -0.1500 
 20 C       -0.3900    -3.0100    -1.1890 C.2   1 <1>  -0.1500 
 21 C        2.8090     2.8120     0.6060 C.3   1 <1>   0.2370 
 22 O        6.3180     0.4950    -0.5500 O.3   1 <1>  -0.5600 
 23 C       -0.2770    -0.7940    -2.5420 C.3   1 <1>  -0.0600 
 24 C        3.5990     3.8460    -0.1990 C.2   1 <1>   0.9060 
 25 O        3.4180     3.8940    -1.4200 O.co2 1 <1>  -0.9000 
 26 O        4.4910     4.4670     0.3840 O.co2 1 <1>  -0.9000 
 27 H        4.7220     0.0390     2.8680 H     1 <1>   0.0800 
 28 H        5.9320    -0.4130     1.7280 H     1 <1>   0.0800 
 29 H        5.2590    -1.9300    -0.2040 H     1 <1>   0.0800 
 30 H        3.5950    -2.2980    -0.4600 H     1 <1>   0.0800 
 31 H        2.4890    -3.6860     3.1040 H     1 <1>   0.1500 
 32 H        4.8110     2.0660     1.9270 H     1 <1>   0.0800 
 33 H        3.7210    -0.7760    -2.0710 H     1 <1>   0.0800 
 34 H        1.0570    -5.5730     2.4740 H     1 <1>   0.1500 
 35 H        2.8060     0.7950     1.1860 H     1 <1>   0.4500 
 36 H        6.7750     1.9200     0.7620 H     1 <1>   0.0800 
 37 H        5.7060     2.4320    -0.5000 H     1 <1>   0.0800 
 38 H        5.4230     1.0470    -2.2690 H     1 <1>   0.0800 
 39 H        6.0340    -0.5850    -2.1910 H     1 <1>   0.0800 
 40 H        2.1960     0.5180    -0.9500 H     1 <1>   0.0800 
 41 H        3.3920     1.6160    -1.5450 H     1 <1>   0.0800 
 42 H       -0.3850    -5.4340     0.4650 H     1 <1>   0.1500 
 43 H       -1.1060    -3.5940    -1.7390 H     1 <1>   0.1500 
 44 H        1.8030     2.8180     0.2310 H     1 <1>   0.0800 
 45 H        2.7910     3.1550     1.6240 H     1 <1>   0.0800 
 46 H       -1.0100    -1.2240    -3.2020 H     1 <1>   0.0800 
 47 H        0.6040    -0.5570    -3.1090 H     1 <1>   0.0800 
 48 H       -0.6780     0.1110    -2.1220 H     1 <1>   0.0800 
@<TRIPOS>BOND
  1   1   2  2   
  2   2   3  am  
  3   2   4  1   
  4   3   5  1   
  5   3   6  1   
  6   4   7  ar  
  7   4   8  ar  
  8   5   9  1   
  9   5  27  1   
 10   5  28  1   
 11   6  10  1   
 12   6  29  1   
 13   6  30  1   
 14   7  11  1   
 15   7  12  ar  
 16   8  13  ar  
 17   8  31  1   
 18   9  14  1   
 19   9  15  1   
 20   9  32  1   
 21  10  16  1   
 22  10  17  1   
 23  10  33  1   
 24  11  18  1   
 25  12  19  ar  
 26  12  20  1   
 27  13  19  ar  
 28  13  34  1   
 29  14  17  1   
 30  14  21  1   
 31  14  35  1   
 32  15  22  1   
 33  15  36  1   
 34  15  37  1   
 35  16  22  1   
 36  16  38  1   
 37  16  39  1   
 38  17  40  1   
 39  17  41  1   
 40  18  20  2   
 41  18  23  1   
 42  19  42  1   
 43  20  43  1   
 44  21  24  1   
 45  21  44  1   
 46  21  45  1   
 47  23  46  1   
 48  23  47  1   
 49  23  48  1   
 50  24  25  ar  
 51  24  26  ar  
@<TRIPOS>SUBSTRUCTURE
  1 ****   3 GROUP 4 **** **** 0

# MOE 2024.06 (io_trps.svl 2023.06)
