@<TRIPOS>MOLECULE
NONAME
41 42 1 0 0 
SMALL
USER_CHARGES


@<TRIPOS>ATOM
  1 O       -0.3470     0.1100    -0.3830 O.2   1 <1>  -0.5700 
  2 C       -1.3580     0.7420    -0.1560 C.2   1 <1>   0.5690 
  3 N       -2.5550     0.0640    -0.0530 N.am  1 <1>  -0.6600 
  4 C       -1.2480     2.3060    -0.0540 C.3   1 <1>   0.3410 
  5 C       -3.8900     0.6370     0.2550 C.3   1 <1>   0.1400 
  6 C       -2.6440    -1.4100    -0.1910 C.3   1 <1>   0.1400 
  7 O       -2.1470     2.7970     0.9280 O.3   1 <1>  -0.5600 
  8 C       -1.6080     2.9190    -1.4200 C.3   1 <1>  -0.2400 
  9 C        0.1800     2.7370     0.3450 C.3   1 <1>  -0.2400 
 10 C       -4.8560    -0.5450     0.1820 C.3   1 <1>   0.2000 
 11 C       -3.9980    -1.7860     0.4130 C.3   1 <1>  -0.0800 
 12 C       -2.2390     4.1670     1.2010 C.3   1 <1>   0.0400 
 13 O       -5.8410    -0.4650     1.1540 O.3   1 <1>  -0.6800 
 14 C       -4.6240    -3.0580    -0.1830 C.3   1 <1>  -0.0170 
 15 C       -3.7580    -4.2810     0.0700 C.ar  1 <1>   0.1670 
 16 N       -2.7980    -4.5180    -0.8090 N.ar  1 <1>  -0.6200 
 17 C       -3.9930    -5.0820     1.1860 C.ar  1 <1>   0.1600 
 18 C       -2.0930    -5.5930    -0.4990 C.ar  1 <1>   0.1600 
 19 N       -3.2910    -6.1590     1.4990 N.ar  1 <1>  -0.6200 
 20 C       -2.3310    -6.3860     0.6170 C.ar  1 <1>   0.1600 
 21 H       -3.8750     1.0520     1.2470 H     1 <1>   0.0800 
 22 H       -4.1530     1.3940    -0.4620 H     1 <1>   0.0800 
 23 H       -2.6030    -1.6660    -1.2370 H     1 <1>   0.0800 
 24 H       -1.8330    -1.8980     0.3230 H     1 <1>   0.0800 
 25 H       -1.0160     2.4490    -2.1840 H     1 <1>   0.0800 
 26 H       -1.4010     3.9710    -1.4510 H     1 <1>   0.0800 
 27 H       -2.6440     2.7450    -1.6460 H     1 <1>   0.0800 
 28 H        0.8940     2.3200    -0.3430 H     1 <1>   0.0800 
 29 H        0.4100     2.3650     1.3270 H     1 <1>   0.0800 
 30 H        0.3020     3.8020     0.3200 H     1 <1>   0.0800 
 31 H       -5.3310    -0.5700    -0.7840 H     1 <1>   0.0800 
 32 H       -3.8440    -1.9220     1.4690 H     1 <1>   0.0800 
 33 H       -3.0150     4.3030     1.9320 H     1 <1>   0.0800 
 34 H       -2.5000     4.7070     0.3090 H     1 <1>   0.0800 
 35 H       -1.3110     4.5220     1.6110 H     1 <1>   0.0800 
 36 H       -5.4350    -0.3680     2.0380 H     1 <1>   0.4000 
 37 H       -4.7620    -2.9390    -1.2430 H     1 <1>   0.0800 
 38 H       -5.5960    -3.2110     0.2530 H     1 <1>   0.0800 
 39 H       -4.7960    -4.8190     1.8520 H     1 <1>   0.1500 
 40 H       -1.2870    -5.8590    -1.1590 H     1 <1>   0.1500 
 41 H       -1.7030    -7.2420     0.7860 H     1 <1>   0.1500 
@<TRIPOS>BOND
  1   1   2  2   
  2   2   3  am  
  3   2   4  1   
  4   3   5  1   
  5   3   6  1   
  6   4   7  1   
  7   4   8  1   
  8   4   9  1   
  9   5  10  1   
 10   5  21  1   
 11   5  22  1   
 12   6  11  1   
 13   6  23  1   
 14   6  24  1   
 15   7  12  1   
 16   8  25  1   
 17   8  26  1   
 18   8  27  1   
 19   9  28  1   
 20   9  29  1   
 21   9  30  1   
 22  10  11  1   
 23  10  13  1   
 24  10  31  1   
 25  11  14  1   
 26  11  32  1   
 27  12  33  1   
 28  12  34  1   
 29  12  35  1   
 30  13  36  1   
 31  14  15  1   
 32  14  37  1   
 33  14  38  1   
 34  15  16  ar  
 35  15  17  ar  
 36  16  18  ar  
 37  17  19  ar  
 38  17  39  1   
 39  18  20  ar  
 40  18  40  1   
 41  19  20  ar  
 42  20  41  1   
@<TRIPOS>SUBSTRUCTURE
  1 ****   6 GROUP 4 **** **** 0

# MOE 2024.06 (io_trps.svl 2023.06)
