@<TRIPOS>MOLECULE
NONAME
54 56 1 0 0 
SMALL
USER_CHARGES


@<TRIPOS>ATOM
  1 O        2.1380     1.0340    -1.6280 O.3   1 <1>  -0.6800 
  2 C        1.6570     2.1580    -0.9750 C.3   1 <1>   0.2000 
  3 C        1.9760     3.4400    -1.7490 C.3   1 <1>   0.2090 
  4 C        2.3810     2.3180     0.3520 C.3   1 <1>  -0.1600 
  5 N        2.2810     4.4680    -0.7120 N.pl3 1 <1>  -0.8380 
  6 C        2.3530     3.8170     0.6250 C.3   1 <1>   0.2090 
  7 C        2.5070     5.7900    -0.9160 C.ar  1 <1>   0.4100 
  8 N        2.6770     6.5520     0.1500 N.ar  1 <1>  -0.6200 
  9 C        2.5600     6.3300    -2.2170 C.ar  1 <1>  -0.1500 
 10 C        2.8950     7.8360    -0.0380 C.ar  1 <1>   0.7710 
 11 C        2.7900     7.6550    -2.3750 C.ar  1 <1>   0.2110 
 12 N        2.9550     8.4000    -1.2560 N.ar  1 <1>  -0.1790 
 13 N        3.0640     8.5760     1.0620 N.pl3 1 <1>  -0.8690 
 14 C        3.2640    10.0290     1.2730 C.3   1 <1>   0.2090 
 15 C        4.6990    10.4040     0.9050 C.3   1 <1>  -0.1600 
 16 C        4.9930    11.8810     1.1990 C.3   1 <1>  -0.0170 
 17 C        6.3430    12.2610     0.6180 C.ar  1 <1>  -0.1430 
 18 C        6.4260    13.0440    -0.5220 C.ar  1 <1>  -0.1500 
 19 C        7.5110    11.8240     1.2220 C.ar  1 <1>  -0.1500 
 20 C        7.6600    13.3780    -1.0540 C.ar  1 <1>  -0.1500 
 21 C        8.7430    12.1590     0.6880 C.ar  1 <1>  -0.1500 
 22 C        8.8310    12.9380    -0.4560 C.ar  1 <1>  -0.1430 
 23 C       10.1830    13.3180    -1.0560 C.3   1 <1>   0.0630 
 24 C       10.9610    12.0710    -1.4870 C.3   1 <1>  -0.2400 
 25 C       11.0030    14.1550    -0.0680 C.3   1 <1>  -0.2400 
 26 H        1.5820     0.8110    -2.4000 H     1 <1>   0.4000 
 27 H        0.5960     2.0550    -0.8240 H     1 <1>   0.0800 
 28 H        1.1340     3.7410    -2.3470 H     1 <1>   0.0800 
 29 H        2.8470     3.2910    -2.3640 H     1 <1>   0.0800 
 30 H        3.4060     2.0050     0.2580 H     1 <1>   0.0800 
 31 H        1.9050     1.7660     1.1410 H     1 <1>   0.0800 
 32 H        3.2330     4.1300     1.1620 H     1 <1>   0.0800 
 33 H        1.4750     4.0800     1.1920 H     1 <1>   0.0800 
 34 H        2.4240     5.6830    -3.0620 H     1 <1>   0.1500 
 35 H        2.8470     8.1300    -3.3410 H     1 <1>   0.1500 
 36 H        3.1500     9.3940    -1.2730 H     1 <1>   0.4570 
 37 H        3.0310     8.0280     1.9300 H     1 <1>   0.4000 
 38 H        3.0860    10.2580     2.3120 H     1 <1>   0.0800 
 39 H        2.5600    10.5930     0.6850 H     1 <1>   0.0800 
 40 H        4.8760    10.2240    -0.1400 H     1 <1>   0.0800 
 41 H        5.3850     9.7970     1.4710 H     1 <1>   0.0800 
 42 H        5.0010    12.0530     2.2620 H     1 <1>   0.0800 
 43 H        4.2300    12.5070     0.7710 H     1 <1>   0.0800 
 44 H        5.5360    13.4050    -1.0050 H     1 <1>   0.1500 
 45 H        7.4710    11.2220     2.1120 H     1 <1>   0.1500 
 46 H        7.7030    13.9890    -1.9380 H     1 <1>   0.1500 
 47 H        9.6370    11.8080     1.1730 H     1 <1>   0.1500 
 48 H       10.0160    13.9190    -1.9330 H     1 <1>   0.0800 
 49 H       11.2000    11.4550    -0.6400 H     1 <1>   0.0800 
 50 H       11.8770    12.3530    -1.9760 H     1 <1>   0.0800 
 51 H       10.3710    11.4930    -2.1760 H     1 <1>   0.0800 
 52 H       11.2430    13.5850     0.8110 H     1 <1>   0.0800 
 53 H       10.4390    15.0220     0.2290 H     1 <1>   0.0800 
 54 H       11.9180    14.4830    -0.5280 H     1 <1>   0.0800 
@<TRIPOS>BOND
  1   1   2  1   
  2   1  26  1   
  3   2   3  1   
  4   2   4  1   
  5   2  27  1   
  6   3   5  1   
  7   3  28  1   
  8   3  29  1   
  9   4   6  1   
 10   4  30  1   
 11   4  31  1   
 12   5   6  1   
 13   5   7  1   
 14   6  32  1   
 15   6  33  1   
 16   7   8  ar  
 17   7   9  ar  
 18   8  10  ar  
 19   9  11  ar  
 20   9  34  1   
 21  10  12  ar  
 22  10  13  1   
 23  11  12  ar  
 24  11  35  1   
 25  12  36  1   
 26  13  14  1   
 27  13  37  1   
 28  14  15  1   
 29  14  38  1   
 30  14  39  1   
 31  15  16  1   
 32  15  40  1   
 33  15  41  1   
 34  16  17  1   
 35  16  42  1   
 36  16  43  1   
 37  17  18  ar  
 38  17  19  ar  
 39  18  20  ar  
 40  18  44  1   
 41  19  21  ar  
 42  19  45  1   
 43  20  22  ar  
 44  20  46  1   
 45  21  22  ar  
 46  21  47  1   
 47  22  23  1   
 48  23  24  1   
 49  23  25  1   
 50  23  48  1   
 51  24  49  1   
 52  24  50  1   
 53  24  51  1   
 54  25  52  1   
 55  25  53  1   
 56  25  54  1   
@<TRIPOS>SUBSTRUCTURE
  1 ****  15 GROUP 4 **** **** 0

# MOE 2024.06 (io_trps.svl 2023.06)
