@<TRIPOS>MOLECULE
NONAME
65 67 1 0 0 
SMALL
USER_CHARGES


@<TRIPOS>ATOM
  1 O       -4.1600     2.4140    -0.0750 O.2   1 <1>  -0.5700 
  2 C       -3.3820     1.7130     0.5390 C.2   1 <1>   0.5690 
  3 N       -3.9090     0.6050     1.1780 N.am  1 <1>  -0.6600 
  4 C       -1.8640     2.1020     0.5270 C.3   1 <1>   0.3410 
  5 C       -3.1670    -0.6520     1.4760 C.3   1 <1>   0.3200 
  6 C       -5.3760     0.5540     1.5280 C.3   1 <1>   0.1400 
  7 O       -1.7640     3.4510     0.0900 O.3   1 <1>  -0.3630 
  8 C       -1.0840     1.2460    -0.4910 C.3   1 <1>  -0.1600 
  9 C       -1.2550     2.0980     1.9490 C.3   1 <1>  -0.2400 
 10 C       -3.5230    -1.6520     0.3990 C.2   1 <1>  -0.3320 
 11 C       -6.2680    -0.0430     0.4130 C.3   1 <1>   0.3430 
 12 C       -0.6080     4.0070    -0.3730 C.ar  1 <1>   0.0830 
 13 C        0.3710     1.6940    -0.6250 C.3   1 <1>  -0.0160 
 14 N       -3.8420    -2.9450     0.6120 N.pl3 1 <1>   0.0330 
 15 C       -3.6120    -1.4570    -0.9350 C.2   1 <1>   0.0770 
 16 N       -6.2490     0.7820    -0.8320 N.4   1 <1>  -0.9590 
 17 C        0.4820     3.2100    -0.7230 C.ar  1 <1>  -0.1430 
 18 C       -0.5530     5.3960    -0.4800 C.ar  1 <1>  -0.1430 
 19 C       -4.1450    -3.4370    -0.6090 C.2   1 <1>   0.0060 
 20 N       -4.0330    -2.5680    -1.5590 N.2   1 <1>  -0.5650 
 21 C       -7.2000     1.9300    -0.7810 C.3   1 <1>   0.2630 
 22 C       -6.4410    -0.0500    -2.0580 C.3   1 <1>   0.2630 
 23 C        1.6570     3.8100    -1.1640 C.ar  1 <1>  -0.1430 
 24 C        0.6240     6.0030    -0.9110 C.ar  1 <1>  -0.1430 
 25 C       -1.7870     6.2320    -0.1260 C.3   1 <1>  -0.0970 
 26 C       -4.5650    -4.8750    -0.8330 C.3   1 <1>  -0.0600 
 27 C        1.7050     5.1980    -1.2670 C.ar  1 <1>   0.0830 
 28 C        2.8780     2.9670    -1.5430 C.3   1 <1>  -0.0970 
 29 C        0.7430     7.5290    -0.9950 C.3   1 <1>  -0.0970 
 30 O        2.8220     5.7820    -1.7450 O.3   1 <1>  -0.5330 
 31 H       -3.4560    -1.0190     2.4460 H     1 <1>   0.0800 
 32 H       -2.1060    -0.5090     1.4860 H     1 <1>   0.0800 
 33 H       -5.7210     1.5470     1.7590 H     1 <1>   0.0800 
 34 H       -5.5030    -0.0330     2.4200 H     1 <1>   0.0800 
 35 H       -1.5640     1.3500    -1.4490 H     1 <1>   0.0800 
 36 H       -1.1000     0.2060    -0.2350 H     1 <1>   0.0800 
 37 H       -1.9040     2.6370     2.6160 H     1 <1>   0.0800 
 38 H       -0.2940     2.5800     1.9560 H     1 <1>   0.0800 
 39 H       -1.1220     1.1090     2.3340 H     1 <1>   0.0800 
 40 H       -7.2810    -0.1300     0.7700 H     1 <1>   0.0800 
 41 H       -5.9160    -1.0370     0.1910 H     1 <1>   0.0800 
 42 H        0.7890     1.2350    -1.5040 H     1 <1>   0.0800 
 43 H        0.9370     1.3600     0.2280 H     1 <1>   0.0800 
 44 H       -3.8490    -3.4710     1.4920 H     1 <1>   0.2700 
 45 H       -3.4040    -0.5560    -1.4890 H     1 <1>   0.1500 
 46 H       -5.2980     1.2150    -0.8550 H     1 <1>   0.4500 
 47 H       -8.2150     1.5770    -0.7000 H     1 <1>   0.0800 
 48 H       -7.1080     2.5260    -1.6750 H     1 <1>   0.0800 
 49 H       -6.9760     2.5590     0.0660 H     1 <1>   0.0800 
 50 H       -7.4310    -0.4750    -2.0710 H     1 <1>   0.0800 
 51 H       -5.7250    -0.8530    -2.0870 H     1 <1>   0.0800 
 52 H       -6.3110     0.5540    -2.9420 H     1 <1>   0.0800 
 53 H       -2.6900     5.6500    -0.1470 H     1 <1>   0.0800 
 54 H       -1.9190     7.0300    -0.8320 H     1 <1>   0.0800 
 55 H       -1.6740     6.6450     0.8600 H     1 <1>   0.0800 
 56 H       -5.4610    -5.0930    -0.2820 H     1 <1>   0.0800 
 57 H       -3.7830    -5.5420    -0.5200 H     1 <1>   0.0800 
 58 H       -4.7550    -5.0410    -1.8790 H     1 <1>   0.0800 
 59 H        2.9890     2.1260    -0.8850 H     1 <1>   0.0800 
 60 H        3.7880     3.5350    -1.4760 H     1 <1>   0.0800 
 61 H        2.7730     2.6140    -2.5530 H     1 <1>   0.0800 
 62 H        0.1050     8.0130    -0.2800 H     1 <1>   0.0800 
 63 H        0.4720     7.8610    -1.9810 H     1 <1>   0.0800 
 64 H        1.7410     7.8580    -0.7720 H     1 <1>   0.0800 
 65 H        2.7030     6.7390    -1.8520 H     1 <1>   0.4500 
@<TRIPOS>BOND
  1   1   2  2   
  2   2   3  am  
  3   2   4  1   
  4   3   5  1   
  5   3   6  1   
  6   4   7  1   
  7   4   8  1   
  8   4   9  1   
  9   5  10  1   
 10   5  31  1   
 11   5  32  1   
 12   6  11  1   
 13   6  33  1   
 14   6  34  1   
 15   7  12  1   
 16   8  13  1   
 17   8  35  1   
 18   8  36  1   
 19   9  37  1   
 20   9  38  1   
 21   9  39  1   
 22  10  14  1   
 23  10  15  2   
 24  11  16  1   
 25  11  40  1   
 26  11  41  1   
 27  12  17  ar  
 28  12  18  ar  
 29  13  17  1   
 30  13  42  1   
 31  13  43  1   
 32  14  19  1   
 33  14  44  1   
 34  15  20  1   
 35  15  45  1   
 36  16  21  1   
 37  16  22  1   
 38  16  46  1   
 39  17  23  ar  
 40  18  24  ar  
 41  18  25  1   
 42  19  20  2   
 43  19  26  1   
 44  21  47  1   
 45  21  48  1   
 46  21  49  1   
 47  22  50  1   
 48  22  51  1   
 49  22  52  1   
 50  23  27  ar  
 51  23  28  1   
 52  24  27  ar  
 53  24  29  1   
 54  25  53  1   
 55  25  54  1   
 56  25  55  1   
 57  26  56  1   
 58  26  57  1   
 59  26  58  1   
 60  27  30  1   
 61  28  59  1   
 62  28  60  1   
 63  28  61  1   
 64  29  62  1   
 65  29  63  1   
 66  29  64  1   
 67  30  65  1   
@<TRIPOS>SUBSTRUCTURE
  1 ****   4 GROUP 4 **** **** 0

# MOE 2024.06 (io_trps.svl 2023.06)
