@<TRIPOS>MOLECULE
NONAME
47 50 1 0 0 
SMALL
USER_CHARGES


@<TRIPOS>ATOM
  1 O        2.4180    -0.8930     2.6100 O.2   1 <1>  -0.5700 
  2 C        2.2910    -1.1990     1.4410 C.2   1 <1>   0.5440 
  3 N        2.5760    -0.2390     0.4860 N.am  1 <1>  -0.6600 
  4 C        1.8970    -2.5510     1.0950 C.ar  1 <1>   0.0860 
  5 C        2.6740     1.2050     0.8830 C.3   1 <1>   0.1400 
  6 C        2.9260    -0.5840    -0.9160 C.3   1 <1>   0.1400 
  7 C        0.7690    -2.8100     0.3200 C.ar  1 <1>  -0.1500 
  8 C        2.6460    -3.6400     1.5360 C.ar  1 <1>  -0.1500 
  9 C        4.1250     1.7390     0.9590 C.3   1 <1>   0.4230 
 10 C        4.3260    -0.0880    -1.3230 C.3   1 <1>  -0.0800 
 11 C        0.3840    -4.0990    -0.0310 C.ar  1 <1>   0.0540 
 12 C        2.2910    -4.9310     1.1950 C.ar  1 <1>  -0.1500 
 13 N        4.6500     2.2590    -0.3550 N.4   1 <1>  -0.9590 
 14 C        5.1510     0.7060     1.4920 C.3   1 <1>   0.1200 
 15 C        5.4640    -0.6600    -0.4370 C.3   1 <1>   0.1200 
 16 C        4.3330     1.4350    -1.5610 C.3   1 <1>   0.3430 
 17 C       -0.8010    -4.3350    -0.8280 C.2   1 <1>  -0.0540 
 18 C        1.1730    -5.1560     0.4150 C.ar  1 <1>  -0.1500 
 19 C        4.4020     3.7150    -0.5650 C.3   1 <1>   0.2630 
 20 O        6.0040     0.2730     0.4570 O.3   1 <1>  -0.5600 
 21 C       -1.6210    -5.4690    -0.8110 C.2   1 <1>   0.1390 
 22 C       -1.3960    -3.5390    -1.7540 C.2   1 <1>  -0.3020 
 23 N       -2.6150    -5.3930    -1.6400 N.2   1 <1>  -0.7070 
 24 N       -2.4730    -4.1920    -2.2240 N.pl3 1 <1>   0.3000 
 25 H        2.0930     1.8070     0.2080 H     1 <1>   0.0800 
 26 H        2.2300     1.3300     1.8570 H     1 <1>   0.0800 
 27 H        2.9000    -1.6530    -1.0470 H     1 <1>   0.0800 
 28 H        2.1800    -0.1690    -1.5730 H     1 <1>   0.0800 
 29 H        0.1660    -1.9820    -0.0060 H     1 <1>   0.1500 
 30 H        3.5100    -3.4670     2.1550 H     1 <1>   0.1500 
 31 H        4.1100     2.5540     1.6630 H     1 <1>   0.0800 
 32 H        4.4740    -0.5240    -2.2950 H     1 <1>   0.0800 
 33 H        2.8840    -5.7620     1.5400 H     1 <1>   0.1500 
 34 H        5.6680     2.0940    -0.2280 H     1 <1>   0.4500 
 35 H        4.6980    -0.1430     1.9700 H     1 <1>   0.0800 
 36 H        5.7720     1.1860     2.2270 H     1 <1>   0.0800 
 37 H        6.2780    -0.9770    -1.0670 H     1 <1>   0.0800 
 38 H        5.1330    -1.5200     0.1220 H     1 <1>   0.0800 
 39 H        3.3720     1.7260    -1.9520 H     1 <1>   0.0800 
 40 H        5.0670     1.6530    -2.3200 H     1 <1>   0.0800 
 41 H        0.9110    -6.1650     0.1520 H     1 <1>   0.1500 
 42 H        3.3470     3.9020    -0.6830 H     1 <1>   0.0800 
 43 H        4.9150     4.0580    -1.4490 H     1 <1>   0.0800 
 44 H        4.7610     4.2820     0.2790 H     1 <1>   0.0800 
 45 H       -1.4540    -6.3210    -0.1750 H     1 <1>   0.1500 
 46 H       -1.1110    -2.5620    -2.0970 H     1 <1>   0.1500 
 47 H       -3.1320    -3.8540    -2.9370 H     1 <1>   0.2700 
@<TRIPOS>BOND
  1   1   2  2   
  2   2   3  am  
  3   2   4  1   
  4   3   5  1   
  5   3   6  1   
  6   4   7  ar  
  7   4   8  ar  
  8   5   9  1   
  9   5  25  1   
 10   5  26  1   
 11   6  10  1   
 12   6  27  1   
 13   6  28  1   
 14   7  11  ar  
 15   7  29  1   
 16   8  12  ar  
 17   8  30  1   
 18   9  13  1   
 19   9  14  1   
 20   9  31  1   
 21  10  15  1   
 22  10  16  1   
 23  10  32  1   
 24  11  17  1   
 25  11  18  ar  
 26  12  18  ar  
 27  12  33  1   
 28  13  16  1   
 29  13  19  1   
 30  13  34  1   
 31  14  20  1   
 32  14  35  1   
 33  14  36  1   
 34  15  20  1   
 35  15  37  1   
 36  15  38  1   
 37  16  39  1   
 38  16  40  1   
 39  17  21  1   
 40  17  22  2   
 41  18  41  1   
 42  19  42  1   
 43  19  43  1   
 44  19  44  1   
 45  21  23  2   
 46  21  45  1   
 47  22  24  1   
 48  22  46  1   
 49  23  24  1   
 50  24  47  1   
@<TRIPOS>SUBSTRUCTURE
  1 ****   4 GROUP 4 **** **** 0

# MOE 2024.06 (io_trps.svl 2023.06)
