@<TRIPOS>MOLECULE
NONAME
46 48 1 0 0 
SMALL
USER_CHARGES


@<TRIPOS>ATOM
  1 O        1.0820    -0.2670     2.0490 O.2   1 <1>  -0.5700 
  2 C        1.8140    -0.8130     1.2410 C.2   1 <1>   0.7160 
  3 N        2.8340    -0.0760     0.6770 N.am  1 <1>  -0.6600 
  4 C        1.6000    -2.1960     0.8620 C.2   1 <1>  -0.0860 
  5 C        3.0840     1.3500     1.0030 C.3   1 <1>   0.1400 
  6 C        3.4690    -0.4240    -0.6160 C.3   1 <1>   0.1400 
  7 C        0.4440    -2.8560     0.5130 C.2   1 <1>  -0.3320 
  8 C        2.6130    -3.1700     0.7840 C.2   1 <1>  -0.1500 
  9 C        3.4050     1.9870    -0.3420 C.3   1 <1>   0.1760 
 10 C        4.0950     0.8720    -1.1310 C.3   1 <1>  -0.1600 
 11 N        0.7130    -4.1560     0.2270 N.pl3 1 <1>   0.0480 
 12 C       -0.9550    -2.2600     0.4470 C.3   1 <1>  -0.0600 
 13 C        2.0520    -4.3400     0.3940 C.2   1 <1>  -0.3320 
 14 N        4.2380     3.2100    -0.2000 N.pl3 1 <1>   0.3140 
 15 C       -0.2440    -5.2060    -0.1760 C.3   1 <1>   0.0160 
 16 C        2.7560    -5.6680     0.1770 C.3   1 <1>  -0.0600 
 17 N        5.4290     3.1980     0.4360 N.2   1 <1>  -0.7070 
 18 C        3.9490     4.4510    -0.6610 C.2   1 <1>  -0.3320 
 19 C        5.8620     4.4150     0.3650 C.2   1 <1>   0.1080 
 20 C        4.9810     5.2480    -0.3100 C.2   1 <1>  -0.1500 
 21 C        2.6940     4.8420    -1.4240 C.3   1 <1>  -0.0600 
 22 C        7.1830     4.8390     0.9630 C.3   1 <1>  -0.0590 
 23 H        3.9290     1.4100     1.6680 H     1 <1>   0.0800 
 24 H        2.2260     1.8140     1.4580 H     1 <1>   0.0800 
 25 H        2.7180    -0.7840    -1.3000 H     1 <1>   0.0800 
 26 H        4.2200    -1.1830    -0.4760 H     1 <1>   0.0800 
 27 H        3.6480    -2.9830     1.0120 H     1 <1>   0.1500 
 28 H        2.4790     2.2430    -0.8200 H     1 <1>   0.0800 
 29 H        3.9580     0.9830    -2.1910 H     1 <1>   0.0800 
 30 H        5.1480     0.8540    -0.9080 H     1 <1>   0.0800 
 31 H       -0.9360    -1.2120     0.6890 H     1 <1>   0.0800 
 32 H       -1.5990    -2.7540     1.1520 H     1 <1>   0.0800 
 33 H       -1.3600    -2.3700    -0.5420 H     1 <1>   0.0800 
 34 H       -1.2390    -4.8080    -0.2200 H     1 <1>   0.0800 
 35 H       -0.2130    -6.0030     0.5430 H     1 <1>   0.0800 
 36 H        0.0330    -5.5820    -1.1440 H     1 <1>   0.0800 
 37 H        3.8080    -5.5640     0.3710 H     1 <1>   0.0800 
 38 H        2.6260    -5.9970    -0.8380 H     1 <1>   0.0800 
 39 H        2.3580    -6.4110     0.8440 H     1 <1>   0.0800 
 40 H        5.1180     6.2970    -0.4960 H     1 <1>   0.1500 
 41 H        2.6210     4.2760    -2.3360 H     1 <1>   0.0800 
 42 H        2.7250     5.8870    -1.6740 H     1 <1>   0.0800 
 43 H        1.8210     4.6610    -0.8230 H     1 <1>   0.0800 
 44 H        7.9760     4.2650     0.5210 H     1 <1>   0.0800 
 45 H        7.1700     4.6590     2.0220 H     1 <1>   0.0800 
 46 H        7.3590     5.8830     0.7830 H     1 <1>   0.0800 
@<TRIPOS>BOND
  1   1   2  2   
  2   2   3  am  
  3   2   4  1   
  4   3   5  1   
  5   3   6  1   
  6   4   7  2   
  7   4   8  1   
  8   5   9  1   
  9   5  23  1   
 10   5  24  1   
 11   6  10  1   
 12   6  25  1   
 13   6  26  1   
 14   7  11  1   
 15   7  12  1   
 16   8  13  2   
 17   8  27  1   
 18   9  10  1   
 19   9  14  1   
 20   9  28  1   
 21  10  29  1   
 22  10  30  1   
 23  11  13  1   
 24  11  15  1   
 25  12  31  1   
 26  12  32  1   
 27  12  33  1   
 28  13  16  1   
 29  14  17  1   
 30  14  18  1   
 31  15  34  1   
 32  15  35  1   
 33  15  36  1   
 34  16  37  1   
 35  16  38  1   
 36  16  39  1   
 37  17  19  2   
 38  18  20  2   
 39  18  21  1   
 40  19  20  1   
 41  19  22  1   
 42  20  40  1   
 43  21  41  1   
 44  21  42  1   
 45  21  43  1   
 46  22  44  1   
 47  22  45  1   
 48  22  46  1   
@<TRIPOS>SUBSTRUCTURE
  1 ****   3 GROUP 4 **** **** 0

# MOE 2024.06 (io_trps.svl 2023.06)
