@<TRIPOS>MOLECULE
NONAME
49 52 1 0 0 
SMALL
USER_CHARGES


@<TRIPOS>ATOM
  1 O       -0.9720     0.1400     1.1950 O.2   1 <1>  -0.5700 
  2 C       -1.8200     0.9990     1.0340 C.2   1 <1>   0.5440 
  3 N       -3.1420     0.6160     1.0600 N.am  1 <1>  -0.6600 
  4 C       -1.4430     2.3820     0.8240 C.ar  1 <1>   0.0860 
  5 C       -3.5480    -0.7370     1.5430 C.3   1 <1>   0.1400 
  6 C       -4.2030     1.3090     0.2750 C.3   1 <1>   0.1400 
  7 C       -0.5880     2.7710    -0.2460 C.ar  1 <1>   0.0000 
  8 C       -1.9380     3.3520     1.6730 C.ar  1 <1>  -0.1500 
  9 C       -3.8600    -1.6300     0.3210 C.3   1 <1>   0.4230 
 10 C       -4.5650     0.4330    -0.9340 C.3   1 <1>  -0.1600 
 11 C       -0.2770     4.1420    -0.4160 C.ar  1 <1>   0.3100 
 12 C       -0.0240     1.8710    -1.1730 C.ar  1 <1>  -0.1500 
 13 C       -1.6260     4.7000     1.5080 C.ar  1 <1>  -0.1500 
 14 N       -4.1890    -3.0560     0.6620 N.4   1 <1>  -0.9590 
 15 C       -5.0000    -1.0010    -0.5120 C.3   1 <1>  -0.1060 
 16 N        0.5150     4.6050    -1.4160 N.ar  1 <1>  -0.6200 
 17 C       -0.8100     5.0790     0.4790 C.ar  1 <1>  -0.1500 
 18 C        0.7730     2.3590    -2.1630 C.ar  1 <1>  -0.1500 
 19 C       -4.3610    -3.8950    -0.5510 C.3   1 <1>   0.3430 
 20 C       -3.2970    -3.6890     1.6700 C.3   1 <1>   0.2630 
 21 C       -6.2740    -0.9480     0.3540 C.2   1 <1>   0.9060 
 22 C       -5.2370    -1.8450    -1.7870 C.3   1 <1>  -0.1600 
 23 C        1.0110     3.7360    -2.2410 C.ar  1 <1>   0.1600 
 24 C       -5.4650    -3.3260    -1.4450 C.3   1 <1>  -0.1600 
 25 O       -6.4570    -1.8330     1.2070 O.co2 1 <1>  -0.9000 
 26 O       -7.0760    -0.0300     0.1980 O.co2 1 <1>  -0.9000 
 27 H       -2.7510    -1.1590     2.1250 H     1 <1>   0.0800 
 28 H       -4.4120    -0.6390     2.1780 H     1 <1>   0.0800 
 29 H       -5.0700     1.4630     0.8980 H     1 <1>   0.0800 
 30 H       -3.8680     2.2720    -0.0670 H     1 <1>   0.0800 
 31 H       -2.5840     3.0680     2.4860 H     1 <1>   0.1500 
 32 H       -2.9710    -1.6350    -0.2850 H     1 <1>   0.0800 
 33 H       -5.3680     0.9090    -1.4720 H     1 <1>   0.0800 
 34 H       -3.7170     0.3930    -1.5940 H     1 <1>   0.0800 
 35 H       -0.2150     0.8160    -1.0960 H     1 <1>   0.1500 
 36 H       -2.0310     5.4270     2.1910 H     1 <1>   0.1500 
 37 H       -5.1540    -2.9390     1.0770 H     1 <1>   0.4500 
 38 H       -0.5530     6.1120     0.3280 H     1 <1>   0.1500 
 39 H        1.2290     1.7110    -2.8890 H     1 <1>   0.1500 
 40 H       -3.4340    -3.9280    -1.1000 H     1 <1>   0.0800 
 41 H       -4.6240    -4.9000    -0.2640 H     1 <1>   0.0800 
 42 H       -2.2810    -3.7060     1.3120 H     1 <1>   0.0800 
 43 H       -3.6190    -4.6990     1.8660 H     1 <1>   0.0800 
 44 H       -3.3330    -3.1390     2.5960 H     1 <1>   0.0800 
 45 H       -6.0980    -1.4630    -2.3120 H     1 <1>   0.0800 
 46 H       -4.3880    -1.7630    -2.4430 H     1 <1>   0.0800 
 47 H        1.6450     4.0940    -3.0340 H     1 <1>   0.1500 
 48 H       -5.5140    -3.8990    -2.3540 H     1 <1>   0.0800 
 49 H       -6.4130    -3.4420    -0.9460 H     1 <1>   0.0800 
@<TRIPOS>BOND
  1   1   2  2   
  2   2   3  am  
  3   2   4  1   
  4   3   5  1   
  5   3   6  1   
  6   4   7  ar  
  7   4   8  ar  
  8   5   9  1   
  9   5  27  1   
 10   5  28  1   
 11   6  10  1   
 12   6  29  1   
 13   6  30  1   
 14   7  11  ar  
 15   7  12  ar  
 16   8  13  ar  
 17   8  31  1   
 18   9  14  1   
 19   9  15  1   
 20   9  32  1   
 21  10  15  1   
 22  10  33  1   
 23  10  34  1   
 24  11  16  ar  
 25  11  17  ar  
 26  12  18  ar  
 27  12  35  1   
 28  13  17  ar  
 29  13  36  1   
 30  14  19  1   
 31  14  20  1   
 32  14  37  1   
 33  15  21  1   
 34  15  22  1   
 35  16  23  ar  
 36  17  38  1   
 37  18  23  ar  
 38  18  39  1   
 39  19  24  1   
 40  19  40  1   
 41  19  41  1   
 42  20  42  1   
 43  20  43  1   
 44  20  44  1   
 45  21  25  ar  
 46  21  26  ar  
 47  22  24  1   
 48  22  45  1   
 49  22  46  1   
 50  23  47  1   
 51  24  48  1   
 52  24  49  1   
@<TRIPOS>SUBSTRUCTURE
  1 ****   3 GROUP 4 **** **** 0

# MOE 2024.06 (io_trps.svl 2023.06)
