@<TRIPOS>MOLECULE
NONAME
51 53 1 0 0 
SMALL
USER_CHARGES


@<TRIPOS>ATOM
  1 O       -3.4290     2.1700    -2.0960 O.2   1 <1>  -0.5700 
  2 C       -2.8660     1.6120    -1.1730 C.2   1 <1>   0.7030 
  3 N       -3.1000     0.2600    -1.0050 N.am  1 <1>  -0.6600 
  4 C       -2.0250     2.4150    -0.2970 C.2   1 <1>   0.2770 
  5 C       -2.3410    -0.5960    -0.0410 C.3   1 <1>   0.3210 
  6 C       -4.2450    -0.4230    -1.6820 C.3   1 <1>   0.1400 
  7 N       -1.8890     2.2900     1.0750 N.pl3 1 <1>  -0.7000 
  8 C       -1.2530     3.4730    -0.6440 C.2   1 <1>   0.2000 
  9 C       -3.1550    -0.8040     1.2360 C.2   1 <1>   0.0460 
 10 C       -5.5610    -0.1580    -0.9190 C.3   1 <1>   0.3430 
 11 C       -1.0640     3.2390     1.5290 C.cat 1 <1>   0.7910 
 12 N       -0.6420     3.9850     0.4810 N.pl3 1 <1>  -0.6290 
 13 N       -3.7100     0.2430     1.8910 N.2   1 <1>  -0.5650 
 14 C       -3.4330    -1.9660     1.8740 C.2   1 <1>  -0.3320 
 15 N       -6.6750     0.3600    -1.7880 N.4   1 <1>  -0.9590 
 16 C       -0.6390     3.5220     2.8360 C.2   1 <1>  -0.1410 
 17 C        0.2180     5.0440     0.6820 C.2   1 <1>   0.2410 
 18 C       -4.2960    -0.3020     2.9090 C.2   1 <1>   0.0360 
 19 N       -4.1650    -1.6420     2.9570 N.pl3 1 <1>   0.0330 
 20 C       -3.0490    -3.4070     1.5690 C.3   1 <1>  -0.0600 
 21 C       -6.3640     1.7100    -2.3650 C.3   1 <1>   0.2630 
 22 C       -7.9470     0.4260    -1.0070 C.3   1 <1>   0.2630 
 23 C        0.2160     4.5670     3.0520 C.2   1 <1>  -0.1500 
 24 C        0.6440     5.3330     1.9480 C.2   1 <1>  -0.1500 
 25 C        0.6570     5.8490    -0.5270 C.3   1 <1>  -0.1020 
 26 H       -1.3970    -0.1450     0.2070 H     1 <1>   0.0800 
 27 H       -2.1260    -1.5460    -0.4980 H     1 <1>   0.0800 
 28 H       -4.0650    -1.4840    -1.7130 H     1 <1>   0.0800 
 29 H       -4.3150    -0.0780    -2.6990 H     1 <1>   0.0800 
 30 H       -2.4240     1.6160     1.6540 H     1 <1>   0.4500 
 31 H       -1.1160     3.8880    -1.6300 H     1 <1>   0.1500 
 32 H       -5.3650     0.5520    -0.1310 H     1 <1>   0.0800 
 33 H       -5.8710    -1.0790    -0.4520 H     1 <1>   0.0800 
 34 H       -6.8160    -0.2970    -2.5710 H     1 <1>   0.4500 
 35 H       -0.9980     2.9080     3.6410 H     1 <1>   0.1500 
 36 H       -4.8430     0.2390     3.6650 H     1 <1>   0.1500 
 37 H       -4.5330    -2.2750     3.6770 H     1 <1>   0.2700 
 38 H       -2.4530    -3.4730     0.6770 H     1 <1>   0.0800 
 39 H       -3.9310    -4.0080     1.4320 H     1 <1>   0.0800 
 40 H       -2.4790    -3.8180     2.3840 H     1 <1>   0.0800 
 41 H       -6.1430     2.4140    -1.5790 H     1 <1>   0.0800 
 42 H       -7.2030     2.0780    -2.9340 H     1 <1>   0.0800 
 43 H       -5.5100     1.6550    -3.0210 H     1 <1>   0.0800 
 44 H       -7.8440     1.1080    -0.1780 H     1 <1>   0.0800 
 45 H       -8.2040    -0.5480    -0.6220 H     1 <1>   0.0800 
 46 H       -8.7550     0.7690    -1.6340 H     1 <1>   0.0800 
 47 H        0.5680     4.8200     4.0400 H     1 <1>   0.1500 
 48 H        1.3170     6.1540     2.1320 H     1 <1>   0.1500 
 49 H        1.1720     5.2160    -1.2260 H     1 <1>   0.0800 
 50 H        1.3220     6.6420    -0.2330 H     1 <1>   0.0800 
 51 H       -0.1980     6.2870    -1.0090 H     1 <1>   0.0800 
@<TRIPOS>BOND
  1   1   2  2   
  2   2   3  am  
  3   2   4  1   
  4   3   5  1   
  5   3   6  1   
  6   4   7  1   
  7   4   8  2   
  8   5   9  1   
  9   5  26  1   
 10   5  27  1   
 11   6  10  1   
 12   6  28  1   
 13   6  29  1   
 14   7  11  ar  
 15   7  30  1   
 16   8  12  1   
 17   8  31  1   
 18   9  13  1   
 19   9  14  2   
 20  10  15  1   
 21  10  32  1   
 22  10  33  1   
 23  11  12  ar  
 24  11  16  1   
 25  12  17  1   
 26  13  18  2   
 27  14  19  1   
 28  14  20  1   
 29  15  21  1   
 30  15  22  1   
 31  15  34  1   
 32  16  23  2   
 33  16  35  1   
 34  17  24  2   
 35  17  25  1   
 36  18  19  1   
 37  18  36  1   
 38  19  37  1   
 39  20  38  1   
 40  20  39  1   
 41  20  40  1   
 42  21  41  1   
 43  21  42  1   
 44  21  43  1   
 45  22  44  1   
 46  22  45  1   
 47  22  46  1   
 48  23  24  1   
 49  23  47  1   
 50  24  48  1   
 51  25  49  1   
 52  25  50  1   
 53  25  51  1   
@<TRIPOS>SUBSTRUCTURE
  1 ****   7 GROUP 4 **** **** 0

# MOE 2024.06 (io_trps.svl 2023.06)
