@<TRIPOS>MOLECULE
NONAME
45 48 1 0 0 
SMALL
USER_CHARGES


@<TRIPOS>ATOM
  1 S       -0.4740    -0.1960     1.2600 S.3   1 <1>  -0.2820 
  2 C       -1.1930     1.1630     0.4170 C.2   1 <1>   0.7320 
  3 C       -1.5600    -1.2550     0.3950 C.2   1 <1>   0.6510 
  4 S       -0.5220     2.7690     0.8200 S.3   1 <1>  -0.3710 
  5 N       -2.1220     0.8920    -0.4010 N.2   1 <1>  -0.5120 
  6 N       -1.5670    -2.5380     0.5540 N.2   1 <1>  -0.6210 
  7 N       -2.3530    -0.4970    -0.4310 N.am  1 <1>  -0.0580 
  8 C       -1.5020     3.9290    -0.2340 C.3   1 <1>  -0.0100 
  9 C       -2.4690    -3.2240    -0.2080 C.2   1 <1>   0.0330 
 10 C       -3.2900    -1.1760    -1.1950 C.2   1 <1>   0.6160 
 11 C       -3.3100    -2.5870    -1.0650 C.2   1 <1>  -0.1360 
 12 C       -2.4550    -4.7430    -0.0450 C.3   1 <1>   0.2480 
 13 O       -4.0700    -0.5950    -1.9360 O.2   1 <1>  -0.5700 
 14 N       -3.8170    -5.3280    -0.0900 N.3   1 <1>  -0.8100 
 15 C       -3.7620    -6.8040    -0.1700 C.3   1 <1>   0.1100 
 16 C       -4.6250    -4.9050     1.0830 C.3   1 <1>   0.1100 
 17 C       -5.1650    -7.4070    -0.4390 C.3   1 <1>   0.4230 
 18 C       -5.8750    -5.7880     1.3280 C.3   1 <1>   0.3430 
 19 N       -6.2870    -6.5450     0.0990 N.4   1 <1>  -0.9590 
 20 C       -5.2960    -8.8410     0.0870 C.3   1 <1>  -0.1600 
 21 C       -7.5960    -7.2430     0.3030 C.3   1 <1>   0.3430 
 22 C       -6.6200    -9.4900    -0.3600 C.3   1 <1>  -0.1600 
 23 C       -7.7230    -8.4500    -0.6260 C.3   1 <1>  -0.1600 
 24 H       -1.1520     4.9270    -0.0410 H     1 <1>   0.0800 
 25 H       -2.5390     3.8270     0.0340 H     1 <1>   0.0800 
 26 H       -1.3450     3.6580    -1.2630 H     1 <1>   0.0800 
 27 H       -4.0180    -3.1140    -1.6750 H     1 <1>   0.1500 
 28 H       -1.9800    -4.9980     0.8880 H     1 <1>   0.0800 
 29 H       -1.8550    -5.1540    -0.8390 H     1 <1>   0.0800 
 30 H       -3.3600    -7.2000     0.7480 H     1 <1>   0.0800 
 31 H       -3.1040    -7.1050    -0.9680 H     1 <1>   0.0800 
 32 H       -4.9440    -3.8870     0.9360 H     1 <1>   0.0800 
 33 H       -4.0220    -4.9200     1.9760 H     1 <1>   0.0800 
 34 H       -5.2780    -7.4580    -1.5100 H     1 <1>   0.0800 
 35 H       -6.6830    -5.1640     1.6720 H     1 <1>   0.0800 
 36 H       -5.6500    -6.4890     2.1140 H     1 <1>   0.0800 
 37 H       -6.3990    -5.8260    -0.6280 H     1 <1>   0.4500 
 38 H       -5.2380    -8.8300     1.1620 H     1 <1>   0.0800 
 39 H       -4.4760    -9.4380    -0.2720 H     1 <1>   0.0800 
 40 H       -8.4100    -6.5570     0.1320 H     1 <1>   0.0800 
 41 H       -7.6610    -7.5940     1.3210 H     1 <1>   0.0800 
 42 H       -6.9430   -10.1800     0.4030 H     1 <1>   0.0800 
 43 H       -6.4610   -10.0630    -1.2590 H     1 <1>   0.0800 
 44 H       -7.6790    -8.1130    -1.6480 H     1 <1>   0.0800 
 45 H       -8.6860    -8.9110    -0.4850 H     1 <1>   0.0800 
@<TRIPOS>BOND
  1   1   2  1   
  2   1   3  1   
  3   2   4  1   
  4   2   5  2   
  5   3   6  2   
  6   3   7  1   
  7   4   8  1   
  8   5   7  1   
  9   6   9  1   
 10   7  10  am  
 11   8  24  1   
 12   8  25  1   
 13   8  26  1   
 14   9  11  2   
 15   9  12  1   
 16  10  11  1   
 17  10  13  2   
 18  11  27  1   
 19  12  14  1   
 20  12  28  1   
 21  12  29  1   
 22  14  15  1   
 23  14  16  1   
 24  15  17  1   
 25  15  30  1   
 26  15  31  1   
 27  16  18  1   
 28  16  32  1   
 29  16  33  1   
 30  17  19  1   
 31  17  20  1   
 32  17  34  1   
 33  18  19  1   
 34  18  35  1   
 35  18  36  1   
 36  19  21  1   
 37  19  37  1   
 38  20  22  1   
 39  20  38  1   
 40  20  39  1   
 41  21  23  1   
 42  21  40  1   
 43  21  41  1   
 44  22  23  1   
 45  22  42  1   
 46  22  43  1   
 47  23  44  1   
 48  23  45  1   
@<TRIPOS>SUBSTRUCTURE
  1 ****   9 GROUP 4 **** **** 0

# MOE 2024.06 (io_trps.svl 2023.06)
