@<TRIPOS>MOLECULE
NONAME
39 41 1 0 0 
SMALL
USER_CHARGES


@<TRIPOS>ATOM
  1 O       -0.9450     0.6010     1.4490 O.2   1 <1>  -0.5700 
  2 C       -0.7130     1.7800     1.3710 C.2   1 <1>   0.5690 
  3 N       -1.7120     2.6860     1.4450 N.am  1 <1>  -0.7300 
  4 C        0.7200     2.2670     1.1430 C.3   1 <1>   0.1810 
  5 C       -1.5070     4.1510     1.3430 C.3   1 <1>   0.3640 
  6 O        0.8970     3.6350     1.4410 O.3   1 <1>  -0.5600 
  7 C       -2.5450     4.7170     0.3740 C.ar  1 <1>  -0.1440 
  8 C       -0.0710     4.5060     0.8710 C.3   1 <1>   0.2610 
  9 C       -3.2270     5.8810     0.6980 C.ar  1 <1>  -0.1500 
 10 C       -2.8180     4.0940    -0.8390 C.ar  1 <1>  -0.1500 
 11 C        0.2840     5.9770     1.1590 C.2   1 <1>   0.5690 
 12 C       -4.1630     6.4150    -0.1710 C.ar  1 <1>  -0.1500 
 13 C       -3.7550     4.6260    -1.7080 C.ar  1 <1>  -0.1500 
 14 O       -0.3910     6.5960     1.9530 O.2   1 <1>  -0.5700 
 15 N        1.3430     6.5850     0.5230 N.am  1 <1>  -0.6600 
 16 C       -4.4280     5.7880    -1.3750 C.ar  1 <1>  -0.1500 
 17 C        1.6500     8.0330     0.7250 C.3   1 <1>   0.1400 
 18 C        2.3560     5.8970    -0.3330 C.3   1 <1>   0.1400 
 19 C        1.9440     8.7160    -0.6200 C.3   1 <1>   0.1200 
 20 C        2.6060     6.6980    -1.6220 C.3   1 <1>   0.1200 
 21 O        2.9380     8.0230    -1.3230 O.3   1 <1>  -0.5600 
 22 H       -2.6690     2.3600     1.5860 H     1 <1>   0.3700 
 23 H        0.9930     2.1050     0.1170 H     1 <1>   0.0800 
 24 H        1.3880     1.7070     1.7720 H     1 <1>   0.0800 
 25 H       -1.6700     4.5680     2.3220 H     1 <1>   0.0800 
 26 H       -0.0350     4.3690    -0.1930 H     1 <1>   0.0800 
 27 H       -3.0290     6.3860     1.6290 H     1 <1>   0.1500 
 28 H       -2.3080     3.1880    -1.1150 H     1 <1>   0.1500 
 29 H       -4.6840     7.3190     0.0920 H     1 <1>   0.1500 
 30 H       -3.9620     4.1360    -2.6440 H     1 <1>   0.1500 
 31 H       -5.1560     6.2020    -2.0490 H     1 <1>   0.1500 
 32 H        0.8250     8.5340     1.2010 H     1 <1>   0.0800 
 33 H        2.5080     8.1270     1.3670 H     1 <1>   0.0800 
 34 H        3.2800     5.8190     0.2140 H     1 <1>   0.0800 
 35 H        2.0440     4.9020    -0.5890 H     1 <1>   0.0800 
 36 H        2.2960     9.7190    -0.4570 H     1 <1>   0.0800 
 37 H        1.0560     8.7560    -1.2260 H     1 <1>   0.0800 
 38 H        1.7300     6.6950    -2.2480 H     1 <1>   0.0800 
 39 H        3.4260     6.2710    -2.1720 H     1 <1>   0.0800 
@<TRIPOS>BOND
  1   1   2  2   
  2   2   3  am  
  3   2   4  1   
  4   3   5  1   
  5   3  22  1   
  6   4   6  1   
  7   4  23  1   
  8   4  24  1   
  9   5   7  1   
 10   5   8  1   
 11   5  25  1   
 12   6   8  1   
 13   7   9  ar  
 14   7  10  ar  
 15   8  11  1   
 16   8  26  1   
 17   9  12  ar  
 18   9  27  1   
 19  10  13  ar  
 20  10  28  1   
 21  11  14  2   
 22  11  15  am  
 23  12  16  ar  
 24  12  29  1   
 25  13  16  ar  
 26  13  30  1   
 27  15  17  1   
 28  15  18  1   
 29  16  31  1   
 30  17  19  1   
 31  17  32  1   
 32  17  33  1   
 33  18  20  1   
 34  18  34  1   
 35  18  35  1   
 36  19  21  1   
 37  19  36  1   
 38  19  37  1   
 39  20  21  1   
 40  20  38  1   
 41  20  39  1   
@<TRIPOS>SUBSTRUCTURE
  1 ****   8 GROUP 4 **** **** 0

# MOE 2024.06 (io_trps.svl 2023.06)
