@<TRIPOS>MOLECULE
NONAME
25 26 1 0 0 
SMALL
USER_CHARGES


@<TRIPOS>ATOM
  1 O       -0.3790    -0.2050    -0.1600 O.3   1 <1>  -0.3630 
  2 C       -1.5730    -0.8230    -0.0670 C.ar  1 <1>   0.3920 
  3 C       -0.2990     1.1880    -0.3960 C.3   1 <1>   0.0400 
  4 N       -2.6840    -0.1130    -0.2190 N.ar  1 <1>  -0.6200 
  5 C       -1.5500    -2.1870     0.1840 C.ar  1 <1>  -0.1500 
  6 C       -3.8120    -0.7910    -0.1050 C.ar  1 <1>   0.1600 
  7 C       -2.7330    -2.8930     0.2820 C.ar  1 <1>  -0.1080 
  8 C       -3.8920    -2.1510     0.1400 C.ar  1 <1>  -0.1500 
  9 C       -2.7910    -4.3950     0.5440 C.3   1 <1>   0.1080 
 10 C       -1.5320    -5.2030     0.1490 C.3   1 <1>   0.4720 
 11 C       -3.4940    -5.1890    -0.5800 C.3   1 <1>   0.4720 
 12 N       -2.4470    -6.2500    -0.4120 N.4   1 <1>  -0.8440 
 13 H        0.7380     1.4680    -0.4280 H     1 <1>   0.0800 
 14 H       -0.7980     1.7060     0.4050 H     1 <1>   0.0800 
 15 H       -0.7720     1.4100    -1.3370 H     1 <1>   0.0800 
 16 H       -0.5860    -2.6450     0.2980 H     1 <1>   0.1500 
 17 H       -4.7250    -0.2270    -0.2140 H     1 <1>   0.1500 
 18 H       -4.8640    -2.6040     0.2200 H     1 <1>   0.1500 
 19 H       -3.1590    -4.6460     1.5240 H     1 <1>   0.0000 
 20 H       -0.9560    -5.5660     0.9810 H     1 <1>   0.0000 
 21 H       -0.9540    -4.7390    -0.6300 H     1 <1>   0.0000 
 22 H       -3.4160    -4.7180    -1.5440 H     1 <1>   0.0000 
 23 H       -4.4780    -5.5410    -0.3300 H     1 <1>   0.0000 
 24 H       -2.7080    -6.9600     0.2810 H     1 <1>   0.4500 
 25 H       -2.1200    -6.6490    -1.2990 H     1 <1>   0.4500 
@<TRIPOS>BOND
  1   1   2  1   
  2   1   3  1   
  3   2   4  ar  
  4   2   5  ar  
  5   3  13  1   
  6   3  14  1   
  7   3  15  1   
  8   4   6  ar  
  9   5   7  ar  
 10   5  16  1   
 11   6   8  ar  
 12   6  17  1   
 13   7   8  ar  
 14   7   9  1   
 15   8  18  1   
 16   9  10  1   
 17   9  11  1   
 18   9  19  1   
 19  10  12  1   
 20  10  20  1   
 21  10  21  1   
 22  11  12  1   
 23  11  22  1   
 24  11  23  1   
 25  12  24  1   
 26  12  25  1   
@<TRIPOS>SUBSTRUCTURE
  1 ****   7 GROUP 4 **** **** 0

# MOE 2024.06 (io_trps.svl 2023.06)
