@<TRIPOS>MOLECULE
NONAME
44 46 1 0 0 
SMALL
USER_CHARGES


@<TRIPOS>ATOM
  1 O       -0.3110     0.6440    -0.7410 O.2   1 <1>  -0.5700 
  2 C       -0.3670     1.8100    -0.4250 C.2   1 <1>   0.5690 
  3 N       -1.5080     2.4110     0.0540 N.am  1 <1>  -0.6600 
  4 C        0.9120     2.6320    -0.5910 C.3   1 <1>   0.1810 
  5 C       -1.5000     3.8710     0.4230 C.3   1 <1>   0.3640 
  6 C       -2.7340     1.6690     0.4680 C.3   1 <1>   0.2200 
  7 O        0.9390     3.7670     0.2330 O.3   1 <1>  -0.5600 
  8 C       -2.6710     4.5870    -0.2560 C.ar  1 <1>  -0.1440 
  9 C       -0.1840     4.6060     0.0630 C.3   1 <1>   0.2610 
 10 C       -2.4110     0.7100     1.6130 C.3   1 <1>  -0.2400 
 11 C       -3.3780     0.9480    -0.7170 C.3   1 <1>  -0.2400 
 12 C       -2.9370     4.4080    -1.6080 C.ar  1 <1>  -0.1500 
 13 C       -3.4830     5.4370     0.4810 C.ar  1 <1>  -0.1500 
 14 C       -0.0070     5.9020     0.8650 C.2   1 <1>   0.5690 
 15 C       -3.9990     5.0610    -2.2090 C.ar  1 <1>  -0.1500 
 16 C       -4.5450     6.0910    -0.1180 C.ar  1 <1>  -0.1500 
 17 O       -0.6410     6.1020     1.8770 O.2   1 <1>  -0.5700 
 18 N        0.8740     6.8230     0.4090 N.am  1 <1>  -0.7300 
 19 C       -4.8040     5.9030    -1.4640 C.ar  1 <1>  -0.1500 
 20 C        1.2300     8.1110     1.0670 C.3   1 <1>   0.3080 
 21 C        2.3530     8.8240     0.3220 C.2   1 <1>   0.5690 
 22 N        2.8910     8.3630    -0.7560 N.2   1 <1>  -0.6190 
 23 N        2.8630     9.9450     0.7020 N.2   1 <1>  -0.6190 
 24 N        3.7850     9.2310    -1.0780 N.2   1 <1>  -0.2500 
 25 N        3.7670    10.1910    -0.1940 N.2   1 <1>  -0.2500 
 26 H        1.0120     2.9450    -1.6140 H     1 <1>   0.0800 
 27 H        1.7590     2.0240    -0.3310 H     1 <1>   0.0800 
 28 H       -1.6320     3.9230     1.4900 H     1 <1>   0.0800 
 29 H       -3.4590     2.3760     0.8390 H     1 <1>   0.0800 
 30 H       -0.2180     4.8820    -0.9750 H     1 <1>   0.0800 
 31 H       -1.7520    -0.0730     1.2850 H     1 <1>   0.0800 
 32 H       -3.3170     0.2560     1.9730 H     1 <1>   0.0800 
 33 H       -1.9530     1.2440     2.4260 H     1 <1>   0.0800 
 34 H       -2.7490     0.1580    -1.0820 H     1 <1>   0.0800 
 35 H       -3.5770     1.6410    -1.5120 H     1 <1>   0.0800 
 36 H       -4.3120     0.5130    -0.4100 H     1 <1>   0.0800 
 37 H       -2.3200     3.7530    -2.1990 H     1 <1>   0.1500 
 38 H       -3.2900     5.6000     1.5290 H     1 <1>   0.1500 
 39 H       -4.1990     4.9130    -3.2560 H     1 <1>   0.1500 
 40 H       -5.1680     6.7490     0.4630 H     1 <1>   0.1500 
 41 H        1.5020     6.6480    -0.3890 H     1 <1>   0.3700 
 42 H       -5.6310     6.4110    -1.9300 H     1 <1>   0.1500 
 43 H        0.3700     8.7540     1.0880 H     1 <1>   0.0800 
 44 H        1.5500     7.9250     2.0750 H     1 <1>   0.0800 
@<TRIPOS>BOND
  1   1   2  2   
  2   2   3  am  
  3   2   4  1   
  4   3   5  1   
  5   3   6  1   
  6   4   7  1   
  7   4  26  1   
  8   4  27  1   
  9   5   8  1   
 10   5   9  1   
 11   5  28  1   
 12   6  10  1   
 13   6  11  1   
 14   6  29  1   
 15   7   9  1   
 16   8  12  ar  
 17   8  13  ar  
 18   9  14  1   
 19   9  30  1   
 20  10  31  1   
 21  10  32  1   
 22  10  33  1   
 23  11  34  1   
 24  11  35  1   
 25  11  36  1   
 26  12  15  ar  
 27  12  37  1   
 28  13  16  ar  
 29  13  38  1   
 30  14  17  2   
 31  14  18  am  
 32  15  19  ar  
 33  15  39  1   
 34  16  19  ar  
 35  16  40  1   
 36  18  20  1   
 37  18  41  1   
 38  19  42  1   
 39  20  21  1   
 40  20  43  1   
 41  20  44  1   
 42  21  22  1   
 43  21  23  2   
 44  22  24  1   
 45  23  25  1   
 46  24  25  2   
@<TRIPOS>SUBSTRUCTURE
  1 ****   9 GROUP 4 **** **** 0

# MOE 2024.06 (io_trps.svl 2023.06)
