@<TRIPOS>MOLECULE
NONAME
38 39 1 0 0 
SMALL
USER_CHARGES


@<TRIPOS>ATOM
  1 O        0.8330     2.7130     0.3340 O.2   1 <1>  -0.5700 
  2 C       -0.3120     2.4760     0.6430 C.2   1 <1>   0.5690 
  3 N       -1.3500     2.7530    -0.2070 N.am  1 <1>  -0.6600 
  4 C       -0.5670     1.9050     2.0290 C.3   1 <1>  -0.0990 
  5 C       -2.7870     2.5900     0.1480 C.3   1 <1>   0.1400 
  6 C       -1.0950     3.2590    -1.6000 C.3   1 <1>   0.2010 
  7 C       -2.0000     1.3930     2.2290 C.3   1 <1>  -0.1600 
  8 C       -2.9900     2.4110     1.6560 C.3   1 <1>  -0.1600 
  9 C       -0.7710     4.7510    -1.6500 C.2   1 <1>   0.5690 
 10 O       -1.4740     5.4770    -2.3100 O.2   1 <1>  -0.5700 
 11 N        0.3110     5.1740    -0.9360 N.am  1 <1>  -0.4940 
 12 C        0.8420     6.4500    -0.7430 C.2   1 <1>   0.2040 
 13 O        0.3610     7.5190    -1.3310 O.3   1 <1>  -0.0190 
 14 C        1.8720     6.8350     0.0340 C.2   1 <1>  -0.1810 
 15 N        1.0170     8.5990    -0.9830 N.2   1 <1>  -0.4100 
 16 C        1.9280     8.2130    -0.1630 C.2   1 <1>   0.1080 
 17 C        2.7590     5.9770     0.9190 C.3   1 <1>   0.0210 
 18 C        2.9170     9.1580     0.4840 C.3   1 <1>  -0.0590 
 19 C        2.1950     5.9110     2.3390 C.3   1 <1>  -0.2400 
 20 H       -0.3670     2.6860     2.7400 H     1 <1>   0.0800 
 21 H        0.1310     1.1090     2.2110 H     1 <1>   0.0800 
 22 H       -3.1700     1.7260    -0.3690 H     1 <1>   0.0800 
 23 H       -3.3390     3.4540    -0.1840 H     1 <1>   0.0800 
 24 H       -1.9540     3.0710    -2.2190 H     1 <1>   0.0800 
 25 H       -0.2660     2.7200    -2.0250 H     1 <1>   0.0800 
 26 H       -2.1890     1.2370     3.2770 H     1 <1>   0.0800 
 27 H       -2.1200     0.4510     1.7210 H     1 <1>   0.0800 
 28 H       -3.9980     2.0830     1.8380 H     1 <1>   0.0800 
 29 H       -2.8640     3.3620     2.1460 H     1 <1>   0.0800 
 30 H        0.7640     4.4250    -0.3970 H     1 <1>   0.3700 
 31 H        3.7570     6.3800     0.9360 H     1 <1>   0.0800 
 32 H        2.8160     4.9810     0.5140 H     1 <1>   0.0800 
 33 H        2.8530     9.0790     1.5530 H     1 <1>   0.0800 
 34 H        2.6980    10.1710     0.1970 H     1 <1>   0.0800 
 35 H        3.9140     8.9150     0.1670 H     1 <1>   0.0800 
 36 H        2.1390     6.8960     2.7660 H     1 <1>   0.0800 
 37 H        2.8250     5.2980     2.9590 H     1 <1>   0.0800 
 38 H        1.2070     5.4850     2.3230 H     1 <1>   0.0800 
@<TRIPOS>BOND
  1   1   2  2   
  2   2   3  am  
  3   2   4  1   
  4   3   5  1   
  5   3   6  1   
  6   4   7  1   
  7   4  20  1   
  8   4  21  1   
  9   5   8  1   
 10   5  22  1   
 11   5  23  1   
 12   6   9  1   
 13   6  24  1   
 14   6  25  1   
 15   7   8  1   
 16   7  26  1   
 17   7  27  1   
 18   8  28  1   
 19   8  29  1   
 20   9  10  2   
 21   9  11  am  
 22  11  12  1   
 23  11  30  1   
 24  12  13  1   
 25  12  14  2   
 26  13  15  1   
 27  14  16  1   
 28  14  17  1   
 29  15  16  2   
 30  16  18  1   
 31  17  19  1   
 32  17  31  1   
 33  17  32  1   
 34  18  33  1   
 35  18  34  1   
 36  18  35  1   
 37  19  36  1   
 38  19  37  1   
 39  19  38  1   
@<TRIPOS>SUBSTRUCTURE
  1 ****  11 GROUP 4 **** **** 0

# MOE 2024.06 (io_trps.svl 2023.06)
