@<TRIPOS>MOLECULE
NONAME
53 55 1 0 0 
SMALL
USER_CHARGES


@<TRIPOS>ATOM
  1 O        0.8980     0.0090     0.8110 O.2   1 <1>  -0.5700 
  2 C        1.8510    -0.5800     0.3290 C.2   1 <1>   0.5440 
  3 N        2.8910     0.1960    -0.1760 N.am  1 <1>  -0.6600 
  4 C        1.8060    -2.0450     0.2910 C.ar  1 <1>   0.3960 
  5 C        3.9640    -0.3630    -1.0600 C.3   1 <1>   0.1400 
  6 C        2.8770     1.6820     0.0050 C.3   1 <1>   0.1400 
  7 N        2.9140    -2.7910     0.4470 N.ar  1 <1>  -0.6200 
  8 C        0.5600    -2.6520     0.0960 C.ar  1 <1>   0.1600 
  9 C        5.2460    -0.6750    -0.2730 C.3   1 <1>   0.1400 
 10 C        4.2610     2.3220     0.1890 C.3   1 <1>  -0.1600 
 11 C        2.6860    -4.0900     0.3930 C.ar  1 <1>   0.1600 
 12 N        0.3330    -3.9550     0.0320 N.ar  1 <1>  -0.6200 
 13 N        5.9850     0.5680     0.1020 N.am  1 <1>  -0.6600 
 14 C        5.2410     1.4810     1.0120 C.3   1 <1>   0.1400 
 15 C        1.4340    -4.6620     0.1890 C.ar  1 <1>   0.1670 
 16 C        7.2300     0.8300    -0.4160 C.2   1 <1>   0.5690 
 17 C        1.2680    -6.1670     0.1380 C.3   1 <1>  -0.0960 
 18 O        7.7940     0.0390    -1.1380 O.2   1 <1>  -0.5700 
 19 C        7.9400     2.1350    -0.0890 C.3   1 <1>  -0.0990 
 20 C        9.0950     2.4650    -1.0440 C.3   1 <1>   0.0210 
 21 C        9.7440     3.7770    -0.6440 C.2   1 <1>   0.1080 
 22 N        9.1530     4.9160    -0.8300 N.2   1 <1>  -0.7070 
 23 C       10.9950     3.9220    -0.0450 C.2   1 <1>  -0.1810 
 24 N       10.0210     5.8280    -0.3600 N.pl3 1 <1>   0.3000 
 25 C       11.1430     5.2550     0.1240 C.2   1 <1>  -0.3320 
 26 C       11.9480     2.7970     0.3200 C.3   1 <1>  -0.0590 
 27 C       12.2850     6.0640     0.7170 C.3   1 <1>  -0.0600 
 28 H        4.1900     0.3290    -1.8530 H     1 <1>   0.0800 
 29 H        3.6140    -1.2670    -1.5240 H     1 <1>   0.0800 
 30 H        2.2940     1.9200     0.8790 H     1 <1>   0.0800 
 31 H        2.3830     2.1310    -0.8400 H     1 <1>   0.0800 
 32 H       -0.2970    -2.0090    -0.0130 H     1 <1>   0.1500 
 33 H        5.8690    -1.3050    -0.8820 H     1 <1>   0.0800 
 34 H        5.0060    -1.2300     0.6170 H     1 <1>   0.0800 
 35 H        4.1130     3.2600     0.6920 H     1 <1>   0.0800 
 36 H        4.6890     2.5520    -0.7710 H     1 <1>   0.0800 
 37 H        3.5350    -4.7390     0.5150 H     1 <1>   0.1500 
 38 H        4.7140     0.9090     1.7580 H     1 <1>   0.0800 
 39 H        5.9270     2.1260     1.5310 H     1 <1>   0.0800 
 40 H        2.2070    -6.6700     0.2730 H     1 <1>   0.0800 
 41 H        0.8550    -6.4510    -0.8130 H     1 <1>   0.0800 
 42 H        0.5910    -6.4800     0.9130 H     1 <1>   0.0800 
 43 H        8.3190     2.0760     0.9130 H     1 <1>   0.0800 
 44 H        7.2370     2.9450    -0.1400 H     1 <1>   0.0800 
 45 H        8.7190     2.5550    -2.0480 H     1 <1>   0.0800 
 46 H        9.8220     1.6740    -1.0330 H     1 <1>   0.0800 
 47 H        9.8210     6.8340    -0.3840 H     1 <1>   0.2700 
 48 H       11.4480     2.0870     0.9530 H     1 <1>   0.0800 
 49 H       12.8070     3.1730     0.8430 H     1 <1>   0.0800 
 50 H       12.2800     2.2980    -0.5720 H     1 <1>   0.0800 
 51 H       13.0890     5.4240     1.0270 H     1 <1>   0.0800 
 52 H       11.9400     6.6150     1.5740 H     1 <1>   0.0800 
 53 H       12.6650     6.7560    -0.0130 H     1 <1>   0.0800 
@<TRIPOS>BOND
  1   1   2  2   
  2   2   3  am  
  3   2   4  1   
  4   3   5  1   
  5   3   6  1   
  6   4   7  ar  
  7   4   8  ar  
  8   5   9  1   
  9   5  28  1   
 10   5  29  1   
 11   6  10  1   
 12   6  30  1   
 13   6  31  1   
 14   7  11  ar  
 15   8  12  ar  
 16   8  32  1   
 17   9  13  1   
 18   9  33  1   
 19   9  34  1   
 20  10  14  1   
 21  10  35  1   
 22  10  36  1   
 23  11  15  ar  
 24  11  37  1   
 25  12  15  ar  
 26  13  14  1   
 27  13  16  am  
 28  14  38  1   
 29  14  39  1   
 30  15  17  1   
 31  16  18  2   
 32  16  19  1   
 33  17  40  1   
 34  17  41  1   
 35  17  42  1   
 36  19  20  1   
 37  19  43  1   
 38  19  44  1   
 39  20  21  1   
 40  20  45  1   
 41  20  46  1   
 42  21  22  2   
 43  21  23  1   
 44  22  24  1   
 45  23  25  2   
 46  23  26  1   
 47  24  25  1   
 48  24  47  1   
 49  25  27  1   
 50  26  48  1   
 51  26  49  1   
 52  26  50  1   
 53  27  51  1   
 54  27  52  1   
 55  27  53  1   
@<TRIPOS>SUBSTRUCTURE
  1 ****  13 GROUP 4 **** **** 0

# MOE 2024.06 (io_trps.svl 2023.06)
