@<TRIPOS>MOLECULE
NONAME
37 38 1 0 0 
SMALL
USER_CHARGES


@<TRIPOS>ATOM
  1 F       -1.9470    -0.7310     2.2950 F     1 <1>  -0.1900 
  2 C       -2.3250    -1.1180     1.1060 C.ar  1 <1>   0.1900 
  3 C       -2.7200    -0.1720     0.1720 C.ar  1 <1>  -0.1440 
  4 C       -2.3130    -2.4730     0.8350 C.ar  1 <1>  -0.1500 
  5 C       -3.1150    -0.6240    -1.0770 C.ar  1 <1>  -0.1500 
  6 C       -2.7170     1.3140     0.5010 C.3   1 <1>  -0.0960 
  7 C       -2.7200    -2.9130    -0.4160 C.ar  1 <1>  -0.1430 
  8 C       -3.1150    -1.9810    -1.3670 C.ar  1 <1>  -0.1500 
  9 C       -2.7400    -4.3960    -0.7380 C.3   1 <1>   0.4870 
 10 N       -3.8380    -5.0340     0.0240 N.4   1 <1>  -0.9590 
 11 C       -3.7500    -6.5450    -0.0410 C.3   1 <1>   0.3430 
 12 C       -5.1800    -4.5350    -0.4050 C.3   1 <1>   0.3430 
 13 C       -5.1050    -7.2580     0.1280 C.3   1 <1>   0.2000 
 14 C       -6.2420    -5.0140     0.5880 C.3   1 <1>  -0.1600 
 15 O       -5.7180    -7.3250    -1.1120 O.3   1 <1>  -0.6800 
 16 C       -6.0180    -6.4710     1.0740 C.3   1 <1>  -0.1860 
 17 C       -7.3140    -7.2230     1.2630 C.2   1 <1>   0.9060 
 18 O       -7.6590    -7.5080     2.4060 O.co2 1 <1>  -0.9000 
 19 O       -7.9460    -7.5400     0.2480 O.co2 1 <1>  -0.9000 
 20 H       -1.9870    -3.1500     1.6040 H     1 <1>   0.1500 
 21 H       -3.4230     0.0810    -1.8310 H     1 <1>   0.1500 
 22 H       -3.0570     1.8970    -0.3360 H     1 <1>   0.0800 
 23 H       -1.7220     1.6310     0.7570 H     1 <1>   0.0800 
 24 H       -3.3650     1.5070     1.3370 H     1 <1>   0.0800 
 25 H       -3.4280    -2.2960    -2.3490 H     1 <1>   0.1500 
 26 H       -1.7940    -4.8310    -0.4610 H     1 <1>   0.0800 
 27 H       -2.8890    -4.5450    -1.7950 H     1 <1>   0.0800 
 28 H       -3.7520    -4.7520     1.0060 H     1 <1>   0.4500 
 29 H       -3.3370    -6.8560    -0.9860 H     1 <1>   0.0800 
 30 H       -3.0890    -6.8860     0.7380 H     1 <1>   0.0800 
 31 H       -5.1950    -3.4580    -0.4540 H     1 <1>   0.0800 
 32 H       -5.4110    -4.9260    -1.3840 H     1 <1>   0.0800 
 33 H       -4.9700    -8.2700     0.4750 H     1 <1>   0.0800 
 34 H       -6.2850    -4.3550     1.4370 H     1 <1>   0.0800 
 35 H       -7.1970    -4.9480     0.0950 H     1 <1>   0.0800 
 36 H       -6.6870    -7.5320    -0.9240 H     1 <1>   0.4000 
 37 H       -5.5420    -6.4390     2.0360 H     1 <1>   0.0800 
@<TRIPOS>BOND
  1   1   2  1   
  2   2   3  ar  
  3   2   4  ar  
  4   3   5  ar  
  5   3   6  1   
  6   4   7  ar  
  7   4  20  1   
  8   5   8  ar  
  9   5  21  1   
 10   6  22  1   
 11   6  23  1   
 12   6  24  1   
 13   7   8  ar  
 14   7   9  1   
 15   8  25  1   
 16   9  10  1   
 17   9  26  1   
 18   9  27  1   
 19  10  11  1   
 20  10  12  1   
 21  10  28  1   
 22  11  13  1   
 23  11  29  1   
 24  11  30  1   
 25  12  14  1   
 26  12  31  1   
 27  12  32  1   
 28  13  15  1   
 29  13  16  1   
 30  13  33  1   
 31  14  16  1   
 32  14  34  1   
 33  14  35  1   
 34  15  36  1   
 35  16  17  1   
 36  16  37  1   
 37  17  18  ar  
 38  17  19  ar  
@<TRIPOS>SUBSTRUCTURE
  1 ****  10 GROUP 4 **** **** 0

# MOE 2024.06 (io_trps.svl 2023.06)
