@<TRIPOS>MOLECULE
NONAME
45 47 1 0 0 
SMALL
USER_CHARGES


@<TRIPOS>ATOM
  1 CL      -1.3460    -1.2640     1.0520 Cl    1 <1>  -0.1770 
  2 C       -2.8050    -0.4470     0.5600 C.ar  1 <1>   0.1770 
  3 C       -2.7240     0.8050    -0.0160 C.ar  1 <1>  -0.1500 
  4 C       -4.0270    -1.0610     0.7510 C.ar  1 <1>  -0.1500 
  5 C       -3.8860     1.4470    -0.4050 C.ar  1 <1>  -0.1500 
  6 C       -5.1830    -0.4100     0.3570 C.ar  1 <1>  -0.1500 
  7 C       -5.1430     0.8590    -0.2290 C.ar  1 <1>   0.0530 
  8 C       -6.3400     1.5490    -0.6510 C.2   1 <1>   0.0870 
  9 O       -6.2710     2.4960    -1.5550 O.3   1 <1>  -0.0190 
 10 C       -7.6520     1.4310    -0.3140 C.2   1 <1>  -0.0860 
 11 N       -7.4350     3.0160    -1.8450 N.2   1 <1>  -0.4100 
 12 C       -8.2770     2.3990    -1.1030 C.2   1 <1>   0.3720 
 13 C       -8.2930     0.5560     0.6130 C.2   1 <1>   0.7160 
 14 N       -9.6280     2.7030    -1.1560 N.pl3 1 <1>  -0.8520 
 15 O       -8.0300     0.6590     1.7970 O.2   1 <1>  -0.5700 
 16 N       -9.1590    -0.4400     0.2090 N.am  1 <1>  -0.6600 
 17 C      -10.2510     3.1710     0.1140 C.3   1 <1>   0.2090 
 18 C       -9.4200    -0.7770    -1.2240 C.3   1 <1>   0.1400 
 19 C       -9.7690    -1.3950     1.1830 C.3   1 <1>   0.1400 
 20 C      -11.4870     2.3300     0.4330 C.3   1 <1>   0.1200 
 21 C       -8.6820    -2.0600    -1.6200 C.3   1 <1>   0.0700 
 22 C       -9.0690    -2.7550     1.1090 C.3   1 <1>   0.0700 
 23 O      -12.1240     2.8770     1.5450 O.3   1 <1>  -0.5600 
 24 S       -9.2470    -3.4320    -0.5690 S.3   1 <1>  -0.4600 
 25 C      -13.2460     2.1670     1.9570 C.3   1 <1>   0.0400 
 26 H       -1.7630     1.2670    -0.1560 H     1 <1>   0.1500 
 27 H       -4.0680    -2.0360     1.2030 H     1 <1>   0.1500 
 28 H       -3.8180     2.4250    -0.8510 H     1 <1>   0.1500 
 29 H       -6.1240    -0.9040     0.5110 H     1 <1>   0.1500 
 30 H       -9.7570     3.4170    -1.8810 H     1 <1>   0.4000 
 31 H      -10.5440     4.2010     0.0020 H     1 <1>   0.0800 
 32 H       -9.5520     3.1010     0.9310 H     1 <1>   0.0800 
 33 H       -9.1090     0.0210    -1.8730 H     1 <1>   0.0800 
 34 H      -10.4780    -0.9140    -1.3690 H     1 <1>   0.0800 
 35 H      -10.8140    -1.5160     0.9580 H     1 <1>   0.0800 
 36 H       -9.6930    -1.0110     2.1860 H     1 <1>   0.0800 
 37 H      -11.1990     1.3200     0.6610 H     1 <1>   0.0800 
 38 H      -12.1720     2.3480    -0.3970 H     1 <1>   0.0800 
 39 H       -7.6200    -1.9580    -1.4850 H     1 <1>   0.0800 
 40 H       -8.8940    -2.3330    -2.6380 H     1 <1>   0.0800 
 41 H       -9.5170    -3.4610     1.7850 H     1 <1>   0.0800 
 42 H       -8.0180    -2.6650     1.3200 H     1 <1>   0.0800 
 43 H      -13.6640     2.6700     2.8120 H     1 <1>   0.0800 
 44 H      -12.9540     1.1680     2.2320 H     1 <1>   0.0800 
 45 H      -13.9680     2.1470     1.1590 H     1 <1>   0.0800 
@<TRIPOS>BOND
  1   1   2  1   
  2   2   3  ar  
  3   2   4  ar  
  4   3   5  ar  
  5   3  26  1   
  6   4   6  ar  
  7   4  27  1   
  8   5   7  ar  
  9   5  28  1   
 10   6   7  ar  
 11   6  29  1   
 12   7   8  1   
 13   8   9  1   
 14   8  10  2   
 15   9  11  1   
 16  10  12  1   
 17  10  13  1   
 18  11  12  2   
 19  12  14  1   
 20  13  15  2   
 21  13  16  am  
 22  14  17  1   
 23  14  30  1   
 24  16  18  1   
 25  16  19  1   
 26  17  20  1   
 27  17  31  1   
 28  17  32  1   
 29  18  21  1   
 30  18  33  1   
 31  18  34  1   
 32  19  22  1   
 33  19  35  1   
 34  19  36  1   
 35  20  23  1   
 36  20  37  1   
 37  20  38  1   
 38  21  24  1   
 39  21  39  1   
 40  21  40  1   
 41  22  24  1   
 42  22  41  1   
 43  22  42  1   
 44  23  25  1   
 45  25  43  1   
 46  25  44  1   
 47  25  45  1   
@<TRIPOS>SUBSTRUCTURE
  1 ****  13 GROUP 4 **** **** 0

# MOE 2024.06 (io_trps.svl 2023.06)
