@<TRIPOS>MOLECULE
NONAME
56 58 1 0 0 
SMALL
USER_CHARGES


@<TRIPOS>ATOM
  1 F       -1.1410    -0.1960    -0.4910 F     1 <1>  -0.1900 
  2 C       -2.3440     0.3020    -0.3590 C.ar  1 <1>   0.1900 
  3 C       -2.7370     1.0020     0.7870 C.ar  1 <1>   0.0820 
  4 C       -3.2120     0.1000    -1.4160 C.ar  1 <1>  -0.1500 
  5 O       -1.9770     1.2680     1.8880 O.3   1 <1>  -0.3630 
  6 C       -4.0350     1.4860     0.8300 C.ar  1 <1>  -0.1500 
  7 C       -4.5000     0.5970    -1.3400 C.ar  1 <1>  -0.1500 
  8 C       -0.6240     0.8860     2.0000 C.3   1 <1>   0.0400 
  9 C       -4.9420     1.2940    -0.2140 C.ar  1 <1>   0.0530 
 10 C       -6.2840     1.8090    -0.1190 C.2   1 <1>   0.0870 
 11 O       -6.5140     2.9510     0.4780 O.3   1 <1>  -0.0190 
 12 C       -7.4890     1.3300    -0.5250 C.2   1 <1>  -0.0860 
 13 N       -7.7810     3.2730     0.4920 N.2   1 <1>  -0.4100 
 14 C       -8.3910     2.3160    -0.1170 C.2   1 <1>   0.3720 
 15 C       -7.8360     0.1050    -1.1680 C.2   1 <1>   0.7160 
 16 N       -9.7780     2.2770    -0.3330 N.pl3 1 <1>  -0.8210 
 17 O       -7.5910    -0.0620    -2.3500 O.2   1 <1>  -0.5700 
 18 N       -8.4360    -0.9220    -0.4760 N.am  1 <1>  -0.6600 
 19 C      -10.1630     2.4610    -1.7600 C.3   1 <1>   0.1290 
 20 C      -10.5850     3.1500     0.5670 C.3   1 <1>   0.1290 
 21 C       -8.9050    -2.1590    -1.1230 C.3   1 <1>   0.1400 
 22 C       -8.9120    -0.8160     0.9170 C.3   1 <1>   0.1400 
 23 C       -9.9220    -2.7460    -0.1440 C.3   1 <1>  -0.0800 
 24 C       -9.4890    -2.1940     1.2220 C.3   1 <1>  -0.1600 
 25 C       -9.9620    -4.2770    -0.2300 C.3   1 <1>   0.3430 
 26 N      -10.8670    -4.8630     0.8070 N.4   1 <1>  -0.9590 
 27 C      -10.6430    -6.3370     0.9250 C.3   1 <1>   0.2630 
 28 C      -12.3110    -4.5780     0.5290 C.3   1 <1>   0.2630 
 29 H       -2.8800    -0.4380    -2.2860 H     1 <1>   0.1500 
 30 H       -4.3470     2.0270     1.7060 H     1 <1>   0.1500 
 31 H       -5.1650     0.4480    -2.1710 H     1 <1>   0.1500 
 32 H       -0.2560     1.2330     2.9480 H     1 <1>   0.0800 
 33 H       -0.0640     1.3410     1.2020 H     1 <1>   0.0800 
 34 H       -0.5590    -0.1870     1.9550 H     1 <1>   0.0800 
 35 H       -9.6000     1.7970    -2.3920 H     1 <1>   0.0800 
 36 H       -9.9680     3.4750    -2.0650 H     1 <1>   0.0800 
 37 H      -11.2100     2.2490    -1.8880 H     1 <1>   0.0800 
 38 H      -10.2880     2.9940     1.5900 H     1 <1>   0.0800 
 39 H      -11.6300     2.9130     0.4710 H     1 <1>   0.0800 
 40 H      -10.4300     4.1860     0.3160 H     1 <1>   0.0800 
 41 H       -8.0600    -2.8130    -1.2590 H     1 <1>   0.0800 
 42 H       -9.3500    -1.9440    -2.0810 H     1 <1>   0.0800 
 43 H       -9.6820    -0.0630     0.9730 H     1 <1>   0.0800 
 44 H       -8.1060    -0.5600     1.5840 H     1 <1>   0.0800 
 45 H      -10.8810    -2.3360    -0.4080 H     1 <1>   0.0800 
 46 H      -10.3030    -2.1220     1.9220 H     1 <1>   0.0800 
 47 H       -8.7060    -2.7990     1.6480 H     1 <1>   0.0800 
 48 H       -8.9620    -4.6520    -0.0810 H     1 <1>   0.0800 
 49 H      -10.2860    -4.5770    -1.2140 H     1 <1>   0.0800 
 50 H      -10.6190    -4.4290     1.7100 H     1 <1>   0.4500 
 51 H      -10.8840    -6.8300    -0.0030 H     1 <1>   0.0800 
 52 H      -11.2650    -6.7490     1.7040 H     1 <1>   0.0800 
 53 H       -9.6120    -6.5420     1.1670 H     1 <1>   0.0800 
 54 H      -12.6000    -4.9960    -0.4220 H     1 <1>   0.0800 
 55 H      -12.4890    -3.5150     0.5070 H     1 <1>   0.0800 
 56 H      -12.9320    -5.0110     1.2970 H     1 <1>   0.0800 
@<TRIPOS>BOND
  1   1   2  1   
  2   2   3  ar  
  3   2   4  ar  
  4   3   5  1   
  5   3   6  ar  
  6   4   7  ar  
  7   4  29  1   
  8   5   8  1   
  9   6   9  ar  
 10   6  30  1   
 11   7   9  ar  
 12   7  31  1   
 13   8  32  1   
 14   8  33  1   
 15   8  34  1   
 16   9  10  1   
 17  10  11  1   
 18  10  12  2   
 19  11  13  1   
 20  12  14  1   
 21  12  15  1   
 22  13  14  2   
 23  14  16  1   
 24  15  17  2   
 25  15  18  am  
 26  16  19  1   
 27  16  20  1   
 28  18  21  1   
 29  18  22  1   
 30  19  35  1   
 31  19  36  1   
 32  19  37  1   
 33  20  38  1   
 34  20  39  1   
 35  20  40  1   
 36  21  23  1   
 37  21  41  1   
 38  21  42  1   
 39  22  24  1   
 40  22  43  1   
 41  22  44  1   
 42  23  24  1   
 43  23  25  1   
 44  23  45  1   
 45  24  46  1   
 46  24  47  1   
 47  25  26  1   
 48  25  48  1   
 49  25  49  1   
 50  26  27  1   
 51  26  28  1   
 52  26  50  1   
 53  27  51  1   
 54  27  52  1   
 55  27  53  1   
 56  28  54  1   
 57  28  55  1   
 58  28  56  1   
@<TRIPOS>SUBSTRUCTURE
  1 ****  15 GROUP 4 **** **** 0

# MOE 2024.06 (io_trps.svl 2023.06)
