@<TRIPOS>MOLECULE
NONAME
55 58 1 0 0 
SMALL
USER_CHARGES


@<TRIPOS>ATOM
  1 O       -0.2960    -0.3350    -0.3210 O.2   1 <1>  -0.5700 
  2 C       -1.1780     0.4570    -0.5890 C.2   1 <1>   0.7160 
  3 N       -2.1520     0.0860    -1.4600 N.am  1 <1>  -0.7300 
  4 C       -1.2530     1.7470     0.0170 C.2   1 <1>  -0.0860 
  5 C       -2.5380    -1.3200    -1.7520 C.3   1 <1>   0.1400 
  6 C       -2.4340     2.3570     0.4550 C.2   1 <1>   0.3720 
  7 C       -0.2990     2.6800     0.2840 C.2   1 <1>   0.0870 
  8 C       -3.6160    -1.8260    -0.7620 C.3   1 <1>   0.2800 
  9 N       -2.2040     3.5370     0.9110 N.2   1 <1>  -0.4100 
 10 N       -3.7160     1.7780     0.4370 N.pl3 1 <1>  -0.8210 
 11 O       -0.9150     3.7130     0.8010 O.3   1 <1>  -0.0190 
 12 C        1.1260     2.7320     0.0820 C.ar  1 <1>   0.0530 
 13 O       -4.5830    -0.8360    -0.6490 O.3   1 <1>  -0.6800 
 14 C       -3.0280    -2.0790     0.6480 C.3   1 <1>  -0.1600 
 15 C       -4.3140    -3.0910    -1.2890 C.3   1 <1>  -0.1600 
 16 C       -4.7130     2.6290    -0.3010 C.3   1 <1>   0.2090 
 17 C       -4.2130     1.5450     1.8370 C.3   1 <1>   0.2090 
 18 C        1.9660     1.6730     0.4240 C.ar  1 <1>  -0.1500 
 19 C        1.7170     3.8720    -0.4620 C.ar  1 <1>  -0.1500 
 20 C       -3.7500    -3.1650     1.4730 C.3   1 <1>  -0.1600 
 21 C       -5.4480    -3.6010    -0.3730 C.3   1 <1>  -0.1600 
 22 C       -6.1500     2.0880    -0.1750 C.3   1 <1>   0.1200 
 23 C       -5.6750     1.0590     1.8710 C.3   1 <1>   0.1200 
 24 C        3.3310     1.7410     0.2180 C.ar  1 <1>  -0.1500 
 25 C        3.0830     3.9480    -0.6690 C.ar  1 <1>  -0.1500 
 26 C       -5.2360    -3.2740     1.1170 C.3   1 <1>  -0.1600 
 27 O       -6.5050     1.9390     1.1700 O.3   1 <1>  -0.5600 
 28 C        3.8930     2.8800    -0.3300 C.ar  1 <1>  -0.1500 
 29 H       -2.9380     0.7370    -1.5250 H     1 <1>   0.3700 
 30 H       -1.6720    -1.9580    -1.7100 H     1 <1>   0.0800 
 31 H       -2.9260    -1.3690    -2.7540 H     1 <1>   0.0800 
 32 H       -4.1830    -0.0440    -0.2150 H     1 <1>   0.4000 
 33 H       -3.0090    -1.1570     1.1980 H     1 <1>   0.0800 
 34 H       -2.0030    -2.3930     0.5480 H     1 <1>   0.0800 
 35 H       -3.5730    -3.8660    -1.3740 H     1 <1>   0.0800 
 36 H       -4.7030    -2.9130    -2.2760 H     1 <1>   0.0800 
 37 H       -4.4430     2.6720    -1.3420 H     1 <1>   0.0800 
 38 H       -4.6940     3.6350     0.0850 H     1 <1>   0.0800 
 39 H       -4.1480     2.4590     2.4030 H     1 <1>   0.0800 
 40 H       -3.5870     0.8170     2.3220 H     1 <1>   0.0800 
 41 H        1.5480     0.7840     0.8610 H     1 <1>   0.1500 
 42 H        1.0960     4.7080    -0.7280 H     1 <1>   0.1500 
 43 H       -3.6370    -2.9570     2.5220 H     1 <1>   0.0800 
 44 H       -3.2870    -4.1180     1.2800 H     1 <1>   0.0800 
 45 H       -5.5390    -4.6660    -0.4990 H     1 <1>   0.0800 
 46 H       -6.3790    -3.1590    -0.6850 H     1 <1>   0.0800 
 47 H       -6.2510     1.1370    -0.6680 H     1 <1>   0.0800 
 48 H       -6.8440     2.7790    -0.6190 H     1 <1>   0.0800 
 49 H       -6.0260     1.0190     2.8860 H     1 <1>   0.0800 
 50 H       -5.7680     0.0780     1.4390 H     1 <1>   0.0800 
 51 H        3.9570     0.9080     0.4860 H     1 <1>   0.1500 
 52 H        3.5160     4.8380    -1.0920 H     1 <1>   0.1500 
 53 H       -5.7130    -2.3350     1.3400 H     1 <1>   0.0800 
 54 H       -5.7090    -4.0270     1.7230 H     1 <1>   0.0800 
 55 H        4.9560     2.9350    -0.4900 H     1 <1>   0.1500 
@<TRIPOS>BOND
  1   1   2  2   
  2   2   3  am  
  3   2   4  1   
  4   3   5  1   
  5   3  29  1   
  6   4   6  1   
  7   4   7  2   
  8   5   8  1   
  9   5  30  1   
 10   5  31  1   
 11   6   9  2   
 12   6  10  1   
 13   7  11  1   
 14   7  12  1   
 15   8  13  1   
 16   8  14  1   
 17   8  15  1   
 18   9  11  1   
 19  10  16  1   
 20  10  17  1   
 21  12  18  ar  
 22  12  19  ar  
 23  13  32  1   
 24  14  20  1   
 25  14  33  1   
 26  14  34  1   
 27  15  21  1   
 28  15  35  1   
 29  15  36  1   
 30  16  22  1   
 31  16  37  1   
 32  16  38  1   
 33  17  23  1   
 34  17  39  1   
 35  17  40  1   
 36  18  24  ar  
 37  18  41  1   
 38  19  25  ar  
 39  19  42  1   
 40  20  26  1   
 41  20  43  1   
 42  20  44  1   
 43  21  26  1   
 44  21  45  1   
 45  21  46  1   
 46  22  27  1   
 47  22  47  1   
 48  22  48  1   
 49  23  27  1   
 50  23  49  1   
 51  23  50  1   
 52  24  28  ar  
 53  24  51  1   
 54  25  28  ar  
 55  25  52  1   
 56  26  53  1   
 57  26  54  1   
 58  28  55  1   
@<TRIPOS>SUBSTRUCTURE
  1 ****   2 GROUP 4 **** **** 0

# MOE 2024.06 (io_trps.svl 2023.06)
