@<TRIPOS>MOLECULE
NONAME
50 52 1 0 0 
SMALL
USER_CHARGES


@<TRIPOS>ATOM
  1 S        1.7080    -0.1210    -2.8240 S.3   1 <1>  -0.0800 
  2 C        1.1020    -0.9470    -1.4090 C.2   1 <1>   0.1980 
  3 C        1.8550     1.3280    -1.8730 C.2   1 <1>  -0.1100 
  4 N        1.0230    -0.2210    -0.3630 N.2   1 <1>  -0.5650 
  5 C        0.7370    -2.4170    -1.5600 C.3   1 <1>   0.5230 
  6 C        1.4520     1.0780    -0.6150 C.2   1 <1>   0.0460 
  7 N       -0.0350    -2.8620    -0.3600 N.4   1 <1>  -0.9590 
  8 C        1.4170     2.0650     0.5530 C.3   1 <1>   0.1010 
  9 C       -1.4290    -2.3570    -0.3740 C.3   1 <1>   0.3430 
 10 C       -0.1020    -4.3280    -0.1460 C.3   1 <1>   0.3430 
 11 C        1.6120     3.5180     0.0990 C.3   1 <1>  -0.2400 
 12 C        2.4830     1.7010     1.5940 C.3   1 <1>  -0.2400 
 13 C       -2.1600    -3.2340     0.6350 C.3   1 <1>  -0.0800 
 14 C       -1.4440    -4.6000     0.5410 C.3   1 <1>  -0.0800 
 15 C       -3.6970    -3.2660     0.4330 C.3   1 <1>   0.2800 
 16 C       -2.2510    -5.6460    -0.2470 C.3   1 <1>  -0.1600 
 17 O       -3.9670    -3.2170    -0.9210 O.3   1 <1>  -0.6800 
 18 C       -4.2640    -4.5900     0.9740 C.3   1 <1>  -0.1600 
 19 C       -4.4270    -2.0750     1.0920 C.3   1 <1>  -0.1600 
 20 C       -3.6570    -5.8570     0.3370 C.3   1 <1>  -0.1600 
 21 C       -4.0250    -0.6700     0.6090 C.3   1 <1>  -0.2400 
 22 H        2.2300     2.2110    -2.3580 H     1 <1>   0.1500 
 23 H        1.6470    -2.9870    -1.6460 H     1 <1>   0.0800 
 24 H        0.1530    -2.5600    -2.4530 H     1 <1>   0.0800 
 25 H        0.4230    -2.4020     0.4430 H     1 <1>   0.4500 
 26 H        0.4480     1.9900     1.0160 H     1 <1>   0.0800 
 27 H       -1.4740    -1.3130    -0.1130 H     1 <1>   0.0800 
 28 H       -1.8570    -2.4980    -1.3530 H     1 <1>   0.0800 
 29 H       -0.0770    -4.8410    -1.0940 H     1 <1>   0.0800 
 30 H        0.7220    -4.6680     0.4610 H     1 <1>   0.0800 
 31 H        2.5850     3.6540    -0.3380 H     1 <1>   0.0800 
 32 H        1.5190     4.1840     0.9380 H     1 <1>   0.0800 
 33 H        0.8620     3.7840    -0.6260 H     1 <1>   0.0800 
 34 H        3.4650     1.7490     1.1570 H     1 <1>   0.0800 
 35 H        2.3200     0.7030     1.9590 H     1 <1>   0.0800 
 36 H        2.4410     2.3790     2.4280 H     1 <1>   0.0800 
 37 H       -1.9630    -2.8390     1.6160 H     1 <1>   0.0800 
 38 H       -1.2670    -4.9840     1.5310 H     1 <1>   0.0800 
 39 H       -2.3550    -5.3170    -1.2670 H     1 <1>   0.0800 
 40 H       -1.7310    -6.5890    -0.2650 H     1 <1>   0.0800 
 41 H       -4.9290    -3.3170    -1.0600 H     1 <1>   0.4000 
 42 H       -4.0630    -4.6240     2.0310 H     1 <1>   0.0800 
 43 H       -5.3350    -4.6130     0.8670 H     1 <1>   0.0800 
 44 H       -5.4860    -2.1930     0.9360 H     1 <1>   0.0800 
 45 H       -4.2720    -2.1190     2.1570 H     1 <1>   0.0800 
 46 H       -3.6260    -6.6350     1.0820 H     1 <1>   0.0800 
 47 H       -4.3030    -6.2020    -0.4530 H     1 <1>   0.0800 
 48 H       -4.0890    -0.5970    -0.4630 H     1 <1>   0.0800 
 49 H       -3.0300    -0.4190     0.9260 H     1 <1>   0.0800 
 50 H       -4.6940     0.0590     1.0320 H     1 <1>   0.0800 
@<TRIPOS>BOND
  1   1   2  1   
  2   1   3  1   
  3   2   4  2   
  4   2   5  1   
  5   3   6  2   
  6   3  22  1   
  7   4   6  1   
  8   5   7  1   
  9   5  23  1   
 10   5  24  1   
 11   6   8  1   
 12   7   9  1   
 13   7  10  1   
 14   7  25  1   
 15   8  11  1   
 16   8  12  1   
 17   8  26  1   
 18   9  13  1   
 19   9  27  1   
 20   9  28  1   
 21  10  14  1   
 22  10  29  1   
 23  10  30  1   
 24  11  31  1   
 25  11  32  1   
 26  11  33  1   
 27  12  34  1   
 28  12  35  1   
 29  12  36  1   
 30  13  14  1   
 31  13  15  1   
 32  13  37  1   
 33  14  16  1   
 34  14  38  1   
 35  15  17  1   
 36  15  18  1   
 37  15  19  1   
 38  16  20  1   
 39  16  39  1   
 40  16  40  1   
 41  17  41  1   
 42  18  20  1   
 43  18  42  1   
 44  18  43  1   
 45  19  21  1   
 46  19  44  1   
 47  19  45  1   
 48  20  46  1   
 49  20  47  1   
 50  21  48  1   
 51  21  49  1   
 52  21  50  1   
@<TRIPOS>SUBSTRUCTURE
  1 ****   9 GROUP 4 **** **** 0

# MOE 2024.06 (io_trps.svl 2023.06)
