@<TRIPOS>MOLECULE
NONAME
42 44 1 0 0 
SMALL
USER_CHARGES


@<TRIPOS>ATOM
  1 O       -1.5370     0.8620     1.0350 O.3   1 <1>  -0.0190 
  2 N       -1.0980     2.0840     1.0140 N.2   1 <1>  -0.4100 
  3 C       -1.7250     0.5700    -0.2290 C.2   1 <1>   0.2980 
  4 C       -1.0510     2.4470    -0.2070 C.2   1 <1>   0.3350 
  5 N       -1.4410     1.5030    -1.0520 N.2   1 <1>  -0.5650 
  6 C       -2.2300    -0.8260    -0.5950 C.3   1 <1>   0.3800 
  7 C       -0.6090     3.8040    -0.7210 C.3   1 <1>   0.0210 
  8 O       -3.3700    -1.1690     0.1500 O.3   1 <1>  -0.5600 
  9 C       -1.2000    -1.9300    -0.3360 C.3   1 <1>  -0.1600 
 10 C       -0.2790     4.7710     0.4160 C.3   1 <1>   0.2090 
 11 C       -3.1250    -2.2470     0.9920 C.3   1 <1>   0.1200 
 12 C       -2.0080    -3.0300     0.3260 C.3   1 <1>  -0.1600 
 13 N        0.0380     6.1110    -0.1380 N.pl3 1 <1>  -0.8690 
 14 C        1.3590     6.5100    -0.3010 C.ar  1 <1>   0.4100 
 15 N        2.2150     5.5840    -0.6930 N.ar  1 <1>  -0.6200 
 16 C        1.7270     7.8710    -0.0390 C.ar  1 <1>   0.4100 
 17 C        3.4470     6.0620    -0.8130 C.ar  1 <1>   0.1600 
 18 N        2.9650     8.3200    -0.1620 N.ar  1 <1>  -0.6200 
 19 N        0.7610     8.8110     0.3560 N.pl3 1 <1>  -0.8380 
 20 C        3.8070     7.3730    -0.5570 C.ar  1 <1>   0.1600 
 21 C        1.1670     9.8200     1.3720 C.3   1 <1>   0.1290 
 22 C       -0.0330     9.3900    -0.7580 C.3   1 <1>   0.1290 
 23 H       -2.5220    -0.8330    -1.6300 H     1 <1>   0.0800 
 24 H       -1.4000     4.2160    -1.3190 H     1 <1>   0.0800 
 25 H        0.2580     3.6720    -1.3400 H     1 <1>   0.0800 
 26 H       -0.4390    -1.5730     0.3360 H     1 <1>   0.0800 
 27 H       -0.7310    -2.2530    -1.2490 H     1 <1>   0.0800 
 28 H        0.5570     4.3970     0.9830 H     1 <1>   0.0800 
 29 H       -1.1250     4.8550     1.0770 H     1 <1>   0.0800 
 30 H       -4.0280    -2.8230     1.1060 H     1 <1>   0.0800 
 31 H       -2.8120    -1.8570     1.9460 H     1 <1>   0.0800 
 32 H       -1.4350    -3.6020     1.0340 H     1 <1>   0.0800 
 33 H       -2.4280    -3.6900    -0.4130 H     1 <1>   0.0800 
 34 H       -0.4660     6.8730     0.3350 H     1 <1>   0.4000 
 35 H        4.2050     5.3690    -1.1310 H     1 <1>   0.1500 
 36 H        4.8340     7.6630    -0.6820 H     1 <1>   0.1500 
 37 H        1.7730     9.3510     2.1290 H     1 <1>   0.0800 
 38 H        0.2960    10.2440     1.8390 H     1 <1>   0.0800 
 39 H        1.7420    10.6020     0.9060 H     1 <1>   0.0800 
 40 H       -0.2610     8.6290    -1.4860 H     1 <1>   0.0800 
 41 H        0.5300    10.1710    -1.2410 H     1 <1>   0.0800 
 42 H       -0.9550     9.7950    -0.3800 H     1 <1>   0.0800 
@<TRIPOS>BOND
  1   1   2  1   
  2   1   3  1   
  3   2   4  2   
  4   3   5  2   
  5   3   6  1   
  6   4   5  1   
  7   4   7  1   
  8   6   8  1   
  9   6   9  1   
 10   6  23  1   
 11   7  10  1   
 12   7  24  1   
 13   7  25  1   
 14   8  11  1   
 15   9  12  1   
 16   9  26  1   
 17   9  27  1   
 18  10  13  1   
 19  10  28  1   
 20  10  29  1   
 21  11  12  1   
 22  11  30  1   
 23  11  31  1   
 24  12  32  1   
 25  12  33  1   
 26  13  14  1   
 27  13  34  1   
 28  14  15  ar  
 29  14  16  ar  
 30  15  17  ar  
 31  16  18  ar  
 32  16  19  1   
 33  17  20  ar  
 34  17  35  1   
 35  18  20  ar  
 36  19  21  1   
 37  19  22  1   
 38  20  36  1   
 39  21  37  1   
 40  21  38  1   
 41  21  39  1   
 42  22  40  1   
 43  22  41  1   
 44  22  42  1   
@<TRIPOS>SUBSTRUCTURE
  1 ****   7 GROUP 4 **** **** 0

# MOE 2024.06 (io_trps.svl 2023.06)
