@<TRIPOS>MOLECULE
NONAME
57 61 1 0 0 
SMALL
USER_CHARGES


@<TRIPOS>ATOM
  1 O        4.7400    -3.3840     3.9590 O.2   1 <1>  -0.5700 
  2 C        5.1070    -3.2400     2.8100 C.2   1 <1>   0.7060 
  3 O        4.2890    -3.6170     1.8230 O.3   1 <1>  -0.2330 
  4 C        6.3700    -2.6920     2.4320 C.2   1 <1>  -0.1240 
  5 C        4.6040    -3.4930     0.5080 C.ar  1 <1>   0.0820 
  6 C        6.7330    -2.5480     1.1510 C.2   1 <1>  -0.1670 
  7 C        7.4250    -2.2140     3.4000 C.3   1 <1>  -0.0220 
  8 C        5.8350    -2.9480     0.1000 C.ar  1 <1>   0.0280 
  9 C        3.6670    -3.9260    -0.4160 C.ar  1 <1>  -0.1500 
 10 C        8.1180    -1.9480     1.0340 C.3   1 <1>  -0.0220 
 11 C        8.6040    -1.8300     2.4900 C.3   1 <1>  -0.1600 
 12 C        6.0750    -2.8520    -1.2820 C.ar  1 <1>   0.0820 
 13 C        3.9190    -3.8270    -1.7700 C.ar  1 <1>  -0.1430 
 14 O        7.2510    -2.3230    -1.6900 O.3   1 <1>  -0.3630 
 15 C        5.1220    -3.2880    -2.1960 C.ar  1 <1>  -0.1500 
 16 C        2.8950    -4.2980    -2.7880 C.3   1 <1>  -0.0970 
 17 C        7.7640    -2.5050    -3.0000 C.3   1 <1>   0.1810 
 18 C        9.2120    -2.0430    -3.0510 C.2   1 <1>   0.5690 
 19 O       10.0070    -2.6620    -3.7170 O.2   1 <1>  -0.5700 
 20 N        9.5820    -0.9650    -2.3200 N.am  1 <1>  -0.7300 
 21 C       10.9590    -0.5110    -2.1010 C.3   1 <1>   0.4000 
 22 C       11.3510    -0.8650    -0.6640 C.2   1 <1>   0.0060 
 23 C       11.0030     0.9900    -2.3830 C.3   1 <1>  -0.2400 
 24 N       11.3450    -0.0340     0.3270 N.2   1 <1>  -0.5650 
 25 N       11.7210    -2.1320    -0.3140 N.pl3 1 <1>   0.0480 
 26 C       11.7340    -0.7750     1.3970 C.ar  1 <1>   0.2270 
 27 C       11.9630    -2.0850     1.0240 C.ar  1 <1>  -0.1520 
 28 C       11.8040    -3.3430    -1.1570 C.3   1 <1>   0.0160 
 29 C       11.9020    -0.3850     2.7250 C.ar  1 <1>  -0.1500 
 30 C       12.3540    -3.0420     1.9660 C.ar  1 <1>  -0.1500 
 31 C       12.2890    -1.3220     3.6580 C.ar  1 <1>  -0.1500 
 32 C       12.5130    -2.6500     3.2770 C.ar  1 <1>  -0.1500 
 33 H        7.6990    -2.9970     4.0860 H     1 <1>   0.0800 
 34 H        7.0640    -1.3620     3.9490 H     1 <1>   0.0800 
 35 H        2.7400    -4.3380    -0.0590 H     1 <1>   0.1500 
 36 H        8.0690    -0.9780     0.5710 H     1 <1>   0.0800 
 37 H        8.7720    -2.5870     0.4680 H     1 <1>   0.0800 
 38 H        9.4220    -2.5090     2.6520 H     1 <1>   0.0800 
 39 H        8.9410    -0.8300     2.6980 H     1 <1>   0.0800 
 40 H        5.2920    -3.2110    -3.2530 H     1 <1>   0.1500 
 41 H        2.0410    -4.7330    -2.3020 H     1 <1>   0.0800 
 42 H        3.3320    -5.0370    -3.4350 H     1 <1>   0.0800 
 43 H        2.5620    -3.4670    -3.3840 H     1 <1>   0.0800 
 44 H        7.1730    -1.9270    -3.6860 H     1 <1>   0.0800 
 45 H        7.7100    -3.5500    -3.2470 H     1 <1>   0.0800 
 46 H        8.9120    -0.5630    -1.6600 H     1 <1>   0.3700 
 47 H       11.6240    -1.0050    -2.7880 H     1 <1>   0.0800 
 48 H       10.3300     1.5170    -1.7300 H     1 <1>   0.0800 
 49 H       10.7400     1.1830    -3.4060 H     1 <1>   0.0800 
 50 H       11.9980     1.3560    -2.2080 H     1 <1>   0.0800 
 51 H       12.1510    -3.0840    -2.1400 H     1 <1>   0.0800 
 52 H       10.8300    -3.7910    -1.2290 H     1 <1>   0.0800 
 53 H       12.4900    -4.0430    -0.7190 H     1 <1>   0.0800 
 54 H       11.7240     0.6410     2.9850 H     1 <1>   0.1500 
 55 H       12.5250    -4.0610     1.6690 H     1 <1>   0.1500 
 56 H       12.4230    -1.0390     4.6870 H     1 <1>   0.1500 
 57 H       12.8140    -3.3650     4.0230 H     1 <1>   0.1500 
@<TRIPOS>BOND
  1   1   2  2   
  2   2   3  1   
  3   2   4  1   
  4   3   5  1   
  5   4   6  2   
  6   4   7  1   
  7   5   8  ar  
  8   5   9  ar  
  9   6   8  1   
 10   6  10  1   
 11   7  11  1   
 12   7  33  1   
 13   7  34  1   
 14   8  12  ar  
 15   9  13  ar  
 16   9  35  1   
 17  10  11  1   
 18  10  36  1   
 19  10  37  1   
 20  11  38  1   
 21  11  39  1   
 22  12  14  1   
 23  12  15  ar  
 24  13  15  ar  
 25  13  16  1   
 26  14  17  1   
 27  15  40  1   
 28  16  41  1   
 29  16  42  1   
 30  16  43  1   
 31  17  18  1   
 32  17  44  1   
 33  17  45  1   
 34  18  19  2   
 35  18  20  am  
 36  20  21  1   
 37  20  46  1   
 38  21  22  1   
 39  21  23  1   
 40  21  47  1   
 41  22  24  2   
 42  22  25  1   
 43  23  48  1   
 44  23  49  1   
 45  23  50  1   
 46  24  26  1   
 47  25  27  1   
 48  25  28  1   
 49  26  27  ar  
 50  26  29  ar  
 51  27  30  ar  
 52  28  51  1   
 53  28  52  1   
 54  28  53  1   
 55  29  31  ar  
 56  29  54  1   
 57  30  32  ar  
 58  30  55  1   
 59  31  32  ar  
 60  31  56  1   
 61  32  57  1   
@<TRIPOS>SUBSTRUCTURE
  1 ****  10 GROUP 4 **** **** 0

# MOE 2024.06 (io_trps.svl 2023.06)
