@<TRIPOS>MOLECULE
NONAME
49 53 1 0 0 
SMALL
USER_CHARGES


@<TRIPOS>ATOM
  1 S        1.0390    -0.2000    -0.1090 S.3   1 <1>  -0.0800 
  2 C        0.4590     1.4510    -0.0810 C.2   1 <1>  -0.1400 
  3 C        2.6950     0.3650    -0.2760 C.2   1 <1>  -0.1100 
  4 C        1.4600     2.3350    -0.1780 C.2   1 <1>  -0.1810 
  5 C       -1.0010     1.7950     0.0320 C.3   1 <1>   0.0200 
  6 C        2.7470     1.7110    -0.2980 C.2   1 <1>  -0.1500 
  7 C        1.1840     3.8400    -0.1560 C.3   1 <1>   0.4610 
  8 C       -1.1590     3.2560    -0.4210 C.3   1 <1>   0.1200 
  9 O       -0.1750     4.0800     0.1600 O.3   1 <1>  -0.5600 
 10 C        1.9930     4.5130     0.9610 C.3   1 <1>  -0.1600 
 11 C        1.5020     4.4850    -1.5140 C.3   1 <1>  -0.1600 
 12 C        1.7900     6.0290     0.9580 C.3   1 <1>   0.1400 
 13 C        1.3230     6.0040    -1.4760 C.3   1 <1>   0.1400 
 14 N        2.1730     6.5580    -0.3840 N.am  1 <1>  -0.6600 
 15 C        3.1290     7.5180    -0.6380 C.2   1 <1>   0.5690 
 16 O        3.1570     8.0870    -1.7070 O.2   1 <1>  -0.5700 
 17 C        4.1700     7.9130     0.4120 C.3   1 <1>   0.3800 
 18 N        3.6860     9.1570     1.0290 N.pl3 1 <1>   0.3140 
 19 C        5.6320     8.0490    -0.0590 C.ar  1 <1>  -0.1440 
 20 N        3.3220     9.2430     2.2930 N.2   1 <1>  -0.4180 
 21 C        3.5340    10.3520     0.4910 C.2   1 <1>   0.0360 
 22 C        6.5550     8.7010     0.7550 C.ar  1 <1>  -0.1500 
 23 C        6.0780     7.5130    -1.2630 C.ar  1 <1>  -0.1500 
 24 N        2.9670    10.4630     2.4840 N.2   1 <1>   0.0000 
 25 N        3.0940    11.1710     1.3660 N.2   1 <1>  -0.3380 
 26 C        7.8770     8.8270     0.3700 C.ar  1 <1>  -0.1500 
 27 C        7.4010     7.6390    -1.6480 C.ar  1 <1>  -0.1500 
 28 C        8.3020     8.2960    -0.8330 C.ar  1 <1>  -0.1500 
 29 H        3.4650    -0.3830    -0.3430 H     1 <1>   0.1500 
 30 H       -1.3280     1.6810     1.0500 H     1 <1>   0.0800 
 31 H       -1.5900     1.1530    -0.5970 H     1 <1>   0.0800 
 32 H        3.6470     2.2920    -0.3950 H     1 <1>   0.1500 
 33 H       -2.1220     3.6340    -0.1250 H     1 <1>   0.0800 
 34 H       -1.0770     3.3260    -1.4910 H     1 <1>   0.0800 
 35 H        3.0380     4.3020     0.8350 H     1 <1>   0.0800 
 36 H        1.6890     4.1040     1.9070 H     1 <1>   0.0800 
 37 H        0.8820     4.0590    -2.2800 H     1 <1>   0.0800 
 38 H        2.5200     4.2680    -1.7780 H     1 <1>   0.0800 
 39 H        2.3520     6.4830     1.7530 H     1 <1>   0.0800 
 40 H        0.7510     6.2540     1.1370 H     1 <1>   0.0800 
 41 H        0.2930     6.2530    -1.2870 H     1 <1>   0.0800 
 42 H        1.5980     6.4220    -2.4300 H     1 <1>   0.0800 
 43 H        4.1850     7.1620     1.1750 H     1 <1>   0.0800 
 44 H        3.7550    10.5770    -0.5370 H     1 <1>   0.1500 
 45 H        6.2600     9.1210     1.7030 H     1 <1>   0.1500 
 46 H        5.4090     6.9900    -1.9250 H     1 <1>   0.1500 
 47 H        8.5780     9.3380     1.0080 H     1 <1>   0.1500 
 48 H        7.7290     7.2240    -2.5860 H     1 <1>   0.1500 
 49 H        9.3310     8.3950    -1.1350 H     1 <1>   0.1500 
@<TRIPOS>BOND
  1   1   2  1   
  2   1   3  1   
  3   2   4  2   
  4   2   5  1   
  5   3   6  2   
  6   3  29  1   
  7   4   6  1   
  8   4   7  1   
  9   5   8  1   
 10   5  30  1   
 11   5  31  1   
 12   6  32  1   
 13   7   9  1   
 14   7  10  1   
 15   7  11  1   
 16   8   9  1   
 17   8  33  1   
 18   8  34  1   
 19  10  12  1   
 20  10  35  1   
 21  10  36  1   
 22  11  13  1   
 23  11  37  1   
 24  11  38  1   
 25  12  14  1   
 26  12  39  1   
 27  12  40  1   
 28  13  14  1   
 29  13  41  1   
 30  13  42  1   
 31  14  15  am  
 32  15  16  2   
 33  15  17  1   
 34  17  18  1   
 35  17  19  1   
 36  17  43  1   
 37  18  20  1   
 38  18  21  1   
 39  19  22  ar  
 40  19  23  ar  
 41  20  24  2   
 42  21  25  2   
 43  21  44  1   
 44  22  26  ar  
 45  22  45  1   
 46  23  27  ar  
 47  23  46  1   
 48  24  25  1   
 49  26  28  ar  
 50  26  47  1   
 51  27  28  ar  
 52  27  48  1   
 53  28  49  1   
@<TRIPOS>SUBSTRUCTURE
  1 ****  14 GROUP 4 **** **** 0

# MOE 2024.06 (io_trps.svl 2023.06)
