@<TRIPOS>MOLECULE
NONAME
44 45 1 0 0 
SMALL
USER_CHARGES


@<TRIPOS>ATOM
  1 O        3.8020    -1.0550    -0.2620 O.2   1 <1>  -0.5700 
  2 C        2.6820    -1.1790     0.1780 C.2   1 <1>   0.5690 
  3 N        1.9170    -0.1580     0.6480 N.am  1 <1>  -0.4930 
  4 C        2.0490    -2.5710     0.2060 C.3   1 <1>   0.1710 
  5 C        2.1270     1.2430     0.6910 C.2   1 <1>   0.0630 
  6 N        0.5520    -2.5590     0.1590 N.3   1 <1>  -0.8100 
  7 C        3.2930     1.9790     0.9310 C.2   1 <1>   0.1080 
  8 C        1.1630     2.1740     0.5170 C.2   1 <1>  -0.3320 
  9 C        0.0160    -3.8750     0.5600 C.3   1 <1>   0.1100 
 10 C        0.0790    -2.1860    -1.1880 C.3   1 <1>   0.1100 
 11 N        3.0770     3.2580     0.9050 N.2   1 <1>  -0.7070 
 12 C        4.6700     1.4240     1.2130 C.3   1 <1>  -0.0590 
 13 N        1.7650     3.3840     0.6430 N.pl3 1 <1>   0.3140 
 14 C       -0.3190     1.9800     0.2260 C.3   1 <1>  -0.0600 
 15 C       -1.5190    -3.8510     0.6100 C.3   1 <1>   0.1200 
 16 C       -1.4500    -2.0860    -1.1960 C.3   1 <1>  -0.1600 
 17 C        1.1430     4.7200     0.5310 C.3   1 <1>   0.0960 
 18 C       -2.0300    -5.1980     0.9950 C.1   1 <1>   0.3570 
 19 C       -2.1000    -3.4020    -0.7440 C.3   1 <1>  -0.1600 
 20 C        1.1450     5.2120    -0.9220 C.3   1 <1>  -0.2400 
 21 N       -2.4040    -6.2320     1.2870 N.1   1 <1>  -0.5570 
 22 H        0.9660    -0.4610     0.8690 H     1 <1>   0.3700 
 23 H        2.3740    -3.0400     1.1170 H     1 <1>   0.0800 
 24 H        2.4390    -3.1450    -0.6160 H     1 <1>   0.0800 
 25 H        0.3910    -4.1320     1.5370 H     1 <1>   0.0800 
 26 H        0.3460    -4.6300    -0.1360 H     1 <1>   0.0800 
 27 H        0.4000    -2.9220    -1.9080 H     1 <1>   0.0800 
 28 H        0.4940    -1.2340    -1.4770 H     1 <1>   0.0800 
 29 H        4.5960     0.5330     1.8060 H     1 <1>   0.0800 
 30 H        5.2550     2.1500     1.7450 H     1 <1>   0.0800 
 31 H        5.1590     1.1930     0.2850 H     1 <1>   0.0800 
 32 H       -0.5570     0.9360     0.1410 H     1 <1>   0.0800 
 33 H       -0.5800     2.4620    -0.7000 H     1 <1>   0.0800 
 34 H       -0.9100     2.4010     1.0200 H     1 <1>   0.0800 
 35 H       -1.8210    -3.1570     1.3730 H     1 <1>   0.0800 
 36 H       -1.7840    -1.8420    -2.1890 H     1 <1>   0.0800 
 37 H       -1.7510    -1.2850    -0.5430 H     1 <1>   0.0800 
 38 H        1.7060     5.3990     1.1450 H     1 <1>   0.0800 
 39 H        0.1410     4.6700     0.9100 H     1 <1>   0.0800 
 40 H       -3.1660    -3.2760    -0.6630 H     1 <1>   0.0800 
 41 H       -1.9100    -4.1610    -1.4840 H     1 <1>   0.0800 
 42 H        2.1570     5.2700    -1.2860 H     1 <1>   0.0800 
 43 H        0.7050     6.1910    -0.9780 H     1 <1>   0.0800 
 44 H        0.5820     4.5440    -1.5480 H     1 <1>   0.0800 
@<TRIPOS>BOND
  1   1   2  2   
  2   2   3  am  
  3   2   4  1   
  4   3   5  1   
  5   3  22  1   
  6   4   6  1   
  7   4  23  1   
  8   4  24  1   
  9   5   7  1   
 10   5   8  2   
 11   6   9  1   
 12   6  10  1   
 13   7  11  2   
 14   7  12  1   
 15   8  13  1   
 16   8  14  1   
 17   9  15  1   
 18   9  25  1   
 19   9  26  1   
 20  10  16  1   
 21  10  27  1   
 22  10  28  1   
 23  11  13  1   
 24  12  29  1   
 25  12  30  1   
 26  12  31  1   
 27  13  17  1   
 28  14  32  1   
 29  14  33  1   
 30  14  34  1   
 31  15  18  1   
 32  15  19  1   
 33  15  35  1   
 34  16  19  1   
 35  16  36  1   
 36  16  37  1   
 37  17  20  1   
 38  17  38  1   
 39  17  39  1   
 40  18  21  3   
 41  19  40  1   
 42  19  41  1   
 43  20  42  1   
 44  20  43  1   
 45  20  44  1   
@<TRIPOS>SUBSTRUCTURE
  1 ****   3 GROUP 4 **** **** 0

# MOE 2024.06 (io_trps.svl 2023.06)
