@<TRIPOS>MOLECULE
NONAME
54 57 1 0 0 
SMALL
USER_CHARGES


@<TRIPOS>ATOM
  1 O       -1.4740     1.1680    -2.4120 O.2   1 <1>  -0.5700 
  2 C       -2.2120     1.5390    -1.5210 C.2   1 <1>   0.5440 
  3 N       -3.4770     0.9940    -1.4260 N.am  1 <1>  -0.6600 
  4 C       -1.7360     2.5320    -0.5840 C.ar  1 <1>   0.0860 
  5 C       -4.0610     0.1750    -2.5250 C.3   1 <1>   0.1400 
  6 C       -4.2950     0.9910    -0.1790 C.3   1 <1>   0.1400 
  7 C       -2.4790     3.6790    -0.3190 C.ar  1 <1>   0.1600 
  8 C       -0.5270     2.3930     0.0820 C.ar  1 <1>  -0.1500 
  9 C       -4.2120    -1.2720    -2.0520 C.3   1 <1>  -0.1600 
 10 C       -4.4570    -0.4490     0.3130 C.3   1 <1>  -0.1600 
 11 N       -2.1490     4.6380     0.5320 N.ar  1 <1>  -0.6200 
 12 C       -0.1510     3.3790     0.9710 C.ar  1 <1>  -0.1440 
 13 C       -5.0520    -1.3650    -0.7660 C.3   1 <1>   0.4240 
 14 C       -0.9930     4.4660     1.1550 C.ar  1 <1>   0.1600 
 15 C        1.1650     3.2710     1.7230 C.3   1 <1>  -0.0970 
 16 O       -6.3300    -0.8360    -1.0340 O.3   1 <1>  -0.5600 
 17 C       -5.1330    -2.8190    -0.2530 C.ar  1 <1>  -0.1440 
 18 C       -7.2670    -1.6840    -1.6220 C.3   1 <1>   0.1200 
 19 C       -6.3450    -3.4940    -0.1840 C.ar  1 <1>  -0.1440 
 20 C       -3.9840    -3.4900     0.1440 C.ar  1 <1>  -0.1500 
 21 C       -7.6120    -2.7950    -0.6350 C.3   1 <1>  -0.0170 
 22 C       -6.4020    -4.7940     0.2920 C.ar  1 <1>  -0.1500 
 23 C       -4.0200    -4.7930     0.6100 C.ar  1 <1>   0.0820 
 24 C       -5.2510    -5.4600     0.7050 C.ar  1 <1>   0.0820 
 25 O       -2.8060    -5.3130     0.9490 O.3   1 <1>  -0.3620 
 26 O       -5.3070    -6.7280     1.2080 O.3   1 <1>  -0.3620 
 27 C       -2.5290    -6.6860     0.7830 C.3   1 <1>   0.0400 
 28 C       -6.5260    -7.3230     1.5950 C.3   1 <1>   0.0400 
 29 H       -3.4350     0.2080    -3.4000 H     1 <1>   0.0800 
 30 H       -5.0230     0.5790    -2.7910 H     1 <1>   0.0800 
 31 H       -5.2610     1.4190    -0.3890 H     1 <1>   0.0800 
 32 H       -3.8290     1.5740     0.5950 H     1 <1>   0.0800 
 33 H       -3.4070     3.8040    -0.8490 H     1 <1>   0.1500 
 34 H        0.0910     1.5320    -0.1060 H     1 <1>   0.1500 
 35 H       -3.2290    -1.6650    -1.8720 H     1 <1>   0.0800 
 36 H       -4.6520    -1.8690    -2.8270 H     1 <1>   0.0800 
 37 H       -5.0920    -0.4700     1.1790 H     1 <1>   0.0800 
 38 H       -3.4910    -0.8100     0.6130 H     1 <1>   0.0800 
 39 H       -0.7020     5.2370     1.8470 H     1 <1>   0.1500 
 40 H        1.3900     2.2420     1.9390 H     1 <1>   0.0800 
 41 H        1.1160     3.8100     2.6530 H     1 <1>   0.0800 
 42 H        1.9600     3.6810     1.1260 H     1 <1>   0.0800 
 43 H       -6.8600    -2.0860    -2.5330 H     1 <1>   0.0800 
 44 H       -8.1400    -1.1000    -1.8530 H     1 <1>   0.0800 
 45 H       -3.0250    -3.0080     0.0950 H     1 <1>   0.1500 
 46 H       -8.2750    -3.4950    -1.1100 H     1 <1>   0.0800 
 47 H       -8.1160    -2.3740     0.2160 H     1 <1>   0.0800 
 48 H       -7.3590    -5.2750     0.3340 H     1 <1>   0.1500 
 49 H       -1.4620    -6.8100     0.7500 H     1 <1>   0.0800 
 50 H       -2.9700    -7.0260    -0.1360 H     1 <1>   0.0800 
 51 H       -2.9310    -7.2240     1.6230 H     1 <1>   0.0800 
 52 H       -6.3020    -8.2600     2.0740 H     1 <1>   0.0800 
 53 H       -7.1250    -7.4970     0.7190 H     1 <1>   0.0800 
 54 H       -7.0300    -6.6710     2.2860 H     1 <1>   0.0800 
@<TRIPOS>BOND
  1   1   2  2   
  2   2   3  am  
  3   2   4  1   
  4   3   5  1   
  5   3   6  1   
  6   4   7  ar  
  7   4   8  ar  
  8   5   9  1   
  9   5  29  1   
 10   5  30  1   
 11   6  10  1   
 12   6  31  1   
 13   6  32  1   
 14   7  11  ar  
 15   7  33  1   
 16   8  12  ar  
 17   8  34  1   
 18   9  13  1   
 19   9  35  1   
 20   9  36  1   
 21  10  13  1   
 22  10  37  1   
 23  10  38  1   
 24  11  14  ar  
 25  12  14  ar  
 26  12  15  1   
 27  13  16  1   
 28  13  17  1   
 29  14  39  1   
 30  15  40  1   
 31  15  41  1   
 32  15  42  1   
 33  16  18  1   
 34  17  19  ar  
 35  17  20  ar  
 36  18  21  1   
 37  18  43  1   
 38  18  44  1   
 39  19  21  1   
 40  19  22  ar  
 41  20  23  ar  
 42  20  45  1   
 43  21  46  1   
 44  21  47  1   
 45  22  24  ar  
 46  22  48  1   
 47  23  24  ar  
 48  23  25  1   
 49  24  26  1   
 50  25  27  1   
 51  26  28  1   
 52  27  49  1   
 53  27  50  1   
 54  27  51  1   
 55  28  52  1   
 56  28  53  1   
 57  28  54  1   
@<TRIPOS>SUBSTRUCTURE
  1 ****  10 GROUP 4 **** **** 0

# MOE 2024.06 (io_trps.svl 2023.06)
