@<TRIPOS>MOLECULE
NONAME
58 60 1 0 0 
SMALL
USER_CHARGES


@<TRIPOS>ATOM
  1 O        0.3710    -0.3280     2.8360 O.2   1 <1>  -0.5700 
  2 C        0.8760    -0.3890     1.7330 C.2   1 <1>   0.7160 
  3 N        1.5660     0.6800     1.2630 N.am  1 <1>  -0.7300 
  4 C        0.7590    -1.5890     0.9380 C.2   1 <1>  -0.0860 
  5 C        1.6950     2.0010     1.9050 C.3   1 <1>   0.2200 
  6 C        0.8780    -1.8200    -0.4020 C.2   1 <1>  -0.0400 
  7 C        0.4680    -2.8580     1.4800 C.2   1 <1>  -0.1500 
  8 C        1.3220     3.0710     0.8940 C.3   1 <1>   0.1200 
  9 C        3.1660     2.3010     2.1060 C.3   1 <1>  -0.1600 
 10 O        0.6980    -3.0900    -0.6750 O.3   1 <1>  -0.2800 
 11 C        1.1550    -0.8950    -1.5750 C.3   1 <1>  -0.0600 
 12 C        0.4440    -3.7250     0.4490 C.2   1 <1>  -0.0400 
 13 O        2.4280     3.1540     0.0510 O.3   1 <1>  -0.5600 
 14 C        3.6060     2.9360     0.7750 C.3   1 <1>   0.2800 
 15 C        0.1760    -5.2170     0.4230 C.3   1 <1>   0.5230 
 16 C        4.3070     4.2920     0.9750 C.3   1 <1>  -0.1600 
 17 C        4.4930     1.9870    -0.0520 C.3   1 <1>  -0.1600 
 18 N       -1.1940    -5.4770    -0.1130 N.4   1 <1>  -0.9590 
 19 C        4.7720     4.9190    -0.3500 C.3   1 <1>  -0.1600 
 20 C        4.9560     2.6140    -1.3780 C.3   1 <1>  -0.1600 
 21 C       -1.6440    -6.8490     0.2350 C.3   1 <1>   0.3430 
 22 C       -1.2660    -5.1890    -1.5720 C.3   1 <1>   0.3430 
 23 C        5.6670     3.9520    -1.1370 C.3   1 <1>  -0.1600 
 24 C       -3.1500    -6.9740     0.0390 C.3   1 <1>  -0.2400 
 25 C       -2.3090    -4.1020    -1.7960 C.3   1 <1>  -0.2400 
 26 H        2.0080     0.6330     0.3450 H     1 <1>   0.3700 
 27 H        1.1160     2.0580     2.8120 H     1 <1>   0.0800 
 28 H        0.3060    -3.0300     2.5320 H     1 <1>   0.1500 
 29 H        1.1930     4.0270     1.3720 H     1 <1>   0.0800 
 30 H        0.4450     2.8210     0.3230 H     1 <1>   0.0800 
 31 H        3.7330     1.4260     2.3690 H     1 <1>   0.0800 
 32 H        3.2720     3.0150     2.9030 H     1 <1>   0.0800 
 33 H        1.1040     0.1380    -1.2880 H     1 <1>   0.0800 
 34 H        0.4240    -1.0620    -2.3450 H     1 <1>   0.0800 
 35 H        2.1300    -1.0990    -1.9780 H     1 <1>   0.0800 
 36 H        0.2470    -5.5920     1.4310 H     1 <1>   0.0800 
 37 H        0.9210    -5.7110    -0.1790 H     1 <1>   0.0800 
 38 H        5.1660     4.1470     1.6050 H     1 <1>   0.0800 
 39 H        3.6440     4.9720     1.4800 H     1 <1>   0.0800 
 40 H        3.9660     1.0720    -0.2510 H     1 <1>   0.0800 
 41 H        5.3640     1.7380     0.5280 H     1 <1>   0.0800 
 42 H       -1.8070    -4.7960     0.3520 H     1 <1>   0.4500 
 43 H        5.3100     5.8300    -0.1520 H     1 <1>   0.0800 
 44 H        3.9100     5.1670    -0.9460 H     1 <1>   0.0800 
 45 H        4.1010     2.7760    -2.0120 H     1 <1>   0.0800 
 46 H        5.6210     1.9380    -1.8870 H     1 <1>   0.0800 
 47 H       -1.4140    -7.0550     1.2700 H     1 <1>   0.0800 
 48 H       -1.1310    -7.5770    -0.3740 H     1 <1>   0.0800 
 49 H       -1.5390    -6.0770    -2.1190 H     1 <1>   0.0800 
 50 H       -0.3110    -4.8460    -1.9380 H     1 <1>   0.0800 
 51 H        6.5780     3.7810    -0.5900 H     1 <1>   0.0800 
 52 H        5.9280     4.3950    -2.0830 H     1 <1>   0.0800 
 53 H       -3.6750    -6.2350     0.6190 H     1 <1>   0.0800 
 54 H       -3.4700    -7.9450     0.3740 H     1 <1>   0.0800 
 55 H       -3.4200    -6.8830    -0.9970 H     1 <1>   0.0800 
 56 H       -3.2820    -4.4200    -1.4690 H     1 <1>   0.0800 
 57 H       -2.3670    -3.8810    -2.8470 H     1 <1>   0.0800 
 58 H       -2.0320    -3.1960    -1.2850 H     1 <1>   0.0800 
@<TRIPOS>BOND
  1   1   2  2   
  2   2   3  am  
  3   2   4  1   
  4   3   5  1   
  5   3  26  1   
  6   4   6  2   
  7   4   7  1   
  8   5   8  1   
  9   5   9  1   
 10   5  27  1   
 11   6  10  1   
 12   6  11  1   
 13   7  12  2   
 14   7  28  1   
 15   8  13  1   
 16   8  29  1   
 17   8  30  1   
 18   9  14  1   
 19   9  31  1   
 20   9  32  1   
 21  10  12  1   
 22  11  33  1   
 23  11  34  1   
 24  11  35  1   
 25  12  15  1   
 26  13  14  1   
 27  14  16  1   
 28  14  17  1   
 29  15  18  1   
 30  15  36  1   
 31  15  37  1   
 32  16  19  1   
 33  16  38  1   
 34  16  39  1   
 35  17  20  1   
 36  17  40  1   
 37  17  41  1   
 38  18  21  1   
 39  18  22  1   
 40  18  42  1   
 41  19  23  1   
 42  19  43  1   
 43  19  44  1   
 44  20  23  1   
 45  20  45  1   
 46  20  46  1   
 47  21  24  1   
 48  21  47  1   
 49  21  48  1   
 50  22  25  1   
 51  22  49  1   
 52  22  50  1   
 53  23  51  1   
 54  23  52  1   
 55  24  53  1   
 56  24  54  1   
 57  24  55  1   
 58  25  56  1   
 59  25  57  1   
 60  25  58  1   
@<TRIPOS>SUBSTRUCTURE
  1 ****   4 GROUP 4 **** **** 0

# MOE 2024.06 (io_trps.svl 2023.06)
