@<TRIPOS>MOLECULE
NONAME
48 50 1 0 0 
SMALL
USER_CHARGES


@<TRIPOS>ATOM
  1 O       -0.0860     0.7610     1.5400 O.2   1 <1>  -0.5700 
  2 C        0.0230     1.7120     0.7880 C.2   1 <1>   0.6900 
  3 N       -1.0550     2.5320     0.5570 N.am  1 <1>  -0.6600 
  4 N        1.2070     1.9880     0.1620 N.am  1 <1>  -0.5470 
  5 C       -2.4110     2.1290     1.0580 C.3   1 <1>   0.1400 
  6 C       -0.9640     3.8340    -0.1660 C.3   1 <1>   0.1400 
  7 C        2.4560     1.3490     0.1700 C.ar  1 <1>   0.1170 
  8 C       -3.5490     2.6060     0.1230 C.3   1 <1>   0.0000 
  9 C       -2.1070     4.7660     0.2410 C.3   1 <1>  -0.1600 
 10 C        2.6290     0.0130     0.5200 C.ar  1 <1>  -0.1500 
 11 C        3.5760     2.0800    -0.2080 C.ar  1 <1>  -0.1500 
 12 C       -4.8960     2.0910     0.6750 C.3   1 <1>   0.2000 
 13 C       -3.4990     4.1550    -0.0080 C.3   1 <1>  -0.1600 
 14 C       -3.4560     1.8810    -1.2390 C.3   1 <1>  -0.1600 
 15 C        3.8810    -0.5760     0.5000 C.ar  1 <1>  -0.1430 
 16 C        4.8350     1.5040    -0.2370 C.ar  1 <1>  -0.1430 
 17 O       -5.9490     2.7610     0.0750 O.3   1 <1>  -0.6800 
 18 C       -4.9860     0.6320     0.2300 C.3   1 <1>  -0.1600 
 19 C       -4.1630     0.5300    -1.0620 C.3   1 <1>  -0.1600 
 20 C        4.9820     0.1740     0.1200 C.ar  1 <1>  -0.1500 
 21 C        4.0520    -2.0330     0.8890 C.3   1 <1>  -0.0970 
 22 C        6.0530     2.3110    -0.6490 C.3   1 <1>  -0.0970 
 23 H        1.1650     2.8300    -0.3950 H     1 <1>   0.3700 
 24 H       -2.4490     1.0580     1.1590 H     1 <1>   0.0800 
 25 H       -2.5500     2.5510     2.0380 H     1 <1>   0.0800 
 26 H       -0.0290     4.3140     0.0640 H     1 <1>   0.0800 
 27 H       -1.0080     3.6520    -1.2260 H     1 <1>   0.0800 
 28 H       -1.9980     4.9870     1.2890 H     1 <1>   0.0800 
 29 H       -2.0230     5.6960    -0.2910 H     1 <1>   0.0800 
 30 H        1.7760    -0.5730     0.8060 H     1 <1>   0.1500 
 31 H        3.4600     3.1120    -0.4790 H     1 <1>   0.1500 
 32 H       -4.9900     2.2100     1.7420 H     1 <1>   0.0800 
 33 H       -3.8490     4.4500    -0.9820 H     1 <1>   0.0800 
 34 H       -4.1730     4.5970     0.7060 H     1 <1>   0.0800 
 35 H       -3.9800     2.4420    -1.9930 H     1 <1>   0.0800 
 36 H       -2.4420     1.7440    -1.5720 H     1 <1>   0.0800 
 37 H       -5.9090     2.6090    -0.8880 H     1 <1>   0.4000 
 38 H       -4.5340     0.0100     0.9820 H     1 <1>   0.0800 
 39 H       -6.0050     0.3110     0.0970 H     1 <1>   0.0800 
 40 H       -3.4370    -0.2610    -0.9700 H     1 <1>   0.0800 
 41 H       -4.7950     0.3210    -1.9080 H     1 <1>   0.0800 
 42 H        5.9570    -0.2800     0.1020 H     1 <1>   0.1500 
 43 H        4.9300    -2.1540     1.4980 H     1 <1>   0.0800 
 44 H        4.1530    -2.6360     0.0050 H     1 <1>   0.0800 
 45 H        3.2010    -2.3780     1.4480 H     1 <1>   0.0800 
 46 H        6.6230     1.7680    -1.3810 H     1 <1>   0.0800 
 47 H        6.6740     2.4940     0.2100 H     1 <1>   0.0800 
 48 H        5.7640     3.2550    -1.0740 H     1 <1>   0.0800 
@<TRIPOS>BOND
  1   1   2  2   
  2   2   3  am  
  3   2   4  am  
  4   3   5  1   
  5   3   6  1   
  6   4   7  1   
  7   4  23  1   
  8   5   8  1   
  9   5  24  1   
 10   5  25  1   
 11   6   9  1   
 12   6  26  1   
 13   6  27  1   
 14   7  10  ar  
 15   7  11  ar  
 16   8  12  1   
 17   8  13  1   
 18   8  14  1   
 19   9  13  1   
 20   9  28  1   
 21   9  29  1   
 22  10  15  ar  
 23  10  30  1   
 24  11  16  ar  
 25  11  31  1   
 26  12  17  1   
 27  12  18  1   
 28  12  32  1   
 29  13  33  1   
 30  13  34  1   
 31  14  19  1   
 32  14  35  1   
 33  14  36  1   
 34  15  20  ar  
 35  15  21  1   
 36  16  20  ar  
 37  16  22  1   
 38  17  37  1   
 39  18  19  1   
 40  18  38  1   
 41  18  39  1   
 42  19  40  1   
 43  19  41  1   
 44  20  42  1   
 45  21  43  1   
 46  21  44  1   
 47  21  45  1   
 48  22  46  1   
 49  22  47  1   
 50  22  48  1   
@<TRIPOS>SUBSTRUCTURE
  1 ****   2 GROUP 4 **** **** 0

# MOE 2024.06 (io_trps.svl 2023.06)
