@<TRIPOS>MOLECULE
NONAME
46 49 1 0 0 
SMALL
USER_CHARGES


@<TRIPOS>ATOM
  1 O        0.1190    -0.9050    -0.4110 O.3   1 <1>  -0.3630 
  2 C       -0.3400    -2.0350     0.1470 C.ar  1 <1>   0.0830 
  3 C        1.4030    -1.1330    -0.9740 C.3   1 <1>   0.1200 
  4 C        0.5220    -3.0890     0.0110 C.ar  1 <1>  -0.1440 
  5 C       -1.5460    -2.1670     0.8050 C.ar  1 <1>  -0.1500 
  6 C        1.7370    -2.6170    -0.7320 C.3   1 <1>  -0.0160 
  7 C        0.2020    -4.3300     0.5280 C.ar  1 <1>  -0.1500 
  8 C       -1.8790    -3.4070     1.3280 C.ar  1 <1>  -0.1500 
  9 C       -1.0150    -4.4900     1.1850 C.ar  1 <1>  -0.1440 
 10 C       -1.4090    -5.8430     1.7440 C.3   1 <1>   0.4870 
 11 N       -1.7880    -6.7300     0.6090 N.4   1 <1>  -0.9590 
 12 C       -3.0520    -6.2430    -0.0340 C.3   1 <1>   0.3430 
 13 C       -2.0540    -8.1220     1.0940 C.3   1 <1>   0.3430 
 14 C       -4.1710    -7.1120     0.5460 C.3   1 <1>   0.2000 
 15 C       -3.4990    -8.4720     0.7070 C.3   1 <1>  -0.0800 
 16 O       -4.4870    -6.6330     1.8130 O.3   1 <1>  -0.6800 
 17 C       -3.5610    -9.3020    -0.5910 C.3   1 <1>  -0.0170 
 18 C       -2.6910   -10.5440    -0.4830 C.ar  1 <1>  -0.1430 
 19 C       -1.5560   -10.7120    -1.2520 C.ar  1 <1>  -0.1500 
 20 C       -2.9910   -11.5700     0.3930 C.ar  1 <1>  -0.1500 
 21 C       -0.7860   -11.8530    -1.0960 C.ar  1 <1>   0.1600 
 22 C       -2.1530   -12.6700     0.4720 C.ar  1 <1>   0.1600 
 23 N       -1.0530   -12.8270    -0.2440 N.ar  1 <1>  -0.6200 
 24 H        1.3560    -0.9020    -2.0240 H     1 <1>   0.0800 
 25 H        2.1050    -0.4840    -0.4810 H     1 <1>   0.0800 
 26 H       -2.1970    -1.3160     0.9020 H     1 <1>   0.1500 
 27 H        1.8570    -3.1390    -1.6640 H     1 <1>   0.0800 
 28 H        2.6270    -2.7170    -0.1370 H     1 <1>   0.0800 
 29 H        0.8980    -5.1430     0.4170 H     1 <1>   0.1500 
 30 H       -2.8180    -3.5140     1.8470 H     1 <1>   0.1500 
 31 H       -2.2380    -5.7350     2.4250 H     1 <1>   0.0800 
 32 H       -0.5740    -6.2620     2.2820 H     1 <1>   0.0800 
 33 H       -1.0210    -6.7000    -0.0720 H     1 <1>   0.4500 
 34 H       -3.2360    -5.1980     0.1500 H     1 <1>   0.0800 
 35 H       -2.9970    -6.4040    -1.0970 H     1 <1>   0.0800 
 36 H       -1.3550    -8.8240     0.6700 H     1 <1>   0.0800 
 37 H       -1.9650    -8.1570     2.1680 H     1 <1>   0.0800 
 38 H       -5.0610    -7.1160    -0.0620 H     1 <1>   0.0800 
 39 H       -3.9630    -9.0420     1.4940 H     1 <1>   0.0800 
 40 H       -5.3290    -7.0180     2.1400 H     1 <1>   0.4000 
 41 H       -3.2380    -8.7170    -1.4350 H     1 <1>   0.0800 
 42 H       -4.5770    -9.6050    -0.7800 H     1 <1>   0.0800 
 43 H       -1.2560    -9.9770    -1.9760 H     1 <1>   0.1500 
 44 H       -3.8670   -11.5340     1.0140 H     1 <1>   0.1500 
 45 H        0.0960   -11.9720    -1.7040 H     1 <1>   0.1500 
 46 H       -2.4000   -13.4620     1.1590 H     1 <1>   0.1500 
@<TRIPOS>BOND
  1   1   2  1   
  2   1   3  1   
  3   2   4  ar  
  4   2   5  ar  
  5   3   6  1   
  6   3  24  1   
  7   3  25  1   
  8   4   6  1   
  9   4   7  ar  
 10   5   8  ar  
 11   5  26  1   
 12   6  27  1   
 13   6  28  1   
 14   7   9  ar  
 15   7  29  1   
 16   8   9  ar  
 17   8  30  1   
 18   9  10  1   
 19  10  11  1   
 20  10  31  1   
 21  10  32  1   
 22  11  12  1   
 23  11  13  1   
 24  11  33  1   
 25  12  14  1   
 26  12  34  1   
 27  12  35  1   
 28  13  15  1   
 29  13  36  1   
 30  13  37  1   
 31  14  15  1   
 32  14  16  1   
 33  14  38  1   
 34  15  17  1   
 35  15  39  1   
 36  16  40  1   
 37  17  18  1   
 38  17  41  1   
 39  17  42  1   
 40  18  19  ar  
 41  18  20  ar  
 42  19  21  ar  
 43  19  43  1   
 44  20  22  ar  
 45  20  44  1   
 46  21  23  ar  
 47  21  45  1   
 48  22  23  ar  
 49  22  46  1   
@<TRIPOS>SUBSTRUCTURE
  1 ****  11 GROUP 4 **** **** 0

# MOE 2024.06 (io_trps.svl 2023.06)
