@<TRIPOS>MOLECULE
NONAME
44 46 1 0 0 
SMALL
USER_CHARGES


@<TRIPOS>ATOM
  1 O        1.0840    -0.1040     1.7320 O.3   1 <1>  -0.6800 
  2 C        1.1800    -0.1890     0.3460 C.3   1 <1>   0.2000 
  3 C        1.9870    -1.4320    -0.0410 C.3   1 <1>  -0.0800 
  4 C        2.0930     0.9440    -0.1200 C.3   1 <1>   0.3430 
  5 C        3.4560    -1.0020     0.0820 C.3   1 <1>   0.3430 
  6 C        1.6730    -2.7270     0.7340 C.3   1 <1>  -0.0170 
  7 N        3.4550     0.4800     0.2720 N.4   1 <1>  -0.9590 
  8 C        2.6250    -3.8330     0.3090 C.ar  1 <1>  -0.1440 
  9 C        4.5990     1.1790    -0.3700 C.3   1 <1>   0.3430 
 10 C        3.6420    -4.2770     1.1320 C.ar  1 <1>  -0.1500 
 11 C        2.5240    -4.4480    -0.9230 C.ar  1 <1>  -0.1500 
 12 C        4.6310     2.6390     0.0760 C.3   1 <1>  -0.1600 
 13 C        4.4980    -5.2710     0.6860 C.ar  1 <1>   0.1600 
 14 C        3.4340    -5.4330    -1.2730 C.ar  1 <1>   0.1600 
 15 C        5.9020     3.3480    -0.4210 C.3   1 <1>   0.0960 
 16 N        4.4230    -5.8480    -0.5010 N.ar  1 <1>  -0.6200 
 17 N        5.9620     4.7210     0.1140 N.pl3 1 <1>   0.3140 
 18 N        6.0120     4.9520     1.4370 N.2   1 <1>  -0.7070 
 19 C        5.9620     5.8710    -0.5870 C.2   1 <1>  -0.3020 
 20 C        6.0480     6.2450     1.5470 C.2   1 <1>   0.1390 
 21 C        6.0180     6.8780     0.3110 C.2   1 <1>  -0.1500 
 22 H        0.3280    -0.6290     2.0720 H     1 <1>   0.4000 
 23 H        0.1940    -0.1440    -0.0860 H     1 <1>   0.0800 
 24 H        1.8070    -1.6240    -1.0850 H     1 <1>   0.0800 
 25 H        1.8290     1.8760     0.3520 H     1 <1>   0.0800 
 26 H        2.0290     1.0450    -1.1910 H     1 <1>   0.0800 
 27 H        3.9930    -1.2810    -0.8110 H     1 <1>   0.0800 
 28 H        3.9190    -1.4810     0.9300 H     1 <1>   0.0800 
 29 H        0.6590    -3.0360     0.5410 H     1 <1>   0.0800 
 30 H        1.7700    -2.5710     1.7950 H     1 <1>   0.0800 
 31 H        3.4900     0.6320     1.2940 H     1 <1>   0.4500 
 32 H        5.5200     0.7020    -0.0730 H     1 <1>   0.0800 
 33 H        4.5160     1.1200    -1.4430 H     1 <1>   0.0800 
 34 H        3.7810    -3.8710     2.1170 H     1 <1>   0.1500 
 35 H        1.7490    -4.1800    -1.6180 H     1 <1>   0.1500 
 36 H        4.6180     2.6740     1.1520 H     1 <1>   0.0800 
 37 H        3.7740     3.1650    -0.3050 H     1 <1>   0.0800 
 38 H        5.2860    -5.6090     1.3390 H     1 <1>   0.1500 
 39 H        3.3430    -5.9040    -2.2370 H     1 <1>   0.1500 
 40 H        5.9220     3.3950    -1.4940 H     1 <1>   0.0800 
 41 H        6.7800     2.8300    -0.0780 H     1 <1>   0.0800 
 42 H        5.9250     5.9160    -1.6590 H     1 <1>   0.1500 
 43 H        6.0950     6.7590     2.4930 H     1 <1>   0.1500 
 44 H        6.0370     7.9400     0.1410 H     1 <1>   0.1500 
@<TRIPOS>BOND
  1   1   2  1   
  2   1  22  1   
  3   2   3  1   
  4   2   4  1   
  5   2  23  1   
  6   3   5  1   
  7   3   6  1   
  8   3  24  1   
  9   4   7  1   
 10   4  25  1   
 11   4  26  1   
 12   5   7  1   
 13   5  27  1   
 14   5  28  1   
 15   6   8  1   
 16   6  29  1   
 17   6  30  1   
 18   7   9  1   
 19   7  31  1   
 20   8  10  ar  
 21   8  11  ar  
 22   9  12  1   
 23   9  32  1   
 24   9  33  1   
 25  10  13  ar  
 26  10  34  1   
 27  11  14  ar  
 28  11  35  1   
 29  12  15  1   
 30  12  36  1   
 31  12  37  1   
 32  13  16  ar  
 33  13  38  1   
 34  14  16  ar  
 35  14  39  1   
 36  15  17  1   
 37  15  40  1   
 38  15  41  1   
 39  17  18  1   
 40  17  19  1   
 41  18  20  2   
 42  19  21  2   
 43  19  42  1   
 44  20  21  1   
 45  20  43  1   
 46  21  44  1   
@<TRIPOS>SUBSTRUCTURE
  1 ****   7 GROUP 4 **** **** 0

# MOE 2024.06 (io_trps.svl 2023.06)
