@<TRIPOS>MOLECULE
NONAME
43 44 1 0 0 
SMALL
USER_CHARGES


@<TRIPOS>ATOM
  1 CL       0.7590     0.8410    -1.7180 Cl    1 <1>  -0.1770 
  2 C        2.0640     1.0420    -0.5750 C.ar  1 <1>   0.1770 
  3 C        2.7280    -0.0740    -0.0740 C.ar  1 <1>   0.0860 
  4 C        2.3930     2.3290    -0.1890 C.ar  1 <1>  -0.1500 
  5 C        3.7340     0.1650     0.8560 C.ar  1 <1>   0.1770 
  6 C        2.3890    -1.4060    -0.5020 C.2   1 <1>   0.5440 
  7 C        3.4090     2.5350     0.7300 C.ar  1 <1>  -0.1500 
  8 CL       4.5920    -1.1750     1.5750 Cl    1 <1>  -0.1770 
  9 C        4.0800     1.4430     1.2560 C.ar  1 <1>  -0.1500 
 10 O        3.0280    -1.9040    -1.4060 O.2   1 <1>  -0.5700 
 11 N        1.3600    -2.1210     0.0790 N.am  1 <1>  -0.6600 
 12 C        0.9090    -3.4310    -0.4910 C.3   1 <1>   0.1400 
 13 C        0.5770    -1.6410     1.2500 C.3   1 <1>   0.1400 
 14 C       -0.5930    -3.3870    -0.8220 C.3   1 <1>   0.2000 
 15 C       -0.9090    -1.5700     0.8760 C.3   1 <1>  -0.1600 
 16 O       -0.9940    -4.6380    -1.2860 O.3   1 <1>  -0.6800 
 17 C       -1.4770    -2.9250     0.3750 C.3   1 <1>   0.0000 
 18 C       -1.4150    -3.9910     1.5070 C.3   1 <1>   0.1200 
 19 C       -2.9670    -2.7580    -0.0500 C.3   1 <1>  -0.1600 
 20 O       -2.1210    -3.5920     2.6340 O.3   1 <1>  -0.6800 
 21 C       -3.2500    -1.8350    -1.2510 C.3   1 <1>  -0.1600 
 22 C       -4.7550    -1.7390    -1.5170 C.3   1 <1>  -0.2400 
 23 H        1.8560     3.1640    -0.6060 H     1 <1>   0.1500 
 24 H        3.6740     3.5350     1.0340 H     1 <1>   0.1500 
 25 H        4.8700     1.5810     1.9750 H     1 <1>   0.1500 
 26 H        1.4480    -3.6530    -1.3960 H     1 <1>   0.0800 
 27 H        1.1200    -4.2070     0.2210 H     1 <1>   0.0800 
 28 H        0.7310    -2.3140     2.0760 H     1 <1>   0.0800 
 29 H        0.9080    -0.6670     1.5640 H     1 <1>   0.0800 
 30 H       -0.7100    -2.7030    -1.6440 H     1 <1>   0.0800 
 31 H       -1.4730    -1.2150     1.7200 H     1 <1>   0.0800 
 32 H       -1.0040    -0.8260     0.1070 H     1 <1>   0.0800 
 33 H       -0.8930    -5.3190    -0.5970 H     1 <1>   0.4000 
 34 H       -0.4050    -4.1900     1.8140 H     1 <1>   0.0800 
 35 H       -1.8550    -4.9160     1.1760 H     1 <1>   0.0800 
 36 H       -3.3650    -3.7300    -0.2840 H     1 <1>   0.0800 
 37 H       -3.5290    -2.3910     0.7920 H     1 <1>   0.0800 
 38 H       -1.8240    -2.7150     2.9400 H     1 <1>   0.4000 
 39 H       -2.8740    -0.8440    -1.0700 H     1 <1>   0.0800 
 40 H       -2.7760    -2.2210    -2.1370 H     1 <1>   0.0800 
 41 H       -5.2650    -1.3320    -0.6610 H     1 <1>   0.0800 
 42 H       -5.1600    -2.7120    -1.7320 H     1 <1>   0.0800 
 43 H       -4.9390    -1.0980    -2.3610 H     1 <1>   0.0800 
@<TRIPOS>BOND
  1   1   2  1   
  2   2   3  ar  
  3   2   4  ar  
  4   3   5  ar  
  5   3   6  1   
  6   4   7  ar  
  7   4  23  1   
  8   5   8  1   
  9   5   9  ar  
 10   6  10  2   
 11   6  11  am  
 12   7   9  ar  
 13   7  24  1   
 14   9  25  1   
 15  11  12  1   
 16  11  13  1   
 17  12  14  1   
 18  12  26  1   
 19  12  27  1   
 20  13  15  1   
 21  13  28  1   
 22  13  29  1   
 23  14  16  1   
 24  14  17  1   
 25  14  30  1   
 26  15  17  1   
 27  15  31  1   
 28  15  32  1   
 29  16  33  1   
 30  17  18  1   
 31  17  19  1   
 32  18  20  1   
 33  18  34  1   
 34  18  35  1   
 35  19  21  1   
 36  19  36  1   
 37  19  37  1   
 38  20  38  1   
 39  21  22  1   
 40  21  39  1   
 41  21  40  1   
 42  22  41  1   
 43  22  42  1   
 44  22  43  1   
@<TRIPOS>SUBSTRUCTURE
  1 ****  11 GROUP 4 **** **** 0

# MOE 2024.06 (io_trps.svl 2023.06)
