@<TRIPOS>MOLECULE
NONAME
37 38 1 0 0 
SMALL
USER_CHARGES


@<TRIPOS>ATOM
  1 S        0.1340     0.8380     1.6740 S.3   1 <1>  -0.0800 
  2 C       -1.1760     1.1250     0.5400 C.2   1 <1>  -0.0450 
  3 C       -0.3250    -0.8370     1.7840 C.2   1 <1>   0.2280 
  4 C       -1.8090    -0.0640     0.3690 C.2   1 <1>   0.0460 
  5 C       -1.3570     2.4570     0.0150 C.2   1 <1>   0.7150 
  6 N       -1.3260    -1.1510     1.0680 N.2   1 <1>  -0.5650 
  7 C       -3.0080    -0.3570    -0.5140 C.3   1 <1>  -0.0590 
  8 O       -2.2490     2.6970    -0.7760 O.2   1 <1>  -0.5700 
  9 N       -0.5080     3.4550     0.4080 N.am  1 <1>  -0.4930 
 10 C       -0.4500     4.8170     0.0220 C.2   1 <1>   0.0630 
 11 C       -1.4790     5.7530    -0.1230 C.2   1 <1>   0.1080 
 12 C        0.6800     5.5020    -0.2610 C.2   1 <1>  -0.3320 
 13 N       -1.0320     6.9200    -0.4680 N.2   1 <1>  -0.7070 
 14 C       -2.9560     5.5120     0.0970 C.3   1 <1>  -0.0590 
 15 N        0.3000     6.7710    -0.5580 N.pl3 1 <1>   0.3140 
 16 C        2.1230     5.0160    -0.2760 C.3   1 <1>  -0.0600 
 17 C        1.1620     7.9070    -0.9450 C.3   1 <1>   0.0960 
 18 C        1.6590     8.6670     0.2930 C.3   1 <1>  -0.1600 
 19 C        2.5640     9.8420    -0.0970 C.3   1 <1>  -0.2400 
 20 H        0.2550    -1.4710     2.4320 H     1 <1>   0.1500 
 21 H       -3.3480     0.5150    -1.0380 H     1 <1>   0.0800 
 22 H       -3.8150    -0.7290     0.0900 H     1 <1>   0.0800 
 23 H       -2.7460    -1.1090    -1.2360 H     1 <1>   0.0800 
 24 H        0.2660     3.1550     0.9940 H     1 <1>   0.3700 
 25 H       -3.1040     4.7840     0.8710 H     1 <1>   0.0800 
 26 H       -3.3990     5.1570    -0.8150 H     1 <1>   0.0800 
 27 H       -3.4360     6.4300     0.3830 H     1 <1>   0.0800 
 28 H        2.1770     3.9710    -0.0330 H     1 <1>   0.0800 
 29 H        2.7090     5.5640     0.4400 H     1 <1>   0.0800 
 30 H        2.5480     5.1540    -1.2550 H     1 <1>   0.0800 
 31 H        0.5840     8.5640    -1.5690 H     1 <1>   0.0800 
 32 H        1.9900     7.5350    -1.5180 H     1 <1>   0.0800 
 33 H        2.2050     7.9970     0.9340 H     1 <1>   0.0800 
 34 H        0.8080     9.0410     0.8390 H     1 <1>   0.0800 
 35 H        3.4310     9.4920    -0.6300 H     1 <1>   0.0800 
 36 H        2.8920    10.3610     0.7870 H     1 <1>   0.0800 
 37 H        2.0290    10.5370    -0.7200 H     1 <1>   0.0800 
@<TRIPOS>BOND
  1   1   2  1   
  2   1   3  1   
  3   2   4  2   
  4   2   5  1   
  5   3   6  2   
  6   3  20  1   
  7   4   6  1   
  8   4   7  1   
  9   5   8  2   
 10   5   9  am  
 11   7  21  1   
 12   7  22  1   
 13   7  23  1   
 14   9  10  1   
 15   9  24  1   
 16  10  11  1   
 17  10  12  2   
 18  11  13  2   
 19  11  14  1   
 20  12  15  1   
 21  12  16  1   
 22  13  15  1   
 23  14  25  1   
 24  14  26  1   
 25  14  27  1   
 26  15  17  1   
 27  16  28  1   
 28  16  29  1   
 29  16  30  1   
 30  17  18  1   
 31  17  31  1   
 32  17  32  1   
 33  18  19  1   
 34  18  33  1   
 35  18  34  1   
 36  19  35  1   
 37  19  36  1   
 38  19  37  1   
@<TRIPOS>SUBSTRUCTURE
  1 ****   9 GROUP 4 **** **** 0

# MOE 2024.06 (io_trps.svl 2023.06)
