@<TRIPOS>MOLECULE
NONAME
53 56 1 0 0 
SMALL
USER_CHARGES


@<TRIPOS>ATOM
  1 O        2.7160    -0.1380    -0.4940 O.2   1 <1>  -0.5700 
  2 C        2.1680     0.8070     0.0510 C.2   1 <1>   0.7160 
  3 N        1.1130     0.5340     0.8920 N.am  1 <1>  -0.7300 
  4 C        2.5990     2.1930    -0.1590 C.2   1 <1>   0.4300 
  5 C        0.5510    -0.8060     1.2030 C.3   1 <1>   0.0600 
  6 N        2.0700     3.2200     0.4240 N.2   1 <1>  -0.4100 
  7 N        3.5950     2.5690    -0.9800 N.2   1 <1>  -0.5650 
  8 O        2.6890     4.2790     0.0150 O.3   1 <1>  -0.0190 
  9 C        3.5920     3.8290    -0.8170 C.2   1 <1>   0.2980 
 10 C        4.5210     4.8310    -1.5030 C.3   1 <1>   0.2900 
 11 N        5.7410     5.1870    -0.7270 N.3   1 <1>  -0.8100 
 12 C        5.4520     6.0050     0.4780 C.3   1 <1>   0.1100 
 13 C        6.5480     3.9820    -0.4390 C.3   1 <1>   0.1100 
 14 C        5.7510     7.5130     0.2890 C.3   1 <1>   0.0000 
 15 C        8.0070     4.3400    -0.1330 C.3   1 <1>   0.1200 
 16 C        7.2440     7.7560    -0.0360 C.3   1 <1>  -0.1600 
 17 C        4.8970     8.1410    -0.8390 C.3   1 <1>  -0.1600 
 18 C        5.4200     8.2460     1.6110 C.3   1 <1>  -0.1600 
 19 O        8.7360     3.1770     0.0720 O.3   1 <1>  -0.6800 
 20 C        7.5400     9.2630    -0.1640 C.3   1 <1>  -0.0800 
 21 C        5.1800     9.6500    -0.9670 C.3   1 <1>  -0.0800 
 22 C        5.7070     9.7540     1.4960 C.3   1 <1>  -0.0800 
 23 C        6.6710     9.8570    -1.2880 C.3   1 <1>  -0.1600 
 24 C        7.1960     9.9610     1.1640 C.3   1 <1>  -0.1600 
 25 C        4.8460    10.3460     0.3650 C.3   1 <1>  -0.1600 
 26 H        0.6640     1.3360     1.3440 H     1 <1>   0.3700 
 27 H        1.0950    -1.5750     0.6810 H     1 <1>   0.0800 
 28 H       -0.4810    -0.8470     0.9020 H     1 <1>   0.0800 
 29 H        0.6200    -0.9920     2.2610 H     1 <1>   0.0800 
 30 H        3.9610     5.7190    -1.7300 H     1 <1>   0.0800 
 31 H        4.8320     4.4060    -2.4420 H     1 <1>   0.0800 
 32 H        6.0450     5.6540     1.3050 H     1 <1>   0.0800 
 33 H        4.4240     5.8920     0.7720 H     1 <1>   0.0800 
 34 H        6.5450     3.3390    -1.3040 H     1 <1>   0.0800 
 35 H        6.1160     3.4430     0.3880 H     1 <1>   0.0800 
 36 H        8.0870     4.9430     0.7530 H     1 <1>   0.0800 
 37 H        8.4440     4.8600    -0.9680 H     1 <1>   0.0800 
 38 H        7.4990     7.2660    -0.9590 H     1 <1>   0.0800 
 39 H        7.8610     7.3380     0.7390 H     1 <1>   0.0800 
 40 H        3.8520     7.9860    -0.6380 H     1 <1>   0.0800 
 41 H        5.1310     7.6690    -1.7760 H     1 <1>   0.0800 
 42 H        6.0070     7.8360     2.4140 H     1 <1>   0.0800 
 43 H        4.3830     8.1010     1.8600 H     1 <1>   0.0800 
 44 H        8.3780     2.6710     0.8270 H     1 <1>   0.4000 
 45 H        8.5820     9.4090    -0.3940 H     1 <1>   0.0800 
 46 H        4.5770    10.0670    -1.7560 H     1 <1>   0.0800 
 47 H        5.4700    10.2430     2.4260 H     1 <1>   0.0800 
 48 H        6.9120     9.3810    -2.2230 H     1 <1>   0.0800 
 49 H        6.8800    10.9070    -1.3930 H     1 <1>   0.0800 
 50 H        7.4100    11.0130     1.0880 H     1 <1>   0.0800 
 51 H        7.8050     9.5600     1.9550 H     1 <1>   0.0800 
 52 H        3.8030    10.2140     0.5940 H     1 <1>   0.0800 
 53 H        5.0320    11.4020     0.2810 H     1 <1>   0.0800 
@<TRIPOS>BOND
  1   1   2  2   
  2   2   3  am  
  3   2   4  1   
  4   3   5  1   
  5   3  26  1   
  6   4   6  2   
  7   4   7  1   
  8   5  27  1   
  9   5  28  1   
 10   5  29  1   
 11   6   8  1   
 12   7   9  2   
 13   8   9  1   
 14   9  10  1   
 15  10  11  1   
 16  10  30  1   
 17  10  31  1   
 18  11  12  1   
 19  11  13  1   
 20  12  14  1   
 21  12  32  1   
 22  12  33  1   
 23  13  15  1   
 24  13  34  1   
 25  13  35  1   
 26  14  16  1   
 27  14  17  1   
 28  14  18  1   
 29  15  19  1   
 30  15  36  1   
 31  15  37  1   
 32  16  20  1   
 33  16  38  1   
 34  16  39  1   
 35  17  21  1   
 36  17  40  1   
 37  17  41  1   
 38  18  22  1   
 39  18  42  1   
 40  18  43  1   
 41  19  44  1   
 42  20  23  1   
 43  20  24  1   
 44  20  45  1   
 45  21  23  1   
 46  21  25  1   
 47  21  46  1   
 48  22  24  1   
 49  22  25  1   
 50  22  47  1   
 51  23  48  1   
 52  23  49  1   
 53  24  50  1   
 54  24  51  1   
 55  25  52  1   
 56  25  53  1   
@<TRIPOS>SUBSTRUCTURE
  1 ****  12 GROUP 4 **** **** 0

# MOE 2024.06 (io_trps.svl 2023.06)
