@<TRIPOS>MOLECULE
NONAME
54 57 1 0 0 
SMALL
USER_CHARGES


@<TRIPOS>ATOM
  1 S       -0.0580    -0.2660    -1.3810 S.3   1 <1>  -0.0800 
  2 C       -0.3680    -1.5800    -0.2620 C.2   1 <1>  -0.1100 
  3 C       -1.7390     0.2280    -1.3330 C.2   1 <1>  -0.1100 
  4 C       -1.6680    -1.6140     0.0920 C.2   1 <1>  -0.1810 
  5 C       -2.4480    -0.5730    -0.5170 C.2   1 <1>  -0.1500 
  6 C       -2.2820    -2.6290     1.0320 C.3   1 <1>   0.5240 
  7 N       -2.8600    -3.7010     0.1900 N.4   1 <1>  -0.9590 
  8 C       -4.2840    -3.3750    -0.1590 C.3   1 <1>   0.3430 
  9 C       -2.7090    -5.0440     0.8150 C.3   1 <1>   0.3430 
 10 C       -4.9820    -4.4680    -1.0070 C.3   1 <1>   0.1900 
 11 C       -3.3000    -6.0990    -0.1180 C.3   1 <1>  -0.1600 
 12 N       -6.4360    -4.2440    -1.2290 N.3   1 <1>  -0.8100 
 13 C       -4.8130    -5.8650    -0.3500 C.3   1 <1>   0.0000 
 14 C       -7.0460    -5.2170    -2.1670 C.3   1 <1>   0.1100 
 15 C       -6.8470    -2.8520    -1.5450 C.3   1 <1>   0.2900 
 16 C       -5.3820    -6.9740    -1.2820 C.3   1 <1>  -0.1600 
 17 C       -5.5980    -5.8810     0.9970 C.3   1 <1>   0.1200 
 18 C       -6.1390    -6.4150    -2.4990 C.3   1 <1>  -0.1600 
 19 C       -6.8960    -1.9910    -0.2870 C.2   1 <1>   0.0060 
 20 O       -5.1850    -6.9290     1.8060 O.3   1 <1>  -0.6800 
 21 N       -6.0790    -1.0090    -0.0520 N.2   1 <1>  -0.5650 
 22 N       -7.8020    -2.1900     0.7020 N.pl3 1 <1>   0.0480 
 23 C       -6.4830    -0.5320     1.1410 C.2   1 <1>   0.0770 
 24 C       -7.5250    -1.2450     1.6170 C.2   1 <1>  -0.3020 
 25 C       -8.8740    -3.2000     0.7860 C.3   1 <1>   0.0160 
 26 H        0.4780    -2.1890     0.0070 H     1 <1>   0.1500 
 27 H       -2.0210     1.0820    -1.9250 H     1 <1>   0.1500 
 28 H       -3.5010    -0.4530    -0.3210 H     1 <1>   0.1500 
 29 H       -3.0340    -2.1710     1.6550 H     1 <1>   0.0800 
 30 H       -1.5060    -3.0320     1.6620 H     1 <1>   0.0800 
 31 H       -2.3160    -3.6790    -0.6820 H     1 <1>   0.4500 
 32 H       -4.8510    -3.2270     0.7440 H     1 <1>   0.0800 
 33 H       -4.3050    -2.4540    -0.7160 H     1 <1>   0.0800 
 34 H       -1.6660    -5.2590     0.9860 H     1 <1>   0.0800 
 35 H       -3.2230    -5.0760     1.7630 H     1 <1>   0.0800 
 36 H       -4.4920    -4.4610    -1.9660 H     1 <1>   0.0800 
 37 H       -2.7700    -6.0870    -1.0540 H     1 <1>   0.0800 
 38 H       -3.1380    -7.0690     0.3190 H     1 <1>   0.0800 
 39 H       -7.9580    -5.5810    -1.7230 H     1 <1>   0.0800 
 40 H       -7.3090    -4.7320    -3.0940 H     1 <1>   0.0800 
 41 H       -6.1740    -2.4200    -2.2650 H     1 <1>   0.0800 
 42 H       -7.8330    -2.8500    -1.9770 H     1 <1>   0.0800 
 43 H       -4.5940    -7.6120    -1.6440 H     1 <1>   0.0800 
 44 H       -6.0560    -7.6090    -0.7330 H     1 <1>   0.0800 
 45 H       -6.6570    -5.9800     0.8260 H     1 <1>   0.0800 
 46 H       -5.4430    -4.9790     1.5600 H     1 <1>   0.0800 
 47 H       -6.7320    -7.1940    -2.9450 H     1 <1>   0.0800 
 48 H       -5.4300    -6.1060    -3.2470 H     1 <1>   0.0800 
 49 H       -5.5340    -7.7810     1.4750 H     1 <1>   0.4000 
 50 H       -6.0020     0.3150     1.6030 H     1 <1>   0.1500 
 51 H       -8.0760    -1.1250     2.5320 H     1 <1>   0.1500 
 52 H       -9.3380    -3.1550     1.7540 H     1 <1>   0.0800 
 53 H       -8.4560    -4.1790     0.6360 H     1 <1>   0.0800 
 54 H       -9.6090    -3.0020     0.0280 H     1 <1>   0.0800 
@<TRIPOS>BOND
  1   1   2  1   
  2   1   3  1   
  3   2   4  2   
  4   2  26  1   
  5   3   5  2   
  6   3  27  1   
  7   4   5  1   
  8   4   6  1   
  9   5  28  1   
 10   6   7  1   
 11   6  29  1   
 12   6  30  1   
 13   7   8  1   
 14   7   9  1   
 15   7  31  1   
 16   8  10  1   
 17   8  32  1   
 18   8  33  1   
 19   9  11  1   
 20   9  34  1   
 21   9  35  1   
 22  10  12  1   
 23  10  13  1   
 24  10  36  1   
 25  11  13  1   
 26  11  37  1   
 27  11  38  1   
 28  12  14  1   
 29  12  15  1   
 30  13  16  1   
 31  13  17  1   
 32  14  18  1   
 33  14  39  1   
 34  14  40  1   
 35  15  19  1   
 36  15  41  1   
 37  15  42  1   
 38  16  18  1   
 39  16  43  1   
 40  16  44  1   
 41  17  20  1   
 42  17  45  1   
 43  17  46  1   
 44  18  47  1   
 45  18  48  1   
 46  19  21  2   
 47  19  22  1   
 48  20  49  1   
 49  21  23  1   
 50  22  24  1   
 51  22  25  1   
 52  23  24  2   
 53  23  50  1   
 54  24  51  1   
 55  25  52  1   
 56  25  53  1   
 57  25  54  1   
@<TRIPOS>SUBSTRUCTURE
  1 ****   8 GROUP 4 **** **** 0

# MOE 2024.06 (io_trps.svl 2023.06)
