@<TRIPOS>MOLECULE
NONAME
52 55 1 0 0 
SMALL
USER_CHARGES


@<TRIPOS>ATOM
  1 S       -0.2350    -0.4150     0.7330 S.o2  1 <1>   1.4470 
  2 O       -0.0360    -1.4340     1.7350 O.2   1 <1>  -0.6500 
  3 O       -1.4490     0.3680     0.7240 O.2   1 <1>  -0.6500 
  4 N       -0.2430    -1.1310    -0.7870 N.am  1 <1>  -0.9140 
  5 C        1.2140     0.6720     0.6650 C.ar  1 <1>  -0.0090 
  6 C       -0.6900    -2.5230    -0.9300 C.3   1 <1>   0.2760 
  7 C        1.0830     2.0270     0.3800 C.ar  1 <1>  -0.1500 
  8 C        2.4920     0.1670     0.8760 C.ar  1 <1>  -0.1500 
  9 C       -2.0130    -2.8800    -0.2380 C.3   1 <1>  -0.0800 
 10 C        0.3030    -3.5730    -0.4200 C.3   1 <1>   0.1200 
 11 C        2.1760     2.8860     0.3310 C.ar  1 <1>   0.1170 
 12 C        3.6040     0.9840     0.7800 C.ar  1 <1>  -0.1500 
 13 C       -1.6190    -4.0660     0.6490 C.3   1 <1>   0.1200 
 14 C       -3.0980    -3.2580    -1.2620 C.3   1 <1>  -0.0160 
 15 O       -0.4900    -4.6130     0.0520 O.3   1 <1>  -0.5600 
 16 N        2.0450     4.2850     0.1250 N.am  1 <1>  -0.4770 
 17 C        3.4480     2.3230     0.4830 C.ar  1 <1>   0.0820 
 18 C       -4.4120    -3.6180    -0.5850 C.ar  1 <1>  -0.1430 
 19 C        1.0400     5.1110     0.5870 C.2   1 <1>   0.5690 
 20 C        3.2490     4.9990    -0.4100 C.3   1 <1>   0.1400 
 21 O        4.5570     3.0770     0.2980 O.3   1 <1>  -0.3630 
 22 C       -4.8810    -4.9160    -0.5430 C.ar  1 <1>  -0.1500 
 23 C       -5.2040    -2.6650     0.0220 C.ar  1 <1>  -0.1500 
 24 O        0.9300     6.2500     0.2010 O.2   1 <1>  -0.5700 
 25 C        0.0540     4.6580     1.6430 C.3   1 <1>  -0.1790 
 26 C        4.4390     4.0720    -0.6990 C.3   1 <1>   0.1200 
 27 C       -6.0830    -5.1900     0.0880 C.ar  1 <1>   0.1600 
 28 C       -6.3910    -3.0450     0.6270 C.ar  1 <1>   0.1600 
 29 N       -6.8500    -4.2850     0.6740 N.ar  1 <1>  -0.6200 
 30 H       -0.9040    -0.5510    -1.3000 H     1 <1>   0.4200 
 31 H       -0.7920    -2.7090    -1.9860 H     1 <1>   0.0800 
 32 H        0.1010     2.4160     0.1880 H     1 <1>   0.1500 
 33 H        2.6190    -0.8780     1.1090 H     1 <1>   0.1500 
 34 H       -2.3910    -2.0930     0.3860 H     1 <1>   0.0800 
 35 H        0.9030    -3.2170     0.3970 H     1 <1>   0.0800 
 36 H        0.9320    -3.9490    -1.2070 H     1 <1>   0.0800 
 37 H        4.5940     0.5850     0.9230 H     1 <1>   0.1500 
 38 H       -2.3810    -4.8220     0.7270 H     1 <1>   0.0800 
 39 H       -1.3420    -3.7320     1.6350 H     1 <1>   0.0800 
 40 H       -2.7600    -4.0880    -1.8590 H     1 <1>   0.0800 
 41 H       -3.2720    -2.4280    -1.9250 H     1 <1>   0.0800 
 42 H        2.9780     5.5240    -1.3090 H     1 <1>   0.0800 
 43 H        3.5580     5.7340     0.3120 H     1 <1>   0.0800 
 44 H       -4.3230    -5.7180    -0.9910 H     1 <1>   0.1500 
 45 H       -4.9110    -1.6310     0.0340 H     1 <1>   0.1500 
 46 H        0.4990     3.9340     2.2980 H     1 <1>   0.0800 
 47 H       -0.8210     4.2490     1.1760 H     1 <1>   0.0800 
 48 H       -0.2440     5.5060     2.2330 H     1 <1>   0.0800 
 49 H        5.3570     4.6300    -0.7280 H     1 <1>   0.0800 
 50 H        4.3030     3.5770    -1.6450 H     1 <1>   0.0800 
 51 H       -6.4320    -6.2080     0.1110 H     1 <1>   0.1500 
 52 H       -6.9950    -2.2880     1.0960 H     1 <1>   0.1500 
@<TRIPOS>BOND
  1   1   2  2   
  2   1   3  2   
  3   1   4  am  
  4   1   5  1   
  5   4   6  1   
  6   4  30  1   
  7   5   7  ar  
  8   5   8  ar  
  9   6   9  1   
 10   6  10  1   
 11   6  31  1   
 12   7  11  ar  
 13   7  32  1   
 14   8  12  ar  
 15   8  33  1   
 16   9  13  1   
 17   9  14  1   
 18   9  34  1   
 19  10  15  1   
 20  10  35  1   
 21  10  36  1   
 22  11  16  1   
 23  11  17  ar  
 24  12  17  ar  
 25  12  37  1   
 26  13  15  1   
 27  13  38  1   
 28  13  39  1   
 29  14  18  1   
 30  14  40  1   
 31  14  41  1   
 32  16  19  am  
 33  16  20  1   
 34  17  21  1   
 35  18  22  ar  
 36  18  23  ar  
 37  19  24  2   
 38  19  25  1   
 39  20  26  1   
 40  20  42  1   
 41  20  43  1   
 42  21  26  1   
 43  22  27  ar  
 44  22  44  1   
 45  23  28  ar  
 46  23  45  1   
 47  25  46  1   
 48  25  47  1   
 49  25  48  1   
 50  26  49  1   
 51  26  50  1   
 52  27  29  ar  
 53  27  51  1   
 54  28  29  ar  
 55  28  52  1   
@<TRIPOS>SUBSTRUCTURE
  1 ****   1 GROUP 4 **** **** 0

# MOE 2024.06 (io_trps.svl 2023.06)
