@<TRIPOS>MOLECULE
NONAME
52 55 1 0 0 
SMALL
USER_CHARGES


@<TRIPOS>ATOM
  1 O       -0.7250     0.4080    -1.7880 O.2   1 <1>  -0.5700 
  2 C       -0.4420     1.4090    -1.1700 C.2   1 <1>   0.5690 
  3 N       -1.3760     2.1750    -0.5200 N.am  1 <1>  -0.5090 
  4 C        1.0300     1.8340    -1.1640 C.3   1 <1>   0.1810 
  5 C       -1.0000     3.4740     0.1210 C.3   1 <1>   0.3640 
  6 C       -2.7940     1.7630    -0.3770 C.3   1 <1>   0.0490 
  7 O        1.3300     2.8380    -0.2230 O.3   1 <1>  -0.5600 
  8 C       -1.9670     4.5900    -0.2800 C.ar  1 <1>  -0.1440 
  9 C        0.4310     3.9260    -0.2470 C.3   1 <1>   0.2610 
 10 C       -3.3630     1.6120     1.0000 C.3   1 <1>  -0.2000 
 11 C       -3.1230     0.4030     0.1540 C.3   1 <1>  -0.2000 
 12 C       -2.4810     5.4340     0.6950 C.ar  1 <1>  -0.1500 
 13 C       -2.3090     4.8070    -1.6090 C.ar  1 <1>  -0.1500 
 14 C        0.9070     5.0730     0.6640 C.2   1 <1>   0.5690 
 15 C       -3.2900     6.5000     0.3490 C.ar  1 <1>  -0.1500 
 16 C       -3.1270     5.8670    -1.9560 C.ar  1 <1>  -0.1500 
 17 O        0.4530     5.1530     1.7870 O.2   1 <1>  -0.5700 
 18 N        1.7830     6.0290     0.2050 N.am  1 <1>  -0.6600 
 19 C       -3.6070     6.7290    -0.9860 C.ar  1 <1>   0.0830 
 20 C        2.1060     7.2100     1.0480 C.3   1 <1>   0.3200 
 21 C        2.3970     6.0420    -1.1520 C.3   1 <1>   0.0600 
 22 O       -4.3630     7.7730    -1.4020 O.3   1 <1>  -0.3630 
 23 C        1.0190     8.2480     0.8700 C.2   1 <1>  -0.3320 
 24 C       -4.4620     8.9320    -0.6020 C.3   1 <1>   0.0400 
 25 N       -0.2590     8.0090     1.2220 N.pl3 1 <1>   0.3000 
 26 C        1.0600     9.5100     0.3900 C.2   1 <1>  -0.1500 
 27 N       -1.0490     9.0790     0.9930 N.2   1 <1>  -0.7070 
 28 C       -0.2490     9.9700     0.4910 C.2   1 <1>   0.1390 
 29 H        1.2990     2.1940    -2.1400 H     1 <1>   0.0800 
 30 H        1.6420     0.9810    -0.9330 H     1 <1>   0.0800 
 31 H       -1.0500     3.3290     1.1860 H     1 <1>   0.0800 
 32 H       -3.4240     2.1720    -1.1500 H     1 <1>   0.1000 
 33 H        0.4060     4.2980    -1.2540 H     1 <1>   0.0800 
 34 H       -2.7340     1.7530     1.8610 H     1 <1>   0.1000 
 35 H       -4.3790     1.9190     1.1730 H     1 <1>   0.1000 
 36 H       -3.9700    -0.1140    -0.2580 H     1 <1>   0.1000 
 37 H       -2.3130    -0.2610     0.3990 H     1 <1>   0.1000 
 38 H       -2.2450     5.2730     1.7340 H     1 <1>   0.1500 
 39 H       -1.9410     4.1550    -2.3820 H     1 <1>   0.1500 
 40 H       -3.6610     7.1460     1.1220 H     1 <1>   0.1500 
 41 H       -3.3920     6.0400    -2.9830 H     1 <1>   0.1500 
 42 H        2.1670     6.9170     2.0830 H     1 <1>   0.0800 
 43 H        3.0600     7.6190     0.7660 H     1 <1>   0.0800 
 44 H        3.4000     6.4300    -1.1010 H     1 <1>   0.0800 
 45 H        1.8140     6.6690    -1.8050 H     1 <1>   0.0800 
 46 H        2.4500     5.0490    -1.5610 H     1 <1>   0.0800 
 47 H       -4.9360     9.7010    -1.1840 H     1 <1>   0.0800 
 48 H       -3.4730     9.2450    -0.3150 H     1 <1>   0.0800 
 49 H       -5.0590     8.7100     0.2640 H     1 <1>   0.0800 
 50 H       -0.6040     7.1170     1.6080 H     1 <1>   0.2700 
 51 H        1.8950    10.0690     0.0090 H     1 <1>   0.1500 
 52 H       -0.5720    10.9530     0.1920 H     1 <1>   0.1500 
@<TRIPOS>BOND
  1   1   2  2   
  2   2   3  am  
  3   2   4  1   
  4   3   5  1   
  5   3   6  1   
  6   4   7  1   
  7   4  29  1   
  8   4  30  1   
  9   5   8  1   
 10   5   9  1   
 11   5  31  1   
 12   6  10  1   
 13   6  11  1   
 14   6  32  1   
 15   7   9  1   
 16   8  12  ar  
 17   8  13  ar  
 18   9  14  1   
 19   9  33  1   
 20  10  11  1   
 21  10  34  1   
 22  10  35  1   
 23  11  36  1   
 24  11  37  1   
 25  12  15  ar  
 26  12  38  1   
 27  13  16  ar  
 28  13  39  1   
 29  14  17  2   
 30  14  18  am  
 31  15  19  ar  
 32  15  40  1   
 33  16  19  ar  
 34  16  41  1   
 35  18  20  1   
 36  18  21  1   
 37  19  22  1   
 38  20  23  1   
 39  20  42  1   
 40  20  43  1   
 41  21  44  1   
 42  21  45  1   
 43  21  46  1   
 44  22  24  1   
 45  23  25  1   
 46  23  26  2   
 47  24  47  1   
 48  24  48  1   
 49  24  49  1   
 50  25  27  1   
 51  25  50  1   
 52  26  28  1   
 53  26  51  1   
 54  27  28  2   
 55  28  52  1   
@<TRIPOS>SUBSTRUCTURE
  1 ****   8 GROUP 4 **** **** 0

# MOE 2024.06 (io_trps.svl 2023.06)
