@<TRIPOS>MOLECULE
NONAME
34 36 1 0 0 
SMALL
USER_CHARGES


@<TRIPOS>ATOM
  1 CL       1.2050    -0.8010     2.4390 Cl    1 <1>  -0.1770 
  2 C        1.2600    -1.6490     0.9110 C.ar  1 <1>   0.1770 
  3 C        0.9480    -3.0040     0.8470 C.ar  1 <1>  -0.1440 
  4 C        1.6260    -0.9290    -0.2110 C.ar  1 <1>  -0.1500 
  5 C        1.0180    -3.6450    -0.3880 C.ar  1 <1>  -0.1500 
  6 C        0.5320    -3.7520     2.1200 C.3   1 <1>   0.0450 
  7 C        1.6780    -1.5980    -1.4160 C.ar  1 <1>   0.1900 
  8 C        1.3800    -2.9430    -1.5270 C.ar  1 <1>  -0.1500 
  9 C       -0.0820    -5.1240     1.8850 C.2   1 <1>   0.5690 
 10 F        2.0230    -0.9380    -2.4880 F     1 <1>  -0.1900 
 11 O        0.6070    -6.0920     2.1160 O.2   1 <1>  -0.5700 
 12 N       -1.3610    -5.2350     1.4250 N.am  1 <1>  -0.6600 
 13 C       -2.2620    -4.1150     1.0240 C.3   1 <1>   0.2350 
 14 C       -1.9690    -6.5300     1.0100 C.3   1 <1>   0.2350 
 15 C       -3.1190    -4.6710    -0.0960 C.3   1 <1>  -0.2420 
 16 C       -2.9420    -6.1700    -0.1010 C.3   1 <1>  -0.2420 
 17 C       -4.3410    -3.7760    -0.3260 C.2   1 <1>   0.9470 
 18 C       -2.4890    -5.3540    -1.2850 C.3   1 <1>  -0.2000 
 19 C       -3.9470    -7.3010    -0.3210 C.2   1 <1>   0.9470 
 20 O       -4.5750    -3.3350    -1.4600 O.co2 1 <1>  -0.9000 
 21 O       -4.9690    -3.3640     0.6590 O.co2 1 <1>  -0.9000 
 22 O       -3.9790    -7.8800    -1.4160 O.co2 1 <1>  -0.9000 
 23 O       -4.5940    -7.7230     0.6470 O.co2 1 <1>  -0.9000 
 24 H        1.8620     0.1160    -0.1480 H     1 <1>   0.1500 
 25 H        0.7860    -4.6930    -0.4850 H     1 <1>   0.1500 
 26 H       -0.1800    -3.1680     2.6720 H     1 <1>   0.0800 
 27 H        1.3980    -3.8750     2.7440 H     1 <1>   0.0800 
 28 H        1.4250    -3.4300    -2.4840 H     1 <1>   0.1500 
 29 H       -2.8810    -3.8430     1.8630 H     1 <1>   0.0800 
 30 H       -1.7200    -3.2540     0.6790 H     1 <1>   0.0800 
 31 H       -1.2230    -7.2210     0.6590 H     1 <1>   0.0800 
 32 H       -2.4980    -6.9580     1.8440 H     1 <1>   0.0800 
 33 H       -1.4410    -5.2330    -1.4770 H     1 <1>   0.1000 
 34 H       -3.0690    -5.4260    -2.1900 H     1 <1>   0.1000 
@<TRIPOS>BOND
  1   1   2  1   
  2   2   3  ar  
  3   2   4  ar  
  4   3   5  ar  
  5   3   6  1   
  6   4   7  ar  
  7   4  24  1   
  8   5   8  ar  
  9   5  25  1   
 10   6   9  1   
 11   6  26  1   
 12   6  27  1   
 13   7   8  ar  
 14   7  10  1   
 15   8  28  1   
 16   9  11  2   
 17   9  12  am  
 18  12  13  1   
 19  12  14  1   
 20  13  15  1   
 21  13  29  1   
 22  13  30  1   
 23  14  16  1   
 24  14  31  1   
 25  14  32  1   
 26  15  16  1   
 27  15  17  1   
 28  15  18  1   
 29  16  18  1   
 30  16  19  1   
 31  17  20  ar  
 32  17  21  ar  
 33  18  33  1   
 34  18  34  1   
 35  19  22  ar  
 36  19  23  ar  
@<TRIPOS>SUBSTRUCTURE
  1 ****  13 GROUP 4 **** **** 0

# MOE 2024.06 (io_trps.svl 2023.06)
