@<TRIPOS>MOLECULE
NONAME
47 48 1 0 0 
SMALL
USER_CHARGES


@<TRIPOS>ATOM
  1 O        0.3950     0.8800    -1.4850 O.co2 1 <1>  -0.9000 
  2 C        0.3420     2.0050    -0.9590 C.2   1 <1>   0.9790 
  3 O       -0.7710     2.5290    -0.7860 O.co2 1 <1>  -0.9000 
  4 C        1.5720     2.6840    -0.6020 C.ar  1 <1>  -0.1790 
  5 C        1.7110     3.5170     0.5130 C.ar  1 <1>   0.1660 
  6 C        2.6960     2.5080    -1.4000 C.ar  1 <1>  -0.1500 
  7 N        2.8210     4.1560     0.8380 N.ar  1 <1>  -0.6200 
  8 C        0.5550     3.7450     1.4710 C.3   1 <1>  -0.0960 
  9 C        3.8650     3.1610    -1.0810 C.ar  1 <1>   0.0730 
 10 C        3.8750     3.9850     0.0500 C.ar  1 <1>   0.4100 
 11 C        5.0370     3.0090    -1.8860 C.1   1 <1>   0.4840 
 12 N        5.0060     4.6820     0.4200 N.pl3 1 <1>  -0.8380 
 13 N        5.9730     2.8650    -2.5260 N.1   1 <1>  -0.5570 
 14 C        4.9160     6.1570     0.6080 C.3   1 <1>   0.2090 
 15 C        6.0490     3.9770     1.1970 C.3   1 <1>   0.2090 
 16 C        5.7990     6.8850    -0.4160 C.3   1 <1>   0.1100 
 17 C        7.4070     4.6910     1.1530 C.3   1 <1>  -0.1600 
 18 N        7.2590     6.7700    -0.1680 N.3   1 <1>  -0.8100 
 19 C        7.7310     5.3750    -0.1800 C.3   1 <1>   0.1100 
 20 C        8.0050     7.5710    -1.1860 C.3   1 <1>   0.1710 
 21 C        7.7070     9.0830    -1.2130 C.2   1 <1>   0.5690 
 22 O        7.3020     9.5440    -2.2570 O.2   1 <1>  -0.5700 
 23 N        7.8980     9.8770    -0.1020 N.am  1 <1>  -0.6600 
 24 C        7.5680    11.3290    -0.1090 C.3   1 <1>   0.0600 
 25 C        8.3330     9.3470     1.2190 C.3   1 <1>   0.0600 
 26 H        2.6330     1.8590    -2.2590 H     1 <1>   0.1500 
 27 H        0.0790     2.8120     1.7060 H     1 <1>   0.0800 
 28 H       -0.1670     4.3950     1.0110 H     1 <1>   0.0800 
 29 H        0.8980     4.1950     2.3840 H     1 <1>   0.0800 
 30 H        5.2010     6.4300     1.6080 H     1 <1>   0.0800 
 31 H        3.8970     6.4720     0.4590 H     1 <1>   0.0800 
 32 H        6.1650     2.9860     0.7910 H     1 <1>   0.0800 
 33 H        5.7220     3.8770     2.2180 H     1 <1>   0.0800 
 34 H        5.5260     7.9250    -0.3830 H     1 <1>   0.0800 
 35 H        5.5620     6.5170    -1.4000 H     1 <1>   0.0800 
 36 H        8.1610     3.9510     1.3490 H     1 <1>   0.0800 
 37 H        7.4660     5.4110     1.9490 H     1 <1>   0.0800 
 38 H        7.3090     4.8330    -1.0110 H     1 <1>   0.0800 
 39 H        8.8020     5.3700    -0.2930 H     1 <1>   0.0800 
 40 H        7.7970     7.1740    -2.1640 H     1 <1>   0.0800 
 41 H        9.0600     7.4630    -1.0140 H     1 <1>   0.0800 
 42 H        7.2240    11.6410    -1.0800 H     1 <1>   0.0800 
 43 H        8.4430    11.9010     0.1440 H     1 <1>   0.0800 
 44 H        6.7920    11.5270     0.6100 H     1 <1>   0.0800 
 45 H        8.9520     8.4760     1.0980 H     1 <1>   0.0800 
 46 H        7.4670     9.0770     1.7990 H     1 <1>   0.0800 
 47 H        8.8980    10.0930     1.7510 H     1 <1>   0.0800 
@<TRIPOS>BOND
  1   1   2  ar  
  2   2   3  ar  
  3   2   4  1   
  4   4   5  ar  
  5   4   6  ar  
  6   5   7  ar  
  7   5   8  1   
  8   6   9  ar  
  9   6  26  1   
 10   7  10  ar  
 11   8  27  1   
 12   8  28  1   
 13   8  29  1   
 14   9  10  ar  
 15   9  11  1   
 16  10  12  1   
 17  11  13  3   
 18  12  14  1   
 19  12  15  1   
 20  14  16  1   
 21  14  30  1   
 22  14  31  1   
 23  15  17  1   
 24  15  32  1   
 25  15  33  1   
 26  16  18  1   
 27  16  34  1   
 28  16  35  1   
 29  17  19  1   
 30  17  36  1   
 31  17  37  1   
 32  18  19  1   
 33  18  20  1   
 34  19  38  1   
 35  19  39  1   
 36  20  21  1   
 37  20  40  1   
 38  20  41  1   
 39  21  22  2   
 40  21  23  am  
 41  23  24  1   
 42  23  25  1   
 43  24  42  1   
 44  24  43  1   
 45  24  44  1   
 46  25  45  1   
 47  25  46  1   
 48  25  47  1   
@<TRIPOS>SUBSTRUCTURE
  1 ****  12 GROUP 4 **** **** 0

# MOE 2024.06 (io_trps.svl 2023.06)
