@<TRIPOS>MOLECULE
NONAME
40 42 1 0 0 
SMALL
USER_CHARGES


@<TRIPOS>ATOM
  1 S        1.1850    -0.2950     1.7630 S.3   1 <1>  -0.0800 
  2 C        1.5260    -0.3700     0.0450 C.2   1 <1>   0.1980 
  3 C       -0.2830    -1.1860     1.4870 C.2   1 <1>  -0.1100 
  4 N        0.6410    -0.9900    -0.6360 N.2   1 <1>  -0.5650 
  5 C        2.8090     0.2960    -0.4380 C.3   1 <1>   0.3890 
  6 C       -0.3830    -1.4520     0.1760 C.2   1 <1>   0.0770 
  7 N        2.7380     1.7930    -0.3550 N.pl3 1 <1>  -0.8380 
  8 C        3.8800     2.5160    -0.0980 C.ar  1 <1>   0.4100 
  9 C        1.5570     2.4110    -1.0200 C.3   1 <1>   0.1290 
 10 N        5.0380     1.9540    -0.4250 N.ar  1 <1>  -0.6200 
 11 C        3.8020     3.7790     0.4870 C.ar  1 <1>  -0.1500 
 12 C        6.1260     2.6610    -0.1740 C.ar  1 <1>   0.1600 
 13 C        4.9440     4.5020     0.7350 C.ar  1 <1>  -0.1500 
 14 C        6.1650     3.9360     0.3830 C.ar  1 <1>   0.0860 
 15 C        7.4280     4.6000     0.5890 C.2   1 <1>   0.5440 
 16 O        8.3300     3.9920     1.1330 O.2   1 <1>  -0.5700 
 17 N        7.6580     5.8990     0.1840 N.am  1 <1>  -0.6600 
 18 C        6.8810     6.6150    -0.8710 C.3   1 <1>   0.1400 
 19 C        8.8770     6.6470     0.6130 C.3   1 <1>   0.1400 
 20 C        6.6380     8.0780    -0.4610 C.3   1 <1>   0.1200 
 21 C        8.5300     8.1110     0.9310 C.3   1 <1>   0.1200 
 22 O        7.8450     8.7070    -0.1370 O.3   1 <1>  -0.5600 
 23 H       -0.9070    -1.4120     2.3310 H     1 <1>   0.1500 
 24 H        2.9920     0.0110    -1.4580 H     1 <1>   0.0800 
 25 H        3.6250    -0.0670     0.1610 H     1 <1>   0.0800 
 26 H       -1.1880    -1.9920    -0.2940 H     1 <1>   0.1500 
 27 H        1.3140     1.8690    -1.9180 H     1 <1>   0.0800 
 28 H        1.7620     3.4340    -1.2840 H     1 <1>   0.0800 
 29 H        0.7110     2.3810    -0.3550 H     1 <1>   0.0800 
 30 H        2.8380     4.1690     0.7520 H     1 <1>   0.1500 
 31 H        7.0690     2.2040    -0.4250 H     1 <1>   0.1500 
 32 H        4.9070     5.4740     1.1950 H     1 <1>   0.1500 
 33 H        5.9410     6.1320    -1.0600 H     1 <1>   0.0800 
 34 H        7.4450     6.6030    -1.7880 H     1 <1>   0.0800 
 35 H        9.6090     6.6150    -0.1750 H     1 <1>   0.0800 
 36 H        9.3090     6.1900     1.4860 H     1 <1>   0.0800 
 37 H        5.9820     8.1300     0.3900 H     1 <1>   0.0800 
 38 H        6.1940     8.6230    -1.2750 H     1 <1>   0.0800 
 39 H        9.4290     8.6760     1.1010 H     1 <1>   0.0800 
 40 H        7.9140     8.1690     1.8110 H     1 <1>   0.0800 
@<TRIPOS>BOND
  1   1   2  1   
  2   1   3  1   
  3   2   4  2   
  4   2   5  1   
  5   3   6  2   
  6   3  23  1   
  7   4   6  1   
  8   5   7  1   
  9   5  24  1   
 10   5  25  1   
 11   6  26  1   
 12   7   8  1   
 13   7   9  1   
 14   8  10  ar  
 15   8  11  ar  
 16   9  27  1   
 17   9  28  1   
 18   9  29  1   
 19  10  12  ar  
 20  11  13  ar  
 21  11  30  1   
 22  12  14  ar  
 23  12  31  1   
 24  13  14  ar  
 25  13  32  1   
 26  14  15  1   
 27  15  16  2   
 28  15  17  am  
 29  17  18  1   
 30  17  19  1   
 31  18  20  1   
 32  18  33  1   
 33  18  34  1   
 34  19  21  1   
 35  19  35  1   
 36  19  36  1   
 37  20  22  1   
 38  20  37  1   
 39  20  38  1   
 40  21  22  1   
 41  21  39  1   
 42  21  40  1   
@<TRIPOS>SUBSTRUCTURE
  1 ****  11 GROUP 4 **** **** 0

# MOE 2024.06 (io_trps.svl 2023.06)
