@<TRIPOS>MOLECULE
NONAME
39 41 1 0 0 
SMALL
USER_CHARGES


@<TRIPOS>ATOM
  1 F       -0.8690    -0.4340     1.0810 F     1 <1>  -0.1900 
  2 C       -1.9670    -1.0440     0.6920 C.ar  1 <1>   0.1900 
  3 C       -2.9640    -0.4280    -0.0570 C.ar  1 <1>   0.3920 
  4 C       -2.1360    -2.3560     1.0430 C.ar  1 <1>   0.1600 
  5 O       -2.9550     0.8560    -0.4860 O.3   1 <1>  -0.3630 
  6 N       -4.0380    -1.0970    -0.4120 N.ar  1 <1>  -0.6200 
  7 N       -3.2080    -3.0320     0.6900 N.ar  1 <1>  -0.6200 
  8 C       -1.9230     1.7820    -0.2270 C.3   1 <1>   0.0400 
  9 C       -4.1180    -2.3680    -0.0240 C.ar  1 <1>   0.7200 
 10 N       -5.2480    -3.0760    -0.3940 N.pl3 1 <1>  -0.8380 
 11 C       -6.3810    -2.4090    -1.1070 C.3   1 <1>   0.2090 
 12 C       -5.1600    -4.5640    -0.5420 C.3   1 <1>   0.2090 
 13 C       -7.7390    -2.9880    -0.6810 C.3   1 <1>  -0.1600 
 14 C       -6.5310    -5.1930    -0.8250 C.3   1 <1>  -0.1600 
 15 C       -7.6680    -4.4240    -0.1430 C.3   1 <1>   0.4240 
 16 O       -7.3180    -4.3160     1.1860 O.3   1 <1>  -0.6800 
 17 C       -9.0180    -5.1460    -0.2750 C.ar  1 <1>  -0.1430 
 18 C       -9.7950    -5.4770     0.8320 C.ar  1 <1>   0.1600 
 19 C       -9.5070    -5.4860    -1.5260 C.ar  1 <1>  -0.1500 
 20 N      -10.9680    -6.0950     0.7920 N.ar  1 <1>  -0.6200 
 21 C      -10.7240    -6.1300    -1.5870 C.ar  1 <1>  -0.1500 
 22 C      -11.4030    -6.4060    -0.4150 C.ar  1 <1>   0.1600 
 23 H       -1.3800    -2.8560     1.6220 H     1 <1>   0.1500 
 24 H       -2.1920     2.7170    -0.6860 H     1 <1>   0.0800 
 25 H       -1.0060     1.4170    -0.6570 H     1 <1>   0.0800 
 26 H       -1.8260     1.9140     0.8360 H     1 <1>   0.0800 
 27 H       -6.2420    -2.5560    -2.1650 H     1 <1>   0.0800 
 28 H       -6.3920    -1.3480    -0.9250 H     1 <1>   0.0800 
 29 H       -4.7780    -4.9840     0.3740 H     1 <1>   0.0800 
 30 H       -4.4680    -4.8100    -1.3300 H     1 <1>   0.0800 
 31 H       -8.3800    -2.9570    -1.5430 H     1 <1>   0.0800 
 32 H       -8.1930    -2.3500     0.0560 H     1 <1>   0.0800 
 33 H       -6.5350    -6.2160    -0.4950 H     1 <1>   0.0800 
 34 H       -6.6890    -5.2020    -1.8870 H     1 <1>   0.0800 
 35 H       -6.4900    -3.7840     1.2000 H     1 <1>   0.4000 
 36 H       -9.4390    -5.2220     1.8160 H     1 <1>   0.1500 
 37 H       -8.9690    -5.2600    -2.4300 H     1 <1>   0.1500 
 38 H      -11.1470    -6.4160    -2.5330 H     1 <1>   0.1500 
 39 H      -12.3530    -6.9100    -0.4730 H     1 <1>   0.1500 
@<TRIPOS>BOND
  1   1   2  1   
  2   2   3  ar  
  3   2   4  ar  
  4   3   5  1   
  5   3   6  ar  
  6   4   7  ar  
  7   4  23  1   
  8   5   8  1   
  9   6   9  ar  
 10   7   9  ar  
 11   8  24  1   
 12   8  25  1   
 13   8  26  1   
 14   9  10  1   
 15  10  11  1   
 16  10  12  1   
 17  11  13  1   
 18  11  27  1   
 19  11  28  1   
 20  12  14  1   
 21  12  29  1   
 22  12  30  1   
 23  13  15  1   
 24  13  31  1   
 25  13  32  1   
 26  14  15  1   
 27  14  33  1   
 28  14  34  1   
 29  15  16  1   
 30  15  17  1   
 31  16  35  1   
 32  17  18  ar  
 33  17  19  ar  
 34  18  20  ar  
 35  18  36  1   
 36  19  21  ar  
 37  19  37  1   
 38  20  22  ar  
 39  21  22  ar  
 40  21  38  1   
 41  22  39  1   
@<TRIPOS>SUBSTRUCTURE
  1 ****  10 GROUP 4 **** **** 0

# MOE 2024.06 (io_trps.svl 2023.06)
