@<TRIPOS>MOLECULE
NONAME
61 64 1 0 0 
SMALL
USER_CHARGES


@<TRIPOS>ATOM
  1 O       -0.7730    -0.3130     2.3050 O.2   1 <1>  -0.5700 
  2 C       -1.2500     0.5450     1.6000 C.2   1 <1>   0.5690 
  3 N       -2.1700     0.2130     0.6290 N.am  1 <1>  -0.6600 
  4 C       -0.8240     1.9870     1.8540 C.3   1 <1>   0.0820 
  5 C       -2.4950    -1.2130     0.3440 C.3   1 <1>   0.1400 
  6 C       -2.9940     1.1870    -0.1440 C.3   1 <1>   0.1400 
  7 C       -0.1500     2.6500     0.6590 C.2   1 <1>  -0.1810 
  8 C       -3.9780    -1.4830     0.6770 C.3   1 <1>   0.4230 
  9 C       -4.4720     0.9410     0.1880 C.3   1 <1>  -0.1600 
 10 C        0.1050     4.0380     0.5120 C.ar  1 <1>   0.0000 
 11 C        0.3170     2.0600    -0.4580 C.2   1 <1>  -0.0100 
 12 N       -4.3730    -2.9520     0.5860 N.4   1 <1>  -0.9590 
 13 C       -4.9390    -0.5200    -0.0840 C.3   1 <1>   0.0000 
 14 C       -0.0900     5.1990     1.2710 C.ar  1 <1>  -0.1430 
 15 C        0.7040     4.1490    -0.7350 C.ar  1 <1>   0.1400 
 16 O        0.8240     2.9450    -1.3010 O.3   1 <1>  -0.2800 
 17 C       -5.8510    -3.1850     0.4950 C.3   1 <1>   0.3430 
 18 C       -3.6650    -3.7490    -0.4710 C.3   1 <1>   0.2630 
 19 C       -6.3830    -0.6930     0.4740 C.3   1 <1>  -0.1600 
 20 C       -4.9050    -0.8220    -1.6100 C.3   1 <1>   0.1200 
 21 C        0.3130     6.4100     0.7410 C.ar  1 <1>  -0.1500 
 22 C       -0.7220     5.1550     2.6520 C.3   1 <1>  -0.0970 
 23 C        1.1090     5.3670    -1.2780 C.ar  1 <1>  -0.1430 
 24 C       -6.6270    -2.0510     1.1620 C.3   1 <1>  -0.1600 
 25 O       -5.5960     0.1330    -2.3370 O.3   1 <1>  -0.6800 
 26 C        0.9100     6.5080    -0.5190 C.ar  1 <1>  -0.1430 
 27 C        1.7510     5.4010    -2.6600 C.3   1 <1>  -0.0970 
 28 C        1.3290     7.8840    -1.0190 C.3   1 <1>  -0.0970 
 29 H       -1.6970     2.5430     2.1340 H     1 <1>   0.0800 
 30 H       -0.1430     2.0050     2.6850 H     1 <1>   0.0800 
 31 H       -2.2850    -1.4050    -0.6920 H     1 <1>   0.0800 
 32 H       -1.8750    -1.8620     0.9360 H     1 <1>   0.0800 
 33 H       -2.7380     2.2030     0.1030 H     1 <1>   0.0800 
 34 H       -2.8140     1.0580    -1.1980 H     1 <1>   0.0800 
 35 H       -4.0780    -1.2120     1.7150 H     1 <1>   0.0800 
 36 H       -4.6100     1.1840     1.2270 H     1 <1>   0.0800 
 37 H       -5.0690     1.6400    -0.3720 H     1 <1>   0.0800 
 38 H        0.3330     1.0250    -0.7500 H     1 <1>   0.1500 
 39 H       -4.0820    -3.3490     1.4920 H     1 <1>   0.4500 
 40 H       -6.1500    -3.2390    -0.5390 H     1 <1>   0.0800 
 41 H       -6.1040    -4.1240     0.9620 H     1 <1>   0.0800 
 42 H       -3.8890    -3.3610    -1.4510 H     1 <1>   0.0800 
 43 H       -3.9780    -4.7800    -0.4320 H     1 <1>   0.0800 
 44 H       -2.5980    -3.7160    -0.3210 H     1 <1>   0.0800 
 45 H       -6.6060     0.0750     1.1960 H     1 <1>   0.0800 
 46 H       -7.1020    -0.5700    -0.3180 H     1 <1>   0.0800 
 47 H       -5.3450    -1.7760    -1.8360 H     1 <1>   0.0800 
 48 H       -3.8980    -0.8160    -1.9880 H     1 <1>   0.0800 
 49 H        0.1670     7.3090     1.3120 H     1 <1>   0.1500 
 50 H       -0.6720     6.1180     3.1270 H     1 <1>   0.0800 
 51 H       -0.2000     4.4510     3.2740 H     1 <1>   0.0800 
 52 H       -1.7550     4.8710     2.5750 H     1 <1>   0.0800 
 53 H       -7.6800    -2.2760     1.1320 H     1 <1>   0.0800 
 54 H       -6.3480    -1.9960     2.2010 H     1 <1>   0.0800 
 55 H       -6.5510     0.1420    -2.1290 H     1 <1>   0.4000 
 56 H        1.3720     6.2270    -3.2330 H     1 <1>   0.0800 
 57 H        1.5400     4.4980    -3.2030 H     1 <1>   0.0800 
 58 H        2.8170     5.4990    -2.5620 H     1 <1>   0.0800 
 59 H        1.3010     8.6090    -0.2250 H     1 <1>   0.0800 
 60 H        0.6630     8.2070    -1.7990 H     1 <1>   0.0800 
 61 H        2.3320     7.8520    -1.4040 H     1 <1>   0.0800 
@<TRIPOS>BOND
  1   1   2  2   
  2   2   3  am  
  3   2   4  1   
  4   3   5  1   
  5   3   6  1   
  6   4   7  1   
  7   4  29  1   
  8   4  30  1   
  9   5   8  1   
 10   5  31  1   
 11   5  32  1   
 12   6   9  1   
 13   6  33  1   
 14   6  34  1   
 15   7  10  1   
 16   7  11  2   
 17   8  12  1   
 18   8  13  1   
 19   8  35  1   
 20   9  13  1   
 21   9  36  1   
 22   9  37  1   
 23  10  14  ar  
 24  10  15  ar  
 25  11  16  1   
 26  11  38  1   
 27  12  17  1   
 28  12  18  1   
 29  12  39  1   
 30  13  19  1   
 31  13  20  1   
 32  14  21  ar  
 33  14  22  1   
 34  15  16  1   
 35  15  23  ar  
 36  17  24  1   
 37  17  40  1   
 38  17  41  1   
 39  18  42  1   
 40  18  43  1   
 41  18  44  1   
 42  19  24  1   
 43  19  45  1   
 44  19  46  1   
 45  20  25  1   
 46  20  47  1   
 47  20  48  1   
 48  21  26  ar  
 49  21  49  1   
 50  22  50  1   
 51  22  51  1   
 52  22  52  1   
 53  23  26  ar  
 54  23  27  1   
 55  24  53  1   
 56  24  54  1   
 57  25  55  1   
 58  26  28  1   
 59  27  56  1   
 60  27  57  1   
 61  27  58  1   
 62  28  59  1   
 63  28  60  1   
 64  28  61  1   
@<TRIPOS>SUBSTRUCTURE
  1 ****   6 GROUP 4 **** **** 0

# MOE 2024.06 (io_trps.svl 2023.06)
