@<TRIPOS>MOLECULE
NONAME
49 50 1 0 0 
SMALL
USER_CHARGES


@<TRIPOS>ATOM
  1 O        1.8930     0.5390    -0.9110 O.3   1 <1>  -0.6800 
  2 C        2.1960    -0.6760    -1.5340 C.3   1 <1>   0.1200 
  3 C        3.5850    -1.1780    -1.0800 C.3   1 <1>   0.3430 
  4 N        3.8520    -0.7620     0.3300 N.4   1 <1>  -0.9590 
  5 C        5.2010    -0.2110     0.5340 C.3   1 <1>   0.4810 
  6 C        3.5290    -1.7990     1.3570 C.3   1 <1>   0.5240 
  7 C        5.0720     1.2950     0.4750 C.2   1 <1>  -0.2760 
  8 C        2.1680    -2.4540     1.1490 C.2   1 <1>   0.0460 
  9 C        4.9220     2.0470     1.5720 C.2   1 <1>  -0.2880 
 10 C        5.1360     1.8960    -0.9280 C.3   1 <1>  -0.0220 
 11 N        2.0050    -3.4370     0.2380 N.2   1 <1>  -0.5650 
 12 C        1.0060    -2.2010     1.7910 C.2   1 <1>  -0.3020 
 13 C        4.7600     3.5610     1.5550 C.3   1 <1>  -0.0220 
 14 C        5.3760     3.4120    -0.8810 C.3   1 <1>  -0.1600 
 15 C        0.7600    -3.7660     0.3500 C.2   1 <1>   0.0060 
 16 N        0.0940    -3.0480     1.2800 N.pl3 1 <1>   0.0330 
 17 C        4.4550     4.0940     0.1450 C.3   1 <1>   0.0580 
 18 C        0.0990    -4.8550    -0.4680 C.3   1 <1>  -0.0600 
 19 C        4.5520     5.6240     0.1120 C.2   1 <1>  -0.2760 
 20 C        5.5460     6.3270    -0.4440 C.2   1 <1>  -0.3000 
 21 C        3.3780     6.3280     0.7800 C.3   1 <1>  -0.1020 
 22 H        1.0210     0.8750    -1.2140 H     1 <1>   0.4000 
 23 H        1.4310    -1.3860    -1.2730 H     1 <1>   0.0800 
 24 H        2.1810    -0.5340    -2.6010 H     1 <1>   0.0800 
 25 H        4.3220    -0.7400    -1.7310 H     1 <1>   0.0800 
 26 H        3.6440    -2.2500    -1.1860 H     1 <1>   0.0800 
 27 H        3.1960     0.0320     0.4570 H     1 <1>   0.4500 
 28 H        5.5640    -0.4850     1.5110 H     1 <1>   0.0800 
 29 H        5.8950    -0.5740    -0.2060 H     1 <1>   0.0800 
 30 H        4.2740    -2.5760     1.3370 H     1 <1>   0.0800 
 31 H        3.5430    -1.3470     2.3350 H     1 <1>   0.0800 
 32 H        4.9020     1.6490     2.5740 H     1 <1>   0.1500 
 33 H        5.9360     1.4470    -1.4910 H     1 <1>   0.0800 
 34 H        4.2140     1.7070    -1.4460 H     1 <1>   0.0800 
 35 H        0.7750    -1.4930     2.5680 H     1 <1>   0.1500 
 36 H        5.6650     4.0140     1.9220 H     1 <1>   0.0800 
 37 H        3.9590     3.8380     2.2170 H     1 <1>   0.0800 
 38 H        5.2060     3.8310    -1.8570 H     1 <1>   0.0800 
 39 H        6.4010     3.5940    -0.6100 H     1 <1>   0.0800 
 40 H       -0.8930    -3.1460     1.5420 H     1 <1>   0.2700 
 41 H        3.4450     3.8190    -0.1100 H     1 <1>   0.0800 
 42 H        0.8140    -5.2970    -1.1390 H     1 <1>   0.0800 
 43 H       -0.7100    -4.4470    -1.0470 H     1 <1>   0.0800 
 44 H       -0.2810    -5.6250     0.1790 H     1 <1>   0.0800 
 45 H        6.4060     5.9080    -0.9330 H     1 <1>   0.1500 
 46 H        5.5840     7.4020    -0.4550 H     1 <1>   0.1500 
 47 H        2.4530     6.0330     0.3170 H     1 <1>   0.0800 
 48 H        3.4730     7.3950     0.6860 H     1 <1>   0.0800 
 49 H        3.3360     6.0900     1.8270 H     1 <1>   0.0800 
@<TRIPOS>BOND
  1   1   2  1   
  2   1  22  1   
  3   2   3  1   
  4   2  23  1   
  5   2  24  1   
  6   3   4  1   
  7   3  25  1   
  8   3  26  1   
  9   4   5  1   
 10   4   6  1   
 11   4  27  1   
 12   5   7  1   
 13   5  28  1   
 14   5  29  1   
 15   6   8  1   
 16   6  30  1   
 17   6  31  1   
 18   7   9  2   
 19   7  10  1   
 20   8  11  1   
 21   8  12  2   
 22   9  13  1   
 23   9  32  1   
 24  10  14  1   
 25  10  33  1   
 26  10  34  1   
 27  11  15  2   
 28  12  16  1   
 29  12  35  1   
 30  13  17  1   
 31  13  36  1   
 32  13  37  1   
 33  14  17  1   
 34  14  38  1   
 35  14  39  1   
 36  15  16  1   
 37  15  18  1   
 38  16  40  1   
 39  17  19  1   
 40  17  41  1   
 41  18  42  1   
 42  18  43  1   
 43  18  44  1   
 44  19  20  2   
 45  19  21  1   
 46  20  45  1   
 47  20  46  1   
 48  21  47  1   
 49  21  48  1   
 50  21  49  1   
@<TRIPOS>SUBSTRUCTURE
  1 ****   4 GROUP 4 **** **** 0

# MOE 2024.06 (io_trps.svl 2023.06)
