@<TRIPOS>MOLECULE
NONAME
39 40 1 0 0 
SMALL
USER_CHARGES


@<TRIPOS>ATOM
  1 O        3.9690     2.3980     1.2170 O.2   1 <1>  -0.5700 
  2 C        3.3850     1.3600     1.0190 C.2   1 <1>   0.5690 
  3 N        2.7500     1.0220    -0.1250 N.am  1 <1>  -0.6600 
  4 C        3.2800     0.2600     2.0380 C.3   1 <1>  -0.0990 
  5 C        2.1210    -0.3070    -0.0560 C.3   1 <1>   0.1400 
  6 C        2.5340     1.9090    -1.2950 C.3   1 <1>   0.1400 
  7 C        2.6620    -0.9070     1.2490 C.3   1 <1>  -0.1600 
  8 C        3.8650     2.2280    -1.9850 C.3   1 <1>  -0.0990 
  9 C        4.1190     3.7180    -2.0030 C.2   1 <1>   0.5690 
 10 O        4.0180     4.2940    -3.0600 O.2   1 <1>  -0.5700 
 11 N        4.4350     4.3340    -0.8320 N.am  1 <1>  -0.4930 
 12 C        4.7120     5.7040    -0.5890 C.2   1 <1>   0.0630 
 13 C        5.0820     6.2590     0.5870 C.2   1 <1>  -0.3320 
 14 C        4.6600     6.7750    -1.4830 C.2   1 <1>   0.1390 
 15 N        5.2260     7.5900     0.3600 N.pl3 1 <1>   0.3140 
 16 C        5.3120     5.5920     1.9360 C.3   1 <1>  -0.0600 
 17 N        4.9630     7.9070    -0.9210 N.2   1 <1>  -0.7070 
 18 C        5.6110     8.6340     1.3330 C.3   1 <1>   0.0960 
 19 C        7.1340     8.8050     1.3910 C.3   1 <1>  -0.2400 
 20 H        2.6310     0.5810     2.8320 H     1 <1>   0.0800 
 21 H        4.2500     0.0120     2.4290 H     1 <1>   0.0800 
 22 H        2.3960    -0.9050    -0.9080 H     1 <1>   0.0800 
 23 H        1.0500    -0.1960    -0.0140 H     1 <1>   0.0800 
 24 H        2.0570     2.8150    -0.9580 H     1 <1>   0.0800 
 25 H        1.8710     1.4290    -1.9940 H     1 <1>   0.0800 
 26 H        1.8840    -1.4010     1.8050 H     1 <1>   0.0800 
 27 H        3.4250    -1.6280     1.0100 H     1 <1>   0.0800 
 28 H        3.8260     1.8780    -3.0000 H     1 <1>   0.0800 
 29 H        4.6890     1.7380    -1.5000 H     1 <1>   0.0800 
 30 H        4.4180     3.7390     0.0100 H     1 <1>   0.3700 
 31 H        4.3960     6.6800    -2.5220 H     1 <1>   0.1500 
 32 H        5.2510     4.5240     1.8470 H     1 <1>   0.0800 
 33 H        4.5690     5.9160     2.6410 H     1 <1>   0.0800 
 34 H        6.2880     5.8380     2.3130 H     1 <1>   0.0800 
 35 H        5.2250     8.3670     2.2990 H     1 <1>   0.0800 
 36 H        5.1520     9.5570     1.0270 H     1 <1>   0.0800 
 37 H        7.6050     7.8880     1.6950 H     1 <1>   0.0800 
 38 H        7.3900     9.5750     2.0960 H     1 <1>   0.0800 
 39 H        7.5060     9.0900     0.4220 H     1 <1>   0.0800 
@<TRIPOS>BOND
  1   1   2  2   
  2   2   3  am  
  3   2   4  1   
  4   3   5  1   
  5   3   6  1   
  6   4   7  1   
  7   4  20  1   
  8   4  21  1   
  9   5   7  1   
 10   5  22  1   
 11   5  23  1   
 12   6   8  1   
 13   6  24  1   
 14   6  25  1   
 15   7  26  1   
 16   7  27  1   
 17   8   9  1   
 18   8  28  1   
 19   8  29  1   
 20   9  10  2   
 21   9  11  am  
 22  11  12  1   
 23  11  30  1   
 24  12  13  2   
 25  12  14  1   
 26  13  15  1   
 27  13  16  1   
 28  14  17  2   
 29  14  31  1   
 30  15  17  1   
 31  15  18  1   
 32  16  32  1   
 33  16  33  1   
 34  16  34  1   
 35  18  19  1   
 36  18  35  1   
 37  18  36  1   
 38  19  37  1   
 39  19  38  1   
 40  19  39  1   
@<TRIPOS>SUBSTRUCTURE
  1 ****  11 GROUP 4 **** **** 0

# MOE 2024.06 (io_trps.svl 2023.06)
