@<TRIPOS>MOLECULE
NONAME
38 39 1 0 0 
SMALL
USER_CHARGES


@<TRIPOS>ATOM
  1 O       -0.8670     0.7520    -0.8120 O.2   1 <1>  -0.5700 
  2 C       -0.4390     1.8740    -0.6850 C.2   1 <1>   0.5690 
  3 N       -0.8720     2.7200     0.3060 N.am  1 <1>  -0.6600 
  4 C        0.5960     2.3380    -1.6980 C.3   1 <1>  -0.0990 
  5 C       -0.2910     4.0720     0.5490 C.3   1 <1>   0.1400 
  6 C       -1.8890     2.2770     1.2960 C.3   1 <1>   0.1400 
  7 C        1.3610     3.6060    -1.2860 C.3   1 <1>  -0.1600 
  8 C        0.3850     4.6430    -0.7070 C.3   1 <1>  -0.0190 
  9 C       -1.2020     1.8650     2.5950 C.3   1 <1>  -0.2400 
 10 C        1.0910     5.9590    -0.3970 C.2   1 <1>   0.5690 
 11 O        1.5510     6.1410     0.7020 O.2   1 <1>  -0.5700 
 12 N        1.1850     6.8850    -1.3890 N.am  1 <1>  -0.4930 
 13 C        1.7670     8.1640    -1.4230 C.2   1 <1>   0.3520 
 14 N        1.7680     8.8120    -2.5210 N.2   1 <1>  -0.4100 
 15 C        2.3920     8.9580    -0.4440 C.2   1 <1>   0.3520 
 16 O        2.3600     9.9300    -2.2280 O.3   1 <1>   0.2420 
 17 N        2.7460    10.0540    -0.9960 N.2   1 <1>  -0.4100 
 18 N        2.6080     8.6470     0.9110 N.am  1 <1>  -0.4930 
 19 C        3.1380     9.3420     1.9470 C.2   1 <1>   0.5690 
 20 O        3.2050     8.8280     3.0340 O.2   1 <1>  -0.5700 
 21 C        3.6510    10.7550     1.7930 C.3   1 <1>  -0.1790 
 22 H        0.0780     2.5160    -2.6220 H     1 <1>   0.0800 
 23 H        1.2930     1.5370    -1.8660 H     1 <1>   0.0800 
 24 H        0.4310     3.9880     1.3440 H     1 <1>   0.0800 
 25 H       -1.0660     4.7450     0.8730 H     1 <1>   0.0800 
 26 H       -2.4430     1.4400     0.9040 H     1 <1>   0.0800 
 27 H       -2.5890     3.0750     1.4800 H     1 <1>   0.0800 
 28 H        1.8820     4.0050    -2.1390 H     1 <1>   0.0800 
 29 H        2.0920     3.3520    -0.5370 H     1 <1>   0.0800 
 30 H       -0.3870     4.8430    -1.4290 H     1 <1>   0.0800 
 31 H       -0.4970     1.0760     2.4020 H     1 <1>   0.0800 
 32 H       -1.9360     1.5010     3.2910 H     1 <1>   0.0800 
 33 H       -0.6940     2.7000     3.0440 H     1 <1>   0.0800 
 34 H        0.7910     6.6270    -2.2930 H     1 <1>   0.3700 
 35 H        2.3090     7.7010     1.1820 H     1 <1>   0.3700 
 36 H        4.4600    10.7750     1.0870 H     1 <1>   0.0800 
 37 H        4.0090    11.1180     2.7390 H     1 <1>   0.0800 
 38 H        2.8600    11.3970     1.4540 H     1 <1>   0.0800 
@<TRIPOS>BOND
  1   1   2  2   
  2   2   3  am  
  3   2   4  1   
  4   3   5  1   
  5   3   6  1   
  6   4   7  1   
  7   4  22  1   
  8   4  23  1   
  9   5   8  1   
 10   5  24  1   
 11   5  25  1   
 12   6   9  1   
 13   6  26  1   
 14   6  27  1   
 15   7   8  1   
 16   7  28  1   
 17   7  29  1   
 18   8  10  1   
 19   8  30  1   
 20   9  31  1   
 21   9  32  1   
 22   9  33  1   
 23  10  11  2   
 24  10  12  am  
 25  12  13  1   
 26  12  34  1   
 27  13  14  2   
 28  13  15  1   
 29  14  16  1   
 30  15  17  2   
 31  15  18  1   
 32  16  17  1   
 33  18  19  am  
 34  18  35  1   
 35  19  20  2   
 36  19  21  1   
 37  21  36  1   
 38  21  37  1   
 39  21  38  1   
@<TRIPOS>SUBSTRUCTURE
  1 ****  10 GROUP 4 **** **** 0

# MOE 2024.06 (io_trps.svl 2023.06)
