@<TRIPOS>MOLECULE
NONAME
43 45 1 0 0 
SMALL
USER_CHARGES


@<TRIPOS>ATOM
  1 CL       1.5150     1.0480    -3.0470 Cl    1 <1>  -0.1770 
  2 C        2.5120     1.6270    -1.7350 C.ar  1 <1>   0.1770 
  3 C        3.5070     0.8360    -1.1710 C.ar  1 <1>  -0.1790 
  4 C        2.2950     2.9210    -1.3010 C.ar  1 <1>  -0.1500 
  5 C        3.8480    -0.4850    -1.6380 C.2   1 <1>   0.9790 
  6 C        4.2510     1.3940    -0.1340 C.ar  1 <1>  -0.1500 
  7 C        3.0920     3.4610    -0.3060 C.ar  1 <1>  -0.1500 
  8 O        5.0470    -0.7250    -1.8710 O.co2 1 <1>  -0.9000 
  9 O        3.0040    -1.3860    -1.7470 O.co2 1 <1>  -0.9000 
 10 C        4.1020     2.7080     0.2850 C.ar  1 <1>  -0.0090 
 11 S        5.2410     3.4340     1.5010 S.o2  1 <1>   1.4470 
 12 O        4.7170     4.7130     1.9290 O.2   1 <1>  -0.6500 
 13 O        5.6720     2.4750     2.4920 O.2   1 <1>  -0.6500 
 14 N        6.6340     3.8160     0.5980 N.am  1 <1>  -0.8490 
 15 C        7.5320     4.6920     1.3870 C.3   1 <1>   0.1960 
 16 C        7.3620     2.6140     0.1400 C.3   1 <1>   0.1960 
 17 C        8.6790     5.3800     0.5880 C.3   1 <1>   0.4230 
 18 C        8.4230     2.9320    -0.9310 C.3   1 <1>  -0.0800 
 19 N        8.4310     5.5220    -0.9050 N.4   1 <1>  -0.9590 
 20 C       10.0540     4.7460     0.8860 C.3   1 <1>   0.1200 
 21 C        9.8700     2.7850    -0.4380 C.3   1 <1>   0.1200 
 22 C        8.1400     4.2500    -1.6630 C.3   1 <1>   0.3430 
 23 C        7.2990     6.4720    -1.1350 C.3   1 <1>   0.2630 
 24 O       10.0330     3.3560     0.8170 O.3   1 <1>  -0.5600 
 25 H        1.5110     3.5010    -1.7540 H     1 <1>   0.1500 
 26 H        4.9900     0.7610     0.3340 H     1 <1>   0.1500 
 27 H        2.9290     4.4770     0.0110 H     1 <1>   0.1500 
 28 H        6.9550     5.4900     1.8190 H     1 <1>   0.0800 
 29 H        7.9410     4.1380     2.2170 H     1 <1>   0.0800 
 30 H        7.7990     2.0920     0.9780 H     1 <1>   0.0800 
 31 H        6.6700     1.9350    -0.3210 H     1 <1>   0.0800 
 32 H        8.7520     6.3780     0.9860 H     1 <1>   0.0800 
 33 H        8.3100     2.1660    -1.6790 H     1 <1>   0.0800 
 34 H        9.2810     5.9320    -1.3130 H     1 <1>   0.4500 
 35 H       10.3340     4.9890     1.8960 H     1 <1>   0.0800 
 36 H       10.8190     5.1220     0.2300 H     1 <1>   0.0800 
 37 H       10.5820     3.2110    -1.1240 H     1 <1>   0.0800 
 38 H       10.1000     1.7380    -0.3260 H     1 <1>   0.0800 
 39 H        7.0960     4.2360    -1.9340 H     1 <1>   0.0800 
 40 H        8.7020     4.2570    -2.5830 H     1 <1>   0.0800 
 41 H        6.3870     6.0650    -0.7250 H     1 <1>   0.0800 
 42 H        7.1550     6.6380    -2.1910 H     1 <1>   0.0800 
 43 H        7.4970     7.4200    -0.6610 H     1 <1>   0.0800 
@<TRIPOS>BOND
  1   1   2  1   
  2   2   3  ar  
  3   2   4  ar  
  4   3   5  1   
  5   3   6  ar  
  6   4   7  ar  
  7   4  25  1   
  8   5   8  ar  
  9   5   9  ar  
 10   6  10  ar  
 11   6  26  1   
 12   7  10  ar  
 13   7  27  1   
 14  10  11  1   
 15  11  12  2   
 16  11  13  2   
 17  11  14  am  
 18  14  15  1   
 19  14  16  1   
 20  15  17  1   
 21  15  28  1   
 22  15  29  1   
 23  16  18  1   
 24  16  30  1   
 25  16  31  1   
 26  17  19  1   
 27  17  20  1   
 28  17  32  1   
 29  18  21  1   
 30  18  22  1   
 31  18  33  1   
 32  19  22  1   
 33  19  23  1   
 34  19  34  1   
 35  20  24  1   
 36  20  35  1   
 37  20  36  1   
 38  21  24  1   
 39  21  37  1   
 40  21  38  1   
 41  22  39  1   
 42  22  40  1   
 43  23  41  1   
 44  23  42  1   
 45  23  43  1   
@<TRIPOS>SUBSTRUCTURE
  1 ****  14 GROUP 4 **** **** 0

# MOE 2024.06 (io_trps.svl 2023.06)
