@<TRIPOS>MOLECULE
NONAME
50 53 1 0 0 
SMALL
USER_CHARGES


@<TRIPOS>ATOM
  1 O        0.4130    -0.0080    -1.7650 O.3   1 <1>  -0.0190 
  2 N        0.7210     1.2350    -1.5520 N.2   1 <1>  -0.4100 
  3 C        1.2280    -0.8260    -1.1570 C.2   1 <1>  -0.0400 
  4 C        1.7690     1.2370    -0.7840 C.2   1 <1>   0.2350 
  5 C        2.1320    -0.0870    -0.5030 C.2   1 <1>  -0.1500 
  6 C        1.0370    -2.3270    -1.2830 C.3   1 <1>   0.2900 
  7 C        2.4450     2.4250    -0.2960 C.ar  1 <1>   0.0540 
  8 N        0.1040    -2.8340    -0.2640 N.3   1 <1>  -0.8100 
  9 C        1.7930     3.6560    -0.2600 C.ar  1 <1>  -0.1500 
 10 C        3.7650     2.3910     0.1560 C.ar  1 <1>  -0.1500 
 11 C       -1.2460    -2.2520    -0.3620 C.3   1 <1>   0.1100 
 12 C       -0.0720    -4.2970    -0.3290 C.3   1 <1>   0.1100 
 13 C        2.4200     4.7960     0.2100 C.ar  1 <1>  -0.1500 
 14 C        4.3970     3.5270     0.6270 C.ar  1 <1>  -0.1500 
 15 C       -2.1280    -3.2370     0.3930 C.3   1 <1>   0.2000 
 16 C       -1.5600    -4.5770    -0.0690 C.3   1 <1>  -0.0800 
 17 C        3.7280     4.7380     0.6590 C.ar  1 <1>  -0.1430 
 18 O       -1.8690    -3.0620     1.7400 O.3   1 <1>  -0.6800 
 19 C       -1.8150    -5.7720     0.8680 C.3   1 <1>   0.0210 
 20 C        4.4200     5.9870     1.1740 C.3   1 <1>  -0.0970 
 21 C       -1.1920    -7.0440     0.3200 C.2   1 <1>   0.1080 
 22 N       -1.4380    -7.5030    -0.8690 N.2   1 <1>  -0.7070 
 23 C       -0.2970    -7.8490     1.0170 C.2   1 <1>  -0.1500 
 24 N       -0.7040    -8.6270    -0.9590 N.pl3 1 <1>   0.3000 
 25 C       -0.0010    -8.8570     0.1710 C.2   1 <1>  -0.3320 
 26 C        0.9210   -10.0450     0.3750 C.3   1 <1>  -0.0600 
 27 H        2.9500    -0.4100     0.1110 H     1 <1>   0.1500 
 28 H        1.9900    -2.8070    -1.1440 H     1 <1>   0.0800 
 29 H        0.6790    -2.5640    -2.2710 H     1 <1>   0.0800 
 30 H        0.7760     3.7200    -0.6050 H     1 <1>   0.1500 
 31 H        4.3120     1.4670     0.1350 H     1 <1>   0.1500 
 32 H       -1.2870    -1.2650     0.0690 H     1 <1>   0.0800 
 33 H       -1.5570    -2.2060    -1.3920 H     1 <1>   0.0800 
 34 H        0.2050    -4.6910    -1.2940 H     1 <1>   0.0800 
 35 H        0.5460    -4.7590     0.4230 H     1 <1>   0.0800 
 36 H        1.8850     5.7290     0.2220 H     1 <1>   0.1500 
 37 H        5.4160     3.4660     0.9670 H     1 <1>   0.1500 
 38 H       -3.1830    -3.1180     0.2120 H     1 <1>   0.0800 
 39 H       -2.0080    -4.8070    -1.0200 H     1 <1>   0.0800 
 40 H       -0.9010    -2.9110     1.8080 H     1 <1>   0.4000 
 41 H       -2.8730    -5.9240     0.9730 H     1 <1>   0.0800 
 42 H       -1.4080    -5.5770     1.8430 H     1 <1>   0.0800 
 43 H        3.7060     6.6540     1.6220 H     1 <1>   0.0800 
 44 H        4.9060     6.4950     0.3600 H     1 <1>   0.0800 
 45 H        5.1560     5.7320     1.9150 H     1 <1>   0.0800 
 46 H        0.0610    -7.6790     2.0170 H     1 <1>   0.1500 
 47 H       -0.7060    -9.2160    -1.8000 H     1 <1>   0.2700 
 48 H        1.3630   -10.0050     1.3550 H     1 <1>   0.0800 
 49 H        1.7090   -10.0360    -0.3560 H     1 <1>   0.0800 
 50 H        0.3690   -10.9630     0.2870 H     1 <1>   0.0800 
@<TRIPOS>BOND
  1   1   2  1   
  2   1   3  1   
  3   2   4  2   
  4   3   5  2   
  5   3   6  1   
  6   4   5  1   
  7   4   7  1   
  8   5  27  1   
  9   6   8  1   
 10   6  28  1   
 11   6  29  1   
 12   7   9  ar  
 13   7  10  ar  
 14   8  11  1   
 15   8  12  1   
 16   9  13  ar  
 17   9  30  1   
 18  10  14  ar  
 19  10  31  1   
 20  11  15  1   
 21  11  32  1   
 22  11  33  1   
 23  12  16  1   
 24  12  34  1   
 25  12  35  1   
 26  13  17  ar  
 27  13  36  1   
 28  14  17  ar  
 29  14  37  1   
 30  15  16  1   
 31  15  18  1   
 32  15  38  1   
 33  16  19  1   
 34  16  39  1   
 35  17  20  1   
 36  18  40  1   
 37  19  21  1   
 38  19  41  1   
 39  19  42  1   
 40  20  43  1   
 41  20  44  1   
 42  20  45  1   
 43  21  22  2   
 44  21  23  1   
 45  22  24  1   
 46  23  25  2   
 47  23  46  1   
 48  24  25  1   
 49  24  47  1   
 50  25  26  1   
 51  26  48  1   
 52  26  49  1   
 53  26  50  1   
@<TRIPOS>SUBSTRUCTURE
  1 ****   8 GROUP 4 **** **** 0

# MOE 2024.06 (io_trps.svl 2023.06)
