@<TRIPOS>MOLECULE
NONAME
49 51 1 0 0 
SMALL
USER_CHARGES


@<TRIPOS>ATOM
  1 O        1.6290    -0.2170     2.0830 O.2   1 <1>  -0.5700 
  2 C        1.9390    -0.5150     0.9430 C.2   1 <1>   0.5440 
  3 N        2.0840     0.4900     0.0040 N.am  1 <1>  -0.6600 
  4 C        2.1380    -1.9130     0.6110 C.ar  1 <1>   0.0860 
  5 C        2.4610     0.2180    -1.4240 C.3   1 <1>   0.1400 
  6 C        1.9000     1.9160     0.3900 C.3   1 <1>   0.1400 
  7 C        1.0720    -2.8120     0.4690 C.ar  1 <1>  -0.1440 
  8 C        3.4300    -2.3990     0.4180 C.ar  1 <1>  -0.1500 
  9 C        3.4660     1.2200    -2.0190 C.3   1 <1>   0.1400 
 10 C        3.2300     2.5090     0.8710 C.3   1 <1>  -0.1600 
 11 C        1.3080    -4.1370     0.1420 C.ar  1 <1>  -0.1500 
 12 C       -0.3600    -2.3370     0.6790 C.3   1 <1>  -0.0960 
 13 C        3.6640    -3.7190     0.0890 C.ar  1 <1>  -0.1500 
 14 N        4.5400     1.6020    -1.0550 N.am  1 <1>  -0.6600 
 15 C        4.2360     2.8130    -0.2440 C.3   1 <1>   0.1400 
 16 C        2.6070    -4.6010    -0.0520 C.ar  1 <1>   0.0820 
 17 C        5.6400     0.7810    -0.8580 C.2   1 <1>   0.7160 
 18 O        2.9130    -5.8780    -0.3750 O.3   1 <1>  -0.3630 
 19 O        5.6100    -0.3300    -1.3650 O.2   1 <1>  -0.5700 
 20 C        6.8110     1.1630    -0.0760 C.2   1 <1>   0.1410 
 21 C        1.9180    -6.8660    -0.5250 C.3   1 <1>   0.0400 
 22 N        7.3970     2.4050    -0.0880 N.2   1 <1>  -0.5650 
 23 C        7.5470     0.3880     0.7600 C.2   1 <1>  -0.0400 
 24 C        8.3910     2.2840     0.7100 C.2   1 <1>   0.3280 
 25 O        8.5200     1.0980     1.2450 O.3   1 <1>  -0.2800 
 26 C        7.4350    -1.0620     1.1890 C.3   1 <1>  -0.0600 
 27 H        1.5690     0.2210    -2.0250 H     1 <1>   0.0800 
 28 H        2.8960    -0.7600    -1.5150 H     1 <1>   0.0800 
 29 H        1.1800     1.9770     1.1880 H     1 <1>   0.0800 
 30 H        1.5080     2.4790    -0.4390 H     1 <1>   0.0800 
 31 H        4.2560    -1.7200     0.5240 H     1 <1>   0.1500 
 32 H        2.9410     2.1020    -2.3420 H     1 <1>   0.0800 
 33 H        3.9130     0.7830    -2.8960 H     1 <1>   0.0800 
 34 H        3.6750     1.8500     1.5960 H     1 <1>   0.0800 
 35 H        3.0170     3.4330     1.3780 H     1 <1>   0.0800 
 36 H        0.4750    -4.8050     0.0410 H     1 <1>   0.1500 
 37 H       -0.5780    -1.5150     0.0200 H     1 <1>   0.0800 
 38 H       -0.4890    -2.0060     1.6950 H     1 <1>   0.0800 
 39 H       -1.0660    -3.1240     0.4860 H     1 <1>   0.0800 
 40 H        4.6670    -4.0750    -0.0630 H     1 <1>   0.1500 
 41 H        5.1270     3.2120     0.2020 H     1 <1>   0.0800 
 42 H        3.8410     3.5780    -0.8900 H     1 <1>   0.0800 
 43 H        2.4030    -7.7920    -0.7730 H     1 <1>   0.0800 
 44 H        1.2550    -6.5760    -1.3200 H     1 <1>   0.0800 
 45 H        1.3860    -6.9680     0.4040 H     1 <1>   0.0800 
 46 H        9.1040     3.0480     0.9690 H     1 <1>   0.1500 
 47 H        6.6180    -1.5490     0.6910 H     1 <1>   0.0800 
 48 H        7.2780    -1.1170     2.2500 H     1 <1>   0.0800 
 49 H        8.3430    -1.5820     0.9440 H     1 <1>   0.0800 
@<TRIPOS>BOND
  1   1   2  2   
  2   2   3  am  
  3   2   4  1   
  4   3   5  1   
  5   3   6  1   
  6   4   7  ar  
  7   4   8  ar  
  8   5   9  1   
  9   5  27  1   
 10   5  28  1   
 11   6  10  1   
 12   6  29  1   
 13   6  30  1   
 14   7  11  ar  
 15   7  12  1   
 16   8  13  ar  
 17   8  31  1   
 18   9  14  1   
 19   9  32  1   
 20   9  33  1   
 21  10  15  1   
 22  10  34  1   
 23  10  35  1   
 24  11  16  ar  
 25  11  36  1   
 26  12  37  1   
 27  12  38  1   
 28  12  39  1   
 29  13  16  ar  
 30  13  40  1   
 31  14  15  1   
 32  14  17  am  
 33  15  41  1   
 34  15  42  1   
 35  16  18  1   
 36  17  19  2   
 37  17  20  1   
 38  18  21  1   
 39  20  22  1   
 40  20  23  2   
 41  21  43  1   
 42  21  44  1   
 43  21  45  1   
 44  22  24  2   
 45  23  25  1   
 46  23  26  1   
 47  24  25  1   
 48  24  46  1   
 49  26  47  1   
 50  26  48  1   
 51  26  49  1   
@<TRIPOS>SUBSTRUCTURE
  1 ****   8 GROUP 4 **** **** 0

# MOE 2024.06 (io_trps.svl 2023.06)
