@<TRIPOS>MOLECULE
NONAME
51 53 1 0 0 
SMALL
USER_CHARGES


@<TRIPOS>ATOM
  1 O        0.7050    -0.4780     2.3630 O.2   1 <1>  -0.5700 
  2 C        1.6140    -1.1910     1.9920 C.2   1 <1>   0.5440 
  3 N        2.9170    -0.7560     2.1320 N.am  1 <1>  -0.6600 
  4 C        1.3020    -2.4750     1.4190 C.ar  1 <1>   0.0860 
  5 C        4.1160    -1.5590     1.7280 C.3   1 <1>   0.1400 
  6 C        3.2440     0.5680     2.7300 C.3   1 <1>   0.1400 
  7 C        1.1790    -2.7050     0.0570 C.ar  1 <1>   0.1660 
  8 C        1.1050    -3.5710     2.2350 C.ar  1 <1>   0.1600 
  9 C        4.9900    -0.7630     0.7510 C.3   1 <1>   0.2000 
 10 C        4.0520     1.3910     1.7250 C.3   1 <1>  -0.1600 
 11 N        0.9140    -3.9000    -0.4310 N.ar  1 <1>  -0.6200 
 12 C        1.3390    -1.5810    -0.9610 C.3   1 <1>  -0.0160 
 13 N        0.8400    -4.7760     1.7770 N.ar  1 <1>  -0.6200 
 14 O        6.1610    -1.4780     0.5430 O.3   1 <1>  -0.6800 
 15 C        5.3190     0.6470     1.2920 C.3   1 <1>   0.2200 
 16 C        0.7600    -4.8670     0.4600 C.ar  1 <1>   0.4700 
 17 C        0.0050    -0.8620    -1.2040 C.3   1 <1>  -0.1600 
 18 N        6.0190     1.4750     0.2760 N.am  1 <1>  -0.7300 
 19 C        0.1540     0.2710    -2.2250 C.3   1 <1>  -0.2400 
 20 C        7.3480     1.4070    -0.0290 C.2   1 <1>   0.5440 
 21 O        8.0020     0.5230     0.4880 O.2   1 <1>  -0.5700 
 22 C        7.9480     2.3360    -0.9700 C.ar  1 <1>   0.0860 
 23 C        9.0480     1.9620    -1.7420 C.ar  1 <1>  -0.1500 
 24 C        7.4550     3.6320    -1.1460 C.ar  1 <1>  -0.1500 
 25 C        9.6220     2.8280    -2.6550 C.ar  1 <1>  -0.1500 
 26 C        8.0230     4.5030    -2.0570 C.ar  1 <1>  -0.1500 
 27 C        9.1070     4.1020    -2.8160 C.ar  1 <1>  -0.1500 
 28 H        4.6900    -1.7870     2.6100 H     1 <1>   0.0800 
 29 H        3.8290    -2.4840     1.2620 H     1 <1>   0.0800 
 30 H        2.3470     1.1040     2.9940 H     1 <1>   0.0800 
 31 H        3.8140     0.4170     3.6310 H     1 <1>   0.0800 
 32 H        1.1710    -3.4420     3.3020 H     1 <1>   0.1500 
 33 H        4.4860    -0.6820    -0.1950 H     1 <1>   0.0800 
 34 H        4.3230     2.3260     2.1820 H     1 <1>   0.0800 
 35 H        3.4270     1.5950     0.8730 H     1 <1>   0.0800 
 36 H        2.0730    -0.8730    -0.6230 H     1 <1>   0.0800 
 37 H        1.6960    -1.9960    -1.8870 H     1 <1>   0.0800 
 38 H        6.9170    -0.8390     0.4390 H     1 <1>   0.4000 
 39 H        5.9570     0.5360     2.1540 H     1 <1>   0.0800 
 40 H        0.5410    -5.8450     0.0640 H     1 <1>   0.1500 
 41 H       -0.7200    -1.5730    -1.5610 H     1 <1>   0.0800 
 42 H       -0.3600    -0.4570    -0.2750 H     1 <1>   0.0800 
 43 H        5.4220     2.0940    -0.2730 H     1 <1>   0.3700 
 44 H        0.4990    -0.1140    -3.1680 H     1 <1>   0.0800 
 45 H        0.8520     1.0090    -1.8710 H     1 <1>   0.0800 
 46 H       -0.7970     0.7500    -2.3800 H     1 <1>   0.0800 
 47 H        9.4580     0.9730    -1.6210 H     1 <1>   0.1500 
 48 H        6.6210     3.9690    -0.5560 H     1 <1>   0.1500 
 49 H       10.4690     2.5120    -3.2390 H     1 <1>   0.1500 
 50 H        7.6260     5.4970    -2.1770 H     1 <1>   0.1500 
 51 H        9.5520     4.7780    -3.5260 H     1 <1>   0.1500 
@<TRIPOS>BOND
  1   1   2  2   
  2   2   3  am  
  3   2   4  1   
  4   3   5  1   
  5   3   6  1   
  6   4   7  ar  
  7   4   8  ar  
  8   5   9  1   
  9   5  28  1   
 10   5  29  1   
 11   6  10  1   
 12   6  30  1   
 13   6  31  1   
 14   7  11  ar  
 15   7  12  1   
 16   8  13  ar  
 17   8  32  1   
 18   9  14  1   
 19   9  15  1   
 20   9  33  1   
 21  10  15  1   
 22  10  34  1   
 23  10  35  1   
 24  11  16  ar  
 25  12  17  1   
 26  12  36  1   
 27  12  37  1   
 28  13  16  ar  
 29  14  38  1   
 30  15  18  1   
 31  15  39  1   
 32  16  40  1   
 33  17  19  1   
 34  17  41  1   
 35  17  42  1   
 36  18  20  am  
 37  18  43  1   
 38  19  44  1   
 39  19  45  1   
 40  19  46  1   
 41  20  21  2   
 42  20  22  1   
 43  22  23  ar  
 44  22  24  ar  
 45  23  25  ar  
 46  23  47  1   
 47  24  26  ar  
 48  24  48  1   
 49  25  27  ar  
 50  25  49  1   
 51  26  27  ar  
 52  26  50  1   
 53  27  51  1   
@<TRIPOS>SUBSTRUCTURE
  1 ****   9 GROUP 4 **** **** 0

# MOE 2024.06 (io_trps.svl 2023.06)
