@<TRIPOS>MOLECULE
NONAME
39 42 1 0 0 
SMALL
USER_CHARGES


@<TRIPOS>ATOM
  1 S       -0.6330     0.5620     1.6920 S.3   1 <1>  -0.0800 
  2 C       -0.2760     1.8860     0.6030 C.2   1 <1>  -0.1400 
  3 C        0.9070     0.7930     2.5070 C.2   1 <1>  -0.1100 
  4 C        0.9220     2.4300     0.8520 C.2   1 <1>  -0.1810 
  5 C       -1.2300     2.3340    -0.4700 C.3   1 <1>   0.0200 
  6 C        1.6010     1.8060     1.9520 C.2   1 <1>  -0.1500 
  7 C        1.4490     3.5940     0.0100 C.3   1 <1>   0.4610 
  8 C       -0.7980     3.7440    -0.9030 C.3   1 <1>   0.1200 
  9 O        0.5950     3.8130    -1.1000 O.3   1 <1>  -0.5600 
 10 C        2.8240     3.2510    -0.5750 C.3   1 <1>  -0.1600 
 11 C        1.5340     4.8840     0.8380 C.3   1 <1>  -0.1600 
 12 C        3.4040     4.4180    -1.3730 C.3   1 <1>   0.1400 
 13 C        2.1240     6.0420     0.0310 C.3   1 <1>   0.1400 
 14 N        3.4450     5.6340    -0.5150 N.am  1 <1>  -0.6600 
 15 C        4.6400     6.2010    -0.1190 C.2   1 <1>   0.7160 
 16 O        5.6480     5.5160    -0.1540 O.2   1 <1>  -0.5700 
 17 C        4.7250     7.5730     0.3420 C.2   1 <1>  -0.0860 
 18 C        3.9860     8.6780    -0.0080 C.2   1 <1>  -0.3020 
 19 C        5.6640     8.0500     1.2790 C.2   1 <1>  -0.1500 
 20 N        4.4180     9.7700     0.6640 N.pl3 1 <1>   0.0330 
 21 C        5.4490     9.3780     1.4550 C.2   1 <1>  -0.3020 
 22 H        1.1320     0.1350     3.3280 H     1 <1>   0.1500 
 23 H       -2.2360     2.3600    -0.0930 H     1 <1>   0.0800 
 24 H       -1.1880     1.6580    -1.3050 H     1 <1>   0.0800 
 25 H        2.5710     2.1410     2.2730 H     1 <1>   0.1500 
 26 H       -1.0720     4.4660    -0.1540 H     1 <1>   0.0800 
 27 H       -1.2750     4.0110    -1.8290 H     1 <1>   0.0800 
 28 H        2.7340     2.3840    -1.2040 H     1 <1>   0.0800 
 29 H        3.5100     3.0100     0.2160 H     1 <1>   0.0800 
 30 H        2.1640     4.7100     1.6910 H     1 <1>   0.0800 
 31 H        0.5640     5.1490     1.2120 H     1 <1>   0.0800 
 32 H        2.7880     4.6170    -2.2340 H     1 <1>   0.0800 
 33 H        4.3910     4.1670    -1.7240 H     1 <1>   0.0800 
 34 H        2.2220     6.8990     0.6740 H     1 <1>   0.0800 
 35 H        1.4700     6.2990    -0.7840 H     1 <1>   0.0800 
 36 H        3.1790     8.7220    -0.7170 H     1 <1>   0.1500 
 37 H        6.4100     7.4300     1.7470 H     1 <1>   0.1500 
 38 H        4.0480    10.7240     0.5870 H     1 <1>   0.2700 
 39 H        5.9780    10.0630     2.0950 H     1 <1>   0.1500 
@<TRIPOS>BOND
  1   1   2  1   
  2   1   3  1   
  3   2   4  2   
  4   2   5  1   
  5   3   6  2   
  6   3  22  1   
  7   4   6  1   
  8   4   7  1   
  9   5   8  1   
 10   5  23  1   
 11   5  24  1   
 12   6  25  1   
 13   7   9  1   
 14   7  10  1   
 15   7  11  1   
 16   8   9  1   
 17   8  26  1   
 18   8  27  1   
 19  10  12  1   
 20  10  28  1   
 21  10  29  1   
 22  11  13  1   
 23  11  30  1   
 24  11  31  1   
 25  12  14  1   
 26  12  32  1   
 27  12  33  1   
 28  13  14  1   
 29  13  34  1   
 30  13  35  1   
 31  14  15  am  
 32  15  16  2   
 33  15  17  1   
 34  17  18  2   
 35  17  19  1   
 36  18  20  1   
 37  18  36  1   
 38  19  21  2   
 39  19  37  1   
 40  20  21  1   
 41  20  38  1   
 42  21  39  1   
@<TRIPOS>SUBSTRUCTURE
  1 ****  11 GROUP 4 **** **** 0

# MOE 2024.06 (io_trps.svl 2023.06)
