@<TRIPOS>MOLECULE
NONAME
43 45 1 0 0 
SMALL
USER_CHARGES


@<TRIPOS>ATOM
  1 O        0.4220    -0.1710     1.3810 O.2   1 <1>  -0.5700 
  2 C        1.3780    -0.4500     0.6830 C.2   1 <1>   0.7150 
  3 N        2.2300     0.5290     0.2430 N.am  1 <1>  -0.4940 
  4 C        1.6730    -1.8030     0.3130 C.2   1 <1>  -0.2370 
  5 C        2.1620     1.9350     0.3930 C.2   1 <1>  -0.0880 
  6 N        0.7100    -2.7600     0.1090 N.pl3 1 <1>   0.2940 
  7 C        2.8980    -2.3890     0.0990 C.2   1 <1>  -0.1500 
  8 N        3.2290     2.7250     0.6910 N.pl3 1 <1>   0.3140 
  9 C        1.1000     2.7680     0.2720 C.2   1 <1>  -0.1810 
 10 C        1.3390    -3.9150    -0.2190 C.2   1 <1>  -0.3020 
 11 C       -0.7620    -2.5910     0.1770 C.3   1 <1>  -0.0910 
 12 C        2.6840    -3.7220    -0.2350 C.2   1 <1>  -0.1500 
 13 N        2.8830     4.0290     0.7570 N.2   1 <1>  -0.7070 
 14 C        4.6070     2.2860     0.9830 C.3   1 <1>   0.0960 
 15 C        1.6100     4.0390     0.5100 C.2   1 <1>   0.1390 
 16 C       -0.3460     2.4450    -0.0560 C.3   1 <1>  -0.0590 
 17 C       -1.6590    -3.2460    -0.8340 C.3   1 <1>  -0.2000 
 18 C       -1.4470    -1.7650    -0.8710 C.3   1 <1>  -0.2000 
 19 C        5.3980     2.0500    -0.3120 C.3   1 <1>  -0.1600 
 20 C        6.8130     1.5400    -0.0130 C.3   1 <1>  -0.1600 
 21 C        7.5930     1.2980    -1.3080 C.3   1 <1>  -0.2400 
 22 H        3.0130     0.1670    -0.2960 H     1 <1>   0.3700 
 23 H        3.8710    -1.9350     0.1780 H     1 <1>   0.1500 
 24 H        0.7950    -4.8190    -0.4260 H     1 <1>   0.1500 
 25 H       -1.1030    -2.4940     1.1940 H     1 <1>   0.1000 
 26 H        3.4500    -4.4460    -0.4580 H     1 <1>   0.1500 
 27 H        4.5590     1.3860     1.5680 H     1 <1>   0.0800 
 28 H        5.0840     3.0500     1.5710 H     1 <1>   0.0800 
 29 H        1.0210     4.9410     0.4930 H     1 <1>   0.1500 
 30 H       -0.4070     1.5290    -0.6140 H     1 <1>   0.0800 
 31 H       -0.7810     3.2340    -0.6420 H     1 <1>   0.0800 
 32 H       -0.9050     2.3310     0.8550 H     1 <1>   0.0800 
 33 H       -2.6200    -3.6120    -0.5170 H     1 <1>   0.1000 
 34 H       -1.2280    -3.8430    -1.6190 H     1 <1>   0.1000 
 35 H       -0.8590    -1.3440    -1.6680 H     1 <1>   0.1000 
 36 H       -2.2550    -1.1220    -0.5680 H     1 <1>   0.1000 
 37 H        5.4590     2.9790    -0.8550 H     1 <1>   0.0800 
 38 H        4.8830     1.3320    -0.9260 H     1 <1>   0.0800 
 39 H        6.7610     0.6210     0.5450 H     1 <1>   0.0800 
 40 H        7.3400     2.2650     0.5850 H     1 <1>   0.0800 
 41 H        7.1000     0.5600    -1.9160 H     1 <1>   0.0800 
 42 H        8.5840     0.9450    -1.0800 H     1 <1>   0.0800 
 43 H        7.6790     2.2100    -1.8720 H     1 <1>   0.0800 
@<TRIPOS>BOND
  1   1   2  2   
  2   2   3  am  
  3   2   4  1   
  4   3   5  1   
  5   3  22  1   
  6   4   6  1   
  7   4   7  2   
  8   5   8  1   
  9   5   9  2   
 10   6  10  1   
 11   6  11  1   
 12   7  12  1   
 13   7  23  1   
 14   8  13  1   
 15   8  14  1   
 16   9  15  1   
 17   9  16  1   
 18  10  12  2   
 19  10  24  1   
 20  11  17  1   
 21  11  18  1   
 22  11  25  1   
 23  12  26  1   
 24  13  15  2   
 25  14  19  1   
 26  14  27  1   
 27  14  28  1   
 28  15  29  1   
 29  16  30  1   
 30  16  31  1   
 31  16  32  1   
 32  17  18  1   
 33  17  33  1   
 34  17  34  1   
 35  18  35  1   
 36  18  36  1   
 37  19  20  1   
 38  19  37  1   
 39  19  38  1   
 40  20  21  1   
 41  20  39  1   
 42  20  40  1   
 43  21  41  1   
 44  21  42  1   
 45  21  43  1   
@<TRIPOS>SUBSTRUCTURE
  1 ****   3 GROUP 4 **** **** 0

# MOE 2024.06 (io_trps.svl 2023.06)
