@<TRIPOS>MOLECULE
NONAME
54 56 1 0 0 
SMALL
USER_CHARGES


@<TRIPOS>ATOM
  1 CL       1.6830     0.6220     2.1810 Cl    1 <1>  -0.1770 
  2 C        2.1180    -1.0040     1.7030 C.ar  1 <1>   0.1770 
  3 C        2.9840    -1.2200     0.6380 C.ar  1 <1>   0.0820 
  4 C        1.5610    -2.0560     2.4090 C.ar  1 <1>  -0.1500 
  5 O        3.4880    -0.1620    -0.0450 O.3   1 <1>  -0.3630 
  6 C        3.3120    -2.5370     0.2980 C.ar  1 <1>   0.0820 
  7 C        1.8760    -3.3610     2.0590 C.ar  1 <1>  -0.1440 
  8 C        2.7080     0.3090    -1.1170 C.3   1 <1>   0.1200 
  9 O        4.1220    -2.8860    -0.7340 O.3   1 <1>  -0.3630 
 10 C        2.7670    -3.5860     1.0190 C.ar  1 <1>  -0.1500 
 11 C        1.2500    -4.5450     2.7690 C.3   1 <1>   0.4860 
 12 C        3.4510     1.4710    -1.7670 C.3   1 <1>  -0.2400 
 13 C        5.3570    -2.2230    -0.8930 C.3   1 <1>   0.1200 
 14 N        0.3290    -5.1800     1.7960 N.4   1 <1>  -0.9590 
 15 C        6.2820    -3.1390    -1.6880 C.3   1 <1>  -0.2400 
 16 C       -0.9280    -4.4250     1.5200 C.3   1 <1>   0.3430 
 17 C       -0.0550    -6.5870     2.0410 C.3   1 <1>   0.3430 
 18 C       -1.9440    -5.4730     1.0390 C.3   1 <1>   0.2000 
 19 C       -1.2240    -6.8300     1.0830 C.3   1 <1>  -0.0800 
 20 O       -3.0230    -5.5030     1.9130 O.3   1 <1>  -0.6800 
 21 C       -0.7730    -7.3210    -0.3190 C.3   1 <1>  -0.0170 
 22 C        0.4680    -6.6460    -0.9060 C.ar  1 <1>   0.1670 
 23 N        0.4040    -5.3380    -1.1120 N.ar  1 <1>  -0.6200 
 24 C        1.5990    -7.4080    -1.1960 C.ar  1 <1>   0.1600 
 25 C        1.5120    -4.8580    -1.6620 C.ar  1 <1>   0.1600 
 26 N        2.7210    -6.9190    -1.6900 N.ar  1 <1>  -0.6200 
 27 C        2.6380    -5.6230    -1.9350 C.ar  1 <1>   0.1600 
 28 H        0.8870    -1.8330     3.2180 H     1 <1>   0.1500 
 29 H        2.5670    -0.4960    -1.8170 H     1 <1>   0.0800 
 30 H        1.7550     0.6330    -0.7330 H     1 <1>   0.0800 
 31 H        3.0540    -4.5870     0.7440 H     1 <1>   0.1500 
 32 H        0.7170    -4.2280     3.6500 H     1 <1>   0.0800 
 33 H        2.0250    -5.2370     3.0560 H     1 <1>   0.0800 
 34 H        4.4050     1.1420    -2.1370 H     1 <1>   0.0800 
 35 H        3.5970     2.2610    -1.0510 H     1 <1>   0.0800 
 36 H        2.8770     1.8560    -2.5900 H     1 <1>   0.0800 
 37 H        5.1900    -1.3030    -1.4240 H     1 <1>   0.0800 
 38 H        5.7690    -2.0140     0.0810 H     1 <1>   0.0800 
 39 H        0.8110    -5.1680     0.8750 H     1 <1>   0.4500 
 40 H        5.8630    -3.3390    -2.6580 H     1 <1>   0.0800 
 41 H        6.4330    -4.0630    -1.1600 H     1 <1>   0.0800 
 42 H        7.2360    -2.6620    -1.8200 H     1 <1>   0.0800 
 43 H       -1.2960    -3.9400     2.4090 H     1 <1>   0.0800 
 44 H       -0.7560    -3.6900     0.7500 H     1 <1>   0.0800 
 45 H        0.7640    -7.2630     1.8530 H     1 <1>   0.0800 
 46 H       -0.3900    -6.7020     3.0600 H     1 <1>   0.0800 
 47 H       -2.3230    -5.2280     0.0600 H     1 <1>   0.0800 
 48 H       -1.8780    -7.5840     1.4860 H     1 <1>   0.0800 
 49 H       -2.8090    -5.8860     2.7860 H     1 <1>   0.4000 
 50 H       -1.5850    -7.2000    -1.0150 H     1 <1>   0.0800 
 51 H       -0.5880    -8.3790    -0.2560 H     1 <1>   0.0800 
 52 H        1.5840    -8.4690    -1.0120 H     1 <1>   0.1500 
 53 H        1.5410    -3.8080    -1.9020 H     1 <1>   0.1500 
 54 H        3.5000    -5.1420    -2.3650 H     1 <1>   0.1500 
@<TRIPOS>BOND
  1   1   2  1   
  2   2   3  ar  
  3   2   4  ar  
  4   3   5  1   
  5   3   6  ar  
  6   4   7  ar  
  7   4  28  1   
  8   5   8  1   
  9   6   9  1   
 10   6  10  ar  
 11   7  10  ar  
 12   7  11  1   
 13   8  12  1   
 14   8  29  1   
 15   8  30  1   
 16   9  13  1   
 17  10  31  1   
 18  11  14  1   
 19  11  32  1   
 20  11  33  1   
 21  12  34  1   
 22  12  35  1   
 23  12  36  1   
 24  13  15  1   
 25  13  37  1   
 26  13  38  1   
 27  14  16  1   
 28  14  17  1   
 29  14  39  1   
 30  15  40  1   
 31  15  41  1   
 32  15  42  1   
 33  16  18  1   
 34  16  43  1   
 35  16  44  1   
 36  17  19  1   
 37  17  45  1   
 38  17  46  1   
 39  18  19  1   
 40  18  20  1   
 41  18  47  1   
 42  19  21  1   
 43  19  48  1   
 44  20  49  1   
 45  21  22  1   
 46  21  50  1   
 47  21  51  1   
 48  22  23  ar  
 49  22  24  ar  
 50  23  25  ar  
 51  24  26  ar  
 52  24  52  1   
 53  25  27  ar  
 54  25  53  1   
 55  26  27  ar  
 56  27  54  1   
@<TRIPOS>SUBSTRUCTURE
  1 ****  10 GROUP 4 **** **** 0

# MOE 2024.06 (io_trps.svl 2023.06)
