@<TRIPOS>MOLECULE
NONAME
39 40 1 0 0 
SMALL
USER_CHARGES


@<TRIPOS>ATOM
  1 F        1.0430     0.6060    -0.3230 F     1 <1>  -0.1900 
  2 C        1.9900    -0.2850    -0.1930 C.ar  1 <1>   0.1900 
  3 C        3.3060     0.1070    -0.3630 C.ar  1 <1>  -0.1440 
  4 C        1.6390    -1.5810     0.1240 C.ar  1 <1>  -0.1500 
  5 C        4.2990    -0.8500    -0.2060 C.ar  1 <1>  -0.1500 
  6 C        3.6440     1.5430    -0.7160 C.3   1 <1>   0.4870 
  7 C        2.6420    -2.5220     0.2800 C.ar  1 <1>  -0.1500 
  8 C        3.9820    -2.1690     0.1200 C.ar  1 <1>  -0.1440 
  9 N        3.2540     2.4330     0.4140 N.4   1 <1>  -0.9590 
 10 C        5.1080    -3.2070     0.2890 C.3   1 <1>   1.1630 
 11 C        3.3030     3.8630    -0.0300 C.3   1 <1>   0.5660 
 12 C        4.0970     2.1600     1.6220 C.3   1 <1>   0.2630 
 13 F        6.1220    -2.7210     0.9940 F     1 <1>  -0.3400 
 14 F        5.6100    -3.5840    -0.8780 F     1 <1>  -0.3400 
 15 F        4.7170    -4.3120     0.9100 F     1 <1>  -0.3400 
 16 C        4.7510     4.3800    -0.1920 C.ar  1 <1>   0.1670 
 17 C        2.4130     4.6800     0.9090 C.3   1 <1>  -0.2400 
 18 N        5.4050     3.8910    -1.2420 N.ar  1 <1>  -0.6200 
 19 C        5.3210     5.2820     0.7030 C.ar  1 <1>  -0.1500 
 20 C        6.6480     4.3180    -1.4130 C.ar  1 <1>   0.1600 
 21 C        6.6180     5.7100     0.5160 C.ar  1 <1>  -0.1500 
 22 C        7.2910     5.2090    -0.5750 C.ar  1 <1>  -0.1500 
 23 H        0.6030    -1.8500     0.2460 H     1 <1>   0.1500 
 24 H        5.3340    -0.5760    -0.3410 H     1 <1>   0.1500 
 25 H        3.1100     1.8220    -1.6100 H     1 <1>   0.0800 
 26 H        4.7000     1.6320    -0.9150 H     1 <1>   0.0800 
 27 H        2.3660    -3.5370     0.5260 H     1 <1>   0.1500 
 28 H        2.2730     2.2050     0.6220 H     1 <1>   0.4500 
 29 H        2.8550     3.9260    -1.0090 H     1 <1>   0.0800 
 30 H        5.1350     2.3600     1.4080 H     1 <1>   0.0800 
 31 H        4.0020     1.1280     1.9200 H     1 <1>   0.0800 
 32 H        3.7890     2.7810     2.4470 H     1 <1>   0.0800 
 33 H        2.7570     4.6430     1.9260 H     1 <1>   0.0800 
 34 H        1.4000     4.3230     0.8650 H     1 <1>   0.0800 
 35 H        2.4080     5.7070     0.5890 H     1 <1>   0.0800 
 36 H        4.7800     5.6680     1.5470 H     1 <1>   0.1500 
 37 H        7.1860     3.9390    -2.2670 H     1 <1>   0.1500 
 38 H        7.0880     6.4080     1.1900 H     1 <1>   0.1500 
 39 H        8.3040     5.5090    -0.7780 H     1 <1>   0.1500 
@<TRIPOS>BOND
  1   1   2  1   
  2   2   3  ar  
  3   2   4  ar  
  4   3   5  ar  
  5   3   6  1   
  6   4   7  ar  
  7   4  23  1   
  8   5   8  ar  
  9   5  24  1   
 10   6   9  1   
 11   6  25  1   
 12   6  26  1   
 13   7   8  ar  
 14   7  27  1   
 15   8  10  1   
 16   9  11  1   
 17   9  12  1   
 18   9  28  1   
 19  10  13  1   
 20  10  14  1   
 21  10  15  1   
 22  11  16  1   
 23  11  17  1   
 24  11  29  1   
 25  12  30  1   
 26  12  31  1   
 27  12  32  1   
 28  16  18  ar  
 29  16  19  ar  
 30  17  33  1   
 31  17  34  1   
 32  17  35  1   
 33  18  20  ar  
 34  19  21  ar  
 35  19  36  1   
 36  20  22  ar  
 37  20  37  1   
 38  21  22  ar  
 39  21  38  1   
 40  22  39  1   
@<TRIPOS>SUBSTRUCTURE
  1 ****   6 GROUP 4 **** **** 0

# MOE 2024.06 (io_trps.svl 2023.06)
