@<TRIPOS>MOLECULE
NONAME
59 62 1 0 0 
SMALL
USER_CHARGES


@<TRIPOS>ATOM
  1 O        0.9930    -0.3000     0.8150 O.3   1 <1>  -0.6800 
  2 C        1.6330     0.5260    -0.0890 C.3   1 <1>   0.2000 
  3 C        2.9690    -0.1240    -0.5340 C.3   1 <1>   0.0000 
  4 C        1.7740     1.9270     0.5300 C.3   1 <1>  -0.1600 
  5 C        3.6560     0.8930    -1.4700 C.3   1 <1>   0.3430 
  6 C        2.6080    -1.3640    -1.3860 C.3   1 <1>   0.1200 
  7 C        3.8620    -0.5810     0.6770 C.3   1 <1>  -0.0170 
  8 C        3.1870     2.4970     0.4290 C.3   1 <1>   0.3430 
  9 N        3.7530     2.3000    -0.9410 N.4   1 <1>  -0.9590 
 10 O        3.7140    -1.7710    -2.1190 O.3   1 <1>  -0.6800 
 11 C        5.3100    -0.0840     0.7260 C.ar  1 <1>  -0.1440 
 12 C        5.1690     2.7370    -0.9810 C.3   1 <1>   0.5230 
 13 C        6.2290    -0.4540    -0.2460 C.ar  1 <1>  -0.1500 
 14 C        5.7370     0.7140     1.7790 C.ar  1 <1>  -0.1500 
 15 C        5.2350     4.2280    -0.7340 C.2   1 <1>  -0.3320 
 16 C        7.5350     0.0000    -0.1920 C.ar  1 <1>  -0.1500 
 17 C        7.0450     1.1620     1.8410 C.ar  1 <1>  -0.1500 
 18 N        6.3120     4.8510    -0.1950 N.pl3 1 <1>   0.0480 
 19 C        4.3210     5.1960    -0.9810 C.2   1 <1>   0.0770 
 20 C        7.9450     0.8110     0.8510 C.ar  1 <1>  -0.1500 
 21 C        5.9550     6.1550    -0.1430 C.2   1 <1>   0.0360 
 22 C        7.5990     4.2710     0.2680 C.3   1 <1>   0.2390 
 23 N        4.7710     6.3960    -0.5980 N.2   1 <1>  -0.5650 
 24 C        8.7480     5.2530     0.1050 C.ar  1 <1>  -0.1440 
 25 C        9.3220     5.8530     1.2170 C.ar  1 <1>  -0.1500 
 26 C        9.2320     5.5570    -1.1590 C.ar  1 <1>  -0.1500 
 27 C       10.3680     6.7470     1.0650 C.ar  1 <1>  -0.1500 
 28 C       10.2780     6.4510    -1.3090 C.ar  1 <1>  -0.1500 
 29 C       10.8460     7.0460    -0.1980 C.ar  1 <1>  -0.1500 
 30 H        0.0900     0.0200     1.0200 H     1 <1>   0.4000 
 31 H        0.9840     0.6060    -0.9460 H     1 <1>   0.0800 
 32 H        1.0990     2.6010     0.0330 H     1 <1>   0.0800 
 33 H        1.5010     1.9110     1.5720 H     1 <1>   0.0800 
 34 H        3.0950     0.9180    -2.3900 H     1 <1>   0.0800 
 35 H        4.6330     0.5210    -1.7270 H     1 <1>   0.0800 
 36 H        1.8210    -1.1420    -2.0870 H     1 <1>   0.0800 
 37 H        2.2860    -2.1810    -0.7610 H     1 <1>   0.0800 
 38 H        3.3880    -0.3010     1.6010 H     1 <1>   0.0800 
 39 H        3.9030    -1.6560     0.7090 H     1 <1>   0.0800 
 40 H        3.8110     1.9970     1.1470 H     1 <1>   0.0800 
 41 H        3.1760     3.5450     0.6830 H     1 <1>   0.0800 
 42 H        3.2540     2.9250    -1.5830 H     1 <1>   0.4500 
 43 H        3.5500    -2.6460    -2.5340 H     1 <1>   0.4000 
 44 H        5.7320     2.2130    -0.2270 H     1 <1>   0.0800 
 45 H        5.6040     2.5140    -1.9420 H     1 <1>   0.0800 
 46 H        5.9390    -1.1130    -1.0470 H     1 <1>   0.1500 
 47 H        5.0620     0.9770     2.5760 H     1 <1>   0.1500 
 48 H        8.2400    -0.2970    -0.9520 H     1 <1>   0.1500 
 49 H        7.3690     1.7670     2.6720 H     1 <1>   0.1500 
 50 H        3.3410     5.1140    -1.4210 H     1 <1>   0.1500 
 51 H        8.9680     1.1460     0.9020 H     1 <1>   0.1500 
 52 H        6.6160     6.9130     0.2460 H     1 <1>   0.1500 
 53 H        7.4950     3.9940     1.3010 H     1 <1>   0.0800 
 54 H        7.8140     3.3870    -0.3030 H     1 <1>   0.0800 
 55 H        8.9630     5.6360     2.2080 H     1 <1>   0.1500 
 56 H        8.7990     5.1080    -2.0360 H     1 <1>   0.1500 
 57 H       10.8100     7.2120     1.9290 H     1 <1>   0.1500 
 58 H       10.6490     6.6860    -2.2920 H     1 <1>   0.1500 
 59 H       11.6590     7.7420    -0.3150 H     1 <1>   0.1500 
@<TRIPOS>BOND
  1   1   2  1   
  2   1  30  1   
  3   2   3  1   
  4   2   4  1   
  5   2  31  1   
  6   3   5  1   
  7   3   6  1   
  8   3   7  1   
  9   4   8  1   
 10   4  32  1   
 11   4  33  1   
 12   5   9  1   
 13   5  34  1   
 14   5  35  1   
 15   6  10  1   
 16   6  36  1   
 17   6  37  1   
 18   7  11  1   
 19   7  38  1   
 20   7  39  1   
 21   8   9  1   
 22   8  40  1   
 23   8  41  1   
 24   9  12  1   
 25   9  42  1   
 26  10  43  1   
 27  11  13  ar  
 28  11  14  ar  
 29  12  15  1   
 30  12  44  1   
 31  12  45  1   
 32  13  16  ar  
 33  13  46  1   
 34  14  17  ar  
 35  14  47  1   
 36  15  18  1   
 37  15  19  2   
 38  16  20  ar  
 39  16  48  1   
 40  17  20  ar  
 41  17  49  1   
 42  18  21  1   
 43  18  22  1   
 44  19  23  1   
 45  19  50  1   
 46  20  51  1   
 47  21  23  2   
 48  21  52  1   
 49  22  24  1   
 50  22  53  1   
 51  22  54  1   
 52  24  25  ar  
 53  24  26  ar  
 54  25  27  ar  
 55  25  55  1   
 56  26  28  ar  
 57  26  56  1   
 58  27  29  ar  
 59  27  57  1   
 60  28  29  ar  
 61  28  58  1   
 62  29  59  1   
@<TRIPOS>SUBSTRUCTURE
  1 ****  12 GROUP 4 **** **** 0

# MOE 2024.06 (io_trps.svl 2023.06)
