@<TRIPOS>MOLECULE
NONAME
50 53 1 0 0 
SMALL
USER_CHARGES


@<TRIPOS>ATOM
  1 O       -1.1180     0.5420     1.4360 O.2   1 <1>  -0.5700 
  2 C       -1.2710     1.3270     0.5190 C.2   1 <1>   0.5440 
  3 N       -2.1680     1.0060    -0.4820 N.am  1 <1>  -0.6600 
  4 C       -0.5180     2.5670     0.5240 C.ar  1 <1>   0.0860 
  5 C       -2.6990    -0.3870    -0.5820 C.3   1 <1>   0.1400 
  6 C       -2.7390     2.0140    -1.4230 C.3   1 <1>   0.1400 
  7 C        0.1700     3.0130    -0.5950 C.ar  1 <1>  -0.1500 
  8 C       -0.4630     3.3530     1.6960 C.ar  1 <1>  -0.1500 
  9 C       -3.9010    -0.6080     0.3500 C.3   1 <1>   0.1400 
 10 C       -4.2650     1.9270    -1.5640 C.3   1 <1>  -0.1600 
 11 C        0.8670     4.2170    -0.5560 C.ar  1 <1>   0.2270 
 12 C        0.2280     4.5410     1.7460 C.ar  1 <1>  -0.1500 
 13 N       -5.1290     0.1220    -0.1030 N.am  1 <1>  -0.6600 
 14 C       -4.9990     1.5970    -0.2600 C.3   1 <1>   0.1400 
 15 N        1.5850     4.8530    -1.5150 N.2   1 <1>  -0.2270 
 16 C        0.8930     4.9640     0.5920 C.ar  1 <1>  -0.1520 
 17 C       -6.3170    -0.5110    -0.4260 C.2   1 <1>   0.7150 
 18 N        2.0480     5.9390    -1.0200 N.2   1 <1>  -0.4180 
 19 N        1.6470     6.0300     0.2570 N.pl3 1 <1>   0.3000 
 20 O       -7.0640     0.0420    -1.2150 O.2   1 <1>  -0.5700 
 21 C       -6.7120    -1.7930     0.1070 C.2   1 <1>   0.0550 
 22 O       -6.2490    -2.2650     1.2440 O.3   1 <1>  -0.0190 
 23 C       -7.5800    -2.7220    -0.3520 C.2   1 <1>  -0.1500 
 24 N       -6.7330    -3.4300     1.5480 N.2   1 <1>  -0.4100 
 25 C       -7.5480    -3.7320     0.5980 C.2   1 <1>   0.1080 
 26 C       -8.3520    -5.0260     0.5500 C.3   1 <1>   0.1010 
 27 C       -7.9660    -5.8620    -0.6750 C.3   1 <1>  -0.2400 
 28 C       -9.8570    -4.7340     0.5500 C.3   1 <1>  -0.2400 
 29 H       -1.9200    -1.0730    -0.2990 H     1 <1>   0.0800 
 30 H       -2.9740    -0.6120    -1.5980 H     1 <1>   0.0800 
 31 H       -2.2820     1.8940    -2.3900 H     1 <1>   0.0800 
 32 H       -2.5020     3.0020    -1.0690 H     1 <1>   0.0800 
 33 H        0.1800     2.4410    -1.5040 H     1 <1>   0.1500 
 34 H       -0.9830     2.9910     2.5680 H     1 <1>   0.1500 
 35 H       -3.6440    -0.3000     1.3500 H     1 <1>   0.0800 
 36 H       -4.0870    -1.6650     0.3740 H     1 <1>   0.0800 
 37 H       -4.5300     1.2100    -2.3210 H     1 <1>   0.0800 
 38 H       -4.6100     2.8820    -1.9150 H     1 <1>   0.0800 
 39 H        0.2620     5.1310     2.6460 H     1 <1>   0.1500 
 40 H       -5.9810     2.0380    -0.2880 H     1 <1>   0.0800 
 41 H       -4.4810     2.0130     0.5880 H     1 <1>   0.0800 
 42 H        1.9010     6.8150     0.8650 H     1 <1>   0.2700 
 43 H       -8.1700    -2.6920    -1.2490 H     1 <1>   0.1500 
 44 H       -8.1180    -5.5940     1.4350 H     1 <1>   0.0800 
 45 H       -8.2020    -5.3380    -1.5840 H     1 <1>   0.0800 
 46 H       -8.4920    -6.8000    -0.6680 H     1 <1>   0.0800 
 47 H       -6.9090    -6.0640    -0.6600 H     1 <1>   0.0800 
 48 H      -10.1390    -4.1830    -0.3300 H     1 <1>   0.0800 
 49 H      -10.1150    -4.1510     1.4170 H     1 <1>   0.0800 
 50 H      -10.4150    -5.6520     0.5780 H     1 <1>   0.0800 
@<TRIPOS>BOND
  1   1   2  2   
  2   2   3  am  
  3   2   4  1   
  4   3   5  1   
  5   3   6  1   
  6   4   7  ar  
  7   4   8  ar  
  8   5   9  1   
  9   5  29  1   
 10   5  30  1   
 11   6  10  1   
 12   6  31  1   
 13   6  32  1   
 14   7  11  ar  
 15   7  33  1   
 16   8  12  ar  
 17   8  34  1   
 18   9  13  1   
 19   9  35  1   
 20   9  36  1   
 21  10  14  1   
 22  10  37  1   
 23  10  38  1   
 24  11  15  1   
 25  11  16  ar  
 26  12  16  ar  
 27  12  39  1   
 28  13  14  1   
 29  13  17  am  
 30  14  40  1   
 31  14  41  1   
 32  15  18  2   
 33  16  19  1   
 34  17  20  2   
 35  17  21  1   
 36  18  19  1   
 37  19  42  1   
 38  21  22  1   
 39  21  23  2   
 40  22  24  1   
 41  23  25  1   
 42  23  43  1   
 43  24  25  2   
 44  25  26  1   
 45  26  27  1   
 46  26  28  1   
 47  26  44  1   
 48  27  45  1   
 49  27  46  1   
 50  27  47  1   
 51  28  48  1   
 52  28  49  1   
 53  28  50  1   
@<TRIPOS>SUBSTRUCTURE
  1 ****   9 GROUP 4 **** **** 0

# MOE 2024.06 (io_trps.svl 2023.06)
