@<TRIPOS>MOLECULE
NONAME
55 59 1 0 0 
SMALL
USER_CHARGES


@<TRIPOS>ATOM
  1 O       -0.4800     0.0250     1.4740 O.2   1 <1>  -0.5700 
  2 C       -1.4530     0.5320     0.9480 C.2   1 <1>   0.5440 
  3 N       -2.5520    -0.2620     0.6860 N.am  1 <1>  -0.6600 
  4 C       -1.4220     1.9400     0.6010 C.ar  1 <1>   0.0860 
  5 C       -2.7310    -1.5650     1.3860 C.3   1 <1>   0.1400 
  6 C       -3.5010     0.0150    -0.4280 C.3   1 <1>   0.1400 
  7 C       -2.4730     2.7980     0.9280 C.ar  1 <1>  -0.1500 
  8 C       -0.3300     2.4900    -0.0720 C.ar  1 <1>  -0.1500 
  9 C       -4.1800    -1.7260     1.8480 C.3   1 <1>  -0.1600 
 10 C       -4.9420    -0.1120     0.0630 C.3   1 <1>  -0.1600 
 11 C       -2.4460     4.1340     0.5780 C.ar  1 <1>  -0.1500 
 12 C       -0.2940     3.8270    -0.4250 C.ar  1 <1>  -0.1500 
 13 C       -5.2100    -1.4590     0.7450 C.3   1 <1>   0.4600 
 14 C       -1.3610     4.6610    -0.1040 C.ar  1 <1>   0.0820 
 15 O       -6.4460    -1.3660     1.4150 O.3   1 <1>  -0.5600 
 16 C       -5.2800    -2.6130    -0.2610 C.2   1 <1>  -0.3320 
 17 O       -1.4130     5.9750    -0.4160 O.3   1 <1>  -0.3630 
 18 C       -7.6250    -1.5080     0.6610 C.3   1 <1>   0.1200 
 19 N       -4.2500    -3.1430    -0.9890 N.pl3 1 <1>   0.0330 
 20 C       -6.4150    -3.2760    -0.5650 C.2   1 <1>  -0.1810 
 21 C       -0.3540     6.6230    -1.0800 C.3   1 <1>   0.1200 
 22 C       -7.7350    -2.9230     0.0730 C.3   1 <1>   0.0210 
 23 C       -4.7490    -4.1610    -1.7640 C.ar  1 <1>  -0.1520 
 24 C       -6.1140    -4.2720    -1.5170 C.ar  1 <1>   0.0000 
 25 C       -0.7360     8.0900    -1.2590 C.3   1 <1>  -0.2400 
 26 C       -4.1140    -5.0090    -2.6740 C.ar  1 <1>  -0.1500 
 27 C       -6.8610    -5.2460    -2.1870 C.ar  1 <1>  -0.1500 
 28 C       -4.8610    -5.9620    -3.3270 C.ar  1 <1>  -0.1500 
 29 C       -6.2350    -6.0810    -3.0830 C.ar  1 <1>  -0.1500 
 30 H       -2.0870    -1.6120     2.2490 H     1 <1>   0.0800 
 31 H       -2.4450    -2.3640     0.7290 H     1 <1>   0.0800 
 32 H       -3.3200    -0.6840    -1.2250 H     1 <1>   0.0800 
 33 H       -3.3460     1.0000    -0.8310 H     1 <1>   0.0800 
 34 H       -3.3170     2.4050     1.4670 H     1 <1>   0.1500 
 35 H        0.5000     1.8480    -0.3150 H     1 <1>   0.1500 
 36 H       -4.3470    -1.0330     2.6530 H     1 <1>   0.0800 
 37 H       -4.3230    -2.7200     2.2300 H     1 <1>   0.0800 
 38 H       -5.6000     0.0040    -0.7780 H     1 <1>   0.0800 
 39 H       -5.1370     0.6820     0.7610 H     1 <1>   0.0800 
 40 H       -3.2640     4.7840     0.8330 H     1 <1>   0.1500 
 41 H        0.5690     4.2010    -0.9440 H     1 <1>   0.1500 
 42 H       -7.6220    -0.7740    -0.1250 H     1 <1>   0.0800 
 43 H       -8.4570    -1.3120     1.3140 H     1 <1>   0.0800 
 44 H       -3.2690    -2.8510    -0.9660 H     1 <1>   0.2700 
 45 H       -0.2090     6.1490    -2.0350 H     1 <1>   0.0800 
 46 H        0.5330     6.5320    -0.4770 H     1 <1>   0.0800 
 47 H       -8.5220    -2.9530    -0.6580 H     1 <1>   0.0800 
 48 H       -7.9600    -3.6280     0.8530 H     1 <1>   0.0800 
 49 H       -1.6330     8.1680    -1.8470 H     1 <1>   0.0800 
 50 H        0.0540     8.6140    -1.7640 H     1 <1>   0.0800 
 51 H       -0.8950     8.5490    -0.3000 H     1 <1>   0.0800 
 52 H       -3.0580    -4.9120    -2.8550 H     1 <1>   0.1500 
 53 H       -7.9130    -5.3260    -1.9890 H     1 <1>   0.1500 
 54 H       -4.3960    -6.6280    -4.0330 H     1 <1>   0.1500 
 55 H       -6.7960    -6.8350    -3.6060 H     1 <1>   0.1500 
@<TRIPOS>BOND
  1   1   2  2   
  2   2   3  am  
  3   2   4  1   
  4   3   5  1   
  5   3   6  1   
  6   4   7  ar  
  7   4   8  ar  
  8   5   9  1   
  9   5  30  1   
 10   5  31  1   
 11   6  10  1   
 12   6  32  1   
 13   6  33  1   
 14   7  11  ar  
 15   7  34  1   
 16   8  12  ar  
 17   8  35  1   
 18   9  13  1   
 19   9  36  1   
 20   9  37  1   
 21  10  13  1   
 22  10  38  1   
 23  10  39  1   
 24  11  14  ar  
 25  11  40  1   
 26  12  14  ar  
 27  12  41  1   
 28  13  15  1   
 29  13  16  1   
 30  14  17  1   
 31  15  18  1   
 32  16  19  1   
 33  16  20  2   
 34  17  21  1   
 35  18  22  1   
 36  18  42  1   
 37  18  43  1   
 38  19  23  1   
 39  19  44  1   
 40  20  22  1   
 41  20  24  1   
 42  21  25  1   
 43  21  45  1   
 44  21  46  1   
 45  22  47  1   
 46  22  48  1   
 47  23  24  ar  
 48  23  26  ar  
 49  24  27  ar  
 50  25  49  1   
 51  25  50  1   
 52  25  51  1   
 53  26  28  ar  
 54  26  52  1   
 55  27  29  ar  
 56  27  53  1   
 57  28  29  ar  
 58  28  54  1   
 59  29  55  1   
@<TRIPOS>SUBSTRUCTURE
  1 ****   6 GROUP 4 **** **** 0

# MOE 2024.06 (io_trps.svl 2023.06)
