@<TRIPOS>MOLECULE
NONAME
51 54 1 0 0 
SMALL
USER_CHARGES


@<TRIPOS>ATOM
  1 O        0.0220     1.0480     0.1060 O.2   1 <1>  -0.5700 
  2 C       -0.1630     2.2130    -0.1540 C.2   1 <1>   0.5690 
  3 N       -1.0340     2.9940     0.5580 N.am  1 <1>  -0.6600 
  4 C        0.5970     2.8190    -1.3350 C.3   1 <1>   0.1810 
  5 C       -1.2540     4.4350     0.2030 C.3   1 <1>   0.3640 
  6 C       -1.7620     2.4920     1.7600 C.3   1 <1>   0.0600 
  7 O        0.7590     4.2090    -1.2100 O.3   1 <1>  -0.5600 
  8 C       -2.7480     4.7650     0.0650 C.ar  1 <1>  -0.1430 
  9 C       -0.4570     4.9180    -1.0360 C.3   1 <1>   0.2610 
 10 C       -3.6550     4.0480    -0.7230 C.ar  1 <1>  -0.1430 
 11 C       -3.2080     5.8650     0.7810 C.ar  1 <1>  -0.1500 
 12 C       -0.2260     6.4340    -0.9360 C.2   1 <1>   0.5690 
 13 C       -4.9850     4.4430    -0.7620 C.ar  1 <1>  -0.1500 
 14 C       -3.2740     2.8290    -1.5560 C.3   1 <1>  -0.0960 
 15 C       -4.5340     6.2500     0.7320 C.ar  1 <1>  -0.1500 
 16 O       -0.9280     7.1330    -1.6300 O.2   1 <1>  -0.5700 
 17 N        0.7030     6.9980    -0.0870 N.am  1 <1>  -0.6600 
 18 C       -5.4260     5.5350    -0.0410 C.ar  1 <1>  -0.1500 
 19 C        0.9750     8.4660    -0.1380 C.3   1 <1>   0.2840 
 20 C        1.6300     6.2550     0.8120 C.3   1 <1>   0.1400 
 21 C        2.4690     8.7950    -0.1190 C.ar  1 <1>  -0.1430 
 22 C        3.0500     6.3640     0.2620 C.3   1 <1>  -0.0170 
 23 C        3.4430     7.8200     0.0720 C.ar  1 <1>  -0.1430 
 24 C        2.8570    10.1150    -0.2960 C.ar  1 <1>  -0.1500 
 25 C        4.7830     8.1740     0.0820 C.ar  1 <1>  -0.1500 
 26 C        4.1950    10.4650    -0.2820 C.ar  1 <1>  -0.1500 
 27 C        5.1600     9.4930    -0.0930 C.ar  1 <1>  -0.1500 
 28 H        0.0730     2.6140    -2.2500 H     1 <1>   0.0800 
 29 H        1.5760     2.3800    -1.3890 H     1 <1>   0.0800 
 30 H       -0.8850     4.9970     1.0410 H     1 <1>   0.0800 
 31 H       -1.5510     3.1210     2.6060 H     1 <1>   0.0800 
 32 H       -1.4610     1.4860     1.9950 H     1 <1>   0.0800 
 33 H       -2.8230     2.4960     1.5750 H     1 <1>   0.0800 
 34 H       -1.0450     4.7520    -1.9190 H     1 <1>   0.0800 
 35 H       -2.5340     6.4440     1.3870 H     1 <1>   0.1500 
 36 H       -5.6960     3.8990    -1.3590 H     1 <1>   0.1500 
 37 H       -4.0590     2.5740    -2.2450 H     1 <1>   0.0800 
 38 H       -3.1080     1.9810    -0.9160 H     1 <1>   0.0800 
 39 H       -2.3890     3.0140    -2.1310 H     1 <1>   0.0800 
 40 H       -4.8710     7.1050     1.2920 H     1 <1>   0.1500 
 41 H       -6.4600     5.8290    -0.0840 H     1 <1>   0.1500 
 42 H        0.5460     8.8940    -1.0290 H     1 <1>   0.0800 
 43 H        0.5030     8.9320     0.7090 H     1 <1>   0.0800 
 44 H        1.5940     6.6970     1.7930 H     1 <1>   0.0800 
 45 H        1.3570     5.2210     0.9070 H     1 <1>   0.0800 
 46 H        3.7280     5.8850     0.9450 H     1 <1>   0.0800 
 47 H        3.1060     5.8510    -0.6820 H     1 <1>   0.0800 
 48 H        2.1150    10.8800    -0.4460 H     1 <1>   0.1500 
 49 H        5.5400     7.4230     0.2250 H     1 <1>   0.1500 
 50 H        4.4850    11.4920    -0.4210 H     1 <1>   0.1500 
 51 H        6.2010     9.7620    -0.0840 H     1 <1>   0.1500 
@<TRIPOS>BOND
  1   1   2  2   
  2   2   3  am  
  3   2   4  1   
  4   3   5  1   
  5   3   6  1   
  6   4   7  1   
  7   4  28  1   
  8   4  29  1   
  9   5   8  1   
 10   5   9  1   
 11   5  30  1   
 12   6  31  1   
 13   6  32  1   
 14   6  33  1   
 15   7   9  1   
 16   8  10  ar  
 17   8  11  ar  
 18   9  12  1   
 19   9  34  1   
 20  10  13  ar  
 21  10  14  1   
 22  11  15  ar  
 23  11  35  1   
 24  12  16  2   
 25  12  17  am  
 26  13  18  ar  
 27  13  36  1   
 28  14  37  1   
 29  14  38  1   
 30  14  39  1   
 31  15  18  ar  
 32  15  40  1   
 33  17  19  1   
 34  17  20  1   
 35  18  41  1   
 36  19  21  1   
 37  19  42  1   
 38  19  43  1   
 39  20  22  1   
 40  20  44  1   
 41  20  45  1   
 42  21  23  ar  
 43  21  24  ar  
 44  22  23  1   
 45  22  46  1   
 46  22  47  1   
 47  23  25  ar  
 48  24  26  ar  
 49  24  48  1   
 50  25  27  ar  
 51  25  49  1   
 52  26  27  ar  
 53  26  50  1   
 54  27  51  1   
@<TRIPOS>SUBSTRUCTURE
  1 ****  12 GROUP 4 **** **** 0

# MOE 2024.06 (io_trps.svl 2023.06)
