@<TRIPOS>MOLECULE
NONAME
58 61 1 0 0 
SMALL
USER_CHARGES


@<TRIPOS>ATOM
  1 O        0.6510    -0.3730     0.9120 O.3   1 <1>  -0.3630 
  2 C        0.3320    -1.5280     0.2760 C.ar  1 <1>   0.0830 
  3 C        0.0800     0.8700     0.5660 C.3   1 <1>   0.0400 
  4 C        1.0440    -2.6920     0.6600 C.ar  1 <1>   0.0000 
  5 C       -0.6330    -1.5920    -0.7010 C.ar  1 <1>  -0.1500 
  6 C        0.7620    -3.9200     0.0120 C.ar  1 <1>   0.0000 
  7 C        2.0350    -2.6740     1.6660 C.ar  1 <1>  -0.1500 
  8 C       -0.9410    -2.8080    -1.3080 C.ar  1 <1>  -0.1500 
  9 C       -0.2790    -3.9530    -0.9490 C.ar  1 <1>  -0.1440 
 10 C        1.5440    -5.0500     0.3600 C.ar  1 <1>  -0.1500 
 11 C        2.7450    -3.7910     2.0010 C.ar  1 <1>  -0.1500 
 12 C       -0.7010    -5.2690    -1.5690 C.3   1 <1>   0.4860 
 13 C        2.5020    -4.9920     1.3320 C.ar  1 <1>  -0.1500 
 14 N       -1.4120    -6.0550    -0.5140 N.4   1 <1>  -0.9590 
 15 C       -1.5950    -7.4980    -0.9150 C.3   1 <1>   0.3430 
 16 C       -2.7090    -5.3950    -0.1710 C.3   1 <1>   0.3430 
 17 C       -2.3840    -8.3470     0.1340 C.3   1 <1>   0.4230 
 18 C       -3.4110    -6.1800     0.9410 C.3   1 <1>  -0.1600 
 19 N       -2.5560    -9.8280    -0.2090 N.4   1 <1>  -0.9590 
 20 C       -3.7090    -7.6610     0.5810 C.3   1 <1>   0.0000 
 21 C       -3.5960   -10.5270     0.6230 C.3   1 <1>   0.3430 
 22 C       -2.8260   -10.1200    -1.6590 C.3   1 <1>   0.2630 
 23 C       -4.2230    -8.3760     1.8630 C.3   1 <1>  -0.1600 
 24 C       -4.8380    -7.7140    -0.4890 C.3   1 <1>   0.1200 
 25 C       -3.7690    -9.8460     1.9820 C.3   1 <1>  -0.1600 
 26 O       -4.3800    -7.3260    -1.7410 O.3   1 <1>  -0.6800 
 27 H        0.5210     1.6250     1.1920 H     1 <1>   0.0800 
 28 H       -0.9810     0.8290     0.7380 H     1 <1>   0.0800 
 29 H        0.2970     1.0800    -0.4660 H     1 <1>   0.0800 
 30 H       -1.1760    -0.7200    -1.0180 H     1 <1>   0.1500 
 31 H        2.2360    -1.7470     2.1760 H     1 <1>   0.1500 
 32 H       -1.7170    -2.8090    -2.0570 H     1 <1>   0.1500 
 33 H        1.4110    -5.9820    -0.1510 H     1 <1>   0.1500 
 34 H        3.5000    -3.7560     2.7690 H     1 <1>   0.1500 
 35 H        0.1740    -5.7950    -1.9150 H     1 <1>   0.0800 
 36 H       -1.3510    -5.0940    -2.4100 H     1 <1>   0.0800 
 37 H        3.0930    -5.8540     1.5950 H     1 <1>   0.1500 
 38 H       -0.8100    -5.9670     0.3200 H     1 <1>   0.4500 
 39 H       -2.1250    -7.5270    -1.8510 H     1 <1>   0.0800 
 40 H       -0.6270    -7.9460    -1.0650 H     1 <1>   0.0800 
 41 H       -2.5310    -4.3850     0.1660 H     1 <1>   0.0800 
 42 H       -3.3430    -5.3480    -1.0430 H     1 <1>   0.0800 
 43 H       -1.7640    -8.3280     1.0150 H     1 <1>   0.0800 
 44 H       -2.7940    -6.1200     1.8210 H     1 <1>   0.0800 
 45 H       -4.3330    -5.6750     1.1790 H     1 <1>   0.0800 
 46 H       -1.6670   -10.2950     0.0290 H     1 <1>   0.4500 
 47 H       -4.5450   -10.5130     0.1120 H     1 <1>   0.0800 
 48 H       -3.3190   -11.5610     0.7660 H     1 <1>   0.0800 
 49 H       -3.7470    -9.6580    -1.9740 H     1 <1>   0.0800 
 50 H       -2.9100   -11.1840    -1.8160 H     1 <1>   0.0800 
 51 H       -2.0260    -9.7530    -2.2810 H     1 <1>   0.0800 
 52 H       -3.8840    -7.8690     2.7520 H     1 <1>   0.0800 
 53 H       -5.3000    -8.3350     1.8970 H     1 <1>   0.0800 
 54 H       -5.6470    -7.0560    -0.2130 H     1 <1>   0.0800 
 55 H       -5.2440    -8.7060    -0.5860 H     1 <1>   0.0800 
 56 H       -4.4970   -10.3920     2.5580 H     1 <1>   0.0800 
 57 H       -2.8400    -9.9060     2.5230 H     1 <1>   0.0800 
 58 H       -5.1410    -7.2150    -2.3590 H     1 <1>   0.4000 
@<TRIPOS>BOND
  1   1   2  1   
  2   1   3  1   
  3   2   4  ar  
  4   2   5  ar  
  5   3  27  1   
  6   3  28  1   
  7   3  29  1   
  8   4   6  ar  
  9   4   7  ar  
 10   5   8  ar  
 11   5  30  1   
 12   6   9  ar  
 13   6  10  ar  
 14   7  11  ar  
 15   7  31  1   
 16   8   9  ar  
 17   8  32  1   
 18   9  12  1   
 19  10  13  ar  
 20  10  33  1   
 21  11  13  ar  
 22  11  34  1   
 23  12  14  1   
 24  12  35  1   
 25  12  36  1   
 26  13  37  1   
 27  14  15  1   
 28  14  16  1   
 29  14  38  1   
 30  15  17  1   
 31  15  39  1   
 32  15  40  1   
 33  16  18  1   
 34  16  41  1   
 35  16  42  1   
 36  17  19  1   
 37  17  20  1   
 38  17  43  1   
 39  18  20  1   
 40  18  44  1   
 41  18  45  1   
 42  19  21  1   
 43  19  22  1   
 44  19  46  1   
 45  20  23  1   
 46  20  24  1   
 47  21  25  1   
 48  21  47  1   
 49  21  48  1   
 50  22  49  1   
 51  22  50  1   
 52  22  51  1   
 53  23  25  1   
 54  23  52  1   
 55  23  53  1   
 56  24  26  1   
 57  24  54  1   
 58  24  55  1   
 59  25  56  1   
 60  25  57  1   
 61  26  58  1   
@<TRIPOS>SUBSTRUCTURE
  1 ****  14 GROUP 4 **** **** 0

# MOE 2024.06 (io_trps.svl 2023.06)
