@<TRIPOS>MOLECULE
NONAME
37 38 1 0 0 
SMALL
USER_CHARGES


@<TRIPOS>ATOM
  1 O       -0.7470    -1.0800     0.9520 O.3   1 <1>  -0.5600 
  2 C        0.1610    -1.0360    -0.1100 C.3   1 <1>   0.4800 
  3 C       -1.5460     0.0580     1.0580 C.3   1 <1>   0.1200 
  4 O       -0.4330    -0.4530    -1.2370 O.3   1 <1>  -0.5600 
  5 C        0.5980    -2.4550    -0.4390 C.3   1 <1>  -0.2400 
  6 C       -2.5220     0.1220    -0.1490 C.3   1 <1>   0.0000 
  7 C       -1.8200    -0.5970    -1.3350 C.3   1 <1>   0.1200 
  8 C       -3.8600    -0.6680     0.1180 C.3   1 <1>   0.0580 
  9 C       -2.7730     1.6500    -0.4360 C.3   1 <1>  -0.0800 
 10 C       -5.0450     0.2190     0.4640 C.2   1 <1>  -0.2880 
 11 C       -3.7740    -1.8390     1.1130 C.3   1 <1>  -0.2400 
 12 C       -4.1520     1.9600    -1.0370 C.3   1 <1>  -0.0220 
 13 C       -1.6760     2.3610    -1.2540 C.3   1 <1>  -0.2400 
 14 C       -5.2050     1.4210    -0.0880 C.2   1 <1>  -0.2760 
 15 C       -6.3970     2.3280     0.1620 C.3   1 <1>  -0.1020 
 16 H        1.0030    -0.4290     0.1790 H     1 <1>   0.0800 
 17 H       -0.8870     0.9090     1.0740 H     1 <1>   0.0800 
 18 H       -2.0700     0.0320     1.9950 H     1 <1>   0.0800 
 19 H       -0.2520    -3.0600    -0.6900 H     1 <1>   0.0800 
 20 H        1.0960    -2.8800     0.4120 H     1 <1>   0.0800 
 21 H        1.2840    -2.4370    -1.2640 H     1 <1>   0.0800 
 22 H       -2.0290    -1.6530    -1.3240 H     1 <1>   0.0800 
 23 H       -2.1410    -0.2010    -2.2810 H     1 <1>   0.0800 
 24 H       -4.1530    -1.1170    -0.8160 H     1 <1>   0.0800 
 25 H       -2.7880     2.1410     0.5240 H     1 <1>   0.0800 
 26 H       -5.7510    -0.2190     1.1480 H     1 <1>   0.1500 
 27 H       -3.6400    -1.4840     2.1180 H     1 <1>   0.0800 
 28 H       -2.9590    -2.4920     0.8600 H     1 <1>   0.0800 
 29 H       -4.6830    -2.4130     1.0810 H     1 <1>   0.0800 
 30 H       -4.2620     1.5080    -2.0070 H     1 <1>   0.0800 
 31 H       -4.2620     3.0250    -1.1420 H     1 <1>   0.0800 
 32 H       -1.6650     2.0170    -2.2720 H     1 <1>   0.0800 
 33 H       -0.7050     2.1870    -0.8260 H     1 <1>   0.0800 
 34 H       -1.8480     3.4230    -1.2620 H     1 <1>   0.0800 
 35 H       -6.9030     2.5370    -0.7630 H     1 <1>   0.0800 
 36 H       -6.0720     3.2540     0.6010 H     1 <1>   0.0800 
 37 H       -7.0930     1.8570     0.8340 H     1 <1>   0.0800 
@<TRIPOS>BOND
  1   1   2  1   
  2   1   3  1   
  3   2   4  1   
  4   2   5  1   
  5   2  16  1   
  6   3   6  1   
  7   3  17  1   
  8   3  18  1   
  9   4   7  1   
 10   5  19  1   
 11   5  20  1   
 12   5  21  1   
 13   6   7  1   
 14   6   8  1   
 15   6   9  1   
 16   7  22  1   
 17   7  23  1   
 18   8  10  1   
 19   8  11  1   
 20   8  24  1   
 21   9  12  1   
 22   9  13  1   
 23   9  25  1   
 24  10  14  2   
 25  10  26  1   
 26  11  27  1   
 27  11  28  1   
 28  11  29  1   
 29  12  14  1   
 30  12  30  1   
 31  12  31  1   
 32  13  32  1   
 33  13  33  1   
 34  13  34  1   
 35  14  15  1   
 36  15  35  1   
 37  15  36  1   
 38  15  37  1   
@<TRIPOS>SUBSTRUCTURE
  1 ****   6 GROUP 4 **** **** 0

# MOE 2024.06 (io_trps.svl 2023.06)
