@<TRIPOS>MOLECULE
NONAME
37 38 1 0 0 
SMALL
USER_CHARGES


@<TRIPOS>ATOM
  1 O       -1.4190    -0.1840    -0.3120 O.2   1 <1>  -0.5700 
  2 C       -2.2000     0.6420     0.1210 C.2   1 <1>   0.5440 
  3 N       -3.3430     0.2060     0.7550 N.am  1 <1>  -0.6600 
  4 C       -1.9220     2.0430    -0.0700 C.ar  1 <1>   0.0860 
  5 C       -3.4950    -1.2350     1.1250 C.3   1 <1>   0.3200 
  6 C       -4.6270     0.9760     0.7280 C.3   1 <1>   0.1400 
  7 C       -1.5470     2.5540    -1.2960 C.ar  1 <1>   0.1600 
  8 C       -2.0130     2.9670     0.9510 C.ar  1 <1>   0.1600 
  9 C       -4.0280    -2.0330    -0.0510 C.2   1 <1>   0.0060 
 10 C       -5.0600     1.3800     2.1430 C.3   1 <1>   0.1200 
 11 N       -1.3220     3.8350    -1.5020 N.ar  1 <1>  -0.6200 
 12 N       -1.8030     4.2540     0.7810 N.ar  1 <1>  -0.6200 
 13 N       -5.1810    -2.6220    -0.0920 N.2   1 <1>  -0.5650 
 14 N       -3.3030    -2.1850    -1.1790 N.pl3 1 <1>   0.0330 
 15 O       -6.0650     2.3330     2.0640 O.3   1 <1>  -0.6800 
 16 C       -1.4620     4.6210    -0.4460 C.ar  1 <1>   0.4770 
 17 C       -5.2080    -3.1890    -1.3140 C.2   1 <1>   0.0770 
 18 C       -4.0680    -2.9320    -1.9940 C.2   1 <1>  -0.3020 
 19 C       -1.2000     6.1020    -0.6630 C.3   1 <1>  -0.0160 
 20 C        0.2670     6.4730    -0.4040 C.3   1 <1>  -0.2400 
 21 H       -4.1710    -1.3330     1.9550 H     1 <1>   0.0800 
 22 H       -2.5430    -1.6380     1.4260 H     1 <1>   0.0800 
 23 H       -5.3980     0.3680     0.2840 H     1 <1>   0.0800 
 24 H       -4.5130     1.8570     0.1220 H     1 <1>   0.0800 
 25 H       -1.4330     1.8820    -2.1300 H     1 <1>   0.1500 
 26 H       -2.2670     2.6310     1.9400 H     1 <1>   0.1500 
 27 H       -4.2450     1.8040     2.7010 H     1 <1>   0.0800 
 28 H       -5.4570     0.5300     2.6700 H     1 <1>   0.0800 
 29 H       -2.3730    -1.7730    -1.3380 H     1 <1>   0.2700 
 30 H       -5.7220     3.1890     1.7390 H     1 <1>   0.4000 
 31 H       -6.0590    -3.7610    -1.6460 H     1 <1>   0.1500 
 32 H       -3.7690    -3.2310    -2.9820 H     1 <1>   0.1500 
 33 H       -1.8340     6.6700    -0.0060 H     1 <1>   0.0800 
 34 H       -1.4610     6.3590    -1.6740 H     1 <1>   0.0800 
 35 H        0.5350     6.2370     0.6110 H     1 <1>   0.0800 
 36 H        0.4190     7.5250    -0.5680 H     1 <1>   0.0800 
 37 H        0.9100     5.9210    -1.0680 H     1 <1>   0.0800 
@<TRIPOS>BOND
  1   1   2  2   
  2   2   3  am  
  3   2   4  1   
  4   3   5  1   
  5   3   6  1   
  6   4   7  ar  
  7   4   8  ar  
  8   5   9  1   
  9   5  21  1   
 10   5  22  1   
 11   6  10  1   
 12   6  23  1   
 13   6  24  1   
 14   7  11  ar  
 15   7  25  1   
 16   8  12  ar  
 17   8  26  1   
 18   9  13  2   
 19   9  14  1   
 20  10  15  1   
 21  10  27  1   
 22  10  28  1   
 23  11  16  ar  
 24  12  16  ar  
 25  13  17  1   
 26  14  18  1   
 27  14  29  1   
 28  15  30  1   
 29  16  19  1   
 30  17  18  2   
 31  17  31  1   
 32  18  32  1   
 33  19  20  1   
 34  19  33  1   
 35  19  34  1   
 36  20  35  1   
 37  20  36  1   
 38  20  37  1   
@<TRIPOS>SUBSTRUCTURE
  1 ****   2 GROUP 4 **** **** 0

# MOE 2024.06 (io_trps.svl 2023.06)
