@<TRIPOS>MOLECULE
NONAME
47 49 1 0 0 
SMALL
USER_CHARGES


@<TRIPOS>ATOM
  1 CL      -3.0590     0.2320    -3.3270 Cl    1 <1>  -0.1770 
  2 C       -3.2000    -0.9430    -2.0390 C.ar  1 <1>   0.1770 
  3 C       -4.3330    -0.9950    -1.2350 C.ar  1 <1>   0.0820 
  4 C       -2.1610    -1.8320    -1.8420 C.ar  1 <1>  -0.1500 
  5 O       -5.3760    -0.1550    -1.4000 O.3   1 <1>  -0.3630 
  6 C       -4.4170    -1.9580    -0.2420 C.ar  1 <1>  -0.1500 
  7 C       -2.2590    -2.7870    -0.8420 C.ar  1 <1>  -0.1500 
  8 C       -5.2230     1.1530    -0.9020 C.3   1 <1>   0.1200 
  9 C       -3.3890    -2.8710    -0.0320 C.ar  1 <1>  -0.0090 
 10 C       -6.5300     1.9030    -1.1370 C.3   1 <1>  -0.2400 
 11 S       -3.5250    -4.1340     1.2640 S.o2  1 <1>   1.4470 
 12 O       -3.4990    -3.5210     2.5680 O.2   1 <1>  -0.6500 
 13 O       -2.6580    -5.2520     0.9680 O.2   1 <1>  -0.6500 
 14 N       -5.0990    -4.6800     1.0810 N.am  1 <1>  -0.9140 
 15 C       -5.2760    -5.7090     0.0640 C.3   1 <1>   0.2760 
 16 C       -6.7400    -5.7800    -0.3500 C.3   1 <1>  -0.0800 
 17 C       -5.1070    -7.0930     0.6870 C.3   1 <1>   0.1200 
 18 C       -7.3590    -6.6790     0.7270 C.3   1 <1>   0.1200 
 19 C       -7.4560    -4.4270    -0.5320 C.3   1 <1>  -0.0170 
 20 O       -6.2970    -7.3180     1.3760 O.3   1 <1>  -0.5600 
 21 C       -8.8800    -4.6330    -1.0190 C.ar  1 <1>  -0.1430 
 22 C       -9.9580    -4.6120    -0.1570 C.ar  1 <1>  -0.1500 
 23 C       -9.1680    -4.8540    -2.3510 C.ar  1 <1>  -0.1500 
 24 C      -11.2350    -4.8160    -0.6530 C.ar  1 <1>   0.1600 
 25 C      -10.4820    -5.0460    -2.7440 C.ar  1 <1>   0.1600 
 26 N      -11.5210    -5.0360    -1.9250 N.ar  1 <1>  -0.6200 
 27 H       -1.2870    -1.7770    -2.4680 H     1 <1>   0.1500 
 28 H       -5.3000    -1.9930     0.3720 H     1 <1>   0.1500 
 29 H       -1.4470    -3.4800    -0.6910 H     1 <1>   0.1500 
 30 H       -4.9980     1.0940     0.1490 H     1 <1>   0.0800 
 31 H       -4.4110     1.6320    -1.4220 H     1 <1>   0.0800 
 32 H       -7.3360     1.4130    -0.6220 H     1 <1>   0.0800 
 33 H       -6.7470     1.9440    -2.1890 H     1 <1>   0.0800 
 34 H       -6.4450     2.9080    -0.7650 H     1 <1>   0.0800 
 35 H       -5.3240    -5.1290     1.9700 H     1 <1>   0.4200 
 36 H       -4.6270    -5.5460    -0.7810 H     1 <1>   0.0800 
 37 H       -6.7940    -6.3150    -1.2810 H     1 <1>   0.0800 
 38 H       -4.2760    -7.1640     1.3660 H     1 <1>   0.0800 
 39 H       -5.0170    -7.8470    -0.0750 H     1 <1>   0.0800 
 40 H       -8.0100    -7.4230     0.3010 H     1 <1>   0.0800 
 41 H       -7.8930    -6.1080     1.4660 H     1 <1>   0.0800 
 42 H       -6.9190    -3.8280    -1.2470 H     1 <1>   0.0800 
 43 H       -7.4750    -3.8810     0.3950 H     1 <1>   0.0800 
 44 H       -9.8200    -4.4390     0.8950 H     1 <1>   0.1500 
 45 H       -8.3850    -4.8780    -3.0860 H     1 <1>   0.1500 
 46 H      -12.0650    -4.7970     0.0330 H     1 <1>   0.1500 
 47 H      -10.6900    -5.2170    -3.7860 H     1 <1>   0.1500 
@<TRIPOS>BOND
  1   1   2  1   
  2   2   3  ar  
  3   2   4  ar  
  4   3   5  1   
  5   3   6  ar  
  6   4   7  ar  
  7   4  27  1   
  8   5   8  1   
  9   6   9  ar  
 10   6  28  1   
 11   7   9  ar  
 12   7  29  1   
 13   8  10  1   
 14   8  30  1   
 15   8  31  1   
 16   9  11  1   
 17  10  32  1   
 18  10  33  1   
 19  10  34  1   
 20  11  12  2   
 21  11  13  2   
 22  11  14  am  
 23  14  15  1   
 24  14  35  1   
 25  15  16  1   
 26  15  17  1   
 27  15  36  1   
 28  16  18  1   
 29  16  19  1   
 30  16  37  1   
 31  17  20  1   
 32  17  38  1   
 33  17  39  1   
 34  18  20  1   
 35  18  40  1   
 36  18  41  1   
 37  19  21  1   
 38  19  42  1   
 39  19  43  1   
 40  21  22  ar  
 41  21  23  ar  
 42  22  24  ar  
 43  22  44  1   
 44  23  25  ar  
 45  23  45  1   
 46  24  26  ar  
 47  24  46  1   
 48  25  26  ar  
 49  25  47  1   
@<TRIPOS>SUBSTRUCTURE
  1 ****  19 GROUP 4 **** **** 0

# MOE 2024.06 (io_trps.svl 2023.06)
