@<TRIPOS>MOLECULE
NONAME
56 58 1 0 0 
SMALL
USER_CHARGES


@<TRIPOS>ATOM
  1 O        0.2680     1.3000     0.2010 O.2   1 <1>  -0.5700 
  2 C       -0.0030     2.4340    -0.1150 C.2   1 <1>   0.5690 
  3 N       -0.7750     3.2510     0.6650 N.am  1 <1>  -0.6600 
  4 C        0.5240     2.9570    -1.4510 C.3   1 <1>   0.1810 
  5 C       -1.1390     4.6390     0.2230 C.3   1 <1>   0.3640 
  6 C       -1.2670     2.8390     2.0120 C.3   1 <1>   0.0600 
  7 O        0.6370     4.3580    -1.4690 O.3   1 <1>  -0.5600 
  8 C       -2.6600     4.8560     0.2980 C.ar  1 <1>  -0.1440 
  9 C       -0.5710     5.0450    -1.1650 C.3   1 <1>   0.2610 
 10 C       -3.6170     4.0190    -0.2860 C.ar  1 <1>  -0.1440 
 11 C       -3.0930     5.9730     1.0040 C.ar  1 <1>  -0.1500 
 12 C       -0.3300     6.5590    -1.1900 C.2   1 <1>   0.5690 
 13 C       -4.9650     4.3170    -0.1390 C.ar  1 <1>  -0.1500 
 14 C       -3.2740     2.7660    -1.0840 C.3   1 <1>  -0.0960 
 15 C       -4.4370     6.2610     1.1420 C.ar  1 <1>  -0.1500 
 16 O       -1.2700     7.3170    -1.2230 O.2   1 <1>  -0.5700 
 17 N        0.9480     7.0240    -1.1570 N.am  1 <1>  -0.7300 
 18 C       -5.3770     5.4290     0.5700 C.ar  1 <1>  -0.1500 
 19 C        1.3490     8.4490    -1.1920 C.3   1 <1>   0.1400 
 20 C        1.5910     8.9550     0.2290 C.3   1 <1>  -0.0170 
 21 C        2.0230    10.4120     0.2020 C.ar  1 <1>  -0.1440 
 22 C        3.3640    10.7530     0.2740 C.ar  1 <1>  -0.1500 
 23 C        1.0740    11.4160     0.0990 C.ar  1 <1>  -0.1500 
 24 C        3.7500    12.0820     0.2440 C.ar  1 <1>  -0.1500 
 25 C        1.4610    12.7450     0.0690 C.ar  1 <1>  -0.1500 
 26 C        2.8020    13.0860     0.1400 C.ar  1 <1>  -0.1440 
 27 C        3.2260    14.5450     0.1070 C.3   1 <1>  -0.0170 
 28 C        3.2810    15.1210     1.5240 C.3   1 <1>  -0.2400 
 29 H       -0.1300     2.6520    -2.2470 H     1 <1>   0.0800 
 30 H        1.5020     2.5480    -1.6290 H     1 <1>   0.0800 
 31 H       -0.6810     5.3000     0.9370 H     1 <1>   0.0800 
 32 H       -0.9800     3.5700     2.7470 H     1 <1>   0.0800 
 33 H       -0.8520     1.8860     2.2940 H     1 <1>   0.0800 
 34 H       -2.3400     2.7540     2.0010 H     1 <1>   0.0800 
 35 H       -1.2830     4.8170    -1.9350 H     1 <1>   0.0800 
 36 H       -2.3820     6.6460     1.4520 H     1 <1>   0.1500 
 37 H       -5.7130     3.6800    -0.5770 H     1 <1>   0.1500 
 38 H       -4.1340     2.4010    -1.6150 H     1 <1>   0.0800 
 39 H       -2.9390     1.9880    -0.4230 H     1 <1>   0.0800 
 40 H       -2.5100     2.9670    -1.8090 H     1 <1>   0.0800 
 41 H       -4.7500     7.1330     1.6890 H     1 <1>   0.1500 
 42 H        1.6980     6.3240    -1.1970 H     1 <1>   0.3700 
 43 H       -6.4260     5.6460     0.6730 H     1 <1>   0.1500 
 44 H        2.2440     8.5570    -1.7810 H     1 <1>   0.0800 
 45 H        0.5700     9.0330    -1.6530 H     1 <1>   0.0800 
 46 H        0.6830     8.8650     0.7990 H     1 <1>   0.0800 
 47 H        2.3510     8.3600     0.7030 H     1 <1>   0.0800 
 48 H        4.1160     9.9880     0.3550 H     1 <1>   0.1500 
 49 H        0.0280    11.1680     0.0410 H     1 <1>   0.1500 
 50 H        4.7950    12.3320     0.3040 H     1 <1>   0.1500 
 51 H        0.7120    13.5130    -0.0090 H     1 <1>   0.1500 
 52 H        4.1930    14.6310    -0.3560 H     1 <1>   0.0800 
 53 H        2.5290    15.1110    -0.4860 H     1 <1>   0.0800 
 54 H        3.9880    14.5710     2.1190 H     1 <1>   0.0800 
 55 H        2.3140    15.0520     1.9890 H     1 <1>   0.0800 
 56 H        3.5800    16.1530     1.4940 H     1 <1>   0.0800 
@<TRIPOS>BOND
  1   1   2  2   
  2   2   3  am  
  3   2   4  1   
  4   3   5  1   
  5   3   6  1   
  6   4   7  1   
  7   4  29  1   
  8   4  30  1   
  9   5   8  1   
 10   5   9  1   
 11   5  31  1   
 12   6  32  1   
 13   6  33  1   
 14   6  34  1   
 15   7   9  1   
 16   8  10  ar  
 17   8  11  ar  
 18   9  12  1   
 19   9  35  1   
 20  10  13  ar  
 21  10  14  1   
 22  11  15  ar  
 23  11  36  1   
 24  12  16  2   
 25  12  17  am  
 26  13  18  ar  
 27  13  37  1   
 28  14  38  1   
 29  14  39  1   
 30  14  40  1   
 31  15  18  ar  
 32  15  41  1   
 33  17  19  1   
 34  17  42  1   
 35  18  43  1   
 36  19  20  1   
 37  19  44  1   
 38  19  45  1   
 39  20  21  1   
 40  20  46  1   
 41  20  47  1   
 42  21  22  ar  
 43  21  23  ar  
 44  22  24  ar  
 45  22  48  1   
 46  23  25  ar  
 47  23  49  1   
 48  24  26  ar  
 49  24  50  1   
 50  25  26  ar  
 51  25  51  1   
 52  26  27  1   
 53  27  28  1   
 54  27  52  1   
 55  27  53  1   
 56  28  54  1   
 57  28  55  1   
 58  28  56  1   
@<TRIPOS>SUBSTRUCTURE
  1 ****  12 GROUP 4 **** **** 0

# MOE 2024.06 (io_trps.svl 2023.06)
