@<TRIPOS>MOLECULE
NONAME
47 49 1 0 0 
SMALL
USER_CHARGES


@<TRIPOS>ATOM
  1 CL       1.0610     0.9140    -1.4070 Cl    1 <1>  -0.1770 
  2 C        2.3280    -0.2130    -0.9670 C.ar  1 <1>   0.1770 
  3 C        3.3460     0.1340    -0.0720 C.ar  1 <1>   0.0860 
  4 C        2.2570    -1.4670    -1.5480 C.ar  1 <1>  -0.1500 
  5 C        3.4780     1.4370     0.5530 C.2   1 <1>   0.5440 
  6 C        4.2830    -0.8580     0.2180 C.ar  1 <1>  -0.1500 
  7 C        3.2080    -2.4190    -1.2390 C.ar  1 <1>  -0.1500 
  8 O        3.9420     1.5320     1.6730 O.2   1 <1>  -0.5700 
  9 N        3.1390     2.5900    -0.0980 N.am  1 <1>  -0.7300 
 10 C        4.2290    -2.1250    -0.3480 C.ar  1 <1>   0.1000 
 11 C        3.2260     3.9500     0.4720 C.3   1 <1>   0.1400 
 12 N        5.1700    -3.1010    -0.0490 N.pl3 1 <1>  -0.8380 
 13 C        4.5670     4.5650     0.0770 C.3   1 <1>  -0.1600 
 14 C        5.4980    -3.3540     1.3790 C.3   1 <1>   0.2090 
 15 C        6.3350    -3.2150    -0.9630 C.3   1 <1>   0.2090 
 16 C        4.7650     5.9360     0.7330 C.3   1 <1>   0.0200 
 17 C        6.0840    -4.7610     1.5220 C.3   1 <1>  -0.1600 
 18 C        6.9340    -4.6200    -0.8480 C.3   1 <1>  -0.1600 
 19 C        6.0970     6.5410     0.3350 C.2   1 <1>   0.0060 
 20 C        7.2990    -4.9660     0.6040 C.3   1 <1>  -0.1600 
 21 N        6.2160     7.5760    -0.4310 N.2   1 <1>  -0.5650 
 22 N        7.2810     6.0420     0.7530 N.pl3 1 <1>   0.0330 
 23 C        7.5460     7.7630    -0.5190 C.2   1 <1>   0.0770 
 24 C        8.2140     6.8350     0.1990 C.2   1 <1>  -0.3020 
 25 H        1.4610    -1.6970    -2.2320 H     1 <1>   0.1500 
 26 H        5.0800    -0.6330     0.9020 H     1 <1>   0.1500 
 27 H        3.1700    -3.4020    -1.6750 H     1 <1>   0.1500 
 28 H        2.7090     2.5250    -1.0240 H     1 <1>   0.3700 
 29 H        3.1480     3.8940     1.5460 H     1 <1>   0.0800 
 30 H        2.4110     4.5480     0.1030 H     1 <1>   0.0800 
 31 H        4.6120     4.6770    -0.9920 H     1 <1>   0.0800 
 32 H        5.3570     3.9050     0.3890 H     1 <1>   0.0800 
 33 H        4.6050    -3.2660     1.9750 H     1 <1>   0.0800 
 34 H        6.2120    -2.6230     1.7190 H     1 <1>   0.0800 
 35 H        7.0700    -2.4760    -0.6950 H     1 <1>   0.0800 
 36 H        6.0200    -3.0320    -1.9760 H     1 <1>   0.0800 
 37 H        4.7220     5.8470     1.8040 H     1 <1>   0.0800 
 38 H        3.9780     6.6020     0.4230 H     1 <1>   0.0800 
 39 H        5.3180    -5.4760     1.2750 H     1 <1>   0.0800 
 40 H        6.3690    -4.9250     2.5450 H     1 <1>   0.0800 
 41 H        7.8100    -4.6840    -1.4680 H     1 <1>   0.0800 
 42 H        6.2150    -5.3280    -1.2190 H     1 <1>   0.0800 
 43 H        7.6330    -5.9870     0.6630 H     1 <1>   0.0800 
 44 H        8.1030    -4.3300     0.9310 H     1 <1>   0.0800 
 45 H        7.4240     5.2280     1.3590 H     1 <1>   0.2700 
 46 H        7.9580     8.5700    -1.1030 H     1 <1>   0.1500 
 47 H        9.2710     6.7000     0.3400 H     1 <1>   0.1500 
@<TRIPOS>BOND
  1   1   2  1   
  2   2   3  ar  
  3   2   4  ar  
  4   3   5  1   
  5   3   6  ar  
  6   4   7  ar  
  7   4  25  1   
  8   5   8  2   
  9   5   9  am  
 10   6  10  ar  
 11   6  26  1   
 12   7  10  ar  
 13   7  27  1   
 14   9  11  1   
 15   9  28  1   
 16  10  12  1   
 17  11  13  1   
 18  11  29  1   
 19  11  30  1   
 20  12  14  1   
 21  12  15  1   
 22  13  16  1   
 23  13  31  1   
 24  13  32  1   
 25  14  17  1   
 26  14  33  1   
 27  14  34  1   
 28  15  18  1   
 29  15  35  1   
 30  15  36  1   
 31  16  19  1   
 32  16  37  1   
 33  16  38  1   
 34  17  20  1   
 35  17  39  1   
 36  17  40  1   
 37  18  20  1   
 38  18  41  1   
 39  18  42  1   
 40  19  21  2   
 41  19  22  1   
 42  20  43  1   
 43  20  44  1   
 44  21  23  1   
 45  22  24  1   
 46  22  45  1   
 47  23  24  2   
 48  23  46  1   
 49  24  47  1   
@<TRIPOS>SUBSTRUCTURE
  1 ****   5 GROUP 4 **** **** 0

# MOE 2024.06 (io_trps.svl 2023.06)
