@<TRIPOS>MOLECULE
NONAME
48 51 1 0 0 
SMALL
USER_CHARGES


@<TRIPOS>ATOM
  1 F        0.1390    -0.9450     1.2460 F     1 <1>  -0.1900 
  2 C       -0.5530    -1.9700     0.8140 C.ar  1 <1>   0.1900 
  3 C        0.0450    -3.0340     0.1300 C.ar  1 <1>   0.0830 
  4 C       -1.9090    -1.9500     1.0740 C.ar  1 <1>  -0.1500 
  5 O        1.3670    -3.1670    -0.1860 O.3   1 <1>  -0.3630 
  6 C       -0.7740    -4.0730    -0.2810 C.ar  1 <1>  -0.1500 
  7 C       -2.6950    -3.0050     0.6510 C.ar  1 <1>  -0.1500 
  8 C        2.3250    -2.1680     0.0820 C.3   1 <1>   0.0400 
  9 C       -2.1510    -4.0940    -0.0380 C.ar  1 <1>   0.0530 
 10 C       -2.9610    -5.2070    -0.4820 C.2   1 <1>   0.0870 
 11 O       -2.3920    -6.3470    -0.7910 O.3   1 <1>  -0.0190 
 12 C       -4.2960    -5.3780    -0.6700 C.2   1 <1>  -0.2330 
 13 N       -3.2470    -7.2570    -1.1700 N.2   1 <1>  -0.4100 
 14 C       -4.4120    -6.7050    -1.1050 C.2   1 <1>   0.3720 
 15 C       -5.3340    -4.4190    -0.4830 C.2   1 <1>   1.0330 
 16 N       -5.5880    -7.3950    -1.4700 N.pl3 1 <1>  -0.8210 
 17 O       -5.4720    -3.4660    -1.2660 O.co2 1 <1>  -0.9000 
 18 O       -6.0740    -4.4750     0.5170 O.co2 1 <1>  -0.9000 
 19 C       -5.5240    -8.8680    -1.6450 C.3   1 <1>   0.2090 
 20 C       -6.8460    -7.0320    -0.7790 C.3   1 <1>   0.2090 
 21 C       -6.8160    -9.4440    -1.0580 C.3   1 <1>  -0.0800 
 22 C       -7.7660    -8.2450    -0.9060 C.3   1 <1>  -0.0800 
 23 C       -6.5860   -10.1420     0.2940 C.3   1 <1>  -0.1600 
 24 C       -8.7510    -8.3510     0.2840 C.3   1 <1>  -0.1600 
 25 C       -7.8990   -10.6940     0.8770 C.3   1 <1>   0.2000 
 26 C       -9.1440    -9.7980     0.5960 C.3   1 <1>   0.2000 
 27 O       -8.1140   -11.9460     0.3280 O.3   1 <1>  -0.6800 
 28 O       -9.8660   -10.2730    -0.4990 O.3   1 <1>  -0.6800 
 29 H       -2.3480    -1.1210     1.5980 H     1 <1>   0.1500 
 30 H       -0.3240    -4.8930    -0.8110 H     1 <1>   0.1500 
 31 H       -3.7500    -2.9760     0.8620 H     1 <1>   0.1500 
 32 H        3.2720    -2.5010    -0.3030 H     1 <1>   0.0800 
 33 H        2.3950    -2.0260     1.1460 H     1 <1>   0.0800 
 34 H        2.0300    -1.2590    -0.4110 H     1 <1>   0.0800 
 35 H       -5.4650    -9.0810    -2.6980 H     1 <1>   0.0800 
 36 H       -4.6620    -9.2910    -1.1580 H     1 <1>   0.0800 
 37 H       -6.6270    -6.8330     0.2560 H     1 <1>   0.0800 
 38 H       -7.2880    -6.1560    -1.2240 H     1 <1>   0.0800 
 39 H       -7.2190   -10.1650    -1.7480 H     1 <1>   0.0800 
 40 H       -8.3200    -8.1330    -1.8220 H     1 <1>   0.0800 
 41 H       -6.1760    -9.4230     0.9820 H     1 <1>   0.0800 
 42 H       -5.8670   -10.9380     0.1970 H     1 <1>   0.0800 
 43 H       -9.6290    -7.7570     0.0960 H     1 <1>   0.0800 
 44 H       -8.2890    -7.9490     1.1690 H     1 <1>   0.0800 
 45 H       -7.7780   -10.8250     1.9390 H     1 <1>   0.0800 
 46 H       -9.8010    -9.8250     1.4490 H     1 <1>   0.0800 
 47 H       -8.9960   -11.9070    -0.1080 H     1 <1>   0.4000 
 48 H       -9.3700   -10.0580    -1.3140 H     1 <1>   0.4000 
@<TRIPOS>BOND
  1   1   2  1   
  2   2   3  ar  
  3   2   4  ar  
  4   3   5  1   
  5   3   6  ar  
  6   4   7  ar  
  7   4  29  1   
  8   5   8  1   
  9   6   9  ar  
 10   6  30  1   
 11   7   9  ar  
 12   7  31  1   
 13   8  32  1   
 14   8  33  1   
 15   8  34  1   
 16   9  10  1   
 17  10  11  1   
 18  10  12  2   
 19  11  13  1   
 20  12  14  1   
 21  12  15  1   
 22  13  14  2   
 23  14  16  1   
 24  15  17  ar  
 25  15  18  ar  
 26  16  19  1   
 27  16  20  1   
 28  19  21  1   
 29  19  35  1   
 30  19  36  1   
 31  20  22  1   
 32  20  37  1   
 33  20  38  1   
 34  21  22  1   
 35  21  23  1   
 36  21  39  1   
 37  22  24  1   
 38  22  40  1   
 39  23  25  1   
 40  23  41  1   
 41  23  42  1   
 42  24  26  1   
 43  24  43  1   
 44  24  44  1   
 45  25  26  1   
 46  25  27  1   
 47  25  45  1   
 48  26  28  1   
 49  26  46  1   
 50  27  47  1   
 51  28  48  1   
@<TRIPOS>SUBSTRUCTURE
  1 ****  12 GROUP 4 **** **** 0

# MOE 2024.06 (io_trps.svl 2023.06)
