@<TRIPOS>MOLECULE
NONAME
38 40 1 0 0 
SMALL
USER_CHARGES


@<TRIPOS>ATOM
  1 O       -0.0520    -0.1230     0.1850 O.2   1 <1>  -0.5700 
  2 C        0.7730    -0.8820    -0.2840 C.2   1 <1>   0.5440 
  3 N        0.3960    -2.1600    -0.5660 N.am  1 <1>  -0.7300 
  4 C        2.1350    -0.4410    -0.5390 C.ar  1 <1>   0.0860 
  5 C       -0.8560    -2.8320    -0.0970 C.3   1 <1>   0.2010 
  6 C        2.4140     0.8990    -0.8110 C.ar  1 <1>  -0.1500 
  7 C        3.2150    -1.3280    -0.5230 C.ar  1 <1>  -0.1500 
  8 C       -0.5860    -4.2540     0.4150 C.2   1 <1>   0.5690 
  9 C        3.7010     1.3350    -1.0660 C.ar  1 <1>  -0.1500 
 10 C        4.5050    -0.8990    -0.7770 C.ar  1 <1>  -0.1500 
 11 O        0.5510    -4.6790     0.3540 O.2   1 <1>  -0.5700 
 12 N       -1.6060    -5.0060     0.9230 N.am  1 <1>  -0.6600 
 13 C        4.7510     0.4350    -1.0510 C.ar  1 <1>  -0.1500 
 14 C       -3.0080    -4.6210     1.0410 C.3   1 <1>   0.2350 
 15 C       -1.6140    -6.4660     0.9060 C.3   1 <1>   0.2350 
 16 C       -3.7810    -5.5690     0.1310 C.3   1 <1>  -0.2420 
 17 C       -2.8140    -6.8610     0.0390 C.3   1 <1>  -0.2420 
 18 C       -4.9900    -4.6850    -0.1620 C.2   1 <1>   0.9470 
 19 C       -4.1400    -6.7940    -0.5820 C.3   1 <1>  -0.2000 
 20 C       -2.3560    -8.2510    -0.4050 C.2   1 <1>   0.9470 
 21 O       -4.9200    -3.8560    -1.0780 O.co2 1 <1>  -0.9000 
 22 O       -5.9610    -4.7260     0.6040 O.co2 1 <1>  -0.9000 
 23 O       -1.8950    -8.4220    -1.5400 O.co2 1 <1>  -0.9000 
 24 O       -2.3920    -9.1700     0.4250 O.co2 1 <1>  -0.9000 
 25 H        1.1000    -2.8500    -0.8440 H     1 <1>   0.3700 
 26 H       -1.3030    -2.2540     0.6910 H     1 <1>   0.0800 
 27 H       -1.5530    -2.8900    -0.9150 H     1 <1>   0.0800 
 28 H        1.6000     1.6040    -0.8210 H     1 <1>   0.1500 
 29 H        3.0470    -2.3670    -0.3000 H     1 <1>   0.1500 
 30 H        3.8870     2.3750    -1.2740 H     1 <1>   0.1500 
 31 H        5.3200    -1.6020    -0.7600 H     1 <1>   0.1500 
 32 H        5.7540     0.7710    -1.2490 H     1 <1>   0.1500 
 33 H       -3.3210    -4.7930     2.0570 H     1 <1>   0.0800 
 34 H       -3.1740    -3.5820     0.8090 H     1 <1>   0.0800 
 35 H       -0.6840    -6.8660     0.5330 H     1 <1>   0.0800 
 36 H       -1.7690    -6.8230     1.9090 H     1 <1>   0.0800 
 37 H       -4.1950    -6.7630    -1.6570 H     1 <1>   0.1000 
 38 H       -4.9230    -7.4070    -0.1690 H     1 <1>   0.1000 
@<TRIPOS>BOND
  1   1   2  2   
  2   2   3  am  
  3   2   4  1   
  4   3   5  1   
  5   3  25  1   
  6   4   6  ar  
  7   4   7  ar  
  8   5   8  1   
  9   5  26  1   
 10   5  27  1   
 11   6   9  ar  
 12   6  28  1   
 13   7  10  ar  
 14   7  29  1   
 15   8  11  2   
 16   8  12  am  
 17   9  13  ar  
 18   9  30  1   
 19  10  13  ar  
 20  10  31  1   
 21  12  14  1   
 22  12  15  1   
 23  13  32  1   
 24  14  16  1   
 25  14  33  1   
 26  14  34  1   
 27  15  17  1   
 28  15  35  1   
 29  15  36  1   
 30  16  17  1   
 31  16  18  1   
 32  16  19  1   
 33  17  19  1   
 34  17  20  1   
 35  18  21  ar  
 36  18  22  ar  
 37  19  37  1   
 38  19  38  1   
 39  20  23  ar  
 40  20  24  ar  
@<TRIPOS>SUBSTRUCTURE
  1 ****   8 GROUP 4 **** **** 0

# MOE 2024.06 (io_trps.svl 2023.06)
