@<TRIPOS>MOLECULE
NONAME
57 60 1 0 0 
SMALL
USER_CHARGES


@<TRIPOS>ATOM
  1 O       -0.7740     0.9350     1.8950 O.3   1 <1>  -0.5600 
  2 C        0.1300     0.8060     0.8500 C.3   1 <1>   0.1200 
  3 C       -2.0430     1.1910     1.3690 C.3   1 <1>   0.1200 
  4 C       -0.2870     1.9330    -0.0900 C.3   1 <1>   0.4230 
  5 C       -1.8070     1.8040    -0.0250 C.3   1 <1>  -0.0800 
  6 N        0.0970     3.2310     0.5290 N.4   1 <1>  -0.9060 
  7 C       -2.3520     0.9050    -1.1530 C.3   1 <1>  -0.0170 
  8 C        1.5290     3.5890     0.4580 C.3   1 <1>   0.4230 
  9 C       -3.8670     0.7980    -1.0790 C.ar  1 <1>  -0.1440 
 10 C        1.7650     4.7480     1.4290 C.3   1 <1>  -0.1600 
 11 C        1.9000     3.9430    -0.9880 C.3   1 <1>  -0.1600 
 12 C       -4.6910     1.8200    -1.5070 C.ar  1 <1>  -0.1500 
 13 C       -4.4990    -0.3250    -0.5830 C.ar  1 <1>  -0.1500 
 14 C        3.1980     5.2600     1.3140 C.3   1 <1>   0.2090 
 15 C        3.3280     4.4750    -1.0610 C.3   1 <1>   0.2090 
 16 C       -6.0660     1.6780    -1.4110 C.ar  1 <1>   0.1600 
 17 C       -5.8820    -0.3660    -0.5290 C.ar  1 <1>   0.1600 
 18 N        3.4290     5.5940    -0.1040 N.pl3 1 <1>  -0.8380 
 19 N       -6.6780     0.6110    -0.9260 N.ar  1 <1>  -0.6200 
 20 C        4.2890     6.6560    -0.3780 C.ar  1 <1>   0.1000 
 21 C        3.8720     7.9580    -0.1350 C.ar  1 <1>  -0.1500 
 22 C        5.5690     6.4530    -0.8840 C.ar  1 <1>  -0.1500 
 23 C        4.6990     9.0370    -0.3860 C.ar  1 <1>   0.0820 
 24 C        6.4050     7.5240    -1.1430 C.ar  1 <1>  -0.1500 
 25 O        4.1970    10.2690    -0.1130 O.3   1 <1>  -0.3630 
 26 C        5.9760     8.8170    -0.8970 C.ar  1 <1>  -0.1500 
 27 C        4.9510    11.4350    -0.3580 C.3   1 <1>   0.0400 
 28 H        1.1340     0.8940     1.2240 H     1 <1>   0.0800 
 29 H       -0.0080    -0.1630     0.3990 H     1 <1>   0.0800 
 30 H       -2.5820     0.2590     1.3270 H     1 <1>   0.0800 
 31 H       -2.5580     1.8670     2.0300 H     1 <1>   0.0800 
 32 H        0.1050     1.8280    -1.0880 H     1 <1>   0.0800 
 33 H       -2.2910     2.7620    -0.0990 H     1 <1>   0.0800 
 34 H       -0.4540     4.0010     0.1380 H     1 <1>   0.4500 
 35 H       -0.1680     3.1390     1.5220 H     1 <1>   0.4500 
 36 H       -1.9230    -0.0810    -1.0980 H     1 <1>   0.0800 
 37 H       -2.0880     1.3190    -2.1120 H     1 <1>   0.0800 
 38 H        2.1340     2.7560     0.7780 H     1 <1>   0.0800 
 39 H        1.1060     5.5700     1.2080 H     1 <1>   0.0800 
 40 H        1.5960     4.4300     2.4420 H     1 <1>   0.0800 
 41 H        1.8310     3.0800    -1.6240 H     1 <1>   0.0800 
 42 H        1.2460     4.7090    -1.3670 H     1 <1>   0.0800 
 43 H       -4.2870     2.7260    -1.9200 H     1 <1>   0.1500 
 44 H       -3.9380    -1.1750    -0.2370 H     1 <1>   0.1500 
 45 H        3.9060     4.5110     1.6300 H     1 <1>   0.0800 
 46 H        3.3330     6.1360     1.9270 H     1 <1>   0.0800 
 47 H        3.5440     4.8280    -2.0570 H     1 <1>   0.0800 
 48 H        4.0420     3.7110    -0.8020 H     1 <1>   0.0800 
 49 H       -6.6960     2.4830    -1.7500 H     1 <1>   0.1500 
 50 H       -6.3590    -1.2490    -0.1380 H     1 <1>   0.1500 
 51 H        2.8870     8.1330     0.2520 H     1 <1>   0.1500 
 52 H        5.9150     5.4550    -1.0700 H     1 <1>   0.1500 
 53 H        7.3920     7.3520    -1.5350 H     1 <1>   0.1500 
 54 H        6.6440     9.6310    -1.1050 H     1 <1>   0.1500 
 55 H        4.3530    12.2830    -0.0780 H     1 <1>   0.0800 
 56 H        5.1860    11.4840    -1.4070 H     1 <1>   0.0800 
 57 H        5.8450    11.4040     0.2380 H     1 <1>   0.0800 
@<TRIPOS>BOND
  1   1   2  1   
  2   1   3  1   
  3   2   4  1   
  4   2  28  1   
  5   2  29  1   
  6   3   5  1   
  7   3  30  1   
  8   3  31  1   
  9   4   5  1   
 10   4   6  1   
 11   4  32  1   
 12   5   7  1   
 13   5  33  1   
 14   6   8  1   
 15   6  34  1   
 16   6  35  1   
 17   7   9  1   
 18   7  36  1   
 19   7  37  1   
 20   8  10  1   
 21   8  11  1   
 22   8  38  1   
 23   9  12  ar  
 24   9  13  ar  
 25  10  14  1   
 26  10  39  1   
 27  10  40  1   
 28  11  15  1   
 29  11  41  1   
 30  11  42  1   
 31  12  16  ar  
 32  12  43  1   
 33  13  17  ar  
 34  13  44  1   
 35  14  18  1   
 36  14  45  1   
 37  14  46  1   
 38  15  18  1   
 39  15  47  1   
 40  15  48  1   
 41  16  19  ar  
 42  16  49  1   
 43  17  19  ar  
 44  17  50  1   
 45  18  20  1   
 46  20  21  ar  
 47  20  22  ar  
 48  21  23  ar  
 49  21  51  1   
 50  22  24  ar  
 51  22  52  1   
 52  23  25  1   
 53  23  26  ar  
 54  24  26  ar  
 55  24  53  1   
 56  25  27  1   
 57  26  54  1   
 58  27  55  1   
 59  27  56  1   
 60  27  57  1   
@<TRIPOS>SUBSTRUCTURE
  1 ****   8 GROUP 4 **** **** 0

# MOE 2024.06 (io_trps.svl 2023.06)
