@<TRIPOS>MOLECULE
NONAME
45 47 1 0 0 
SMALL
USER_CHARGES


@<TRIPOS>ATOM
  1 O       -0.3100     0.2020     0.0450 O.2   1 <1>  -0.5700 
  2 C       -1.3180     0.8400    -0.1540 C.2   1 <1>   0.5690 
  3 N       -2.4590     0.1990    -0.5790 N.am  1 <1>  -0.6600 
  4 C       -1.2290     2.3520     0.1080 C.3   1 <1>  -0.0190 
  5 C       -3.8070     0.7640    -0.8430 C.3   1 <1>   0.1400 
  6 C       -2.5020    -1.2720    -0.7380 C.3   1 <1>   0.1400 
  7 C       -1.9420     2.7800     1.4070 C.3   1 <1>  -0.1600 
  8 C       -1.6400     3.2450    -1.0820 C.3   1 <1>  -0.1600 
  9 C       -4.7500    -0.4410    -0.9310 C.3   1 <1>   0.2000 
 10 C       -3.9520    -1.6500    -0.4430 C.3   1 <1>  -0.0800 
 11 C       -1.7170     4.2700     1.7040 C.3   1 <1>  -0.1600 
 12 C       -1.3990     4.7280    -0.7690 C.3   1 <1>  -0.1600 
 13 O       -5.8670    -0.2650    -0.1300 O.3   1 <1>  -0.6800 
 14 C       -4.4010    -2.9610    -1.1070 C.3   1 <1>   0.0200 
 15 C       -2.1300     5.1470     0.5140 C.3   1 <1>  -0.1600 
 16 C       -3.6440    -4.1790    -0.6050 C.2   1 <1>  -0.0400 
 17 O       -3.8080    -5.3170    -1.2260 O.3   1 <1>  -0.0190 
 18 C       -2.7830    -4.3870     0.4050 C.2   1 <1>  -0.1500 
 19 N       -3.1010    -6.2710    -0.6920 N.2   1 <1>  -0.4100 
 20 C       -2.4720    -5.7390     0.2930 C.2   1 <1>   0.1080 
 21 C       -1.5240    -6.4880     1.2030 C.3   1 <1>  -0.0590 
 22 H       -0.1820     2.5460     0.2690 H     1 <1>   0.0800 
 23 H       -4.1060     1.4280    -0.0550 H     1 <1>   0.0800 
 24 H       -3.8030     1.2820    -1.7850 H     1 <1>   0.0800 
 25 H       -2.2350    -1.5210    -1.7520 H     1 <1>   0.0800 
 26 H       -1.8190    -1.7580    -0.0630 H     1 <1>   0.0800 
 27 H       -2.9960     2.5980     1.3340 H     1 <1>   0.0800 
 28 H       -1.5640     2.1940     2.2280 H     1 <1>   0.0800 
 29 H       -1.0730     2.9640    -1.9530 H     1 <1>   0.0800 
 30 H       -2.6810     3.1190    -1.3060 H     1 <1>   0.0800 
 31 H       -5.0830    -0.5670    -1.9480 H     1 <1>   0.0800 
 32 H       -4.0500    -1.7370     0.6250 H     1 <1>   0.0800 
 33 H       -2.2810     4.5540     2.5750 H     1 <1>   0.0800 
 34 H       -0.6750     4.4350     1.9200 H     1 <1>   0.0800 
 35 H       -0.3430     4.9030    -0.6510 H     1 <1>   0.0800 
 36 H       -1.7420     5.3310    -1.5920 H     1 <1>   0.0800 
 37 H       -5.6040    -0.1860     0.8070 H     1 <1>   0.4000 
 38 H       -4.2660    -2.8900    -2.1720 H     1 <1>   0.0800 
 39 H       -5.4500    -3.1140    -0.9200 H     1 <1>   0.0800 
 40 H       -1.9070     6.1770     0.7340 H     1 <1>   0.0800 
 41 H       -3.1930     5.0660     0.3630 H     1 <1>   0.0800 
 42 H       -2.3970    -3.7110     1.1450 H     1 <1>   0.1500 
 43 H       -0.5490    -6.0400     1.1610 H     1 <1>   0.0800 
 44 H       -1.4500    -7.5140     0.8900 H     1 <1>   0.0800 
 45 H       -1.8880    -6.4580     2.2130 H     1 <1>   0.0800 
@<TRIPOS>BOND
  1   1   2  2   
  2   2   3  am  
  3   2   4  1   
  4   3   5  1   
  5   3   6  1   
  6   4   7  1   
  7   4   8  1   
  8   4  22  1   
  9   5   9  1   
 10   5  23  1   
 11   5  24  1   
 12   6  10  1   
 13   6  25  1   
 14   6  26  1   
 15   7  11  1   
 16   7  27  1   
 17   7  28  1   
 18   8  12  1   
 19   8  29  1   
 20   8  30  1   
 21   9  10  1   
 22   9  13  1   
 23   9  31  1   
 24  10  14  1   
 25  10  32  1   
 26  11  15  1   
 27  11  33  1   
 28  11  34  1   
 29  12  15  1   
 30  12  35  1   
 31  12  36  1   
 32  13  37  1   
 33  14  16  1   
 34  14  38  1   
 35  14  39  1   
 36  15  40  1   
 37  15  41  1   
 38  16  17  1   
 39  16  18  2   
 40  17  19  1   
 41  18  20  1   
 42  18  42  1   
 43  19  20  2   
 44  20  21  1   
 45  21  43  1   
 46  21  44  1   
 47  21  45  1   
@<TRIPOS>SUBSTRUCTURE
  1 ****   6 GROUP 4 **** **** 0

# MOE 2024.06 (io_trps.svl 2023.06)
