@<TRIPOS>MOLECULE
NONAME
48 50 1 0 0 
SMALL
USER_CHARGES


@<TRIPOS>ATOM
  1 O       -0.1840     0.4370     1.7500 O.3   1 <1>  -0.5600 
  2 C        0.6770     0.4220     0.6580 C.3   1 <1>   0.1200 
  3 C       -1.5050     0.5330     1.3070 C.3   1 <1>   0.1200 
  4 C        0.0330     1.3860    -0.3320 C.3   1 <1>   0.2890 
  5 C       -1.4380     1.0130    -0.1510 C.3   1 <1>  -0.0800 
  6 N        0.2900     2.7730     0.1490 N.pl3 1 <1>  -0.8690 
  7 C       -2.4750     2.1010    -0.4930 C.3   1 <1>  -0.0170 
  8 C        0.8620     3.8610    -0.4230 C.ar  1 <1>   0.4610 
  9 C       -3.8900     1.5720    -0.3150 C.ar  1 <1>  -0.1440 
 10 N        1.1930     3.8710    -1.7240 N.ar  1 <1>  -0.1790 
 11 C        1.1350     5.0090     0.2820 C.ar  1 <1>  -0.1500 
 12 C       -4.4860     0.7510    -1.2510 C.ar  1 <1>  -0.1500 
 13 C       -4.6530     1.8840     0.7930 C.ar  1 <1>  -0.1500 
 14 C        1.7680     4.9460    -2.3010 C.ar  1 <1>   0.7710 
 15 C        1.7220     6.0750    -0.3660 C.ar  1 <1>   0.3930 
 16 C       -5.7750     0.2890    -1.0370 C.ar  1 <1>   0.1600 
 17 C       -5.9340     1.3690     0.9110 C.ar  1 <1>   0.1600 
 18 N        2.0420     6.0520    -1.6580 N.ar  1 <1>  -0.6200 
 19 N        2.0870     4.9160    -3.5950 N.pl3 1 <1>  -0.9000 
 20 O        1.9720     7.1660     0.3540 O.3   1 <1>  -0.3620 
 21 N       -6.5110     0.5770     0.0240 N.ar  1 <1>  -0.6200 
 22 C        2.6060     8.3300    -0.1360 C.3   1 <1>   0.2000 
 23 C        4.1200     8.1260    -0.0680 C.3   1 <1>  -0.2400 
 24 C        2.1630     9.4910     0.7500 C.3   1 <1>  -0.2400 
 25 H        1.6610     0.7260     0.9690 H     1 <1>   0.0800 
 26 H        0.7050    -0.5820     0.2700 H     1 <1>   0.0800 
 27 H       -1.9700    -0.4350     1.3850 H     1 <1>   0.0800 
 28 H       -2.0160     1.2320     1.9460 H     1 <1>   0.0800 
 29 H        0.3850     1.2300    -1.3360 H     1 <1>   0.0800 
 30 H       -1.6400     0.1560    -0.7700 H     1 <1>   0.0800 
 31 H        0.0990     2.8030     1.1650 H     1 <1>   0.4000 
 32 H       -2.3480     2.4180    -1.5130 H     1 <1>   0.0800 
 33 H       -2.3410     2.9630     0.1370 H     1 <1>   0.0800 
 34 H        1.0040     3.0650    -2.2970 H     1 <1>   0.4570 
 35 H        0.9000     5.0870     1.3270 H     1 <1>   0.1500 
 36 H       -3.9680     0.4610    -2.1460 H     1 <1>   0.1500 
 37 H       -4.2700     2.5220     1.5690 H     1 <1>   0.1500 
 38 H       -6.2250    -0.3510    -1.7770 H     1 <1>   0.1500 
 39 H       -6.5140     1.6220     1.7830 H     1 <1>   0.1500 
 40 H        1.9680     4.1610    -4.2730 H     1 <1>   0.4000 
 41 H        2.5220     5.7570    -3.9900 H     1 <1>   0.4000 
 42 H        2.2850     8.5080    -1.1490 H     1 <1>   0.0800 
 43 H        4.4280     7.9220     0.9420 H     1 <1>   0.0800 
 44 H        4.6230     9.0150    -0.4050 H     1 <1>   0.0800 
 45 H        4.4190     7.3140    -0.7050 H     1 <1>   0.0800 
 46 H        2.4520     9.3200     1.7710 H     1 <1>   0.0800 
 47 H        1.0960     9.6100     0.6960 H     1 <1>   0.0800 
 48 H        2.6200    10.4040     0.4130 H     1 <1>   0.0800 
@<TRIPOS>BOND
  1   1   2  1   
  2   1   3  1   
  3   2   4  1   
  4   2  25  1   
  5   2  26  1   
  6   3   5  1   
  7   3  27  1   
  8   3  28  1   
  9   4   5  1   
 10   4   6  1   
 11   4  29  1   
 12   5   7  1   
 13   5  30  1   
 14   6   8  1   
 15   6  31  1   
 16   7   9  1   
 17   7  32  1   
 18   7  33  1   
 19   8  10  ar  
 20   8  11  ar  
 21   9  12  ar  
 22   9  13  ar  
 23  10  14  ar  
 24  10  34  1   
 25  11  15  ar  
 26  11  35  1   
 27  12  16  ar  
 28  12  36  1   
 29  13  17  ar  
 30  13  37  1   
 31  14  18  ar  
 32  14  19  1   
 33  15  18  ar  
 34  15  20  1   
 35  16  21  ar  
 36  16  38  1   
 37  17  21  ar  
 38  17  39  1   
 39  19  40  1   
 40  19  41  1   
 41  20  22  1   
 42  22  23  1   
 43  22  24  1   
 44  22  42  1   
 45  23  43  1   
 46  23  44  1   
 47  23  45  1   
 48  24  46  1   
 49  24  47  1   
 50  24  48  1   
@<TRIPOS>SUBSTRUCTURE
  1 ****   6 GROUP 4 **** **** 0

# MOE 2024.06 (io_trps.svl 2023.06)
