@<TRIPOS>MOLECULE
NONAME
51 53 1 0 0 
SMALL
USER_CHARGES


@<TRIPOS>ATOM
  1 O       -0.9880     0.4780    -1.9870 O.2   1 <1>  -0.5700 
  2 C       -1.1700     1.1840    -1.0270 C.2   1 <1>   0.5690 
  3 N       -1.9760     0.9170     0.0180 N.am  1 <1>  -0.6600 
  4 C       -0.5140     2.5250    -0.8640 C.3   1 <1>  -0.0990 
  5 C       -2.0160     2.0200     0.9950 C.3   1 <1>   0.1400 
  6 C       -2.9360    -0.2070     0.0840 C.3   1 <1>   0.2840 
  7 C       -0.7970     2.8770     0.6120 C.3   1 <1>  -0.0190 
  8 C       -4.3550     0.3290    -0.0150 C.ar  1 <1>  -0.1440 
  9 C       -0.9960     4.3550     0.9200 C.2   1 <1>   0.5690 
 10 C       -5.1680     0.4040     1.1050 C.ar  1 <1>  -0.1500 
 11 C       -4.8460     0.7560    -1.2390 C.ar  1 <1>  -0.1500 
 12 O       -1.6970     4.6500     1.8540 O.2   1 <1>  -0.5700 
 13 N       -0.3430     5.2760     0.1480 N.am  1 <1>  -0.4940 
 14 C       -6.4560     0.9010     1.0020 C.ar  1 <1>  -0.1500 
 15 C       -6.1340     1.2520    -1.3410 C.ar  1 <1>  -0.1500 
 16 C       -0.3520     6.6740     0.2330 C.2   1 <1>   0.2040 
 17 C       -6.9460     1.3300    -0.2210 C.ar  1 <1>  -0.1430 
 18 O       -1.0340     7.3190     1.1490 O.3   1 <1>  -0.0190 
 19 C        0.2760     7.5930    -0.5290 C.2   1 <1>  -0.1810 
 20 C       -8.3590     1.8780    -0.3330 C.3   1 <1>  -0.0170 
 21 N       -0.8930     8.6160     1.0400 N.2   1 <1>  -0.4100 
 22 C       -0.1100     8.8070     0.0390 C.2   1 <1>   0.1080 
 23 C        1.1920     7.4040    -1.7270 C.3   1 <1>  -0.0590 
 24 C       -9.3520     0.7500    -0.6250 C.3   1 <1>  -0.2400 
 25 C        0.3140    10.1890    -0.4270 C.3   1 <1>   0.0210 
 26 C        1.6510    10.6020     0.1980 C.3   1 <1>  -0.2400 
 27 H       -0.9960     3.2080    -1.5400 H     1 <1>   0.0800 
 28 H        0.5380     2.4620    -1.0750 H     1 <1>   0.0800 
 29 H       -1.9420     1.6550     2.0050 H     1 <1>   0.0800 
 30 H       -2.9350     2.5710     0.8730 H     1 <1>   0.0800 
 31 H       -2.7980    -0.7410     1.0080 H     1 <1>   0.0800 
 32 H       -2.7510    -0.8900    -0.7280 H     1 <1>   0.0800 
 33 H        0.0280     2.5330     1.2090 H     1 <1>   0.0800 
 34 H       -4.8040     0.0780     2.0640 H     1 <1>   0.1500 
 35 H       -4.2220     0.7040    -2.1140 H     1 <1>   0.1500 
 36 H        0.2360     4.9050    -0.5970 H     1 <1>   0.3700 
 37 H       -7.0760     0.9540     1.8790 H     1 <1>   0.1500 
 38 H       -6.5010     1.5780    -2.2980 H     1 <1>   0.1500 
 39 H       -8.4030     2.6100    -1.1200 H     1 <1>   0.0800 
 40 H       -8.6310     2.3700     0.5840 H     1 <1>   0.0800 
 41 H        1.3200     6.3610    -1.9510 H     1 <1>   0.0800 
 42 H        2.1570     7.8310    -1.5220 H     1 <1>   0.0800 
 43 H        0.7720     7.8900    -2.5900 H     1 <1>   0.0800 
 44 H       -9.0970     0.2630    -1.5500 H     1 <1>   0.0800 
 45 H      -10.3490     1.1450    -0.7040 H     1 <1>   0.0800 
 46 H       -9.3270     0.0220     0.1650 H     1 <1>   0.0800 
 47 H       -0.4450    10.8970    -0.1430 H     1 <1>   0.0800 
 48 H        0.3900    10.2020    -1.4990 H     1 <1>   0.0800 
 49 H        1.5660    10.6040     1.2710 H     1 <1>   0.0800 
 50 H        1.9240    11.5890    -0.1290 H     1 <1>   0.0800 
 51 H        2.4270     9.9140    -0.0840 H     1 <1>   0.0800 
@<TRIPOS>BOND
  1   1   2  2   
  2   2   3  am  
  3   2   4  1   
  4   3   5  1   
  5   3   6  1   
  6   4   7  1   
  7   4  27  1   
  8   4  28  1   
  9   5   7  1   
 10   5  29  1   
 11   5  30  1   
 12   6   8  1   
 13   6  31  1   
 14   6  32  1   
 15   7   9  1   
 16   7  33  1   
 17   8  10  ar  
 18   8  11  ar  
 19   9  12  2   
 20   9  13  am  
 21  10  14  ar  
 22  10  34  1   
 23  11  15  ar  
 24  11  35  1   
 25  13  16  1   
 26  13  36  1   
 27  14  17  ar  
 28  14  37  1   
 29  15  17  ar  
 30  15  38  1   
 31  16  18  1   
 32  16  19  2   
 33  17  20  1   
 34  18  21  1   
 35  19  22  1   
 36  19  23  1   
 37  20  24  1   
 38  20  39  1   
 39  20  40  1   
 40  21  22  2   
 41  22  25  1   
 42  23  41  1   
 43  23  42  1   
 44  23  43  1   
 45  24  44  1   
 46  24  45  1   
 47  24  46  1   
 48  25  26  1   
 49  25  47  1   
 50  25  48  1   
 51  26  49  1   
 52  26  50  1   
 53  26  51  1   
@<TRIPOS>SUBSTRUCTURE
  1 ****   9 GROUP 4 **** **** 0

# MOE 2024.06 (io_trps.svl 2023.06)
