@<TRIPOS>MOLECULE
NONAME
39 40 1 0 0 
SMALL
USER_CHARGES


@<TRIPOS>ATOM
  1 O        2.6170     2.8150     0.7620 O.2   1 <1>  -0.5700 
  2 C        2.5890     1.6520     0.4370 C.2   1 <1>   0.5690 
  3 N        3.3380     1.0950    -0.5390 N.am  1 <1>  -0.6600 
  4 C        1.7070     0.6270     1.0920 C.3   1 <1>  -0.0990 
  5 C        3.0830    -0.3470    -0.7000 C.3   1 <1>   0.1400 
  6 C        4.2430     1.8190    -1.4640 C.3   1 <1>   0.1400 
  7 C        2.2030    -0.7060     0.5060 C.3   1 <1>  -0.1600 
  8 C        5.4960     2.2970    -0.7220 C.3   1 <1>  -0.0990 
  9 C        5.6140     3.8030    -0.7760 C.2   1 <1>   0.5690 
 10 O        6.4710     4.2780    -1.4800 O.2   1 <1>  -0.5700 
 11 N        4.7350     4.5440    -0.0410 N.am  1 <1>  -0.4940 
 12 C        4.5780     5.9460     0.0920 C.2   1 <1>  -0.0880 
 13 N        5.5450     6.9060     0.1960 N.pl3 1 <1>   0.3140 
 14 C        3.3920     6.5910     0.1810 C.2   1 <1>  -0.1810 
 15 N        4.9950     8.1370     0.3480 N.2   1 <1>  -0.7070 
 16 C        7.0180     6.7630     0.2660 C.3   1 <1>   0.0960 
 17 C        3.7160     7.9320     0.3350 C.2   1 <1>   0.1390 
 18 C        1.9930     6.0060     0.1310 C.3   1 <1>  -0.0590 
 19 C        7.4620     6.0070     1.5270 C.3   1 <1>  -0.2400 
 20 H        0.6860     0.8180     0.8160 H     1 <1>   0.0800 
 21 H        1.8130     0.6620     2.1600 H     1 <1>   0.0800 
 22 H        4.0060    -0.9020    -0.6920 H     1 <1>   0.0800 
 23 H        2.5580    -0.5180    -1.6250 H     1 <1>   0.0800 
 24 H        3.7110     2.6560    -1.8860 H     1 <1>   0.0800 
 25 H        4.5270     1.1690    -2.2740 H     1 <1>   0.0800 
 26 H        1.3890    -1.3480     0.2190 H     1 <1>   0.0800 
 27 H        2.8050    -1.2210     1.2350 H     1 <1>   0.0800 
 28 H        6.3640     1.8730    -1.1920 H     1 <1>   0.0800 
 29 H        5.4890     1.9820     0.3050 H     1 <1>   0.0800 
 30 H        3.9620     3.9980     0.3730 H     1 <1>   0.3700 
 31 H        7.4420     7.7500     0.2800 H     1 <1>   0.0800 
 32 H        7.3680     6.2750    -0.6210 H     1 <1>   0.0800 
 33 H        2.9930     8.7240     0.4350 H     1 <1>   0.1500 
 34 H        1.9740     5.1450    -0.5120 H     1 <1>   0.0800 
 35 H        1.2980     6.7330    -0.2480 H     1 <1>   0.0800 
 36 H        1.6870     5.7080     1.1180 H     1 <1>   0.0800 
 37 H        7.1060     6.5170     2.4050 H     1 <1>   0.0800 
 38 H        8.5350     5.9640     1.5640 H     1 <1>   0.0800 
 39 H        7.0810     5.0030     1.5170 H     1 <1>   0.0800 
@<TRIPOS>BOND
  1   1   2  2   
  2   2   3  am  
  3   2   4  1   
  4   3   5  1   
  5   3   6  1   
  6   4   7  1   
  7   4  20  1   
  8   4  21  1   
  9   5   7  1   
 10   5  22  1   
 11   5  23  1   
 12   6   8  1   
 13   6  24  1   
 14   6  25  1   
 15   7  26  1   
 16   7  27  1   
 17   8   9  1   
 18   8  28  1   
 19   8  29  1   
 20   9  10  2   
 21   9  11  am  
 22  11  12  1   
 23  11  30  1   
 24  12  13  1   
 25  12  14  2   
 26  13  15  1   
 27  13  16  1   
 28  14  17  1   
 29  14  18  1   
 30  15  17  2   
 31  16  19  1   
 32  16  31  1   
 33  16  32  1   
 34  17  33  1   
 35  18  34  1   
 36  18  35  1   
 37  18  36  1   
 38  19  37  1   
 39  19  38  1   
 40  19  39  1   
@<TRIPOS>SUBSTRUCTURE
  1 ****  11 GROUP 4 **** **** 0

# MOE 2024.06 (io_trps.svl 2023.06)
