@<TRIPOS>MOLECULE
NONAME
40 41 1 0 0 
SMALL
USER_CHARGES


@<TRIPOS>ATOM
  1 O        4.0400    -1.1860    -0.0910 O.2   1 <1>  -0.5700 
  2 C        2.8430    -1.3380    -0.1510 C.2   1 <1>   0.5690 
  3 N        1.9660    -0.2960    -0.2690 N.am  1 <1>  -0.4940 
  4 C        2.2880    -2.7670    -0.1260 C.3   1 <1>   0.1250 
  5 C        2.1680     1.0870    -0.3170 C.2   1 <1>   0.2040 
  6 C        0.7780    -2.7990    -0.4090 C.ar  1 <1>  -0.1440 
  7 C        2.6630    -3.4990     1.1830 C.3   1 <1>  -0.1600 
  8 O        1.2370     1.8200    -0.8780 O.3   1 <1>  -0.0190 
  9 C        3.1420     1.9240     0.1010 C.2   1 <1>  -0.1810 
 10 C       -0.1500    -2.4280     0.5570 C.ar  1 <1>  -0.1500 
 11 C        0.3240    -3.1840    -1.6630 C.ar  1 <1>  -0.1500 
 12 C        2.1940    -4.9610     1.2130 C.3   1 <1>  -0.2400 
 13 N        1.5400     3.0900    -0.8760 N.2   1 <1>  -0.4100 
 14 C        2.6840     3.1810    -0.2980 C.2   1 <1>   0.1080 
 15 C        4.4370     1.6250     0.8390 C.3   1 <1>  -0.0590 
 16 C       -1.5040    -2.4400     0.2730 C.ar  1 <1>  -0.1500 
 17 C       -1.0310    -3.1960    -1.9470 C.ar  1 <1>  -0.1500 
 18 C        3.3990     4.5060    -0.0970 C.3   1 <1>   0.0210 
 19 C       -1.9460    -2.8230    -0.9800 C.ar  1 <1>  -0.1500 
 20 C        4.5530     4.6760    -1.0910 C.3   1 <1>  -0.2400 
 21 H        1.0000    -0.5810    -0.4490 H     1 <1>   0.3700 
 22 H        2.7870    -3.2880    -0.9240 H     1 <1>   0.0800 
 23 H        2.2530    -2.9740     2.0280 H     1 <1>   0.0800 
 24 H        3.7350    -3.4830     1.2900 H     1 <1>   0.0800 
 25 H        0.1700    -2.1250     1.5390 H     1 <1>   0.1500 
 26 H        1.0190    -3.4760    -2.4310 H     1 <1>   0.1500 
 27 H        1.1210    -5.0230     1.1700 H     1 <1>   0.0800 
 28 H        2.5230    -5.4330     2.1220 H     1 <1>   0.0800 
 29 H        2.6040    -5.5050     0.3800 H     1 <1>   0.0800 
 30 H        4.3010     0.7920     1.5030 H     1 <1>   0.0800 
 31 H        4.7510     2.4690     1.4250 H     1 <1>   0.0800 
 32 H        5.2110     1.3810     0.1330 H     1 <1>   0.0800 
 33 H       -2.2150    -2.1510     1.0280 H     1 <1>   0.1500 
 34 H       -1.3730    -3.4960    -2.9230 H     1 <1>   0.1500 
 35 H        3.7680     4.5670     0.9110 H     1 <1>   0.0800 
 36 H        2.6930     5.3060    -0.2350 H     1 <1>   0.0800 
 37 H       -2.9990    -2.8330    -1.2010 H     1 <1>   0.1500 
 38 H        5.2820     3.8970    -0.9580 H     1 <1>   0.0800 
 39 H        5.0310     5.6280    -0.9460 H     1 <1>   0.0800 
 40 H        4.1770     4.6260    -2.0980 H     1 <1>   0.0800 
@<TRIPOS>BOND
  1   1   2  2   
  2   2   3  am  
  3   2   4  1   
  4   3   5  1   
  5   3  21  1   
  6   4   6  1   
  7   4   7  1   
  8   4  22  1   
  9   5   8  1   
 10   5   9  2   
 11   6  10  ar  
 12   6  11  ar  
 13   7  12  1   
 14   7  23  1   
 15   7  24  1   
 16   8  13  1   
 17   9  14  1   
 18   9  15  1   
 19  10  16  ar  
 20  10  25  1   
 21  11  17  ar  
 22  11  26  1   
 23  12  27  1   
 24  12  28  1   
 25  12  29  1   
 26  13  14  2   
 27  14  18  1   
 28  15  30  1   
 29  15  31  1   
 30  15  32  1   
 31  16  19  ar  
 32  16  33  1   
 33  17  19  ar  
 34  17  34  1   
 35  18  20  1   
 36  18  35  1   
 37  18  36  1   
 38  19  37  1   
 39  20  38  1   
 40  20  39  1   
 41  20  40  1   
@<TRIPOS>SUBSTRUCTURE
  1 ****   3 GROUP 4 **** **** 0

# MOE 2024.06 (io_trps.svl 2023.06)
