@<TRIPOS>MOLECULE
NONAME
47 49 1 0 0 
SMALL
USER_CHARGES


@<TRIPOS>ATOM
  1 O       -0.6990     0.0830     1.8450 O.2   1 <1>  -0.5700 
  2 C       -1.4100     0.6290     1.0280 C.2   1 <1>   0.5440 
  3 N       -2.1310    -0.1400     0.1350 N.am  1 <1>  -0.6600 
  4 C       -1.5360     2.0710     1.0470 C.ar  1 <1>   0.0860 
  5 C       -2.1190    -1.6320     0.2370 C.3   1 <1>   0.3200 
  6 C       -3.0580     0.4530    -0.8810 C.3   1 <1>   0.1400 
  7 C       -1.0410     2.8640     0.0120 C.ar  1 <1>  -0.1500 
  8 C       -2.1950     2.7080     2.1010 C.ar  1 <1>  -0.1500 
  9 C       -3.5480    -2.1030     0.4240 C.2   1 <1>  -0.3320 
 10 C       -4.3840     0.8810    -0.2180 C.3   1 <1>   0.3430 
 11 C       -1.2480     4.2290     0.0030 C.ar  1 <1>   0.0830 
 12 C       -2.4010     4.0760     2.1020 C.ar  1 <1>  -0.1500 
 13 N       -4.2150    -2.9140    -0.4210 N.pl3 1 <1>   0.0330 
 14 C       -4.4080    -1.7990     1.4200 C.2   1 <1>   0.0770 
 15 N       -5.1150     1.9600    -0.9630 N.4   1 <1>  -0.9590 
 16 O       -0.7740     4.9570    -1.0350 O.3   1 <1>  -0.3620 
 17 C       -1.9440     4.8420     1.0450 C.ar  1 <1>   0.0830 
 18 C       -5.4570    -3.0090     0.0970 C.2   1 <1>   0.0360 
 19 N       -5.6190    -2.3360     1.1900 N.2   1 <1>  -0.5650 
 20 C       -4.4180     3.2840    -0.8650 C.3   1 <1>   0.2630 
 21 C       -6.5050     2.0720    -0.4200 C.3   1 <1>   0.2630 
 22 C       -0.5900     6.3400    -0.7910 C.3   1 <1>   0.1200 
 23 O       -2.1880     6.1720     1.0420 O.3   1 <1>  -0.3630 
 24 C       -1.8340     6.9260    -0.1070 C.3   1 <1>   0.1200 
 25 H       -1.5240    -1.9660     1.0700 H     1 <1>   0.0800 
 26 H       -1.6920    -2.0470    -0.6600 H     1 <1>   0.0800 
 27 H       -3.2600    -0.2720    -1.6500 H     1 <1>   0.0800 
 28 H       -2.5780     1.2920    -1.3450 H     1 <1>   0.0800 
 29 H       -0.4850     2.4110    -0.7900 H     1 <1>   0.1500 
 30 H       -2.5420     2.1140     2.9310 H     1 <1>   0.1500 
 31 H       -4.1740     1.2280     0.7810 H     1 <1>   0.0800 
 32 H       -5.0160     0.0120    -0.1370 H     1 <1>   0.0800 
 33 H       -2.9090     4.5570     2.9210 H     1 <1>   0.1500 
 34 H       -3.8670    -3.3860    -1.2630 H     1 <1>   0.2700 
 35 H       -4.2170    -1.1990     2.2970 H     1 <1>   0.1500 
 36 H       -5.1850     1.6890    -1.9560 H     1 <1>   0.4500 
 37 H       -6.2290    -3.6000    -0.3680 H     1 <1>   0.1500 
 38 H       -4.3120     3.5780     0.1680 H     1 <1>   0.0800 
 39 H       -4.9810     4.0440    -1.3810 H     1 <1>   0.0800 
 40 H       -3.4360     3.2320    -1.3060 H     1 <1>   0.0800 
 41 H       -6.4800     2.3580     0.6200 H     1 <1>   0.0800 
 42 H       -7.0170     1.1250    -0.5010 H     1 <1>   0.0800 
 43 H       -7.0650     2.8120    -0.9680 H     1 <1>   0.0800 
 44 H       -0.4050     6.8250    -1.7330 H     1 <1>   0.0800 
 45 H        0.2740     6.4580    -0.1610 H     1 <1>   0.0800 
 46 H       -2.6700     6.9150    -0.7840 H     1 <1>   0.0800 
 47 H       -1.6530     7.9390     0.2050 H     1 <1>   0.0800 
@<TRIPOS>BOND
  1   1   2  2   
  2   2   3  am  
  3   2   4  1   
  4   3   5  1   
  5   3   6  1   
  6   4   7  ar  
  7   4   8  ar  
  8   5   9  1   
  9   5  25  1   
 10   5  26  1   
 11   6  10  1   
 12   6  27  1   
 13   6  28  1   
 14   7  11  ar  
 15   7  29  1   
 16   8  12  ar  
 17   8  30  1   
 18   9  13  1   
 19   9  14  2   
 20  10  15  1   
 21  10  31  1   
 22  10  32  1   
 23  11  16  1   
 24  11  17  ar  
 25  12  17  ar  
 26  12  33  1   
 27  13  18  1   
 28  13  34  1   
 29  14  19  1   
 30  14  35  1   
 31  15  20  1   
 32  15  21  1   
 33  15  36  1   
 34  16  22  1   
 35  17  23  1   
 36  18  19  2   
 37  18  37  1   
 38  20  38  1   
 39  20  39  1   
 40  20  40  1   
 41  21  41  1   
 42  21  42  1   
 43  21  43  1   
 44  22  24  1   
 45  22  44  1   
 46  22  45  1   
 47  23  24  1   
 48  24  46  1   
 49  24  47  1   
@<TRIPOS>SUBSTRUCTURE
  1 ****   4 GROUP 4 **** **** 0

# MOE 2024.06 (io_trps.svl 2023.06)
