@<TRIPOS>MOLECULE
NONAME
48 50 1 0 0 
SMALL
USER_CHARGES


@<TRIPOS>ATOM
  1 O       -1.6120     0.4210    -2.1790 O.2   1 <1>  -0.5700 
  2 C       -1.4540     0.4970    -0.9720 C.2   1 <1>   0.7160 
  3 N       -1.6150    -0.6340    -0.2260 N.am  1 <1>  -0.7300 
  4 C       -1.1200     1.7480    -0.3090 C.2   1 <1>   0.2030 
  5 C       -1.9490    -1.9850    -0.7260 C.3   1 <1>   0.2200 
  6 N       -0.9730     1.9100     0.9960 N.2   1 <1>  -0.7070 
  7 C       -0.9090     2.9640    -0.9720 C.2   1 <1>  -0.1500 
  8 C       -3.3980    -2.3430    -0.4290 C.3   1 <1>  -0.0800 
  9 C       -1.2230    -3.0260     0.1160 C.3   1 <1>   0.1200 
 10 N       -0.6710     3.2070     1.1580 N.pl3 1 <1>   0.3000 
 11 C       -0.6290     3.8690    -0.0150 C.2   1 <1>  -0.3320 
 12 C       -3.3340    -2.8580     1.0120 C.3   1 <1>   0.1200 
 13 C       -4.4300    -1.2210    -0.6530 C.3   1 <1>  -0.0160 
 14 O       -1.9990    -3.1880     1.2660 O.3   1 <1>  -0.5600 
 15 C       -0.3060     5.3490    -0.1560 C.3   1 <1>   0.0200 
 16 C       -5.8420    -1.7270    -0.4030 C.ar  1 <1>  -0.1430 
 17 C       -1.5290     6.2540     0.0880 C.3   1 <1>  -0.0800 
 18 C       -6.5400    -2.4350    -1.3610 C.ar  1 <1>  -0.1500 
 19 C       -6.4980    -1.5080     0.7910 C.ar  1 <1>  -0.1500 
 20 C       -1.1730     7.7140    -0.2220 C.3   1 <1>  -0.2400 
 21 C       -2.0650     6.1550     1.5250 C.3   1 <1>  -0.2400 
 22 C       -7.8210    -2.8820    -1.0840 C.ar  1 <1>   0.1600 
 23 C       -7.7820    -1.9990     0.9670 C.ar  1 <1>   0.1600 
 24 N       -8.4590    -2.6830     0.0580 N.ar  1 <1>  -0.6200 
 25 H       -1.4900    -0.5380     0.7860 H     1 <1>   0.3700 
 26 H       -1.7080    -2.0710    -1.7730 H     1 <1>   0.0800 
 27 H       -0.9690     3.0990    -2.0380 H     1 <1>   0.1500 
 28 H       -3.6660    -3.1750    -1.0550 H     1 <1>   0.0800 
 29 H       -0.2280    -2.7210     0.3890 H     1 <1>   0.0800 
 30 H       -1.1910    -3.9730    -0.3930 H     1 <1>   0.0800 
 31 H       -0.5010     3.6240     2.0820 H     1 <1>   0.2700 
 32 H       -3.9460    -3.7320     1.1540 H     1 <1>   0.0800 
 33 H       -3.6170    -2.0960     1.7160 H     1 <1>   0.0800 
 34 H       -4.3530    -0.8620    -1.6650 H     1 <1>   0.0800 
 35 H       -4.2300    -0.3890     0.0000 H     1 <1>   0.0800 
 36 H        0.4920     5.6140     0.5140 H     1 <1>   0.0800 
 37 H        0.0490     5.5170    -1.1590 H     1 <1>   0.0800 
 38 H       -2.3120     5.9490    -0.5870 H     1 <1>   0.0800 
 39 H       -6.0990    -2.6420    -2.3190 H     1 <1>   0.1500 
 40 H       -6.0260    -0.9610     1.5860 H     1 <1>   0.1500 
 41 H       -0.3950     8.0640     0.4340 H     1 <1>   0.0800 
 42 H       -2.0360     8.3430    -0.0970 H     1 <1>   0.0800 
 43 H       -0.8350     7.8100    -1.2390 H     1 <1>   0.0800 
 44 H       -1.2900     6.3750     2.2380 H     1 <1>   0.0800 
 45 H       -2.4560     5.1720     1.7180 H     1 <1>   0.0800 
 46 H       -2.8680     6.8560     1.6680 H     1 <1>   0.0800 
 47 H       -8.3500    -3.4320    -1.8430 H     1 <1>   0.1500 
 48 H       -8.2780    -1.8180     1.9050 H     1 <1>   0.1500 
@<TRIPOS>BOND
  1   1   2  2   
  2   2   3  am  
  3   2   4  1   
  4   3   5  1   
  5   3  25  1   
  6   4   6  2   
  7   4   7  1   
  8   5   8  1   
  9   5   9  1   
 10   5  26  1   
 11   6  10  1   
 12   7  11  2   
 13   7  27  1   
 14   8  12  1   
 15   8  13  1   
 16   8  28  1   
 17   9  14  1   
 18   9  29  1   
 19   9  30  1   
 20  10  11  1   
 21  10  31  1   
 22  11  15  1   
 23  12  14  1   
 24  12  32  1   
 25  12  33  1   
 26  13  16  1   
 27  13  34  1   
 28  13  35  1   
 29  15  17  1   
 30  15  36  1   
 31  15  37  1   
 32  16  18  ar  
 33  16  19  ar  
 34  17  20  1   
 35  17  21  1   
 36  17  38  1   
 37  18  22  ar  
 38  18  39  1   
 39  19  23  ar  
 40  19  40  1   
 41  20  41  1   
 42  20  42  1   
 43  20  43  1   
 44  21  44  1   
 45  21  45  1   
 46  21  46  1   
 47  22  24  ar  
 48  22  47  1   
 49  23  24  ar  
 50  23  48  1   
@<TRIPOS>SUBSTRUCTURE
  1 ****   3 GROUP 4 **** **** 0

# MOE 2024.06 (io_trps.svl 2023.06)
