@<TRIPOS>MOLECULE
NONAME
37 38 1 0 0 
SMALL
USER_CHARGES


@<TRIPOS>ATOM
  1 F       -0.4730     0.5020    -0.1210 F     1 <1>  -0.3400 
  2 C       -1.6010    -0.0670     0.2820 C.3   1 <1>   1.1640 
  3 F       -2.5870     0.5760    -0.3320 F     1 <1>  -0.3400 
  4 F       -1.7230     0.2140     1.5730 F     1 <1>  -0.3400 
  5 C       -1.6140    -1.5810     0.0010 C.ar  1 <1>  -0.1430 
  6 C       -2.1010    -2.0770    -1.2040 C.ar  1 <1>  -0.1500 
  7 C       -1.1260    -2.4840     0.9390 C.ar  1 <1>  -0.1500 
  8 C       -2.1110    -3.4370    -1.4590 C.ar  1 <1>  -0.1500 
  9 C       -1.1350    -3.8450     0.6870 C.ar  1 <1>  -0.1500 
 10 C       -1.6330    -4.3310    -0.5130 C.ar  1 <1>  -0.1430 
 11 C       -1.6520    -5.8230    -0.7910 C.3   1 <1>   0.4870 
 12 N       -2.7490    -6.4480    -0.0140 N.4   1 <1>  -0.9590 
 13 C       -2.6320    -7.9600    -0.0400 C.3   1 <1>   0.3430 
 14 C       -4.0900    -5.9750    -0.4770 C.3   1 <1>   0.3430 
 15 C       -3.9820    -8.7010     0.0080 C.3   1 <1>   0.2000 
 16 C       -5.1770    -6.4860     0.4730 C.3   1 <1>  -0.1600 
 17 O       -4.5020    -8.7420    -1.2750 O.3   1 <1>  -0.6800 
 18 C       -4.9730    -7.9600     0.9110 C.3   1 <1>  -0.1860 
 19 C       -6.2700    -8.7340     0.9710 C.2   1 <1>   0.9060 
 20 O       -6.6930    -9.0760     2.0720 O.co2 1 <1>  -0.9000 
 21 O       -6.8230    -9.0120    -0.1000 O.co2 1 <1>  -0.9000 
 22 H       -2.4760    -1.4010    -1.9570 H     1 <1>   0.1500 
 23 H       -0.7310    -2.1280     1.8780 H     1 <1>   0.1500 
 24 H       -2.4940    -3.7860    -2.4040 H     1 <1>   0.1500 
 25 H       -0.7450    -4.5130     1.4360 H     1 <1>   0.1500 
 26 H       -0.7050    -6.2480    -0.5000 H     1 <1>   0.0800 
 27 H       -1.7980    -6.0030    -1.8440 H     1 <1>   0.0800 
 28 H       -2.6730    -6.1360     0.9590 H     1 <1>   0.4500 
 29 H       -2.1220    -8.2810    -0.9320 H     1 <1>   0.0800 
 30 H       -2.0450    -8.2740     0.8060 H     1 <1>   0.0800 
 31 H       -4.1260    -4.8980    -0.5150 H     1 <1>   0.0800 
 32 H       -4.2830    -6.3580    -1.4670 H     1 <1>   0.0800 
 33 H       -3.8520    -9.7200     0.3360 H     1 <1>   0.0800 
 34 H       -5.2380    -5.8570     1.3430 H     1 <1>   0.0800 
 35 H       -6.1200    -6.3970    -0.0400 H     1 <1>   0.0800 
 36 H       -5.4800    -8.9620    -1.1630 H     1 <1>   0.4000 
 37 H       -4.5710    -7.9650     1.9080 H     1 <1>   0.0800 
@<TRIPOS>BOND
  1   1   2  1   
  2   2   3  1   
  3   2   4  1   
  4   2   5  1   
  5   5   6  ar  
  6   5   7  ar  
  7   6   8  ar  
  8   6  22  1   
  9   7   9  ar  
 10   7  23  1   
 11   8  10  ar  
 12   8  24  1   
 13   9  10  ar  
 14   9  25  1   
 15  10  11  1   
 16  11  12  1   
 17  11  26  1   
 18  11  27  1   
 19  12  13  1   
 20  12  14  1   
 21  12  28  1   
 22  13  15  1   
 23  13  29  1   
 24  13  30  1   
 25  14  16  1   
 26  14  31  1   
 27  14  32  1   
 28  15  17  1   
 29  15  18  1   
 30  15  33  1   
 31  16  18  1   
 32  16  34  1   
 33  16  35  1   
 34  17  36  1   
 35  18  19  1   
 36  18  37  1   
 37  19  20  ar  
 38  19  21  ar  
@<TRIPOS>SUBSTRUCTURE
  1 ****  14 GROUP 4 **** **** 0

# MOE 2024.06 (io_trps.svl 2023.06)
