@<TRIPOS>MOLECULE
NONAME
61 65 1 0 0 
SMALL
USER_CHARGES


@<TRIPOS>ATOM
  1 O       -4.4530     5.5050    -0.3890 O.2   1 <1>  -0.5700 
  2 C       -3.2720     5.2870    -0.2680 C.2   1 <1>   0.5690 
  3 N       -2.6980     4.5380     0.7000 N.am  1 <1>  -0.6600 
  4 C       -2.2360     5.8060    -1.2250 C.3   1 <1>  -0.0990 
  5 C       -1.2410     4.4100     0.5420 C.3   1 <1>   0.1400 
  6 C       -3.4150     3.8550     1.7950 C.3   1 <1>   0.1400 
  7 C       -0.8990     5.4130    -0.5700 C.3   1 <1>  -0.1600 
  8 C       -3.8330     2.4620     1.3260 C.3   1 <1>  -0.1600 
  9 C       -4.6140     1.7040     2.4120 C.3   1 <1>  -0.0990 
 10 C       -5.1890     0.4060     1.8670 C.2   1 <1>   0.5690 
 11 O       -4.5210    -0.5900     2.0100 O.2   1 <1>  -0.5700 
 12 N       -6.4010     0.3770     1.2230 N.am  1 <1>  -0.6600 
 13 C       -7.2610     1.5850     0.9690 C.3   1 <1>   0.1400 
 14 C       -6.8920    -0.9170     0.6580 C.3   1 <1>   0.1400 
 15 C       -7.9160     1.5420    -0.4240 C.3   1 <1>   0.1430 
 16 C       -8.3980    -0.8720     0.3750 C.3   1 <1>  -0.1600 
 17 C       -8.6920     2.8370    -0.6020 C.ar  1 <1>   0.1670 
 18 C       -8.8010     0.2740    -0.5750 C.3   1 <1>  -0.1600 
 19 C       -6.8410     1.6570    -1.5440 C.3   1 <1>  -0.1600 
 20 N       -9.8430     3.1210    -0.0400 N.ar  1 <1>  -0.6200 
 21 C       -8.0270     3.7150    -1.4000 C.ar  1 <1>  -0.1440 
 22 C       -6.7200     3.1500    -1.8940 C.3   1 <1>  -0.0170 
 23 C      -10.3450     4.3340    -0.3120 C.ar  1 <1>   0.6200 
 24 C       -8.5990     4.9390    -1.6240 C.ar  1 <1>   0.1600 
 25 N       -9.7590     5.2540    -1.0910 N.ar  1 <1>  -0.6200 
 26 C      -11.6280     4.6780     0.2890 C.ar  1 <1>   0.0000 
 27 C      -11.9800     6.0040     0.5590 C.ar  1 <1>  -0.1500 
 28 C      -12.5670     3.6980     0.6250 C.ar  1 <1>  -0.1500 
 29 C      -13.1960     6.3340     1.1300 C.ar  1 <1>  -0.1500 
 30 C      -13.7840     4.0190     1.1970 C.ar  1 <1>  -0.1500 
 31 C      -14.1030     5.3410     1.4510 C.ar  1 <1>  -0.1500 
 32 H       -2.3290     6.8710    -1.3390 H     1 <1>   0.0800 
 33 H       -2.3630     5.3200    -2.1740 H     1 <1>   0.0800 
 34 H       -0.9990     3.4040     0.2430 H     1 <1>   0.0800 
 35 H       -0.7340     4.6550     1.4600 H     1 <1>   0.0800 
 36 H       -4.2890     4.4300     2.0520 H     1 <1>   0.0800 
 37 H       -2.7800     3.7910     2.6620 H     1 <1>   0.0800 
 38 H       -0.4440     6.2810    -0.1270 H     1 <1>   0.0800 
 39 H       -0.2130     4.9890    -1.2810 H     1 <1>   0.0800 
 40 H       -2.9620     1.8900     1.0600 H     1 <1>   0.0800 
 41 H       -4.4470     2.5660     0.4500 H     1 <1>   0.0800 
 42 H       -5.4030     2.3100     2.8160 H     1 <1>   0.0800 
 43 H       -3.9500     1.4650     3.2240 H     1 <1>   0.0800 
 44 H       -6.6880     2.4900     1.0470 H     1 <1>   0.0800 
 45 H       -8.0340     1.6220     1.7170 H     1 <1>   0.0800 
 46 H       -6.6820    -1.7130     1.3540 H     1 <1>   0.0800 
 47 H       -6.3560    -1.1230    -0.2520 H     1 <1>   0.0800 
 48 H       -8.9090    -0.7540     1.3140 H     1 <1>   0.0800 
 49 H       -8.7120    -1.8130    -0.0420 H     1 <1>   0.0800 
 50 H       -8.7770    -0.0780    -1.5900 H     1 <1>   0.0800 
 51 H       -9.8270     0.5200    -0.3640 H     1 <1>   0.0800 
 52 H       -7.1740     1.1450    -2.4280 H     1 <1>   0.0800 
 53 H       -5.8910     1.2420    -1.2570 H     1 <1>   0.0800 
 54 H       -6.5890     3.3030    -2.9510 H     1 <1>   0.0800 
 55 H       -5.9050     3.6020    -1.3570 H     1 <1>   0.0800 
 56 H       -8.1020     5.6670    -2.2420 H     1 <1>   0.1500 
 57 H      -11.2870     6.7910     0.3180 H     1 <1>   0.1500 
 58 H      -12.3380     2.6640     0.4340 H     1 <1>   0.1500 
 59 H      -13.4360     7.3640     1.3240 H     1 <1>   0.1500 
 60 H      -14.4850     3.2410     1.4440 H     1 <1>   0.1500 
 61 H      -15.0490     5.5940     1.8950 H     1 <1>   0.1500 
@<TRIPOS>BOND
  1   1   2  2   
  2   2   3  am  
  3   2   4  1   
  4   3   5  1   
  5   3   6  1   
  6   4   7  1   
  7   4  32  1   
  8   4  33  1   
  9   5   7  1   
 10   5  34  1   
 11   5  35  1   
 12   6   8  1   
 13   6  36  1   
 14   6  37  1   
 15   7  38  1   
 16   7  39  1   
 17   8   9  1   
 18   8  40  1   
 19   8  41  1   
 20   9  10  1   
 21   9  42  1   
 22   9  43  1   
 23  10  11  2   
 24  10  12  am  
 25  12  13  1   
 26  12  14  1   
 27  13  15  1   
 28  13  44  1   
 29  13  45  1   
 30  14  16  1   
 31  14  46  1   
 32  14  47  1   
 33  15  17  1   
 34  15  18  1   
 35  15  19  1   
 36  16  18  1   
 37  16  48  1   
 38  16  49  1   
 39  17  20  ar  
 40  17  21  ar  
 41  18  50  1   
 42  18  51  1   
 43  19  22  1   
 44  19  52  1   
 45  19  53  1   
 46  20  23  ar  
 47  21  22  1   
 48  21  24  ar  
 49  22  54  1   
 50  22  55  1   
 51  23  25  ar  
 52  23  26  1   
 53  24  25  ar  
 54  24  56  1   
 55  26  27  ar  
 56  26  28  ar  
 57  27  29  ar  
 58  27  57  1   
 59  28  30  ar  
 60  28  58  1   
 61  29  31  ar  
 62  29  59  1   
 63  30  31  ar  
 64  30  60  1   
 65  31  61  1   
@<TRIPOS>SUBSTRUCTURE
  1 ****  17 GROUP 4 **** **** 0

# MOE 2024.06 (io_trps.svl 2023.06)
