@<TRIPOS>MOLECULE
NONAME
39 41 1 0 0 
SMALL
USER_CHARGES


@<TRIPOS>ATOM
  1 O        0.1920    -0.0720    -0.4240 O.3   1 <1>  -0.5600 
  2 C        1.3620    -0.7430    -0.8160 C.3   1 <1>   0.2000 
  3 C        0.1900     1.2780    -0.7840 C.3   1 <1>   0.1200 
  4 C        2.5930    -0.0890    -0.1280 C.3   1 <1>   0.3340 
  5 C        1.1760    -2.2290    -0.4670 C.3   1 <1>   0.1200 
  6 C        1.3620     2.0140    -0.1130 C.3   1 <1>   0.1100 
  7 N        2.6530     1.3670    -0.4200 N.3   1 <1>  -0.8100 
  8 C        3.8880    -0.7850    -0.5470 C.ar  1 <1>  -0.1440 
  9 O        2.1000    -3.0280    -1.1370 O.3   1 <1>  -0.6800 
 10 C        3.8200     2.0190     0.2280 C.3   1 <1>   0.2900 
 11 C        4.5560    -1.6140     0.3440 C.ar  1 <1>  -0.1500 
 12 C        4.4010    -0.6150    -1.8250 C.ar  1 <1>  -0.1500 
 13 C        3.8540     3.5360     0.0580 C.2   1 <1>   0.0070 
 14 C        5.7140    -2.2670    -0.0400 C.ar  1 <1>  -0.1500 
 15 C        5.5590    -1.2670    -2.2100 C.ar  1 <1>  -0.1500 
 16 N        4.3850     4.1560    -0.9490 N.2   1 <1>  -0.5650 
 17 N        3.3350     4.3750     0.9830 N.pl3 1 <1>   0.0330 
 18 C        6.2150    -2.0960    -1.3180 C.ar  1 <1>  -0.1500 
 19 C        4.1960     5.4590    -0.6710 C.2   1 <1>   0.0770 
 20 C        3.5550     5.6130     0.5070 C.2   1 <1>  -0.3020 
 21 H        1.4470    -0.6500    -1.8850 H     1 <1>   0.0800 
 22 H        0.2620     1.3530    -1.8560 H     1 <1>   0.0800 
 23 H       -0.7470     1.7020    -0.4700 H     1 <1>   0.0800 
 24 H        2.4680    -0.2160     0.9340 H     1 <1>   0.0800 
 25 H        0.1970    -2.5560    -0.7710 H     1 <1>   0.0800 
 26 H        1.2940    -2.3900     0.5900 H     1 <1>   0.0800 
 27 H        1.2000     2.0350     0.9500 H     1 <1>   0.0800 
 28 H        1.3700     3.0260    -0.4800 H     1 <1>   0.0800 
 29 H        3.0110    -2.6670    -1.0430 H     1 <1>   0.4000 
 30 H        3.8340     1.7790     1.2760 H     1 <1>   0.0800 
 31 H        4.7250     1.6310    -0.2080 H     1 <1>   0.0800 
 32 H        4.1800    -1.7600     1.3420 H     1 <1>   0.1500 
 33 H        3.8980     0.0360    -2.5210 H     1 <1>   0.1500 
 34 H        6.2260    -2.9110     0.6540 H     1 <1>   0.1500 
 35 H        5.9480    -1.1260    -3.2030 H     1 <1>   0.1500 
 36 H        2.8740     4.1180     1.8600 H     1 <1>   0.2700 
 37 H        7.1150    -2.6040    -1.6180 H     1 <1>   0.1500 
 38 H        4.5370     6.2270    -1.3450 H     1 <1>   0.1500 
 39 H        3.2550     6.5110     1.0150 H     1 <1>   0.1500 
@<TRIPOS>BOND
  1   1   2  1   
  2   1   3  1   
  3   2   4  1   
  4   2   5  1   
  5   2  21  1   
  6   3   6  1   
  7   3  22  1   
  8   3  23  1   
  9   4   7  1   
 10   4   8  1   
 11   4  24  1   
 12   5   9  1   
 13   5  25  1   
 14   5  26  1   
 15   6   7  1   
 16   6  27  1   
 17   6  28  1   
 18   7  10  1   
 19   8  11  ar  
 20   8  12  ar  
 21   9  29  1   
 22  10  13  1   
 23  10  30  1   
 24  10  31  1   
 25  11  14  ar  
 26  11  32  1   
 27  12  15  ar  
 28  12  33  1   
 29  13  16  2   
 30  13  17  1   
 31  14  18  ar  
 32  14  34  1   
 33  15  18  ar  
 34  15  35  1   
 35  16  19  1   
 36  17  20  1   
 37  17  36  1   
 38  18  37  1   
 39  19  20  2   
 40  19  38  1   
 41  20  39  1   
@<TRIPOS>SUBSTRUCTURE
  1 ****   7 GROUP 4 **** **** 0

# MOE 2024.06 (io_trps.svl 2023.06)
