@<TRIPOS>MOLECULE
NONAME
41 43 1 0 0 
SMALL
USER_CHARGES


@<TRIPOS>ATOM
  1 CL      -1.4930     1.2110     1.8910 Cl    1 <1>  -0.1770 
  2 C       -2.7850     0.0900     1.5330 C.ar  1 <1>   0.1770 
  3 C       -3.1490    -0.8870     2.4430 C.ar  1 <1>   0.1770 
  4 C       -3.4410     0.1980     0.3210 C.ar  1 <1>  -0.1500 
  5 CL      -2.3320    -1.0350     3.9800 Cl    1 <1>  -0.1770 
  6 C       -4.1740    -1.7630     2.1420 C.ar  1 <1>  -0.1500 
  7 C       -4.4810    -0.6690    -0.0040 C.ar  1 <1>  -0.0090 
  8 C       -4.8290    -1.6490     0.9250 C.ar  1 <1>  -0.1500 
  9 S       -5.3780    -0.5080    -1.5790 S.o2  1 <1>   1.4470 
 10 O       -5.8990    -1.8060    -1.9450 O.2   1 <1>  -0.6500 
 11 O       -4.5510     0.2370    -2.5030 O.2   1 <1>  -0.6500 
 12 N       -6.7000     0.4770    -1.1860 N.am  1 <1>  -0.8490 
 13 C       -7.6160    -0.0840    -0.1900 C.3   1 <1>   0.1960 
 14 C       -6.3660     1.8880    -0.9570 C.3   1 <1>   0.1960 
 15 C       -9.0120     0.5900    -0.2690 C.3   1 <1>   0.0000 
 16 C       -7.5250     2.6650    -0.3060 C.3   1 <1>  -0.1600 
 17 C       -9.7610     0.4850     1.0760 C.3   1 <1>   0.2000 
 18 C       -8.8890     2.0820    -0.7000 C.3   1 <1>  -0.1600 
 19 C       -9.9630    -0.1480    -1.2320 C.3   1 <1>  -0.1600 
 20 O       -9.5700    -0.7710     1.6300 O.3   1 <1>  -0.6800 
 21 C      -11.2450     0.6020     0.7280 C.3   1 <1>  -0.1600 
 22 C      -11.3840     0.1320    -0.7280 C.3   1 <1>  -0.1600 
 23 H       -3.1360     0.9620    -0.3750 H     1 <1>   0.1500 
 24 H       -4.4530    -2.5240     2.8510 H     1 <1>   0.1500 
 25 H       -5.6260    -2.3380     0.6910 H     1 <1>   0.1500 
 26 H       -7.7250    -1.1450    -0.3390 H     1 <1>   0.0800 
 27 H       -7.1990     0.0660     0.7920 H     1 <1>   0.0800 
 28 H       -5.4950     1.9750    -0.3310 H     1 <1>   0.0800 
 29 H       -6.1320     2.3330    -1.9110 H     1 <1>   0.0800 
 30 H       -7.4160     2.6320     0.7640 H     1 <1>   0.0800 
 31 H       -7.4650     3.6980    -0.6010 H     1 <1>   0.0800 
 32 H       -9.4380     1.2200     1.7940 H     1 <1>   0.0800 
 33 H       -8.9670     2.1570    -1.7710 H     1 <1>   0.0800 
 34 H       -9.6780     2.6810    -0.2830 H     1 <1>   0.0800 
 35 H       -9.8290     0.1480    -2.2580 H     1 <1>   0.0800 
 36 H       -9.7860    -1.2090    -1.1770 H     1 <1>   0.0800 
 37 H      -10.0600    -1.4260     1.0960 H     1 <1>   0.4000 
 38 H      -11.8660     0.0390     1.4030 H     1 <1>   0.0800 
 39 H      -11.5380     1.6350     0.7890 H     1 <1>   0.0800 
 40 H      -11.9940    -0.7530    -0.7980 H     1 <1>   0.0800 
 41 H      -11.8380     0.9110    -1.3190 H     1 <1>   0.0800 
@<TRIPOS>BOND
  1   1   2  1   
  2   2   3  ar  
  3   2   4  ar  
  4   3   5  1   
  5   3   6  ar  
  6   4   7  ar  
  7   4  23  1   
  8   6   8  ar  
  9   6  24  1   
 10   7   8  ar  
 11   7   9  1   
 12   8  25  1   
 13   9  10  2   
 14   9  11  2   
 15   9  12  am  
 16  12  13  1   
 17  12  14  1   
 18  13  15  1   
 19  13  26  1   
 20  13  27  1   
 21  14  16  1   
 22  14  28  1   
 23  14  29  1   
 24  15  17  1   
 25  15  18  1   
 26  15  19  1   
 27  16  18  1   
 28  16  30  1   
 29  16  31  1   
 30  17  20  1   
 31  17  21  1   
 32  17  32  1   
 33  18  33  1   
 34  18  34  1   
 35  19  22  1   
 36  19  35  1   
 37  19  36  1   
 38  20  37  1   
 39  21  22  1   
 40  21  38  1   
 41  21  39  1   
 42  22  40  1   
 43  22  41  1   
@<TRIPOS>SUBSTRUCTURE
  1 ****  13 GROUP 4 **** **** 0

# MOE 2024.06 (io_trps.svl 2023.06)
