@<TRIPOS>MOLECULE
NONAME
47 49 1 0 0 
SMALL
USER_CHARGES


@<TRIPOS>ATOM
  1 O       -1.2800     0.8330    -2.2350 O.2   1 <1>  -0.5700 
  2 C       -1.1680     1.0560    -1.0540 C.2   1 <1>   0.5690 
  3 N       -2.1410     0.8910    -0.1270 N.am  1 <1>  -0.6600 
  4 C        0.0820     1.6230    -0.4430 C.3   1 <1>  -0.0990 
  5 C       -1.6450     1.2900     1.2100 C.3   1 <1>   0.1400 
  6 C       -3.5670     1.0840    -0.4740 C.3   1 <1>   0.2840 
  7 C       -0.4300     2.1700     0.8910 C.3   1 <1>   0.2890 
  8 C       -3.8640     2.5790    -0.4960 C.ar  1 <1>  -0.1440 
  9 N       -0.9160     3.5580     0.6980 N.pl3 1 <1>  -0.8690 
 10 C       -4.4730     3.2020     0.5840 C.ar  1 <1>  -0.1500 
 11 C       -3.4990     3.3400    -1.5970 C.ar  1 <1>  -0.1500 
 12 C       -0.1170     4.6710     0.7330 C.ar  1 <1>   0.4100 
 13 C       -4.7020     4.5670     0.5680 C.ar  1 <1>  -0.1500 
 14 C       -3.7290     4.7040    -1.6150 C.ar  1 <1>  -0.1500 
 15 N        1.1300     4.5190     1.1520 N.ar  1 <1>  -0.6200 
 16 C       -0.6470     5.8880     0.3330 C.ar  1 <1>  -0.1500 
 17 C       -4.3290     5.3190    -0.5310 C.ar  1 <1>  -0.1500 
 18 C        1.8600     5.6190     1.1780 C.ar  1 <1>   0.1600 
 19 C        0.1120     7.0420     0.3440 C.ar  1 <1>   0.0860 
 20 C        1.4160     6.8700     0.7980 C.ar  1 <1>  -0.1500 
 21 C       -0.4290     8.3200    -0.0840 C.2   1 <1>   0.5440 
 22 O       -1.6310     8.5020    -0.1180 O.2   1 <1>  -0.5700 
 23 N        0.3970     9.3380    -0.4740 N.am  1 <1>  -0.7300 
 24 C       -0.0490    10.6810    -0.8900 C.3   1 <1>   0.1400 
 25 C        0.9590    11.7060    -0.3840 C.3   1 <1>  -0.2400 
 26 H        0.5190     2.3880    -1.0570 H     1 <1>   0.0800 
 27 H        0.7850     0.8290    -0.2850 H     1 <1>   0.0800 
 28 H       -1.3380     0.4100     1.7480 H     1 <1>   0.0800 
 29 H       -2.3800     1.8280     1.7820 H     1 <1>   0.0800 
 30 H       -4.1860     0.5810     0.2480 H     1 <1>   0.0800 
 31 H       -3.7630     0.6580    -1.4430 H     1 <1>   0.0800 
 32 H        0.3120     2.1370     1.6710 H     1 <1>   0.0800 
 33 H       -1.7950     3.6270     0.1650 H     1 <1>   0.4000 
 34 H       -4.7670     2.6300     1.4470 H     1 <1>   0.1500 
 35 H       -3.0260     2.8700    -2.4440 H     1 <1>   0.1500 
 36 H       -5.1690     5.0470     1.4100 H     1 <1>   0.1500 
 37 H       -3.4390     5.2880    -2.4720 H     1 <1>   0.1500 
 38 H       -1.6700     5.9280     0.0120 H     1 <1>   0.1500 
 39 H       -4.5010     6.3830    -0.5430 H     1 <1>   0.1500 
 40 H        2.8740     5.5140     1.5260 H     1 <1>   0.1500 
 41 H        2.0820     7.7090     0.8650 H     1 <1>   0.1500 
 42 H        1.3930     9.1570    -0.5910 H     1 <1>   0.3700 
 43 H       -1.0240    10.8890    -0.4790 H     1 <1>   0.0800 
 44 H       -0.1160    10.7180    -1.9640 H     1 <1>   0.0800 
 45 H        1.0200    11.6670     0.6890 H     1 <1>   0.0800 
 46 H        0.6400    12.6930    -0.6690 H     1 <1>   0.0800 
 47 H        1.9290    11.5270    -0.8110 H     1 <1>   0.0800 
@<TRIPOS>BOND
  1   1   2  2   
  2   2   3  am  
  3   2   4  1   
  4   3   5  1   
  5   3   6  1   
  6   4   7  1   
  7   4  26  1   
  8   4  27  1   
  9   5   7  1   
 10   5  28  1   
 11   5  29  1   
 12   6   8  1   
 13   6  30  1   
 14   6  31  1   
 15   7   9  1   
 16   7  32  1   
 17   8  10  ar  
 18   8  11  ar  
 19   9  12  1   
 20   9  33  1   
 21  10  13  ar  
 22  10  34  1   
 23  11  14  ar  
 24  11  35  1   
 25  12  15  ar  
 26  12  16  ar  
 27  13  17  ar  
 28  13  36  1   
 29  14  17  ar  
 30  14  37  1   
 31  15  18  ar  
 32  16  19  ar  
 33  16  38  1   
 34  17  39  1   
 35  18  20  ar  
 36  18  40  1   
 37  19  20  ar  
 38  19  21  1   
 39  20  41  1   
 40  21  22  2   
 41  21  23  am  
 42  23  24  1   
 43  23  42  1   
 44  24  25  1   
 45  24  43  1   
 46  24  44  1   
 47  25  45  1   
 48  25  46  1   
 49  25  47  1   
@<TRIPOS>SUBSTRUCTURE
  1 ****  16 GROUP 4 **** **** 0

# MOE 2024.06 (io_trps.svl 2023.06)
