@<TRIPOS>MOLECULE
NONAME
58 61 1 0 0 
SMALL
USER_CHARGES


@<TRIPOS>ATOM
  1 O        0.5170     0.6940     1.6880 O.2   1 <1>  -0.5700 
  2 C        1.4940     1.3470     1.4080 C.2   1 <1>   0.5690 
  3 N        1.5870     2.7000     1.6540 N.am  1 <1>  -0.6600 
  4 C        2.6570     0.6150     0.7420 C.3   1 <1>  -0.0990 
  5 C        0.4390     3.6330     1.9520 C.3   1 <1>   0.2200 
  6 C        2.8820     3.4490     1.6500 C.3   1 <1>   0.1400 
  7 C        2.2780    -0.7320     0.0940 C.3   1 <1>  -0.1600 
  8 C        0.2920     4.7370     0.8560 C.3   1 <1>   0.1380 
  9 C       -0.9210     3.0380     2.3480 C.3   1 <1>  -0.1600 
 10 C        2.8290     4.6220     0.6610 C.3   1 <1>  -0.1600 
 11 C        3.4800    -1.3870    -0.5960 C.3   1 <1>  -0.0160 
 12 C        0.0540     4.2350    -0.5980 C.2   1 <1>  -0.2760 
 13 C       -0.9140     5.6400     1.2300 C.3   1 <1>   0.1200 
 14 C        1.6170     5.5390     0.9180 C.3   1 <1>  -0.1600 
 15 C       -1.9040     4.1510     2.7520 C.3   1 <1>   0.1200 
 16 C        3.0770    -2.7010    -1.2470 C.ar  1 <1>  -0.1440 
 17 C       -0.1920     2.9750    -0.9840 C.2   1 <1>  -0.2880 
 18 C        0.1020     5.3040    -1.6950 C.3   1 <1>  -0.0220 
 19 O       -1.3520     5.4200     2.5410 O.3   1 <1>  -0.5600 
 20 C        3.1110    -3.8810    -0.5210 C.ar  1 <1>  -0.1500 
 21 C        2.6720    -2.7300    -2.5720 C.ar  1 <1>  -0.1500 
 22 C       -0.3900     2.5310    -2.4270 C.3   1 <1>   0.2580 
 23 C       -0.5340     4.8010    -2.9980 C.3   1 <1>   0.1200 
 24 C        2.7480    -5.0780    -1.1140 C.ar  1 <1>  -0.1500 
 25 C        2.3090    -3.9260    -3.1670 C.ar  1 <1>  -0.1500 
 26 O       -0.0160     3.5460    -3.3120 O.3   1 <1>  -0.5600 
 27 C        2.3470    -5.1020    -2.4390 C.ar  1 <1>  -0.1500 
 28 H        3.0570     1.2490    -0.0270 H     1 <1>   0.0800 
 29 H        3.4160     0.4500     1.4840 H     1 <1>   0.0800 
 30 H        0.7410     4.1500     2.8480 H     1 <1>   0.0800 
 31 H        3.0540     3.8310     2.6420 H     1 <1>   0.0800 
 32 H        3.7120     2.8120     1.4090 H     1 <1>   0.0800 
 33 H        1.8930    -1.3980     0.8480 H     1 <1>   0.0800 
 34 H        1.4960    -0.5700    -0.6290 H     1 <1>   0.0800 
 35 H       -0.7960     2.3690     3.1790 H     1 <1>   0.0800 
 36 H       -1.3530     2.4820     1.5390 H     1 <1>   0.0800 
 37 H        3.7350     5.1950     0.7480 H     1 <1>   0.0800 
 38 H        2.7890     4.2300    -0.3410 H     1 <1>   0.0800 
 39 H        4.2580    -1.5710     0.1240 H     1 <1>   0.0800 
 40 H        3.8770    -0.7250    -1.3450 H     1 <1>   0.0800 
 41 H       -1.7480     5.4450     0.5760 H     1 <1>   0.0800 
 42 H       -0.6550     6.6800     1.1420 H     1 <1>   0.0800 
 43 H        1.6170     6.3500     0.2150 H     1 <1>   0.0800 
 44 H        1.7160     5.9800     1.8960 H     1 <1>   0.0800 
 45 H       -2.1410     4.0760     3.7990 H     1 <1>   0.0800 
 46 H       -2.8180     4.0790     2.1860 H     1 <1>   0.0800 
 47 H       -0.2740     2.1400    -0.3170 H     1 <1>   0.1500 
 48 H        1.1230     5.5700    -1.9000 H     1 <1>   0.0800 
 49 H       -0.4200     6.1930    -1.3930 H     1 <1>   0.0800 
 50 H        3.4180    -3.8720     0.5100 H     1 <1>   0.1500 
 51 H        2.6370    -1.8210    -3.1470 H     1 <1>   0.1500 
 52 H       -1.4200     2.2780    -2.6090 H     1 <1>   0.0800 
 53 H        0.2260     1.6760    -2.6420 H     1 <1>   0.0800 
 54 H       -0.3070     5.4670    -3.8120 H     1 <1>   0.0800 
 55 H       -1.6020     4.7150    -2.8980 H     1 <1>   0.0800 
 56 H        2.7770    -5.9910    -0.5450 H     1 <1>   0.1500 
 57 H        1.9960    -3.9410    -4.1960 H     1 <1>   0.1500 
 58 H        2.0660    -6.0320    -2.9000 H     1 <1>   0.1500 
@<TRIPOS>BOND
  1   1   2  2   
  2   2   3  am  
  3   2   4  1   
  4   3   5  1   
  5   3   6  1   
  6   4   7  1   
  7   4  28  1   
  8   4  29  1   
  9   5   8  1   
 10   5   9  1   
 11   5  30  1   
 12   6  10  1   
 13   6  31  1   
 14   6  32  1   
 15   7  11  1   
 16   7  33  1   
 17   7  34  1   
 18   8  12  1   
 19   8  13  1   
 20   8  14  1   
 21   9  15  1   
 22   9  35  1   
 23   9  36  1   
 24  10  14  1   
 25  10  37  1   
 26  10  38  1   
 27  11  16  1   
 28  11  39  1   
 29  11  40  1   
 30  12  17  2   
 31  12  18  1   
 32  13  19  1   
 33  13  41  1   
 34  13  42  1   
 35  14  43  1   
 36  14  44  1   
 37  15  19  1   
 38  15  45  1   
 39  15  46  1   
 40  16  20  ar  
 41  16  21  ar  
 42  17  22  1   
 43  17  47  1   
 44  18  23  1   
 45  18  48  1   
 46  18  49  1   
 47  20  24  ar  
 48  20  50  1   
 49  21  25  ar  
 50  21  51  1   
 51  22  26  1   
 52  22  52  1   
 53  22  53  1   
 54  23  26  1   
 55  23  54  1   
 56  23  55  1   
 57  24  27  ar  
 58  24  56  1   
 59  25  27  ar  
 60  25  57  1   
 61  27  58  1   
@<TRIPOS>SUBSTRUCTURE
  1 ****   2 GROUP 4 **** **** 0

# MOE 2024.06 (io_trps.svl 2023.06)
