@<TRIPOS>MOLECULE
NONAME
59 61 1 0 0 
SMALL
USER_CHARGES


@<TRIPOS>ATOM
  1 O       -1.6280     1.0060     1.1060 O.co2 1 <1>  -0.9000 
  2 C       -1.0440     2.0870     1.2920 C.2   1 <1>   0.9060 
  3 O       -1.2360     2.7470     2.3230 O.co2 1 <1>  -0.9000 
  4 C       -0.0680     2.6540     0.2420 C.3   1 <1>  -0.1060 
  5 C       -1.2930     3.3000    -0.5860 C.3   1 <1>   0.2000 
  6 C        0.9540     3.3080    -0.7990 C.3   1 <1>   0.1400 
  7 C        1.1360     1.9550     1.0390 C.3   1 <1>  -0.0170 
  8 O       -2.5360     2.6630    -0.6310 O.3   1 <1>  -0.6800 
  9 C       -1.5100     4.7500    -0.1540 C.3   1 <1>  -0.1600 
 10 N        0.8720     4.8220    -0.8210 N.am  1 <1>  -0.6600 
 11 C        1.8630     0.8630     0.2410 C.ar  1 <1>  -0.1440 
 12 C       -0.1510     5.4060     0.1040 C.3   1 <1>   0.1400 
 13 C        1.7140     5.5360    -1.6450 C.2   1 <1>   0.5690 
 14 C        1.1510    -0.1910    -0.3100 C.ar  1 <1>  -0.1500 
 15 C        3.2390     0.9100     0.0670 C.ar  1 <1>  -0.1500 
 16 O        2.4690     4.9670    -2.4020 O.2   1 <1>  -0.5700 
 17 C        1.7070     7.0770    -1.6890 C.3   1 <1>   0.1710 
 18 C        1.8000    -1.1780    -1.0320 C.ar  1 <1>  -0.1500 
 19 C        3.8910    -0.0750    -0.6560 C.ar  1 <1>  -0.1500 
 20 N        2.6360     7.7860    -0.7560 N.3   1 <1>  -0.8100 
 21 C        3.1710    -1.1200    -1.2070 C.ar  1 <1>  -0.1500 
 22 C        2.6050     9.2410    -0.9900 C.3   1 <1>   0.2530 
 23 C        2.4090     7.4460     0.6580 C.3   1 <1>   0.0300 
 24 C        3.6830     9.9690    -0.1960 C.ar  1 <1>  -0.1440 
 25 C        5.0080     9.5780    -0.2940 C.ar  1 <1>  -0.1500 
 26 C        3.3540    11.0350     0.6280 C.ar  1 <1>  -0.1500 
 27 C        5.9920    10.2400     0.4190 C.ar  1 <1>  -0.1500 
 28 C        4.3380    11.6980     1.3420 C.ar  1 <1>  -0.1500 
 29 C        5.6620    11.3040     1.2420 C.ar  1 <1>  -0.1440 
 30 C        6.7410    12.0320     2.0230 C.3   1 <1>  -0.0970 
 31 H       -1.0800     3.3480    -1.6420 H     1 <1>   0.0800 
 32 H        0.7920     2.9180    -1.7910 H     1 <1>   0.0800 
 33 H        2.0000     3.1120    -0.6460 H     1 <1>   0.0800 
 34 H        1.8340     2.7110     1.3620 H     1 <1>   0.0800 
 35 H        0.9100     1.4640     1.9780 H     1 <1>   0.0800 
 36 H       -2.4980     1.8980     0.0210 H     1 <1>   0.4000 
 37 H       -2.0330     5.2800    -0.9290 H     1 <1>   0.0800 
 38 H       -2.0930     4.7870     0.7490 H     1 <1>   0.0800 
 39 H        0.1490     5.1930     1.1180 H     1 <1>   0.0800 
 40 H       -0.2380     6.4700     0.0040 H     1 <1>   0.0800 
 41 H        0.0830    -0.2470    -0.1740 H     1 <1>   0.1500 
 42 H        3.8080     1.7180     0.4910 H     1 <1>   0.1500 
 43 H        0.7060     7.4340    -1.5460 H     1 <1>   0.0800 
 44 H        1.9860     7.3440    -2.6930 H     1 <1>   0.0800 
 45 H        1.2310    -1.9870    -1.4530 H     1 <1>   0.1500 
 46 H        4.9560    -0.0250    -0.7890 H     1 <1>   0.1500 
 47 H        3.6740    -1.8860    -1.7690 H     1 <1>   0.1500 
 48 H        2.7760     9.4330    -2.0350 H     1 <1>   0.0800 
 49 H        1.6340     9.6270    -0.7330 H     1 <1>   0.0800 
 50 H        3.1560     7.9130     1.2760 H     1 <1>   0.0800 
 51 H        2.4910     6.3820     0.8010 H     1 <1>   0.0800 
 52 H        1.4370     7.7770     0.9770 H     1 <1>   0.0800 
 53 H        5.2690     8.7460    -0.9270 H     1 <1>   0.1500 
 54 H        2.3320    11.3560     0.7190 H     1 <1>   0.1500 
 55 H        7.0150     9.9210     0.3280 H     1 <1>   0.1500 
 56 H        4.0680    12.5240     1.9750 H     1 <1>   0.1500 
 57 H        7.5470    11.3630     2.2630 H     1 <1>   0.0800 
 58 H        6.3410    12.4240     2.9410 H     1 <1>   0.0800 
 59 H        7.1270    12.8460     1.4360 H     1 <1>   0.0800 
@<TRIPOS>BOND
  1   1   2  ar  
  2   2   3  ar  
  3   2   4  1   
  4   4   5  1   
  5   4   6  1   
  6   4   7  1   
  7   5   8  1   
  8   5   9  1   
  9   5  31  1   
 10   6  10  1   
 11   6  32  1   
 12   6  33  1   
 13   7  11  1   
 14   7  34  1   
 15   7  35  1   
 16   8  36  1   
 17   9  12  1   
 18   9  37  1   
 19   9  38  1   
 20  10  12  1   
 21  10  13  am  
 22  11  14  ar  
 23  11  15  ar  
 24  12  39  1   
 25  12  40  1   
 26  13  16  2   
 27  13  17  1   
 28  14  18  ar  
 29  14  41  1   
 30  15  19  ar  
 31  15  42  1   
 32  17  20  1   
 33  17  43  1   
 34  17  44  1   
 35  18  21  ar  
 36  18  45  1   
 37  19  21  ar  
 38  19  46  1   
 39  20  22  1   
 40  20  23  1   
 41  21  47  1   
 42  22  24  1   
 43  22  48  1   
 44  22  49  1   
 45  23  50  1   
 46  23  51  1   
 47  23  52  1   
 48  24  25  ar  
 49  24  26  ar  
 50  25  27  ar  
 51  25  53  1   
 52  26  28  ar  
 53  26  54  1   
 54  27  29  ar  
 55  27  55  1   
 56  28  29  ar  
 57  28  56  1   
 58  29  30  1   
 59  30  57  1   
 60  30  58  1   
 61  30  59  1   
@<TRIPOS>SUBSTRUCTURE
  1 ****  10 GROUP 4 **** **** 0

# MOE 2024.06 (io_trps.svl 2023.06)
