@<TRIPOS>MOLECULE
NONAME
41 43 1 0 0 
SMALL
USER_CHARGES


@<TRIPOS>ATOM
  1 O        0.8530    -0.6390     2.2160 O.3   1 <1>  -0.6800 
  2 C        1.5510    -0.4020     1.0390 C.3   1 <1>   0.2000 
  3 C        2.4600    -1.5750     0.6980 C.3   1 <1>  -0.0800 
  4 C        2.5060     0.7830     1.1740 C.3   1 <1>   0.2090 
  5 C        3.5320    -0.9360    -0.1860 C.3   1 <1>   0.2090 
  6 C        1.7260    -2.7520     0.0350 C.3   1 <1>  -0.0170 
  7 N        3.6550     0.4770     0.2740 N.pl3 1 <1>  -0.8380 
  8 C        2.6910    -3.8460    -0.3860 C.ar  1 <1>   0.1660 
  9 C        4.9050     0.8720     0.7310 C.ar  1 <1>   0.4100 
 10 N        3.1650    -3.7680    -1.6200 N.ar  1 <1>  -0.6200 
 11 C        3.0270    -4.8490     0.5120 C.ar  1 <1>  -0.1500 
 12 N        5.3860     0.1810     1.7580 N.ar  1 <1>  -0.6200 
 13 C        5.6080     1.9480     0.1430 C.ar  1 <1>   0.1670 
 14 C        4.0060    -4.7270    -1.9740 C.ar  1 <1>   0.1600 
 15 C        3.9030    -5.8420     0.1300 C.ar  1 <1>  -0.1500 
 16 C        6.5670     0.6080     2.1580 C.ar  1 <1>   0.1670 
 17 N        6.7880     2.3760     0.5490 N.ar  1 <1>  -0.6200 
 18 C        5.0060     2.6980    -1.0330 C.3   1 <1>  -0.0970 
 19 C        4.4010    -5.7690    -1.1530 C.ar  1 <1>  -0.1500 
 20 C        7.2450     1.6710     1.5730 C.ar  1 <1>   0.1600 
 21 C        7.1720    -0.1420     3.3270 C.3   1 <1>  -0.0970 
 22 H        0.2630    -1.4100     2.1170 H     1 <1>   0.4000 
 23 H        0.8470    -0.2070     0.2490 H     1 <1>   0.0800 
 24 H        2.9540    -1.9090     1.5950 H     1 <1>   0.0800 
 25 H        2.8490     0.8670     2.1910 H     1 <1>   0.0800 
 26 H        2.0290     1.6970     0.8700 H     1 <1>   0.0800 
 27 H        3.2240    -0.9390    -1.2180 H     1 <1>   0.0800 
 28 H        4.4670    -1.4660    -0.1040 H     1 <1>   0.0800 
 29 H        1.1900    -2.4080    -0.8330 H     1 <1>   0.0800 
 30 H        1.0080    -3.1600     0.7210 H     1 <1>   0.0800 
 31 H        2.6110    -4.8520     1.5030 H     1 <1>   0.1500 
 32 H        4.4020    -4.6800    -2.9730 H     1 <1>   0.1500 
 33 H        4.1850    -6.6350     0.8010 H     1 <1>   0.1500 
 34 H        4.5580     2.0070    -1.7240 H     1 <1>   0.0800 
 35 H        5.7650     3.2560    -1.5510 H     1 <1>   0.0800 
 36 H        4.2540     3.3760    -0.6770 H     1 <1>   0.0800 
 37 H        5.0890    -6.5110    -1.5160 H     1 <1>   0.1500 
 38 H        8.2050     1.9560     1.9620 H     1 <1>   0.1500 
 39 H        8.1310     0.2600     3.5940 H     1 <1>   0.0800 
 40 H        7.2870    -1.1780     3.0660 H     1 <1>   0.0800 
 41 H        6.5150    -0.0710     4.1750 H     1 <1>   0.0800 
@<TRIPOS>BOND
  1   1   2  1   
  2   1  22  1   
  3   2   3  1   
  4   2   4  1   
  5   2  23  1   
  6   3   5  1   
  7   3   6  1   
  8   3  24  1   
  9   4   7  1   
 10   4  25  1   
 11   4  26  1   
 12   5   7  1   
 13   5  27  1   
 14   5  28  1   
 15   6   8  1   
 16   6  29  1   
 17   6  30  1   
 18   7   9  1   
 19   8  10  ar  
 20   8  11  ar  
 21   9  12  ar  
 22   9  13  ar  
 23  10  14  ar  
 24  11  15  ar  
 25  11  31  1   
 26  12  16  ar  
 27  13  17  ar  
 28  13  18  1   
 29  14  19  ar  
 30  14  32  1   
 31  15  19  ar  
 32  15  33  1   
 33  16  20  ar  
 34  16  21  1   
 35  17  20  ar  
 36  18  34  1   
 37  18  35  1   
 38  18  36  1   
 39  19  37  1   
 40  20  38  1   
 41  21  39  1   
 42  21  40  1   
 43  21  41  1   
@<TRIPOS>SUBSTRUCTURE
  1 ****   5 GROUP 4 **** **** 0

# MOE 2024.06 (io_trps.svl 2023.06)
