@<TRIPOS>MOLECULE
NONAME
48 52 1 0 0 
SMALL
USER_CHARGES


@<TRIPOS>ATOM
  1 O        0.6370    -0.6170     1.2330 O.3   1 <1>  -0.5600 
  2 C        1.6840    -1.0160     0.3720 C.3   1 <1>   0.4600 
  3 C       -0.6810    -0.9590     0.8780 C.3   1 <1>   0.1200 
  4 C        1.4040    -2.4280    -0.1310 C.2   1 <1>  -0.3320 
  5 C        1.7860    -0.0300    -0.7970 C.3   1 <1>  -0.1600 
  6 C        2.9650    -0.9990     1.2070 C.3   1 <1>  -0.1600 
  7 C       -0.8770    -2.4840     0.8670 C.3   1 <1>   0.0210 
  8 N        2.2540    -3.2100    -0.8620 N.pl3 1 <1>   0.0330 
  9 C        0.2570    -3.1020     0.0880 C.2   1 <1>  -0.1810 
 10 C        2.1310     1.3770    -0.3140 C.3   1 <1>   0.2090 
 11 C        3.3200     0.4150     1.6630 C.3   1 <1>   0.2090 
 12 C        1.6260    -4.4080    -1.1050 C.ar  1 <1>  -0.1520 
 13 C        0.3650    -4.3720    -0.5160 C.ar  1 <1>   0.0000 
 14 N        3.3800     1.3210     0.4840 N.pl3 1 <1>  -0.8380 
 15 C        2.0590    -5.5400    -1.8000 C.ar  1 <1>  -0.1500 
 16 C       -0.4800    -5.4820    -0.6180 C.ar  1 <1>  -0.1500 
 17 C        4.5990     1.6890    -0.0950 C.ar  1 <1>   0.4100 
 18 C        1.2180    -6.6250    -1.8940 C.ar  1 <1>  -0.1500 
 19 C       -0.0520    -6.5960    -1.3030 C.ar  1 <1>  -0.1500 
 20 N        5.5290     0.7400    -0.0910 N.ar  1 <1>  -0.6200 
 21 C        4.8340     2.9820    -0.6590 C.ar  1 <1>   0.3920 
 22 C        6.6610     1.1270    -0.6550 C.ar  1 <1>   0.1600 
 23 O        3.8350     3.9090    -0.6110 O.3   1 <1>  -0.3630 
 24 N        5.9750     3.3480    -1.2290 N.ar  1 <1>  -0.6200 
 25 C        6.8770     2.3790    -1.2040 C.ar  1 <1>   0.1600 
 26 C        4.0320     5.2240    -1.0940 C.3   1 <1>   0.0400 
 27 H       -0.8920    -0.5480    -0.0930 H     1 <1>   0.0800 
 28 H       -1.3410    -0.5050     1.5960 H     1 <1>   0.0800 
 29 H        0.8710    -0.0170    -1.3560 H     1 <1>   0.0800 
 30 H        2.5630    -0.3530    -1.4650 H     1 <1>   0.0800 
 31 H        3.7840    -1.3780     0.6260 H     1 <1>   0.0800 
 32 H        2.8430    -1.6400     2.0590 H     1 <1>   0.0800 
 33 H       -1.8170    -2.7260     0.4080 H     1 <1>   0.0800 
 34 H       -0.8740    -2.8620     1.8730 H     1 <1>   0.0800 
 35 H        3.2000    -2.9600    -1.1680 H     1 <1>   0.2700 
 36 H        1.3360     1.7670     0.3000 H     1 <1>   0.0800 
 37 H        2.2550     2.0280    -1.1620 H     1 <1>   0.0800 
 38 H        4.2670     0.4120     2.1750 H     1 <1>   0.0800 
 39 H        2.5720     0.7790     2.3470 H     1 <1>   0.0800 
 40 H        3.0350    -5.5550    -2.2500 H     1 <1>   0.1500 
 41 H       -1.4490    -5.4450    -0.1590 H     1 <1>   0.1500 
 42 H        1.5280    -7.5090    -2.4230 H     1 <1>   0.1500 
 43 H       -0.6900    -7.4580    -1.3900 H     1 <1>   0.1500 
 44 H        7.4600     0.4080    -0.6820 H     1 <1>   0.1500 
 45 H        7.8350     2.5950    -1.6420 H     1 <1>   0.1500 
 46 H        3.1250     5.7790    -0.9420 H     1 <1>   0.0800 
 47 H        4.2680     5.1780    -2.1430 H     1 <1>   0.0800 
 48 H        4.8400     5.6770    -0.5470 H     1 <1>   0.0800 
@<TRIPOS>BOND
  1   1   2  1   
  2   1   3  1   
  3   2   4  1   
  4   2   5  1   
  5   2   6  1   
  6   3   7  1   
  7   3  27  1   
  8   3  28  1   
  9   4   8  1   
 10   4   9  2   
 11   5  10  1   
 12   5  29  1   
 13   5  30  1   
 14   6  11  1   
 15   6  31  1   
 16   6  32  1   
 17   7   9  1   
 18   7  33  1   
 19   7  34  1   
 20   8  12  1   
 21   8  35  1   
 22   9  13  1   
 23  10  14  1   
 24  10  36  1   
 25  10  37  1   
 26  11  14  1   
 27  11  38  1   
 28  11  39  1   
 29  12  13  ar  
 30  12  15  ar  
 31  13  16  ar  
 32  14  17  1   
 33  15  18  ar  
 34  15  40  1   
 35  16  19  ar  
 36  16  41  1   
 37  17  20  ar  
 38  17  21  ar  
 39  18  19  ar  
 40  18  42  1   
 41  19  43  1   
 42  20  22  ar  
 43  21  23  1   
 44  21  24  ar  
 45  22  25  ar  
 46  22  44  1   
 47  23  26  1   
 48  24  25  ar  
 49  25  45  1   
 50  26  46  1   
 51  26  47  1   
 52  26  48  1   
@<TRIPOS>SUBSTRUCTURE
  1 ****   2 GROUP 4 **** **** 0

# MOE 2024.06 (io_trps.svl 2023.06)
