@<TRIPOS>MOLECULE
NONAME
49 51 1 0 0 
SMALL
USER_CHARGES


@<TRIPOS>ATOM
  1 F       -1.4000    -0.2830    -1.3850 F     1 <1>  -0.1900 
  2 C       -1.7340     0.3920    -0.3180 C.ar  1 <1>   0.1900 
  3 C       -2.5080    -0.2440     0.6470 C.ar  1 <1>   0.0860 
  4 C       -1.3010     1.7090    -0.2060 C.ar  1 <1>  -0.1440 
  5 C       -2.8390     0.5290     1.7530 C.ar  1 <1>   0.1900 
  6 C       -2.9390    -1.6100     0.5150 C.2   1 <1>   0.5440 
  7 C       -1.6570     2.4320     0.9240 C.ar  1 <1>  -0.1500 
  8 C       -0.4520     2.3530    -1.2940 C.3   1 <1>  -0.0970 
  9 F       -3.5860     0.0070     2.6880 F     1 <1>  -0.1900 
 10 C       -2.4310     1.8410     1.9100 C.ar  1 <1>  -0.1500 
 11 O       -2.3500    -2.4980     1.1070 O.2   1 <1>  -0.5700 
 12 N       -4.0530    -1.9540    -0.2200 N.am  1 <1>  -0.6600 
 13 C       -4.3610    -3.3740    -0.4610 C.3   1 <1>   0.1400 
 14 C       -5.2960    -1.1440    -0.1920 C.3   1 <1>   0.1400 
 15 C       -5.2760    -3.7630     0.7140 C.3   1 <1>   0.4230 
 16 C       -6.3130    -1.7700     0.8000 C.3   1 <1>  -0.1600 
 17 N       -5.0120    -5.1340     1.2900 N.4   1 <1>  -0.9590 
 18 C       -6.7780    -3.2840     0.4210 C.3   1 <1>   0.0000 
 19 C       -5.1560    -6.2000     0.2830 C.3   1 <1>   0.3430 
 20 C       -3.6680    -5.1750     1.9540 C.3   1 <1>   0.2630 
 21 C       -7.2650    -4.7590    -0.0340 C.3   1 <1>  -0.1600 
 22 C       -8.2780    -2.7630     0.2100 C.3   1 <1>   0.1200 
 23 C       -6.3110    -5.8270    -0.6290 C.3   1 <1>  -0.1600 
 24 O       -8.3810    -2.1590    -1.0410 O.3   1 <1>  -0.6800 
 25 H       -1.3350     3.4540     1.0420 H     1 <1>   0.1500 
 26 H       -0.2170     3.3740    -1.0500 H     1 <1>   0.0800 
 27 H       -0.9820     2.3400    -2.2300 H     1 <1>   0.0800 
 28 H        0.4690     1.8100    -1.4110 H     1 <1>   0.0800 
 29 H       -2.7150     2.3920     2.7900 H     1 <1>   0.1500 
 30 H       -4.8660    -3.4740    -1.4050 H     1 <1>   0.0800 
 31 H       -3.4540    -3.9510    -0.4830 H     1 <1>   0.0800 
 32 H       -5.0790    -0.1300     0.0980 H     1 <1>   0.0800 
 33 H       -5.7240    -1.1160    -1.1820 H     1 <1>   0.0800 
 34 H       -4.8960    -3.1520     1.5130 H     1 <1>   0.0800 
 35 H       -5.9280    -1.7040     1.8050 H     1 <1>   0.0800 
 36 H       -7.0540    -0.9890     0.8230 H     1 <1>   0.0800 
 37 H       -5.7340    -5.2800     2.0060 H     1 <1>   0.4500 
 38 H       -4.2540    -6.2990    -0.2980 H     1 <1>   0.0800 
 39 H       -5.3560    -7.1400     0.7730 H     1 <1>   0.0800 
 40 H       -2.8820    -5.0170     1.2320 H     1 <1>   0.0800 
 41 H       -3.5110    -6.1270     2.4350 H     1 <1>   0.0800 
 42 H       -3.5930    -4.3960     2.6970 H     1 <1>   0.0800 
 43 H       -7.7740    -5.2180     0.7980 H     1 <1>   0.0800 
 44 H       -7.9760    -4.7180    -0.8490 H     1 <1>   0.0800 
 45 H       -8.6200    -2.0700     0.9610 H     1 <1>   0.0800 
 46 H       -9.0640    -3.5010     0.2650 H     1 <1>   0.0800 
 47 H       -5.9190    -5.4780    -1.5690 H     1 <1>   0.0800 
 48 H       -6.8670    -6.7220    -0.8530 H     1 <1>   0.0800 
 49 H       -9.2910    -1.8380    -1.2060 H     1 <1>   0.4000 
@<TRIPOS>BOND
  1   1   2  1   
  2   2   3  ar  
  3   2   4  ar  
  4   3   5  ar  
  5   3   6  1   
  6   4   7  ar  
  7   4   8  1   
  8   5   9  1   
  9   5  10  ar  
 10   6  11  2   
 11   6  12  am  
 12   7  10  ar  
 13   7  25  1   
 14   8  26  1   
 15   8  27  1   
 16   8  28  1   
 17  10  29  1   
 18  12  13  1   
 19  12  14  1   
 20  13  15  1   
 21  13  30  1   
 22  13  31  1   
 23  14  16  1   
 24  14  32  1   
 25  14  33  1   
 26  15  17  1   
 27  15  18  1   
 28  15  34  1   
 29  16  18  1   
 30  16  35  1   
 31  16  36  1   
 32  17  19  1   
 33  17  20  1   
 34  17  37  1   
 35  18  21  1   
 36  18  22  1   
 37  19  23  1   
 38  19  38  1   
 39  19  39  1   
 40  20  40  1   
 41  20  41  1   
 42  20  42  1   
 43  21  23  1   
 44  21  43  1   
 45  21  44  1   
 46  22  24  1   
 47  22  45  1   
 48  22  46  1   
 49  23  47  1   
 50  23  48  1   
 51  24  49  1   
@<TRIPOS>SUBSTRUCTURE
  1 ****  12 GROUP 4 **** **** 0

# MOE 2024.06 (io_trps.svl 2023.06)
