@<TRIPOS>MOLECULE
NONAME
48 49 1 0 0 
SMALL
USER_CHARGES


@<TRIPOS>ATOM
  1 F       -2.4800    -1.4630     2.8180 F     1 <1>  -0.3400 
  2 C       -3.0470    -1.9720     1.7310 C.3   1 <1>   1.1640 
  3 F       -2.1030    -2.6960     1.1440 F     1 <1>  -0.3400 
  4 F       -3.9600    -2.8280     2.1740 F     1 <1>  -0.3400 
  5 C       -3.6670    -0.8930     0.8090 C.ar  1 <1>  -0.1440 
  6 C       -4.0770    -1.1460    -0.5090 C.ar  1 <1>  -0.1440 
  7 C       -3.8360     0.3970     1.3130 C.ar  1 <1>  -0.1500 
  8 C       -4.6110    -0.1170    -1.2740 C.ar  1 <1>  -0.1500 
  9 C       -3.9760    -2.5200    -1.1700 C.3   1 <1>   0.2540 
 10 C       -4.3790     1.4090     0.5440 C.ar  1 <1>  -0.1500 
 11 C       -4.7640     1.1520    -0.7550 C.ar  1 <1>  -0.1500 
 12 N       -5.0520    -3.3910    -0.6570 N.3   1 <1>  -0.8100 
 13 C       -4.5950    -4.7990    -0.6590 C.3   1 <1>   0.2900 
 14 C       -6.3240    -3.1630    -1.4080 C.3   1 <1>   0.1100 
 15 C       -5.5990    -5.6690     0.0630 C.2   1 <1>  -0.3320 
 16 C       -7.6310    -3.5330    -0.6540 C.3   1 <1>   0.3430 
 17 N       -6.2470    -6.7170    -0.4840 N.pl3 1 <1>   0.0330 
 18 C       -6.0470    -5.5700     1.3330 C.2   1 <1>   0.0770 
 19 N       -8.0220    -2.6620     0.5140 N.4   1 <1>  -0.9590 
 20 C       -7.0880    -7.1530     0.4790 C.2   1 <1>   0.0060 
 21 N       -7.0130    -6.4740     1.5770 N.2   1 <1>  -0.5650 
 22 C       -6.8570    -2.1370     1.2860 C.3   1 <1>   0.2630 
 23 C       -8.8980    -3.4580     1.4280 C.3   1 <1>   0.2630 
 24 C       -8.0190    -8.3320     0.2840 C.3   1 <1>  -0.0600 
 25 H       -3.5400     0.6420     2.3210 H     1 <1>   0.1500 
 26 H       -4.9120    -0.2930    -2.2930 H     1 <1>   0.1500 
 27 H       -3.0080    -2.9440    -0.9770 H     1 <1>   0.0800 
 28 H       -4.0550    -2.4300    -2.2410 H     1 <1>   0.0800 
 29 H       -4.4930     2.3980     0.9540 H     1 <1>   0.1500 
 30 H       -5.1770     1.9420    -1.3600 H     1 <1>   0.1500 
 31 H       -3.6540    -4.8750    -0.1380 H     1 <1>   0.0800 
 32 H       -4.4490    -5.1430    -1.6700 H     1 <1>   0.0800 
 33 H       -6.2880    -3.7290    -2.3230 H     1 <1>   0.0800 
 34 H       -6.4030    -2.1270    -1.6850 H     1 <1>   0.0800 
 35 H       -7.5600    -4.5510    -0.3220 H     1 <1>   0.0800 
 36 H       -8.4360    -3.5090    -1.3690 H     1 <1>   0.0800 
 37 H       -6.1260    -7.1250    -1.4160 H     1 <1>   0.2700 
 38 H       -5.7270    -4.8750     2.0910 H     1 <1>   0.1500 
 39 H       -8.5480    -1.8520     0.1580 H     1 <1>   0.4500 
 40 H       -6.2320    -2.9510     1.6100 H     1 <1>   0.0800 
 41 H       -7.1890    -1.5860     2.1500 H     1 <1>   0.0800 
 42 H       -6.2650    -1.4830     0.6680 H     1 <1>   0.0800 
 43 H       -8.3620    -4.3180     1.8020 H     1 <1>   0.0800 
 44 H       -9.7740    -3.8040     0.9040 H     1 <1>   0.0800 
 45 H       -9.2120    -2.8580     2.2660 H     1 <1>   0.0800 
 46 H       -8.6950    -8.1460    -0.5300 H     1 <1>   0.0800 
 47 H       -8.5920    -8.4960     1.1790 H     1 <1>   0.0800 
 48 H       -7.4490    -9.2200     0.0780 H     1 <1>   0.0800 
@<TRIPOS>BOND
  1   1   2  1   
  2   2   3  1   
  3   2   4  1   
  4   2   5  1   
  5   5   6  ar  
  6   5   7  ar  
  7   6   8  ar  
  8   6   9  1   
  9   7  10  ar  
 10   7  25  1   
 11   8  11  ar  
 12   8  26  1   
 13   9  12  1   
 14   9  27  1   
 15   9  28  1   
 16  10  11  ar  
 17  10  29  1   
 18  11  30  1   
 19  12  13  1   
 20  12  14  1   
 21  13  15  1   
 22  13  31  1   
 23  13  32  1   
 24  14  16  1   
 25  14  33  1   
 26  14  34  1   
 27  15  17  1   
 28  15  18  2   
 29  16  19  1   
 30  16  35  1   
 31  16  36  1   
 32  17  20  1   
 33  17  37  1   
 34  18  21  1   
 35  18  38  1   
 36  19  22  1   
 37  19  23  1   
 38  19  39  1   
 39  20  21  2   
 40  20  24  1   
 41  22  40  1   
 42  22  41  1   
 43  22  42  1   
 44  23  43  1   
 45  23  44  1   
 46  23  45  1   
 47  24  46  1   
 48  24  47  1   
 49  24  48  1   
@<TRIPOS>SUBSTRUCTURE
  1 ****  12 GROUP 4 **** **** 0

# MOE 2024.06 (io_trps.svl 2023.06)
