@<TRIPOS>MOLECULE
NONAME
46 47 1 0 0 
SMALL
USER_CHARGES


@<TRIPOS>ATOM
  1 O        0.0660     1.3800     0.8770 O.2   1 <1>  -0.5700 
  2 C        0.0350     2.5130     0.4460 C.2   1 <1>   0.5690 
  3 N       -1.0980     3.2880     0.5380 N.am  1 <1>  -0.6600 
  4 C        1.3060     3.0610    -0.2190 C.3   1 <1>   0.2010 
  5 C       -2.3580     2.7510     1.1400 C.3   1 <1>   0.1400 
  6 C       -1.2310     4.6800     0.0260 C.3   1 <1>   0.1400 
  7 N        2.4640     2.1270    -0.1380 N.am  1 <1>  -0.7300 
  8 C       -3.5260     2.7670     0.1240 C.3   1 <1>   0.0000 
  9 C       -2.3540     4.7390    -1.0130 C.3   1 <1>  -0.1600 
 10 C        3.7430     2.4630    -0.4180 C.2   1 <1>   0.5690 
 11 C       -4.8010     2.2500     0.8250 C.3   1 <1>   0.2000 
 12 C       -3.6780     4.1970    -0.4500 C.3   1 <1>  -0.1600 
 13 C       -3.2980     1.7170    -0.9780 C.3   1 <1>  -0.1600 
 14 O        4.0350     3.5630    -0.8180 O.2   1 <1>  -0.5700 
 15 C        4.8290     1.4220    -0.2210 C.3   1 <1>  -0.0990 
 16 O       -5.9300     2.6290     0.0900 O.3   1 <1>  -0.5600 
 17 C       -4.6850     0.7200     0.7860 C.3   1 <1>  -0.1600 
 18 C       -3.7590     0.3800    -0.3910 C.3   1 <1>  -0.1600 
 19 C        5.1210     1.1440     1.2620 C.3   1 <1>  -0.2400 
 20 C       -7.1190     2.6800     0.8140 C.3   1 <1>   0.0400 
 21 H        1.5790     3.9850     0.2560 H     1 <1>   0.0800 
 22 H        1.0960     3.2590    -1.2550 H     1 <1>   0.0800 
 23 H       -2.2000     1.7500     1.5030 H     1 <1>   0.0800 
 24 H       -2.6140     3.3620     1.9880 H     1 <1>   0.0800 
 25 H       -1.4670     5.3320     0.8500 H     1 <1>   0.0800 
 26 H       -0.3160     5.0280    -0.4190 H     1 <1>   0.0800 
 27 H        2.2190     1.2120     0.2560 H     1 <1>   0.3700 
 28 H       -2.4920     5.7580    -1.3280 H     1 <1>   0.0800 
 29 H       -2.0640     4.1690    -1.8780 H     1 <1>   0.0800 
 30 H       -4.8880     2.6360     1.8270 H     1 <1>   0.0800 
 31 H       -4.4230     4.2060    -1.2280 H     1 <1>   0.0800 
 32 H       -4.0230     4.8510     0.3310 H     1 <1>   0.0800 
 33 H       -3.9250     1.9500    -1.8220 H     1 <1>   0.0800 
 34 H       -2.2770     1.6730    -1.3120 H     1 <1>   0.0800 
 35 H        4.5290     0.5140    -0.7100 H     1 <1>   0.0800 
 36 H        5.7260     1.7720    -0.7000 H     1 <1>   0.0800 
 37 H       -4.2300     0.3770     1.6980 H     1 <1>   0.0800 
 38 H       -5.6430     0.2450     0.6810 H     1 <1>   0.0800 
 39 H       -2.9090    -0.1800    -0.0380 H     1 <1>   0.0800 
 40 H       -4.2750    -0.2010    -1.1360 H     1 <1>   0.0800 
 41 H        4.2420     0.7670     1.7560 H     1 <1>   0.0800 
 42 H        5.4290     2.0510     1.7530 H     1 <1>   0.0800 
 43 H        5.9080     0.4170     1.3550 H     1 <1>   0.0800 
 44 H       -7.9090     2.9510     0.1360 H     1 <1>   0.0800 
 45 H       -7.0320     3.4260     1.5840 H     1 <1>   0.0800 
 46 H       -7.3240     1.7150     1.2420 H     1 <1>   0.0800 
@<TRIPOS>BOND
  1   1   2  2   
  2   2   3  am  
  3   2   4  1   
  4   3   5  1   
  5   3   6  1   
  6   4   7  1   
  7   4  21  1   
  8   4  22  1   
  9   5   8  1   
 10   5  23  1   
 11   5  24  1   
 12   6   9  1   
 13   6  25  1   
 14   6  26  1   
 15   7  10  am  
 16   7  27  1   
 17   8  11  1   
 18   8  12  1   
 19   8  13  1   
 20   9  12  1   
 21   9  28  1   
 22   9  29  1   
 23  10  14  2   
 24  10  15  1   
 25  11  16  1   
 26  11  17  1   
 27  11  30  1   
 28  12  31  1   
 29  12  32  1   
 30  13  18  1   
 31  13  33  1   
 32  13  34  1   
 33  15  19  1   
 34  15  35  1   
 35  15  36  1   
 36  16  20  1   
 37  17  18  1   
 38  17  37  1   
 39  17  38  1   
 40  18  39  1   
 41  18  40  1   
 42  19  41  1   
 43  19  42  1   
 44  19  43  1   
 45  20  44  1   
 46  20  45  1   
 47  20  46  1   
@<TRIPOS>SUBSTRUCTURE
  1 ****   3 GROUP 4 **** **** 0

# MOE 2024.06 (io_trps.svl 2023.06)
