@<TRIPOS>MOLECULE
NONAME
44 44 1 0 0 
SMALL
USER_CHARGES


@<TRIPOS>ATOM
  1 F       -0.7590     0.1940     0.8080 F     1 <1>  -0.3400 
  2 C       -1.5930    -0.3720    -0.0600 C.3   1 <1>   0.2600 
  3 C       -1.8320    -1.8220     0.3920 C.3   1 <1>   0.2000 
  4 C       -2.9190     0.4180    -0.0810 C.3   1 <1>   0.2000 
  5 O       -0.6310    -2.5900     0.4240 O.3   1 <1>  -0.4300 
  6 C       -2.9280    -2.4860    -0.4640 C.3   1 <1>   0.2200 
  7 O       -3.8760    -0.2780    -0.8480 O.3   1 <1>  -0.5600 
  8 C       -2.7920     1.8190    -0.6950 C.3   1 <1>   0.1200 
  9 C        0.1090    -2.8700    -0.6380 C.2   1 <1>   0.6590 
 10 N       -3.2340    -3.8660     0.0300 N.am  1 <1>  -0.7300 
 11 C       -4.1840    -1.5880    -0.4560 C.3   1 <1>   0.4800 
 12 O       -2.0280     2.6560     0.1490 O.3   1 <1>  -0.4300 
 13 O       -0.1860    -2.5000    -1.7440 O.2   1 <1>  -0.5700 
 14 C        1.3430    -3.6930    -0.3780 C.3   1 <1>  -0.1790 
 15 C       -3.1140    -5.0500    -0.6090 C.2   1 <1>   0.5690 
 16 O       -4.7400    -1.5150     0.8330 O.3   1 <1>  -0.4300 
 17 C       -1.7520     3.9060    -0.1870 C.2   1 <1>   0.6590 
 18 O       -3.3850    -6.0680    -0.0320 O.2   1 <1>  -0.5700 
 19 C       -2.6550    -5.1220    -2.0450 C.3   1 <1>  -0.1790 
 20 C       -5.9290    -1.0000     1.1060 C.2   1 <1>   0.6590 
 21 O       -2.1400     4.4000    -1.2120 O.2   1 <1>  -0.5700 
 22 C       -0.9130     4.6770     0.7990 C.3   1 <1>  -0.1790 
 23 O       -6.2270    -0.7760     2.2450 O.2   1 <1>  -0.5700 
 24 C       -6.9120    -0.7110    -0.0100 C.3   1 <1>  -0.1790 
 25 H       -1.1140    -0.3180    -1.0210 H     1 <1>   0.0800 
 26 H       -2.1900    -1.7850     1.4060 H     1 <1>   0.0800 
 27 H       -3.3090     0.5100     0.9190 H     1 <1>   0.0800 
 28 H       -2.6010    -2.5380    -1.4850 H     1 <1>   0.0800 
 29 H       -3.7650     2.2670    -0.8020 H     1 <1>   0.0800 
 30 H       -2.3070     1.7740    -1.6550 H     1 <1>   0.0800 
 31 H       -3.5440    -3.9320     1.0050 H     1 <1>   0.3700 
 32 H       -4.9160    -1.9850    -1.1380 H     1 <1>   0.0800 
 33 H        1.0610    -4.6330     0.0560 H     1 <1>   0.0800 
 34 H        1.9870    -3.1660     0.3010 H     1 <1>   0.0800 
 35 H        1.8660    -3.8700    -1.2990 H     1 <1>   0.0800 
 36 H       -1.6450    -4.7690    -2.1260 H     1 <1>   0.0800 
 37 H       -3.2970    -4.5310    -2.6690 H     1 <1>   0.0800 
 38 H       -2.6910    -6.1410    -2.3830 H     1 <1>   0.0800 
 39 H        0.0220     4.1710     0.9450 H     1 <1>   0.0800 
 40 H       -1.4330     4.7450     1.7350 H     1 <1>   0.0800 
 41 H       -0.7270     5.6660     0.4230 H     1 <1>   0.0800 
 42 H       -6.5210     0.0450    -0.6650 H     1 <1>   0.0800 
 43 H       -7.8310    -0.3500     0.4140 H     1 <1>   0.0800 
 44 H       -7.1190    -1.6070    -0.5620 H     1 <1>   0.0800 
@<TRIPOS>BOND
  1   1   2  1   
  2   2   3  1   
  3   2   4  1   
  4   2  25  1   
  5   3   5  1   
  6   3   6  1   
  7   3  26  1   
  8   4   7  1   
  9   4   8  1   
 10   4  27  1   
 11   5   9  1   
 12   6  10  1   
 13   6  11  1   
 14   6  28  1   
 15   7  11  1   
 16   8  12  1   
 17   8  29  1   
 18   8  30  1   
 19   9  13  2   
 20   9  14  1   
 21  10  15  am  
 22  10  31  1   
 23  11  16  1   
 24  11  32  1   
 25  12  17  1   
 26  14  33  1   
 27  14  34  1   
 28  14  35  1   
 29  15  18  2   
 30  15  19  1   
 31  16  20  1   
 32  17  21  2   
 33  17  22  1   
 34  19  36  1   
 35  19  37  1   
 36  19  38  1   
 37  20  23  2   
 38  20  24  1   
 39  22  39  1   
 40  22  40  1   
 41  22  41  1   
 42  24  42  1   
 43  24  43  1   
 44  24  44  1   
@<TRIPOS>SUBSTRUCTURE
  1 ****   2 GROUP 4 **** **** 0

# MOE 2024.06 (io_trps.svl 2023.06)
