@<TRIPOS>MOLECULE
NONAME
48 49 1 0 0 
SMALL
USER_CHARGES


@<TRIPOS>ATOM
  1 F        0.0010    -1.7760     1.0700 F     1 <1>  -0.1900 
  2 C       -1.2400    -1.7910     0.6600 C.ar  1 <1>   0.1900 
  3 C       -1.7660    -2.9600     0.1210 C.ar  1 <1>  -0.1440 
  4 C       -1.9700    -0.6280     0.7930 C.ar  1 <1>  -0.1500 
  5 C       -3.1020    -2.9430    -0.2810 C.ar  1 <1>  -0.1440 
  6 C       -0.8600    -4.1870    -0.0070 C.3   1 <1>  -0.0960 
  7 C       -3.2870    -0.6210     0.3740 C.ar  1 <1>  -0.1500 
  8 C       -3.8450    -1.7710    -0.1590 C.ar  1 <1>  -0.1500 
  9 C       -3.7950    -4.1700    -0.8450 C.3   1 <1>   0.4870 
 10 N       -4.0550    -5.1230     0.2740 N.4   1 <1>  -0.9590 
 11 C       -4.4930    -6.4710    -0.2300 C.3   1 <1>   0.3430 
 12 C       -4.9900    -4.5670     1.3040 C.3   1 <1>   0.3430 
 13 C       -5.9520    -6.4730    -0.7290 C.3   1 <1>   0.2000 
 14 C       -6.4360    -4.5420     0.7890 C.3   1 <1>  -0.1600 
 15 O       -6.2700    -7.7710    -1.0870 O.3   1 <1>  -0.6800 
 16 C       -6.9450    -5.9370     0.3390 C.3   1 <1>   0.0000 
 17 C       -6.9810    -6.9160     1.5500 C.3   1 <1>   0.1200 
 18 C       -8.3880    -5.8220    -0.2360 C.3   1 <1>  -0.1600 
 19 O       -7.8350    -6.4670     2.5480 O.3   1 <1>  -0.6800 
 20 C       -8.5580    -5.0370    -1.5520 C.3   1 <1>  -0.1600 
 21 C      -10.0360    -4.9740    -1.9490 C.3   1 <1>  -0.2400 
 22 H       -1.5130     0.2510     1.2120 H     1 <1>   0.1500 
 23 H       -1.2350    -4.9110    -0.7040 H     1 <1>   0.0800 
 24 H       -0.7310    -4.6510     0.9540 H     1 <1>   0.0800 
 25 H        0.1120    -3.8860    -0.3600 H     1 <1>   0.0800 
 26 H       -3.8720     0.2800     0.4610 H     1 <1>   0.1500 
 27 H       -4.8730    -1.7330    -0.4790 H     1 <1>   0.1500 
 28 H       -3.1600    -4.6270    -1.5870 H     1 <1>   0.0800 
 29 H       -4.7180    -3.8860    -1.3210 H     1 <1>   0.0800 
 30 H       -3.1420    -5.2300     0.7370 H     1 <1>   0.4500 
 31 H       -3.8490    -6.7920    -1.0320 H     1 <1>   0.0800 
 32 H       -4.4120    -7.1900     0.5690 H     1 <1>   0.0800 
 33 H       -4.9460    -5.1770     2.1920 H     1 <1>   0.0800 
 34 H       -4.6860    -3.5700     1.5810 H     1 <1>   0.0800 
 35 H       -6.0000    -5.8800    -1.6240 H     1 <1>   0.0800 
 36 H       -7.0710    -4.1560     1.5670 H     1 <1>   0.0800 
 37 H       -6.4960    -3.8390    -0.0200 H     1 <1>   0.0800 
 38 H       -7.1920    -7.8270    -1.4190 H     1 <1>   0.4000 
 39 H       -6.0120    -7.0650     1.9910 H     1 <1>   0.0800 
 40 H       -7.3520    -7.8790     1.2390 H     1 <1>   0.0800 
 41 H       -8.7820    -6.8120    -0.3860 H     1 <1>   0.0800 
 42 H       -9.0180    -5.3610     0.5070 H     1 <1>   0.0800 
 43 H       -7.5050    -5.6730     3.0080 H     1 <1>   0.4000 
 44 H       -8.1980    -4.0290    -1.4470 H     1 <1>   0.0800 
 45 H       -8.0210    -5.5110    -2.3540 H     1 <1>   0.0800 
 46 H      -10.6120    -4.4770    -1.1880 H     1 <1>   0.0800 
 47 H      -10.4340    -5.9630    -2.0910 H     1 <1>   0.0800 
 48 H      -10.1490    -4.4280    -2.8700 H     1 <1>   0.0800 
@<TRIPOS>BOND
  1   1   2  1   
  2   2   3  ar  
  3   2   4  ar  
  4   3   5  ar  
  5   3   6  1   
  6   4   7  ar  
  7   4  22  1   
  8   5   8  ar  
  9   5   9  1   
 10   6  23  1   
 11   6  24  1   
 12   6  25  1   
 13   7   8  ar  
 14   7  26  1   
 15   8  27  1   
 16   9  10  1   
 17   9  28  1   
 18   9  29  1   
 19  10  11  1   
 20  10  12  1   
 21  10  30  1   
 22  11  13  1   
 23  11  31  1   
 24  11  32  1   
 25  12  14  1   
 26  12  33  1   
 27  12  34  1   
 28  13  15  1   
 29  13  16  1   
 30  13  35  1   
 31  14  16  1   
 32  14  36  1   
 33  14  37  1   
 34  15  38  1   
 35  16  17  1   
 36  16  18  1   
 37  17  19  1   
 38  17  39  1   
 39  17  40  1   
 40  18  20  1   
 41  18  41  1   
 42  18  42  1   
 43  19  43  1   
 44  20  21  1   
 45  20  44  1   
 46  20  45  1   
 47  21  46  1   
 48  21  47  1   
 49  21  48  1   
@<TRIPOS>SUBSTRUCTURE
  1 ****  10 GROUP 4 **** **** 0

# MOE 2024.06 (io_trps.svl 2023.06)
