@<TRIPOS>MOLECULE
NONAME
25 25 1 0 0 
SMALL
USER_CHARGES


@<TRIPOS>ATOM
  1 F       -0.4400     0.4550    -0.2940 F     1 <1>  -0.1900 
  2 C       -1.6360     0.9660    -0.2610 C.ar  1 <1>   0.5000 
  3 N       -1.6650     2.2690    -0.4760 N.ar  1 <1>  -0.6200 
  4 C       -2.7190     0.1130    -0.0320 C.ar  1 <1>   0.0860 
  5 C       -2.8680     2.8070    -0.4760 C.ar  1 <1>   0.4100 
  6 C       -2.5730    -1.2980     0.2070 C.2   1 <1>   0.6340 
  7 C       -3.9750     0.7220    -0.0540 C.ar  1 <1>  -0.1500 
  8 N       -2.8730     4.1470    -0.6980 N.pl3 1 <1>  -0.8690 
  9 C       -4.0380     2.0750    -0.2790 C.ar  1 <1>  -0.1500 
 10 O       -1.6090    -1.8110     0.7340 O.2   1 <1>  -0.5700 
 11 O       -3.5920    -2.0860    -0.1580 O.3   1 <1>  -0.4300 
 12 C       -3.8110     5.0930    -0.0740 C.3   1 <1>   0.2090 
 13 C       -3.5580    -3.4870     0.0370 C.3   1 <1>   0.0400 
 14 C       -3.0770     6.4050     0.1620 C.3   1 <1>  -0.2400 
 15 H       -4.8690     0.1420     0.1010 H     1 <1>   0.1500 
 16 H       -1.9270     4.5190    -0.8230 H     1 <1>   0.4000 
 17 H       -4.9840     2.5820    -0.3120 H     1 <1>   0.1500 
 18 H       -4.1670     4.6960     0.8630 H     1 <1>   0.0800 
 19 H       -4.6500     5.2500    -0.7310 H     1 <1>   0.0800 
 20 H       -4.4750    -3.9060    -0.3340 H     1 <1>   0.0800 
 21 H       -3.4550    -3.6900     1.0890 H     1 <1>   0.0800 
 22 H       -2.7190    -3.8930    -0.5020 H     1 <1>   0.0800 
 23 H       -2.2420     6.2510     0.8230 H     1 <1>   0.0800 
 24 H       -3.7430     7.1160     0.6140 H     1 <1>   0.0800 
 25 H       -2.7290     6.8100    -0.7720 H     1 <1>   0.0800 
@<TRIPOS>BOND
  1   1   2  1   
  2   2   3  ar  
  3   2   4  ar  
  4   3   5  ar  
  5   4   6  1   
  6   4   7  ar  
  7   5   8  1   
  8   5   9  ar  
  9   6  10  2   
 10   6  11  1   
 11   7   9  ar  
 12   7  15  1   
 13   8  12  1   
 14   8  16  1   
 15   9  17  1   
 16  11  13  1   
 17  12  14  1   
 18  12  18  1   
 19  12  19  1   
 20  13  20  1   
 21  13  21  1   
 22  13  22  1   
 23  14  23  1   
 24  14  24  1   
 25  14  25  1   
@<TRIPOS>SUBSTRUCTURE
  1 ****   4 GROUP 4 **** **** 0

# MOE 2024.06 (io_trps.svl 2023.06)
