@<TRIPOS>MOLECULE
NONAME
44 47 1 0 0 
SMALL
USER_CHARGES


@<TRIPOS>ATOM
  1 S        0.7220    -0.9860     1.7290 S.3   1 <1>  -0.0800 
  2 C        0.9280     0.7310     1.5620 C.2   1 <1>   0.1240 
  3 C        1.0400    -1.2560    -0.0020 C.2   1 <1>  -0.0450 
  4 N        0.8190     1.6270     2.5700 N.pl3 1 <1>  -0.5340 
  5 C        1.2150     1.0900     0.2880 C.2   1 <1>  -0.0860 
  6 C        1.2770    -0.0460    -0.5930 C.2   1 <1>  -0.1810 
  7 C        0.9970    -2.6240    -0.4640 C.2   1 <1>   0.7150 
  8 C        1.0100     2.9470     2.2840 C.2   1 <1>   0.4400 
  9 C        1.4000     2.4980     0.0720 C.2   1 <1>   0.8670 
 10 C        1.5950     0.1720    -2.0690 C.3   1 <1>  -0.0590 
 11 O        1.1460    -2.9190    -1.6340 O.2   1 <1>  -0.5700 
 12 N        0.7710    -3.6400     0.4160 N.am  1 <1>  -0.7300 
 13 N        1.2850     3.3930     1.1140 N.2   1 <1>  -0.6610 
 14 O        1.6610     2.9540    -1.0300 O.2   1 <1>  -0.5700 
 15 C        0.7760    -5.0870     0.1060 C.3   1 <1>   0.2200 
 16 C       -0.6360    -5.6590     0.1170 C.3   1 <1>  -0.0800 
 17 C        1.3850    -5.8290     1.2870 C.3   1 <1>   0.1200 
 18 C       -0.8760    -5.9620     1.6020 C.3   1 <1>   0.1200 
 19 C       -1.7230    -4.7840    -0.5350 C.3   1 <1>  -0.0170 
 20 O        0.3670    -5.8740     2.2380 O.3   1 <1>  -0.5600 
 21 C       -3.0570    -5.5130    -0.5670 C.ar  1 <1>  -0.1430 
 22 C       -3.3550    -6.4350    -1.5500 C.ar  1 <1>  -0.1500 
 23 C       -4.0360    -5.2970     0.3820 C.ar  1 <1>  -0.1500 
 24 C       -4.5800    -7.0810    -1.5350 C.ar  1 <1>   0.1600 
 25 C       -5.2290    -5.9960     0.3060 C.ar  1 <1>   0.1600 
 26 N       -5.5240    -6.8850    -0.6290 N.ar  1 <1>  -0.6200 
 27 H        0.6030     1.3240     3.5220 H     1 <1>   0.4000 
 28 H        0.9180     3.6360     3.1070 H     1 <1>   0.0600 
 29 H        0.8460     0.8020    -2.5160 H     1 <1>   0.0800 
 30 H        1.6270    -0.7470    -2.6210 H     1 <1>   0.0800 
 31 H        2.5510     0.6540    -2.1710 H     1 <1>   0.0800 
 32 H        0.6210    -3.4230     1.4040 H     1 <1>   0.3700 
 33 H        1.3000    -5.2830    -0.8160 H     1 <1>   0.0800 
 34 H       -0.6100    -6.6010    -0.4010 H     1 <1>   0.0800 
 35 H        2.2470    -5.3320     1.6960 H     1 <1>   0.0800 
 36 H        1.6350    -6.8410     1.0180 H     1 <1>   0.0800 
 37 H       -1.2740    -6.9520     1.7460 H     1 <1>   0.0800 
 38 H       -1.5280    -5.2390     2.0600 H     1 <1>   0.0800 
 39 H       -1.4270    -4.5390    -1.5410 H     1 <1>   0.0800 
 40 H       -1.8350    -3.8580     0.0010 H     1 <1>   0.0800 
 41 H       -2.6470    -6.6560    -2.3280 H     1 <1>   0.1500 
 42 H       -3.8860    -4.5920     1.1780 H     1 <1>   0.1500 
 43 H       -4.7950    -7.7960    -2.3100 H     1 <1>   0.1500 
 44 H       -5.9820    -5.8150     1.0540 H     1 <1>   0.1500 
@<TRIPOS>BOND
  1   1   2  1   
  2   1   3  1   
  3   2   4  1   
  4   2   5  2   
  5   3   6  2   
  6   3   7  1   
  7   4   8  1   
  8   4  27  1   
  9   5   6  1   
 10   5   9  1   
 11   6  10  1   
 12   7  11  2   
 13   7  12  am  
 14   8  13  2   
 15   8  28  1   
 16   9  13  1   
 17   9  14  2   
 18  10  29  1   
 19  10  30  1   
 20  10  31  1   
 21  12  15  1   
 22  12  32  1   
 23  15  16  1   
 24  15  17  1   
 25  15  33  1   
 26  16  18  1   
 27  16  19  1   
 28  16  34  1   
 29  17  20  1   
 30  17  35  1   
 31  17  36  1   
 32  18  20  1   
 33  18  37  1   
 34  18  38  1   
 35  19  21  1   
 36  19  39  1   
 37  19  40  1   
 38  21  22  ar  
 39  21  23  ar  
 40  22  24  ar  
 41  22  41  1   
 42  23  25  ar  
 43  23  42  1   
 44  24  26  ar  
 45  24  43  1   
 46  25  26  ar  
 47  25  44  1   
@<TRIPOS>SUBSTRUCTURE
  1 ****   7 GROUP 4 **** **** 0

# MOE 2024.06 (io_trps.svl 2023.06)
