@<TRIPOS>MOLECULE
NONAME
42 43 1 0 0 
SMALL
USER_CHARGES


@<TRIPOS>ATOM
  1 O       -4.1180     2.3630    -1.6720 O.2   1 <1>  -0.5700 
  2 C       -3.4970     1.8810    -0.7510 C.2   1 <1>   0.5690 
  3 N       -4.1410     1.0560     0.1510 N.am  1 <1>  -0.6600 
  4 C       -2.0180     2.2780    -0.6970 C.3   1 <1>   0.2370 
  5 C       -3.4570     0.2980     1.2430 C.3   1 <1>   0.3200 
  6 C       -5.6420     0.9000     0.1750 C.3   1 <1>   0.1400 
  7 N       -1.1520     1.0700    -0.7400 N.pl3 1 <1>   0.3140 
  8 C       -1.7050     3.2760     0.4480 C.3   1 <1>  -0.1600 
  9 C       -3.1930    -1.1340     0.8200 C.2   1 <1>  -0.3320 
 10 C       -6.3170     0.5490    -1.1690 C.3   1 <1>   0.1200 
 11 N       -0.3260     0.6830     0.2600 N.2   1 <1>  -0.7070 
 12 C       -1.1010     0.1950    -1.7670 C.2   1 <1>  -0.3020 
 13 C       -0.3550     3.9900     0.2760 C.3   1 <1>  -0.2400 
 14 N       -3.8120    -1.7700    -0.1920 N.pl3 1 <1>   0.0330 
 15 C       -2.3130    -2.0220     1.3320 C.2   1 <1>   0.0770 
 16 O       -5.4910    -0.2340    -1.9620 O.3   1 <1>  -0.6800 
 17 C        0.2070    -0.4250    -0.1550 C.2   1 <1>   0.1390 
 18 C       -0.2390    -0.7830    -1.4190 C.2   1 <1>  -0.1500 
 19 C       -3.2700    -3.0050    -0.2270 C.2   1 <1>   0.0060 
 20 N       -2.3680    -3.1990     0.6780 N.2   1 <1>  -0.5650 
 21 C       -3.6900    -4.0450    -1.2420 C.3   1 <1>  -0.0600 
 22 H       -1.8210     2.8010    -1.6130 H     1 <1>   0.0800 
 23 H       -4.0820     0.2940     2.1190 H     1 <1>   0.0800 
 24 H       -2.5330     0.7620     1.5270 H     1 <1>   0.0800 
 25 H       -6.0780     1.8110     0.5480 H     1 <1>   0.0800 
 26 H       -5.9060     0.1230     0.8710 H     1 <1>   0.0800 
 27 H       -1.7280     2.7780     1.3990 H     1 <1>   0.0800 
 28 H       -2.4770     4.0270     0.4600 H     1 <1>   0.0800 
 29 H       -6.5440     1.4480    -1.7180 H     1 <1>   0.0800 
 30 H       -7.2340     0.0130    -0.9990 H     1 <1>   0.0800 
 31 H       -1.6750     0.3050    -2.6690 H     1 <1>   0.1500 
 32 H        0.4560     3.2820     0.2970 H     1 <1>   0.0800 
 33 H       -0.2070     4.6930     1.0770 H     1 <1>   0.0800 
 34 H       -0.3220     4.5250    -0.6570 H     1 <1>   0.0800 
 35 H       -4.5230    -1.3780    -0.8260 H     1 <1>   0.2700 
 36 H       -1.6250    -1.8730     2.1480 H     1 <1>   0.1500 
 37 H       -4.7670     0.3500    -2.2840 H     1 <1>   0.4000 
 38 H        0.9120    -1.0010     0.4230 H     1 <1>   0.1500 
 39 H        0.0540    -1.6600    -1.9670 H     1 <1>   0.1500 
 40 H       -3.5070    -3.6800    -2.2360 H     1 <1>   0.0800 
 41 H       -4.7350    -4.2660    -1.1300 H     1 <1>   0.0800 
 42 H       -3.1250    -4.9470    -1.0920 H     1 <1>   0.0800 
@<TRIPOS>BOND
  1   1   2  2   
  2   2   3  am  
  3   2   4  1   
  4   3   5  1   
  5   3   6  1   
  6   4   7  1   
  7   4   8  1   
  8   4  22  1   
  9   5   9  1   
 10   5  23  1   
 11   5  24  1   
 12   6  10  1   
 13   6  25  1   
 14   6  26  1   
 15   7  11  1   
 16   7  12  1   
 17   8  13  1   
 18   8  27  1   
 19   8  28  1   
 20   9  14  1   
 21   9  15  2   
 22  10  16  1   
 23  10  29  1   
 24  10  30  1   
 25  11  17  2   
 26  12  18  2   
 27  12  31  1   
 28  13  32  1   
 29  13  33  1   
 30  13  34  1   
 31  14  19  1   
 32  14  35  1   
 33  15  20  1   
 34  15  36  1   
 35  16  37  1   
 36  17  18  1   
 37  17  38  1   
 38  18  39  1   
 39  19  20  2   
 40  19  21  1   
 41  21  40  1   
 42  21  41  1   
 43  21  42  1   
@<TRIPOS>SUBSTRUCTURE
  1 ****   5 GROUP 4 **** **** 0

# MOE 2024.06 (io_trps.svl 2023.06)
