@<TRIPOS>MOLECULE
NONAME
48 50 1 0 0 
SMALL
USER_CHARGES


@<TRIPOS>ATOM
  1 CL      -1.4060    -0.1210    -0.9140 Cl    1 <1>  -0.1770 
  2 C       -1.2600    -1.8580    -1.0130 C.ar  1 <1>   0.1770 
  3 C       -1.7570    -2.5170    -2.1230 C.ar  1 <1>  -0.1500 
  4 C       -0.6520    -2.5470     0.0180 C.ar  1 <1>  -0.1500 
  5 C       -1.6430    -3.8960    -2.2040 C.ar  1 <1>  -0.1500 
  6 C       -0.5380    -3.9250    -0.0650 C.ar  1 <1>  -0.1500 
  7 C       -1.0300    -4.6050    -1.1700 C.ar  1 <1>   0.0830 
  8 O       -0.8770    -5.9530    -1.1700 O.3   1 <1>  -0.3630 
  9 C       -1.2560    -6.7360    -2.2850 C.3   1 <1>   0.1200 
 10 C       -1.0070    -8.2230    -1.9910 C.3   1 <1>   0.3430 
 11 N       -1.9150    -8.7540    -0.9370 N.4   1 <1>  -0.9590 
 12 C       -2.0610   -10.2330    -0.9740 C.3   1 <1>   0.3430 
 13 C       -1.7030    -8.2150     0.4400 C.3   1 <1>   0.3430 
 14 C       -3.3720   -10.6350    -0.2870 C.3   1 <1>  -0.1060 
 15 C       -2.3170    -9.1250     1.5100 C.3   1 <1>  -0.1600 
 16 C       -4.4740   -10.2240    -1.2540 C.2   1 <1>   0.9060 
 17 C       -3.5970    -9.7900     1.0000 C.3   1 <1>   0.2000 
 18 C       -3.3490   -12.1810    -0.0920 C.3   1 <1>  -0.0650 
 19 O       -4.4120    -9.0840    -1.7430 O.co2 1 <1>  -0.9000 
 20 O       -5.3800   -11.0060    -1.5280 O.co2 1 <1>  -0.9000 
 21 O       -4.1150   -10.5410     2.0360 O.3   1 <1>  -0.6800 
 22 C       -2.1600   -12.7040     0.7320 C.3   1 <1>  -0.1950 
 23 C       -0.8640   -13.1010     0.0950 C.3   1 <1>  -0.2000 
 24 C       -1.7870   -14.1490     0.6450 C.3   1 <1>  -0.2000 
 25 H       -2.2260    -1.9530    -2.9090 H     1 <1>   0.1500 
 26 H       -0.2740    -2.0100     0.8700 H     1 <1>   0.1500 
 27 H       -2.0380    -4.3890    -3.0720 H     1 <1>   0.1500 
 28 H       -0.0650    -4.4740     0.7290 H     1 <1>   0.1500 
 29 H       -2.3010    -6.5730    -2.4920 H     1 <1>   0.0800 
 30 H       -0.6650    -6.4220    -3.1270 H     1 <1>   0.0800 
 31 H        0.0220    -8.3680    -1.7080 H     1 <1>   0.0800 
 32 H       -1.1830    -8.7710    -2.9010 H     1 <1>   0.0800 
 33 H       -2.8870    -8.4670    -1.2310 H     1 <1>   0.4500 
 34 H       -2.0850   -10.5810    -1.9940 H     1 <1>   0.0800 
 35 H       -1.2240   -10.6870    -0.4720 H     1 <1>   0.0800 
 36 H       -0.6490    -8.1010     0.6340 H     1 <1>   0.0800 
 37 H       -2.1570    -7.2380     0.5010 H     1 <1>   0.0800 
 38 H       -2.5340    -8.5370     2.3840 H     1 <1>   0.0800 
 39 H       -1.6020    -9.8780     1.7870 H     1 <1>   0.0800 
 40 H       -4.3180    -9.0100     0.8040 H     1 <1>   0.0800 
 41 H       -4.2650   -12.4990     0.3770 H     1 <1>   0.0800 
 42 H       -3.3350   -12.6530    -1.0600 H     1 <1>   0.0800 
 43 H       -4.9510   -10.9620     1.7430 H     1 <1>   0.4000 
 44 H       -2.1310   -12.2850     1.7240 H     1 <1>   0.1000 
 45 H       -0.7480   -13.0620    -0.9740 H     1 <1>   0.1000 
 46 H        0.0570   -12.9110     0.6190 H     1 <1>   0.1000 
 47 H       -1.5120   -14.6630     1.5500 H     1 <1>   0.1000 
 48 H       -2.3200   -14.7840    -0.0410 H     1 <1>   0.1000 
@<TRIPOS>BOND
  1   1   2  1   
  2   2   3  ar  
  3   2   4  ar  
  4   3   5  ar  
  5   3  25  1   
  6   4   6  ar  
  7   4  26  1   
  8   5   7  ar  
  9   5  27  1   
 10   6   7  ar  
 11   6  28  1   
 12   7   8  1   
 13   8   9  1   
 14   9  10  1   
 15   9  29  1   
 16   9  30  1   
 17  10  11  1   
 18  10  31  1   
 19  10  32  1   
 20  11  12  1   
 21  11  13  1   
 22  11  33  1   
 23  12  14  1   
 24  12  34  1   
 25  12  35  1   
 26  13  15  1   
 27  13  36  1   
 28  13  37  1   
 29  14  16  1   
 30  14  17  1   
 31  14  18  1   
 32  15  17  1   
 33  15  38  1   
 34  15  39  1   
 35  16  19  ar  
 36  16  20  ar  
 37  17  21  1   
 38  17  40  1   
 39  18  22  1   
 40  18  41  1   
 41  18  42  1   
 42  21  43  1   
 43  22  23  1   
 44  22  24  1   
 45  22  44  1   
 46  23  24  1   
 47  23  45  1   
 48  23  46  1   
 49  24  47  1   
 50  24  48  1   
@<TRIPOS>SUBSTRUCTURE
  1 ****  11 GROUP 4 **** **** 0

# MOE 2024.06 (io_trps.svl 2023.06)
