@<TRIPOS>MOLECULE
NONAME
50 52 1 0 0 
SMALL
USER_CHARGES


@<TRIPOS>ATOM
  1 CL       0.4490     1.6250    -2.6520 Cl    1 <1>  -0.1770 
  2 C        1.7160     1.5630    -1.4480 C.ar  1 <1>   0.1770 
  3 C        2.2860     0.3520    -1.0830 C.ar  1 <1>  -0.1440 
  4 C        2.1240     2.7580    -0.8800 C.ar  1 <1>  -0.1500 
  5 C        3.2890     0.3960    -0.1250 C.ar  1 <1>   0.1900 
  6 C        1.8520    -0.9710    -1.6980 C.3   1 <1>   0.2540 
  7 C        3.1260     2.7660     0.0770 C.ar  1 <1>  -0.1500 
  8 F        3.8630    -0.7250     0.2350 F     1 <1>  -0.1900 
  9 C        3.7230     1.5770     0.4660 C.ar  1 <1>  -0.1440 
 10 N        0.9830    -1.7180    -0.7680 N.3   1 <1>  -0.8100 
 11 C        4.8260     1.5750     1.5150 C.3   1 <1>  -0.0970 
 12 C        0.9130    -3.1430    -1.1140 C.3   1 <1>   0.1100 
 13 C       -0.3510    -1.1040    -0.6470 C.3   1 <1>   0.1100 
 14 C        0.1250    -3.9190    -0.0320 C.3   1 <1>   0.4230 
 15 C       -1.1510    -1.8250     0.4430 C.3   1 <1>  -0.1600 
 16 N        0.1680    -5.4320    -0.2030 N.4   1 <1>  -0.9590 
 17 C       -1.3040    -3.3470     0.1840 C.3   1 <1>   0.0000 
 18 C       -0.8920    -6.1620     0.5680 C.3   1 <1>   0.3430 
 19 C        0.1910    -5.9170    -1.6220 C.3   1 <1>   0.2630 
 20 C       -1.9400    -4.0130     1.4410 C.3   1 <1>  -0.1600 
 21 C       -2.1840    -3.5990    -1.0730 C.3   1 <1>   0.1200 
 22 C       -1.3140    -5.3730     1.8060 C.3   1 <1>  -0.1600 
 23 O       -3.4000    -2.9390    -0.9930 O.3   1 <1>  -0.6800 
 24 H        1.6570     3.6770    -1.1880 H     1 <1>   0.1500 
 25 H        2.7400    -1.5460    -1.9020 H     1 <1>   0.0800 
 26 H        1.3470    -0.8190    -2.6360 H     1 <1>   0.0800 
 27 H        3.4360     3.7010     0.5130 H     1 <1>   0.1500 
 28 H        5.0350     2.5710     1.8600 H     1 <1>   0.0800 
 29 H        5.7270     1.1610     1.0990 H     1 <1>   0.0800 
 30 H        4.5280     0.9760     2.3570 H     1 <1>   0.0800 
 31 H        0.4560    -3.2480    -2.0820 H     1 <1>   0.0800 
 32 H        1.9160    -3.5310    -1.1550 H     1 <1>   0.0800 
 33 H       -0.2510    -0.0700    -0.3630 H     1 <1>   0.0800 
 34 H       -0.8710    -1.1390    -1.5900 H     1 <1>   0.0800 
 35 H        0.6470    -3.7060     0.8870 H     1 <1>   0.0800 
 36 H       -0.6370    -1.6570     1.3740 H     1 <1>   0.0800 
 37 H       -2.1140    -1.3540     0.5330 H     1 <1>   0.0800 
 38 H        1.0650    -5.7070     0.2220 H     1 <1>   0.4500 
 39 H       -1.7600    -6.3070    -0.0540 H     1 <1>   0.0800 
 40 H       -0.5280    -7.1350     0.8600 H     1 <1>   0.0800 
 41 H       -0.7060    -5.6200    -2.1380 H     1 <1>   0.0800 
 42 H        0.2610    -6.9930    -1.6470 H     1 <1>   0.0800 
 43 H        1.0420    -5.5120    -2.1460 H     1 <1>   0.0800 
 44 H       -1.8370    -3.3710     2.3010 H     1 <1>   0.0800 
 45 H       -2.9980    -4.1440     1.2950 H     1 <1>   0.0800 
 46 H       -2.3980    -4.6440    -1.2000 H     1 <1>   0.0800 
 47 H       -1.7050    -3.2400    -1.9660 H     1 <1>   0.0800 
 48 H       -2.0280    -5.9490     2.3690 H     1 <1>   0.0800 
 49 H       -0.4560    -5.2280     2.4410 H     1 <1>   0.0800 
 50 H       -3.8980    -3.1790    -0.1870 H     1 <1>   0.4000 
@<TRIPOS>BOND
  1   1   2  1   
  2   2   3  ar  
  3   2   4  ar  
  4   3   5  ar  
  5   3   6  1   
  6   4   7  ar  
  7   4  24  1   
  8   5   8  1   
  9   5   9  ar  
 10   6  10  1   
 11   6  25  1   
 12   6  26  1   
 13   7   9  ar  
 14   7  27  1   
 15   9  11  1   
 16  10  12  1   
 17  10  13  1   
 18  11  28  1   
 19  11  29  1   
 20  11  30  1   
 21  12  14  1   
 22  12  31  1   
 23  12  32  1   
 24  13  15  1   
 25  13  33  1   
 26  13  34  1   
 27  14  16  1   
 28  14  17  1   
 29  14  35  1   
 30  15  17  1   
 31  15  36  1   
 32  15  37  1   
 33  16  18  1   
 34  16  19  1   
 35  16  38  1   
 36  17  20  1   
 37  17  21  1   
 38  18  22  1   
 39  18  39  1   
 40  18  40  1   
 41  19  41  1   
 42  19  42  1   
 43  19  43  1   
 44  20  22  1   
 45  20  44  1   
 46  20  45  1   
 47  21  23  1   
 48  21  46  1   
 49  21  47  1   
 50  22  48  1   
 51  22  49  1   
 52  23  50  1   
@<TRIPOS>SUBSTRUCTURE
  1 ****  10 GROUP 4 **** **** 0

# MOE 2024.06 (io_trps.svl 2023.06)
