@<TRIPOS>MOLECULE
NONAME
47 49 1 0 0 
SMALL
USER_CHARGES


@<TRIPOS>ATOM
  1 O       -2.4250     0.6980    -2.7410 O.2   1 <1>  -0.5700 
  2 C       -1.8270     0.7920    -1.6850 C.2   1 <1>   0.5440 
  3 N       -1.4060    -0.3600    -1.0950 N.am  1 <1>  -0.7300 
  4 C       -1.5730     2.0900    -1.0770 C.ar  1 <1>   0.0860 
  5 C       -1.7840    -1.7360    -1.4740 C.3   1 <1>   0.2200 
  6 C       -1.3880     2.2870     0.3040 C.ar  1 <1>   0.0820 
  7 C       -1.5030     3.2130    -1.9050 C.ar  1 <1>  -0.1500 
  8 C       -2.9420    -2.2350    -0.6190 C.3   1 <1>  -0.0800 
  9 C       -0.6790    -2.6790    -1.0170 C.3   1 <1>   0.1200 
 10 O       -1.4640     1.2070     1.1310 O.3   1 <1>  -0.3630 
 11 C       -1.1600     3.5740     0.8180 C.ar  1 <1>   0.0820 
 12 C       -1.2600     4.4750    -1.4070 C.ar  1 <1>  -0.1500 
 13 C       -2.2420    -2.6950     0.6640 C.3   1 <1>   0.1200 
 14 C       -4.0940    -1.2400    -0.3840 C.3   1 <1>  -0.0160 
 15 O       -0.8880    -2.8590     0.3530 O.3   1 <1>  -0.5600 
 16 C       -0.4130     0.9360     2.0370 C.3   1 <1>   0.0400 
 17 O       -1.0330     3.7360     2.1680 O.3   1 <1>  -0.3630 
 18 C       -1.0880     4.6580    -0.0490 C.ar  1 <1>  -0.1500 
 19 C       -5.1940    -1.8690     0.4570 C.ar  1 <1>  -0.1430 
 20 C       -0.9950     5.0110     2.7710 C.3   1 <1>   0.0400 
 21 C       -5.3320    -1.5890     1.8010 C.ar  1 <1>  -0.1500 
 22 C       -6.1080    -2.7510    -0.0800 C.ar  1 <1>  -0.1500 
 23 C       -6.3460    -2.1940     2.5250 C.ar  1 <1>   0.1600 
 24 C       -7.0860    -3.3020     0.7320 C.ar  1 <1>   0.1600 
 25 N       -7.2250    -3.0470     2.0230 N.ar  1 <1>  -0.6200 
 26 H       -1.0580    -0.2810    -0.1340 H     1 <1>   0.3700 
 27 H       -1.9770    -1.8010    -2.5320 H     1 <1>   0.0800 
 28 H       -1.6430     3.0860    -2.9660 H     1 <1>   0.1500 
 29 H       -3.3470    -3.1110    -1.0950 H     1 <1>   0.0800 
 30 H        0.3050    -2.2790    -1.1870 H     1 <1>   0.0800 
 31 H       -0.7750    -3.6380    -1.4950 H     1 <1>   0.0800 
 32 H       -1.2080     5.3170    -2.0760 H     1 <1>   0.1500 
 33 H       -2.6380    -3.6290     1.0250 H     1 <1>   0.0800 
 34 H       -2.3080    -1.9490     1.4370 H     1 <1>   0.0800 
 35 H       -4.4980    -0.9300    -1.3320 H     1 <1>   0.0800 
 36 H       -3.7340    -0.3570     0.1150 H     1 <1>   0.0800 
 37 H       -0.3750    -0.1260     2.2040 H     1 <1>   0.0800 
 38 H       -0.6120     1.4420     2.9640 H     1 <1>   0.0800 
 39 H        0.5170     1.2760     1.6150 H     1 <1>   0.0800 
 40 H       -0.9020     5.6540     0.3060 H     1 <1>   0.1500 
 41 H       -0.9730     4.8750     3.8370 H     1 <1>   0.0800 
 42 H       -1.8790     5.5570     2.4910 H     1 <1>   0.0800 
 43 H       -0.1050     5.5230     2.4520 H     1 <1>   0.0800 
 44 H       -4.6620    -0.9070     2.2920 H     1 <1>   0.1500 
 45 H       -6.0700    -3.0140    -1.1210 H     1 <1>   0.1500 
 46 H       -6.4380    -1.9640     3.5730 H     1 <1>   0.1500 
 47 H       -7.7910    -3.9890     0.2960 H     1 <1>   0.1500 
@<TRIPOS>BOND
  1   1   2  2   
  2   2   3  am  
  3   2   4  1   
  4   3   5  1   
  5   3  26  1   
  6   4   6  ar  
  7   4   7  ar  
  8   5   8  1   
  9   5   9  1   
 10   5  27  1   
 11   6  10  1   
 12   6  11  ar  
 13   7  12  ar  
 14   7  28  1   
 15   8  13  1   
 16   8  14  1   
 17   8  29  1   
 18   9  15  1   
 19   9  30  1   
 20   9  31  1   
 21  10  16  1   
 22  11  17  1   
 23  11  18  ar  
 24  12  18  ar  
 25  12  32  1   
 26  13  15  1   
 27  13  33  1   
 28  13  34  1   
 29  14  19  1   
 30  14  35  1   
 31  14  36  1   
 32  16  37  1   
 33  16  38  1   
 34  16  39  1   
 35  17  20  1   
 36  18  40  1   
 37  19  21  ar  
 38  19  22  ar  
 39  20  41  1   
 40  20  42  1   
 41  20  43  1   
 42  21  23  ar  
 43  21  44  1   
 44  22  24  ar  
 45  22  45  1   
 46  23  25  ar  
 47  23  46  1   
 48  24  25  ar  
 49  24  47  1   
@<TRIPOS>SUBSTRUCTURE
  1 ****  10 GROUP 4 **** **** 0

# MOE 2024.06 (io_trps.svl 2023.06)
