@<TRIPOS>MOLECULE
NONAME
46 48 1 0 0 
SMALL
USER_CHARGES


@<TRIPOS>ATOM
  1 O       -0.3100    -4.2840    -0.5880 O.2   1 <1>  -0.5700 
  2 C        0.4680    -3.3820    -0.3450 C.2   1 <1>   0.6900 
  3 N        1.2200    -3.4010     0.8080 N.am  1 <1>  -0.4200 
  4 N        0.6660    -2.3850    -1.2570 N.am  1 <1>  -0.5390 
  5 C        2.3030    -2.5490     0.9290 C.2   1 <1>   0.6160 
  6 C        0.8580    -4.2940     1.9510 C.3   1 <1>   0.1400 
  7 C        1.6690    -1.4470    -1.1240 C.2   1 <1>  -0.0290 
  8 O        3.0850    -2.7140     1.8450 O.2   1 <1>  -0.5700 
  9 C        2.4850    -1.5290    -0.0500 C.2   1 <1>  -0.1360 
 10 C        1.5410    -5.6640     1.8130 C.3   1 <1>   0.3430 
 11 C        1.7800    -0.3950    -2.2090 C.3   1 <1>  -0.1020 
 12 N        0.9910    -6.4340     0.6460 N.4   1 <1>  -0.9590 
 13 C       -0.1750    -7.2970     1.0520 C.3   1 <1>   0.3430 
 14 C        2.0690    -7.2180    -0.0320 C.3   1 <1>   0.2630 
 15 C       -1.3780    -7.2240     0.0970 C.3   1 <1>   0.2000 
 16 O       -2.3490    -8.1130     0.6130 O.3   1 <1>  -0.3630 
 17 C       -1.0500    -7.6030    -1.3580 C.3   1 <1>   0.1200 
 18 C       -3.3910    -8.4240    -0.1990 C.ar  1 <1>   0.0820 
 19 O       -2.2280    -7.6230    -2.1370 O.3   1 <1>  -0.3630 
 20 C       -3.3350    -8.1660    -1.5710 C.ar  1 <1>   0.0820 
 21 C       -4.5230    -8.9990     0.3510 C.ar  1 <1>  -0.1500 
 22 C       -4.4200    -8.4680    -2.3750 C.ar  1 <1>  -0.1500 
 23 C       -5.6040    -9.3040    -0.4600 C.ar  1 <1>  -0.1500 
 24 C       -5.5540    -9.0370    -1.8190 C.ar  1 <1>  -0.1500 
 25 H        0.0350    -2.3840    -2.0630 H     1 <1>   0.3700 
 26 H       -0.2100    -4.4110     2.0030 H     1 <1>   0.0800 
 27 H        1.1740    -3.8360     2.8730 H     1 <1>   0.0800 
 28 H        3.2970    -0.8470     0.1200 H     1 <1>   0.1500 
 29 H        1.4070    -6.2290     2.7200 H     1 <1>   0.0800 
 30 H        2.5990    -5.4950     1.6850 H     1 <1>   0.0800 
 31 H        0.8700     0.1770    -2.2650 H     1 <1>   0.0800 
 32 H        1.9580    -0.8610    -3.1620 H     1 <1>   0.0800 
 33 H        2.5920     0.2790    -2.0020 H     1 <1>   0.0800 
 34 H        0.6240    -5.7190    -0.0200 H     1 <1>   0.4500 
 35 H       -0.5230    -6.9890     2.0240 H     1 <1>   0.0800 
 36 H        0.1450    -8.3230     1.1270 H     1 <1>   0.0800 
 37 H        2.4750    -7.9570     0.6400 H     1 <1>   0.0800 
 38 H        2.8660    -6.5620    -0.3460 H     1 <1>   0.0800 
 39 H        1.6800    -7.7210    -0.9020 H     1 <1>   0.0800 
 40 H       -1.8070    -6.2380     0.1260 H     1 <1>   0.0800 
 41 H       -0.6070    -8.5820    -1.4080 H     1 <1>   0.0800 
 42 H       -0.3870    -6.8850    -1.8050 H     1 <1>   0.0800 
 43 H       -4.5590    -9.2020     1.4060 H     1 <1>   0.1500 
 44 H       -4.3720    -8.2590    -3.4290 H     1 <1>   0.1500 
 45 H       -6.4860    -9.7490    -0.0330 H     1 <1>   0.1500 
 46 H       -6.3970    -9.2730    -2.4450 H     1 <1>   0.1500 
@<TRIPOS>BOND
  1   1   2  2   
  2   2   3  am  
  3   2   4  am  
  4   3   5  am  
  5   3   6  1   
  6   4   7  1   
  7   4  25  1   
  8   5   8  2   
  9   5   9  1   
 10   6  10  1   
 11   6  26  1   
 12   6  27  1   
 13   7   9  2   
 14   7  11  1   
 15   9  28  1   
 16  10  12  1   
 17  10  29  1   
 18  10  30  1   
 19  11  31  1   
 20  11  32  1   
 21  11  33  1   
 22  12  13  1   
 23  12  14  1   
 24  12  34  1   
 25  13  15  1   
 26  13  35  1   
 27  13  36  1   
 28  14  37  1   
 29  14  38  1   
 30  14  39  1   
 31  15  16  1   
 32  15  17  1   
 33  15  40  1   
 34  16  18  1   
 35  17  19  1   
 36  17  41  1   
 37  17  42  1   
 38  18  20  ar  
 39  18  21  ar  
 40  19  20  1   
 41  20  22  ar  
 42  21  23  ar  
 43  21  43  1   
 44  22  24  ar  
 45  22  44  1   
 46  23  24  ar  
 47  23  45  1   
 48  24  46  1   
@<TRIPOS>SUBSTRUCTURE
  1 ****   1 GROUP 4 **** **** 0

# MOE 2024.06 (io_trps.svl 2023.06)
