@<TRIPOS>MOLECULE
NONAME
45 47 1 0 0 
SMALL
USER_CHARGES


@<TRIPOS>ATOM
  1 S       -0.0850     0.7330     1.4010 S.3   1 <1>  -0.2860 
  2 C       -0.5180    -0.8790     0.7540 C.2   1 <1>   0.2420 
  3 C        0.0880     1.7490    -0.1360 C.3   1 <1>   0.2500 
  4 N       -0.6510    -1.1560    -0.4940 N.2   1 <1>  -0.3380 
  5 N       -0.7340    -1.9160     1.5500 N.pl3 1 <1>   0.0330 
  6 C        0.4610     3.1780     0.2230 C.2   1 <1>  -0.0400 
  7 N       -0.9750    -2.4550    -0.5440 N.2   1 <1>  -0.3380 
  8 C       -1.0190    -2.8830     0.6740 C.2   1 <1>   0.0360 
  9 O        0.6280     4.0370    -0.7570 O.3   1 <1>  -0.2800 
 10 C        0.6690     3.7890     1.4110 C.2   1 <1>  -0.1500 
 11 C        0.9480     5.2260    -0.2540 C.2   1 <1>   0.0550 
 12 C        0.9840     5.1130     1.1050 C.2   1 <1>  -0.1500 
 13 C        1.1920     6.3660    -1.1120 C.2   1 <1>   0.7150 
 14 O        1.1380     6.2870    -2.3270 O.2   1 <1>  -0.5700 
 15 N        1.5040     7.5730    -0.5590 N.am  1 <1>  -0.7300 
 16 C        1.8990     8.7850    -1.3000 C.3   1 <1>   0.2840 
 17 C        3.2750     9.2160    -0.8160 C.ar  1 <1>  -0.1430 
 18 C        3.3800    10.0640     0.2870 C.ar  1 <1>   0.3930 
 19 C        4.4320     8.7820    -1.4410 C.ar  1 <1>  -0.1430 
 20 O        2.2360    10.4540     0.8960 O.3   1 <1>  -0.3630 
 21 N        4.5290    10.5070     0.7880 N.ar  1 <1>  -0.6200 
 22 C        5.6230     9.2440    -0.9180 C.ar  1 <1>  -0.1500 
 23 C        4.4340     7.8420    -2.6390 C.3   1 <1>  -0.0970 
 24 C        2.2590    11.3380     2.0000 C.3   1 <1>   0.0400 
 25 C        5.6200    10.0910     0.1770 C.ar  1 <1>   0.1670 
 26 C        6.9270    10.5990     0.7490 C.3   1 <1>  -0.0970 
 27 H       -0.8550     1.7140    -0.6520 H     1 <1>   0.0800 
 28 H        0.8520     1.2910    -0.7390 H     1 <1>   0.0800 
 29 H       -0.6870    -1.9400     2.5690 H     1 <1>   0.2700 
 30 H       -1.2540    -3.8920     0.9640 H     1 <1>   0.1500 
 31 H        0.6130     3.3730     2.4010 H     1 <1>   0.1500 
 32 H        1.2080     5.8730     1.8310 H     1 <1>   0.1500 
 33 H        1.6340     7.6430     0.4490 H     1 <1>   0.3700 
 34 H        1.1740     9.5610    -1.1240 H     1 <1>   0.0800 
 35 H        1.9100     8.5950    -2.3590 H     1 <1>   0.0800 
 36 H        6.5560     8.9450    -1.3600 H     1 <1>   0.1500 
 37 H        3.8750     6.9510    -2.4150 H     1 <1>   0.0800 
 38 H        5.4360     7.5510    -2.8980 H     1 <1>   0.0800 
 39 H        3.9910     8.3260    -3.4900 H     1 <1>   0.0800 
 40 H        1.2470    11.5180     2.3140 H     1 <1>   0.0800 
 41 H        2.7230    12.2610     1.6960 H     1 <1>   0.0800 
 42 H        2.8200    10.8830     2.7980 H     1 <1>   0.0800 
 43 H        7.0130    10.2910     1.7740 H     1 <1>   0.0800 
 44 H        6.9410    11.6730     0.7080 H     1 <1>   0.0800 
 45 H        7.7670    10.2190     0.1990 H     1 <1>   0.0800 
@<TRIPOS>BOND
  1   1   2  1   
  2   1   3  1   
  3   2   4  2   
  4   2   5  1   
  5   3   6  1   
  6   3  27  1   
  7   3  28  1   
  8   4   7  1   
  9   5   8  1   
 10   5  29  1   
 11   6   9  1   
 12   6  10  2   
 13   7   8  2   
 14   8  30  1   
 15   9  11  1   
 16  10  12  1   
 17  10  31  1   
 18  11  12  2   
 19  11  13  1   
 20  12  32  1   
 21  13  14  2   
 22  13  15  am  
 23  15  16  1   
 24  15  33  1   
 25  16  17  1   
 26  16  34  1   
 27  16  35  1   
 28  17  18  ar  
 29  17  19  ar  
 30  18  20  1   
 31  18  21  ar  
 32  19  22  ar  
 33  19  23  1   
 34  20  24  1   
 35  21  25  ar  
 36  22  25  ar  
 37  22  36  1   
 38  23  37  1   
 39  23  38  1   
 40  23  39  1   
 41  24  40  1   
 42  24  41  1   
 43  24  42  1   
 44  25  26  1   
 45  26  43  1   
 46  26  44  1   
 47  26  45  1   
@<TRIPOS>SUBSTRUCTURE
  1 ****  11 GROUP 4 **** **** 0

# MOE 2024.06 (io_trps.svl 2023.06)
