@<TRIPOS>MOLECULE
NONAME
48 51 1 0 0 
SMALL
USER_CHARGES


@<TRIPOS>ATOM
  1 O       -0.5300    -0.9900    -0.7060 O.3   1 <1>  -0.3630 
  2 C        0.7550    -1.3840    -0.4650 C.ar  1 <1>   0.0830 
  3 C       -0.8850     0.3460    -0.9830 C.3   1 <1>   0.0400 
  4 C        0.9800    -2.7660    -0.2070 C.ar  1 <1>   0.3100 
  5 C        1.8000    -0.4850    -0.4680 C.ar  1 <1>  -0.1500 
  6 N       -0.0730    -3.6270    -0.2120 N.ar  1 <1>  -0.6200 
  7 C        2.3070    -3.1970     0.0460 C.ar  1 <1>   0.0000 
  8 C        3.1080    -0.9200    -0.2170 C.ar  1 <1>   0.0830 
  9 C        0.1620    -4.8840     0.0270 C.ar  1 <1>   0.4100 
 10 C        2.5270    -4.5710     0.3030 C.ar  1 <1>  -0.1440 
 11 C        3.3430    -2.2440     0.0320 C.ar  1 <1>  -0.1500 
 12 O        4.1820    -0.0880    -0.2060 O.3   1 <1>  -0.3630 
 13 N       -0.9010    -5.7590     0.0180 N.pl3 1 <1>  -0.8380 
 14 C        1.4430    -5.3910     0.2880 C.ar  1 <1>  -0.1500 
 15 C        3.9150    -5.1270     0.5870 C.3   1 <1>  -0.0970 
 16 C        4.0540     1.2940    -0.4520 C.3   1 <1>   0.0400 
 17 C       -1.5140    -6.0090    -1.3160 C.3   1 <1>   0.2090 
 18 C       -1.9970    -5.4630     0.9850 C.3   1 <1>   0.2090 
 19 C       -3.0130    -6.1660    -1.0540 C.3   1 <1>  -0.0800 
 20 C       -3.2270    -5.2090     0.1200 C.3   1 <1>  -0.0800 
 21 C       -3.3390    -7.6380    -0.7120 C.3   1 <1>  -0.0220 
 22 C       -4.5790    -5.3470     0.8440 C.3   1 <1>  -0.0220 
 23 C       -4.5570    -7.7790     0.1830 C.2   1 <1>  -0.2880 
 24 C       -5.1010    -6.7710     0.8670 C.2   1 <1>  -0.2880 
 25 H       -1.9480     0.3800    -1.1380 H     1 <1>   0.0800 
 26 H       -0.3760     0.6640    -1.8760 H     1 <1>   0.0800 
 27 H       -0.6180     0.9600    -0.1420 H     1 <1>   0.0800 
 28 H        1.6260     0.5520    -0.6620 H     1 <1>   0.1500 
 29 H        4.3530    -2.5520     0.2220 H     1 <1>   0.1500 
 30 H        1.5160    -6.4450     0.4730 H     1 <1>   0.1500 
 31 H        3.8740    -6.1870     0.7560 H     1 <1>   0.0800 
 32 H        4.3270    -4.6590     1.4630 H     1 <1>   0.0800 
 33 H        4.5640    -4.9420    -0.2510 H     1 <1>   0.0800 
 34 H        5.0330     1.7360    -0.3910 H     1 <1>   0.0800 
 35 H        3.4130     1.7250     0.2960 H     1 <1>   0.0800 
 36 H        3.6510     1.4380    -1.4390 H     1 <1>   0.0800 
 37 H       -1.3430    -5.1620    -1.9600 H     1 <1>   0.0800 
 38 H       -1.0890    -6.8870    -1.7700 H     1 <1>   0.0800 
 39 H       -2.1490    -6.3210     1.6170 H     1 <1>   0.0800 
 40 H       -1.7670    -4.6060     1.5960 H     1 <1>   0.0800 
 41 H       -3.5920    -5.8560    -1.9050 H     1 <1>   0.0800 
 42 H       -3.1430    -4.1960    -0.2370 H     1 <1>   0.0800 
 43 H       -3.5030    -8.1780    -1.6280 H     1 <1>   0.0800 
 44 H       -2.5080    -8.0980    -0.2050 H     1 <1>   0.0800 
 45 H       -4.4860    -4.9750     1.8500 H     1 <1>   0.0800 
 46 H       -5.3060    -4.7380     0.3370 H     1 <1>   0.0800 
 47 H       -4.9380    -8.7850     0.2230 H     1 <1>   0.1500 
 48 H       -5.9690    -6.8940     1.4940 H     1 <1>   0.1500 
@<TRIPOS>BOND
  1   1   2  1   
  2   1   3  1   
  3   2   4  ar  
  4   2   5  ar  
  5   3  25  1   
  6   3  26  1   
  7   3  27  1   
  8   4   6  ar  
  9   4   7  ar  
 10   5   8  ar  
 11   5  28  1   
 12   6   9  ar  
 13   7  10  ar  
 14   7  11  ar  
 15   8  11  ar  
 16   8  12  1   
 17   9  13  1   
 18   9  14  ar  
 19  10  14  ar  
 20  10  15  1   
 21  11  29  1   
 22  12  16  1   
 23  13  17  1   
 24  13  18  1   
 25  14  30  1   
 26  15  31  1   
 27  15  32  1   
 28  15  33  1   
 29  16  34  1   
 30  16  35  1   
 31  16  36  1   
 32  17  19  1   
 33  17  37  1   
 34  17  38  1   
 35  18  20  1   
 36  18  39  1   
 37  18  40  1   
 38  19  20  1   
 39  19  21  1   
 40  19  41  1   
 41  20  22  1   
 42  20  42  1   
 43  21  23  1   
 44  21  43  1   
 45  21  44  1   
 46  22  24  1   
 47  22  45  1   
 48  22  46  1   
 49  23  24  2   
 50  23  47  1   
 51  24  48  1   
@<TRIPOS>SUBSTRUCTURE
  1 ****   6 GROUP 4 **** **** 0

# MOE 2024.06 (io_trps.svl 2023.06)
