@<TRIPOS>MOLECULE
NONAME
51 55 1 0 0 
SMALL
USER_CHARGES


@<TRIPOS>ATOM
  1 O       -1.4410     0.8800     2.5920 O.2   1 <1>  -0.5700 
  2 C       -2.4920     1.1420     2.0370 C.2   1 <1>   0.6160 
  3 N       -3.6640     0.6240     2.5490 N.am  1 <1>  -0.6600 
  4 C       -2.4760     1.9890     0.8830 C.2   1 <1>   0.0290 
  5 C       -3.6690    -0.7230     3.1630 C.3   1 <1>   0.1400 
  6 C       -5.0220     1.0610     2.1430 C.3   1 <1>   0.1400 
  7 C       -2.5360     1.3730    -0.4070 C.2   1 <1>   0.6160 
  8 C       -2.3890     3.3570     0.9650 C.2   1 <1>  -0.1500 
  9 C       -4.0340    -1.7070     2.0570 C.3   1 <1>  -0.1600 
 10 C       -5.5450     0.1260     1.0540 C.3   1 <1>  -0.1600 
 11 O       -2.6400     0.1690    -0.6120 O.2   1 <1>  -0.5700 
 12 N       -2.5100     2.1850    -1.5110 N.am  1 <1>  -0.5390 
 13 C       -2.3710     4.1430    -0.2070 C.2   1 <1>  -0.1500 
 14 C       -5.3800    -1.3670     1.3990 C.3   1 <1>   0.4600 
 15 C       -2.4300     3.5480    -1.4300 C.2   1 <1>  -0.0290 
 16 O       -6.3710    -1.7260     2.3370 O.3   1 <1>  -0.5600 
 17 C       -5.5270    -2.2030     0.1390 C.2   1 <1>  -0.3320 
 18 C       -2.4100     4.3190    -2.7350 C.3   1 <1>  -0.1020 
 19 C       -7.6510    -2.0750     1.8560 C.3   1 <1>   0.1200 
 20 N       -4.6770    -2.1720    -0.9330 N.pl3 1 <1>   0.0330 
 21 C       -6.5140    -3.0890    -0.0890 C.2   1 <1>  -0.1810 
 22 C       -7.5980    -3.3090     0.9360 C.3   1 <1>   0.0210 
 23 C       -5.1440    -3.0730    -1.8600 C.ar  1 <1>  -0.1520 
 24 C       -6.2990    -3.6690    -1.3570 C.ar  1 <1>   0.0000 
 25 C       -4.6450    -3.4260    -3.1160 C.ar  1 <1>  -0.1500 
 26 C       -6.9680    -4.6330    -2.1190 C.ar  1 <1>  -0.1500 
 27 C       -5.3130    -4.3750    -3.8550 C.ar  1 <1>  -0.1500 
 28 C       -6.4750    -4.9780    -3.3560 C.ar  1 <1>  -0.1500 
 29 H       -4.3940    -0.7620     3.9590 H     1 <1>   0.0800 
 30 H       -2.7010    -0.9620     3.5700 H     1 <1>   0.0800 
 31 H       -5.0040     2.0770     1.7890 H     1 <1>   0.0800 
 32 H       -5.6740     1.0160     3.0000 H     1 <1>   0.0800 
 33 H       -2.3280     3.8470     1.9220 H     1 <1>   0.1500 
 34 H       -4.0740    -2.7060     2.4480 H     1 <1>   0.0800 
 35 H       -3.2500    -1.6820     1.3240 H     1 <1>   0.0800 
 36 H       -5.0150     0.3370     0.1490 H     1 <1>   0.0800 
 37 H       -6.5750     0.3450     0.8500 H     1 <1>   0.0800 
 38 H       -2.5410     1.6950    -2.4060 H     1 <1>   0.3700 
 39 H       -2.3040     5.2130    -0.1050 H     1 <1>   0.1500 
 40 H       -1.5600     4.0240    -3.3230 H     1 <1>   0.0800 
 41 H       -2.3460     5.3760    -2.5500 H     1 <1>   0.0800 
 42 H       -3.3080     4.1230    -3.2930 H     1 <1>   0.0800 
 43 H       -8.0540    -1.2350     1.3210 H     1 <1>   0.0800 
 44 H       -8.2770    -2.2750     2.7070 H     1 <1>   0.0800 
 45 H       -3.8390    -1.5780    -1.0230 H     1 <1>   0.2700 
 46 H       -8.5460    -3.4390     0.4490 H     1 <1>   0.0800 
 47 H       -7.3800    -4.1900     1.5120 H     1 <1>   0.0800 
 48 H       -3.7510    -2.9570    -3.4880 H     1 <1>   0.1500 
 49 H       -7.8560    -5.0890    -1.7230 H     1 <1>   0.1500 
 50 H       -4.9490    -4.6630    -4.8250 H     1 <1>   0.1500 
 51 H       -6.9780    -5.7180    -3.9530 H     1 <1>   0.1500 
@<TRIPOS>BOND
  1   1   2  2   
  2   2   3  am  
  3   2   4  1   
  4   3   5  1   
  5   3   6  1   
  6   4   7  1   
  7   4   8  2   
  8   5   9  1   
  9   5  29  1   
 10   5  30  1   
 11   6  10  1   
 12   6  31  1   
 13   6  32  1   
 14   7  11  2   
 15   7  12  am  
 16   8  13  1   
 17   8  33  1   
 18   9  14  1   
 19   9  34  1   
 20   9  35  1   
 21  10  14  1   
 22  10  36  1   
 23  10  37  1   
 24  12  15  1   
 25  12  38  1   
 26  13  15  2   
 27  13  39  1   
 28  14  16  1   
 29  14  17  1   
 30  15  18  1   
 31  16  19  1   
 32  17  20  1   
 33  17  21  2   
 34  18  40  1   
 35  18  41  1   
 36  18  42  1   
 37  19  22  1   
 38  19  43  1   
 39  19  44  1   
 40  20  23  1   
 41  20  45  1   
 42  21  22  1   
 43  21  24  1   
 44  22  46  1   
 45  22  47  1   
 46  23  24  ar  
 47  23  25  ar  
 48  24  26  ar  
 49  25  27  ar  
 50  25  48  1   
 51  26  28  ar  
 52  26  49  1   
 53  27  28  ar  
 54  27  50  1   
 55  28  51  1   
@<TRIPOS>SUBSTRUCTURE
  1 ****  10 GROUP 4 **** **** 0

# MOE 2024.06 (io_trps.svl 2023.06)
