@<TRIPOS>MOLECULE
NONAME
48 51 1 0 0 
SMALL
USER_CHARGES


@<TRIPOS>ATOM
  1 O        1.8410     1.8070    -1.3020 O.3   1 <1>  -0.0190 
  2 N        2.7520     0.8840    -1.2240 N.2   1 <1>  -0.4100 
  3 C        1.2080     1.9620    -0.1700 C.2   1 <1>  -0.0400 
  4 C        2.6900     0.4190    -0.0280 C.2   1 <1>   0.1080 
  5 C        1.7110     1.0810     0.7080 C.2   1 <1>  -0.1500 
  6 C        0.1340     3.0250    -0.0470 C.3   1 <1>   0.0200 
  7 C        3.5670    -0.6970     0.4970 C.3   1 <1>  -0.0590 
  8 C        0.6400     4.3630    -0.6250 C.3   1 <1>  -0.0800 
  9 C       -0.2450     5.5870    -0.3980 C.3   1 <1>   0.2000 
 10 C        2.0080     4.7780    -0.0730 C.3   1 <1>   0.3430 
 11 O       -0.6480     5.6360     0.9350 O.3   1 <1>  -0.6800 
 12 C        0.7350     6.7360    -0.6510 C.3   1 <1>   0.3430 
 13 N        2.0520     6.2720    -0.1040 N.4   1 <1>  -0.9590 
 14 C        2.2800     6.8300     1.2570 C.3   1 <1>   0.4860 
 15 C        2.4710     8.3280     1.1270 C.ar  1 <1>  -0.1440 
 16 C        3.5830     8.8300     0.4710 C.ar  1 <1>  -0.1500 
 17 C        1.5320     9.2070     1.6450 C.ar  1 <1>  -0.1500 
 18 C        3.7660    10.1980     0.2970 C.ar  1 <1>  -0.0230 
 19 C        1.7040    10.5710     1.4920 C.ar  1 <1>  -0.1500 
 20 N        4.9040    10.6820    -0.4140 N.pl3 1 <1>   0.5930 
 21 C        2.8080    11.0640     0.8200 C.ar  1 <1>  -0.1500 
 22 N        5.5080     9.9640    -1.3970 N.2   1 <1>  -0.7070 
 23 C        5.5510    11.8620    -0.2470 C.2   1 <1>  -0.3020 
 24 C        6.4900    10.7000    -1.8140 C.2   1 <1>   0.1390 
 25 C        6.5690    11.9060    -1.1300 C.2   1 <1>  -0.1500 
 26 H        1.4540     0.8950     1.7340 H     1 <1>   0.1500 
 27 H       -0.7400     2.7050    -0.5870 H     1 <1>   0.0800 
 28 H       -0.1280     3.1220     0.9920 H     1 <1>   0.0800 
 29 H        4.1060    -0.3650     1.3650 H     1 <1>   0.0800 
 30 H        4.2730    -0.9960    -0.2580 H     1 <1>   0.0800 
 31 H        2.9610    -1.5450     0.7580 H     1 <1>   0.0800 
 32 H        0.7580     4.2350    -1.6880 H     1 <1>   0.0800 
 33 H       -1.1120     5.6330    -1.0360 H     1 <1>   0.0800 
 34 H        2.8020     4.3460    -0.6640 H     1 <1>   0.0800 
 35 H        2.1030     4.4280     0.9420 H     1 <1>   0.0800 
 36 H       -1.4920     5.1520     1.0670 H     1 <1>   0.4000 
 37 H        0.3950     7.6500    -0.1910 H     1 <1>   0.0800 
 38 H        0.8260     6.8920    -1.7130 H     1 <1>   0.0800 
 39 H        2.8110     6.6140    -0.7090 H     1 <1>   0.4500 
 40 H        1.4360     6.6150     1.8930 H     1 <1>   0.0800 
 41 H        3.1630     6.3950     1.6950 H     1 <1>   0.0800 
 42 H        4.3320     8.1620     0.0760 H     1 <1>   0.1500 
 43 H        0.6630     8.8440     2.1690 H     1 <1>   0.1500 
 44 H        0.9740    11.2540     1.8950 H     1 <1>   0.1500 
 45 H        2.9170    12.1280     0.7000 H     1 <1>   0.1500 
 46 H        5.2520    12.5880     0.4840 H     1 <1>   0.1500 
 47 H        7.1650    10.4050    -2.6020 H     1 <1>   0.1500 
 48 H        7.2980    12.6810    -1.2920 H     1 <1>   0.1500 
@<TRIPOS>BOND
  1   1   2  1   
  2   1   3  1   
  3   2   4  2   
  4   3   5  2   
  5   3   6  1   
  6   4   5  1   
  7   4   7  1   
  8   5  26  1   
  9   6   8  1   
 10   6  27  1   
 11   6  28  1   
 12   7  29  1   
 13   7  30  1   
 14   7  31  1   
 15   8   9  1   
 16   8  10  1   
 17   8  32  1   
 18   9  11  1   
 19   9  12  1   
 20   9  33  1   
 21  10  13  1   
 22  10  34  1   
 23  10  35  1   
 24  11  36  1   
 25  12  13  1   
 26  12  37  1   
 27  12  38  1   
 28  13  14  1   
 29  13  39  1   
 30  14  15  1   
 31  14  40  1   
 32  14  41  1   
 33  15  16  ar  
 34  15  17  ar  
 35  16  18  ar  
 36  16  42  1   
 37  17  19  ar  
 38  17  43  1   
 39  18  20  1   
 40  18  21  ar  
 41  19  21  ar  
 42  19  44  1   
 43  20  22  1   
 44  20  23  1   
 45  21  45  1   
 46  22  24  2   
 47  23  25  2   
 48  23  46  1   
 49  24  25  1   
 50  24  47  1   
 51  25  48  1   
@<TRIPOS>SUBSTRUCTURE
  1 ****  13 GROUP 4 **** **** 0

# MOE 2024.06 (io_trps.svl 2023.06)
