@<TRIPOS>MOLECULE
NONAME
40 42 1 0 0 
SMALL
USER_CHARGES


@<TRIPOS>ATOM
  1 F       -2.8430     0.1480    -2.0410 F     1 <1>  -0.1900 
  2 C       -2.7400     0.7730    -0.8990 C.ar  1 <1>   0.1900 
  3 C       -2.6810     0.0320     0.2810 C.ar  1 <1>   0.0860 
  4 C       -2.6940     2.1530    -0.9330 C.ar  1 <1>  -0.1500 
  5 C       -2.7400    -1.4100     0.2980 C.2   1 <1>   0.5440 
  6 C       -2.5510     0.7570     1.4670 C.ar  1 <1>  -0.1500 
  7 C       -2.5780     2.8360     0.2650 C.ar  1 <1>   0.0830 
  8 O       -1.7720    -2.0450     0.6680 O.2   1 <1>  -0.5700 
  9 N       -3.8800    -2.0950    -0.0550 N.am  1 <1>  -0.6600 
 10 C       -2.5040     2.1400     1.4620 C.ar  1 <1>  -0.1500 
 11 O       -2.5330     4.1720     0.2830 O.3   1 <1>  -0.5330 
 12 C       -5.1910    -1.4870    -0.3930 C.3   1 <1>   0.1400 
 13 C       -3.9710    -3.5730    -0.0350 C.3   1 <1>   0.1400 
 14 C       -6.1170    -2.6720    -0.6710 C.3   1 <1>   0.2000 
 15 C       -5.4690    -3.8790     0.0060 C.3   1 <1>  -0.0800 
 16 O       -7.3840    -2.4590    -0.1500 O.3   1 <1>  -0.6800 
 17 C       -5.8460    -5.2100    -0.6620 C.3   1 <1>  -0.0170 
 18 C       -5.1820    -6.3840     0.0410 C.ar  1 <1>  -0.1430 
 19 C       -4.0010    -6.9390    -0.4100 C.ar  1 <1>  -0.1500 
 20 C       -5.7300    -6.9540     1.1720 C.ar  1 <1>  -0.1500 
 21 C       -3.4390    -8.0030     0.2760 C.ar  1 <1>   0.1600 
 22 C       -5.0880    -8.0190     1.7820 C.ar  1 <1>   0.1600 
 23 N       -3.9550    -8.5570     1.3610 N.ar  1 <1>  -0.6200 
 24 H       -2.7460     2.6700    -1.8730 H     1 <1>   0.1500 
 25 H       -2.4840     0.2200     2.3980 H     1 <1>   0.1500 
 26 H       -2.4060     2.6890     2.3820 H     1 <1>   0.1500 
 27 H       -2.5700     4.5880    -0.5970 H     1 <1>   0.4500 
 28 H       -5.5410    -0.9070     0.4430 H     1 <1>   0.0800 
 29 H       -5.1050    -0.8670    -1.2670 H     1 <1>   0.0800 
 30 H       -3.5210    -3.9570    -0.9340 H     1 <1>   0.0800 
 31 H       -3.4610    -3.9830     0.8210 H     1 <1>   0.0800 
 32 H       -6.2070    -2.8180    -1.7340 H     1 <1>   0.0800 
 33 H       -5.7560    -3.9060     1.0430 H     1 <1>   0.0800 
 34 H       -7.3420    -2.3670     0.8210 H     1 <1>   0.4000 
 35 H       -5.5560    -5.1980    -1.6980 H     1 <1>   0.0800 
 36 H       -6.9150    -5.3350    -0.6270 H     1 <1>   0.0800 
 37 H       -3.5090    -6.5550    -1.2840 H     1 <1>   0.1500 
 38 H       -6.6500    -6.5810     1.5840 H     1 <1>   0.1500 
 39 H       -2.5170    -8.4210    -0.0890 H     1 <1>   0.1500 
 40 H       -5.5300    -8.4520     2.6630 H     1 <1>   0.1500 
@<TRIPOS>BOND
  1   1   2  1   
  2   2   3  ar  
  3   2   4  ar  
  4   3   5  1   
  5   3   6  ar  
  6   4   7  ar  
  7   4  24  1   
  8   5   8  2   
  9   5   9  am  
 10   6  10  ar  
 11   6  25  1   
 12   7  10  ar  
 13   7  11  1   
 14   9  12  1   
 15   9  13  1   
 16  10  26  1   
 17  11  27  1   
 18  12  14  1   
 19  12  28  1   
 20  12  29  1   
 21  13  15  1   
 22  13  30  1   
 23  13  31  1   
 24  14  15  1   
 25  14  16  1   
 26  14  32  1   
 27  15  17  1   
 28  15  33  1   
 29  16  34  1   
 30  17  18  1   
 31  17  35  1   
 32  17  36  1   
 33  18  19  ar  
 34  18  20  ar  
 35  19  21  ar  
 36  19  37  1   
 37  20  22  ar  
 38  20  38  1   
 39  21  23  ar  
 40  21  39  1   
 41  22  23  ar  
 42  22  40  1   
@<TRIPOS>SUBSTRUCTURE
  1 ****   9 GROUP 4 **** **** 0

# MOE 2024.06 (io_trps.svl 2023.06)
