@<TRIPOS>MOLECULE
NONAME
48 50 1 0 0 
SMALL
USER_CHARGES


@<TRIPOS>ATOM
  1 S       -2.6580    -0.8540     0.7950 S.3   1 <1>  -0.0800 
  2 C       -1.4100    -2.0650     1.0320 C.2   1 <1>   0.1980 
  3 C       -3.1060    -1.6400    -0.6880 C.2   1 <1>  -0.1100 
  4 N       -1.3530    -2.9380     0.1050 N.2   1 <1>  -0.5650 
  5 C       -0.5420    -1.9780     2.2830 C.3   1 <1>   0.1000 
  6 C       -2.3090    -2.7020    -0.8780 C.2   1 <1>   0.0460 
  7 C       -1.3780    -2.1530     3.5570 C.3   1 <1>  -0.2400 
  8 C        0.2510    -0.6640     2.3310 C.3   1 <1>  -0.2400 
  9 C       -2.3840    -3.6480    -2.0710 C.3   1 <1>   0.3210 
 10 N       -2.9530    -4.9630    -1.6570 N.am  1 <1>  -0.6600 
 11 C       -4.3200    -5.0990    -1.5660 C.2   1 <1>   0.5690 
 12 C       -1.9250    -5.9830    -1.2960 C.3   1 <1>   0.0600 
 13 O       -5.0510    -4.2360    -1.9980 O.2   1 <1>  -0.5700 
 14 C       -5.0010    -6.2930    -0.8840 C.3   1 <1>   0.2610 
 15 O       -4.6410    -7.5350    -1.4710 O.3   1 <1>  -0.5600 
 16 C       -4.7010    -6.2790     0.6350 C.3   1 <1>   0.3640 
 17 C       -5.3460    -8.6440    -0.9540 C.3   1 <1>   0.1810 
 18 N       -5.0630    -7.5670     1.2740 N.am  1 <1>  -0.7300 
 19 C       -5.4240    -5.1430     1.3420 C.ar  1 <1>  -0.1440 
 20 C       -5.3320    -8.6950     0.5780 C.2   1 <1>   0.5690 
 21 C       -6.7670    -5.2360     1.6830 C.ar  1 <1>   0.1600 
 22 C       -4.7440    -3.9800     1.6510 C.ar  1 <1>  -0.1500 
 23 O       -5.5760    -9.7250     1.1510 O.2   1 <1>  -0.5700 
 24 N       -7.4640    -4.2900     2.2920 N.ar  1 <1>  -0.6200 
 25 C       -5.4550    -2.9830     2.2820 C.ar  1 <1>  -0.1500 
 26 C       -6.7930    -3.1860     2.5740 C.ar  1 <1>   0.1600 
 27 H       -3.9200    -1.2290    -1.2590 H     1 <1>   0.1500 
 28 H        0.1650    -2.7890     2.2350 H     1 <1>   0.0800 
 29 H       -2.0780    -1.3440     3.6690 H     1 <1>   0.0800 
 30 H       -0.7390    -2.1760     4.4220 H     1 <1>   0.0800 
 31 H       -1.9250    -3.0780     3.5130 H     1 <1>   0.0800 
 32 H       -0.4100     0.1790     2.4190 H     1 <1>   0.0800 
 33 H        0.8300    -0.5540     1.4320 H     1 <1>   0.0800 
 34 H        0.9220    -0.6640     3.1720 H     1 <1>   0.0800 
 35 H       -1.3990    -3.7820    -2.4840 H     1 <1>   0.0800 
 36 H       -3.0020    -3.2110    -2.8360 H     1 <1>   0.0800 
 37 H       -1.2770    -6.1540    -2.1380 H     1 <1>   0.0800 
 38 H       -2.3680    -6.9200    -1.0200 H     1 <1>   0.0800 
 39 H       -1.3330    -5.6240    -0.4710 H     1 <1>   0.0800 
 40 H       -6.0610    -6.1740    -1.0260 H     1 <1>   0.0800 
 41 H       -3.6440    -6.1370     0.7740 H     1 <1>   0.0800 
 42 H       -6.3610    -8.5940    -1.3030 H     1 <1>   0.0800 
 43 H       -4.8890    -9.5350    -1.3450 H     1 <1>   0.0800 
 44 H       -5.0400    -7.6150     2.2950 H     1 <1>   0.3700 
 45 H       -7.3040    -6.1380     1.4440 H     1 <1>   0.1500 
 46 H       -3.7030    -3.8450     1.4080 H     1 <1>   0.1500 
 47 H       -4.9810    -2.0550     2.5410 H     1 <1>   0.1500 
 48 H       -7.3390    -2.3980     3.0650 H     1 <1>   0.1500 
@<TRIPOS>BOND
  1   1   2  1   
  2   1   3  1   
  3   2   4  2   
  4   2   5  1   
  5   3   6  2   
  6   3  27  1   
  7   4   6  1   
  8   5   7  1   
  9   5   8  1   
 10   5  28  1   
 11   6   9  1   
 12   7  29  1   
 13   7  30  1   
 14   7  31  1   
 15   8  32  1   
 16   8  33  1   
 17   8  34  1   
 18   9  10  1   
 19   9  35  1   
 20   9  36  1   
 21  10  11  am  
 22  10  12  1   
 23  11  13  2   
 24  11  14  1   
 25  12  37  1   
 26  12  38  1   
 27  12  39  1   
 28  14  15  1   
 29  14  16  1   
 30  14  40  1   
 31  15  17  1   
 32  16  18  1   
 33  16  19  1   
 34  16  41  1   
 35  17  20  1   
 36  17  42  1   
 37  17  43  1   
 38  18  20  am  
 39  18  44  1   
 40  19  21  ar  
 41  19  22  ar  
 42  20  23  2   
 43  21  24  ar  
 44  21  45  1   
 45  22  25  ar  
 46  22  46  1   
 47  24  26  ar  
 48  25  26  ar  
 49  25  47  1   
 50  26  48  1   
@<TRIPOS>SUBSTRUCTURE
  1 ****  22 GROUP 4 **** **** 0

# MOE 2024.06 (io_trps.svl 2023.06)
