@<TRIPOS>MOLECULE
NONAME
52 54 1 0 0 
SMALL
USER_CHARGES


@<TRIPOS>ATOM
  1 O       -1.6360     2.1070     2.5410 O.2   1 <1>  -0.5700 
  2 C       -1.0310     3.0840     2.1820 C.2   1 <1>   0.5690 
  3 N       -1.6950     4.1950     1.7870 N.am  1 <1>  -0.7300 
  4 C        0.5030     3.0640     2.1360 C.3   1 <1>   0.1810 
  5 C       -1.0100     5.4480     1.4030 C.3   1 <1>   0.3640 
  6 O        1.0870     4.3460     1.9900 O.3   1 <1>  -0.5600 
  7 C       -1.7300     6.0920     0.2240 C.ar  1 <1>  -0.1440 
  8 C        0.4660     5.1730     1.0250 C.3   1 <1>   0.2610 
  9 C       -1.9420     7.4630     0.2190 C.ar  1 <1>   0.1600 
 10 C       -2.1510     5.3550    -0.8680 C.ar  1 <1>  -0.1500 
 11 C        1.2460     6.4880     0.8270 C.2   1 <1>   0.5690 
 12 N       -2.4900     8.1460    -0.7740 N.ar  1 <1>  -0.6200 
 13 C       -2.7540     6.0450    -1.8970 C.ar  1 <1>  -0.1500 
 14 O        0.8860     7.4730     1.4370 O.2   1 <1>  -0.5700 
 15 N        2.2860     6.5890    -0.0720 N.am  1 <1>  -0.6600 
 16 C       -2.8970     7.4180    -1.8030 C.ar  1 <1>   0.1600 
 17 C        3.0900     7.8520    -0.2140 C.3   1 <1>   0.1400 
 18 C        2.8410     5.4110    -0.8000 C.3   1 <1>   0.1400 
 19 C        2.3960     8.9040    -1.1050 C.3   1 <1>   0.3430 
 20 C        2.2400     5.3580    -2.2020 C.3   1 <1>  -0.2400 
 21 N        1.1820     9.4700    -0.4510 N.4   1 <1>  -0.9590 
 22 C        0.1480     9.9940    -1.3790 C.3   1 <1>   0.3430 
 23 C        1.4510    10.5170     0.5580 C.3   1 <1>   0.3430 
 24 C       -0.6030    11.0620    -0.5880 C.3   1 <1>  -0.1600 
 25 C        0.0920    11.1560     0.7710 C.3   1 <1>  -0.1600 
 26 H       -2.7150     4.2060     1.8620 H     1 <1>   0.3700 
 27 H        0.8240     2.4520     1.3140 H     1 <1>   0.0800 
 28 H        0.8790     2.6370     3.0480 H     1 <1>   0.0800 
 29 H       -1.0390     6.1120     2.2510 H     1 <1>   0.0800 
 30 H        0.4670     4.6360     0.0960 H     1 <1>   0.0800 
 31 H       -1.6370     8.0380     1.0790 H     1 <1>   0.1500 
 32 H       -2.0250     4.2860    -0.9210 H     1 <1>   0.1500 
 33 H       -3.1140     5.5240    -2.7670 H     1 <1>   0.1500 
 34 H       -3.3740     7.9420    -2.6150 H     1 <1>   0.1500 
 35 H        3.2800     8.2680     0.7610 H     1 <1>   0.0800 
 36 H        4.0480     7.6210    -0.6470 H     1 <1>   0.0800 
 37 H        3.9140     5.4830    -0.8630 H     1 <1>   0.0800 
 38 H        2.6240     4.4990    -0.2690 H     1 <1>   0.0800 
 39 H        2.1230     8.4300    -2.0330 H     1 <1>   0.0800 
 40 H        3.0860     9.7000    -1.3280 H     1 <1>   0.0800 
 41 H        2.5270     6.2210    -2.7720 H     1 <1>   0.0800 
 42 H        1.1670     5.2980    -2.1570 H     1 <1>   0.0800 
 43 H        2.6040     4.4850    -2.7140 H     1 <1>   0.0800 
 44 H        0.7530     8.6930     0.0890 H     1 <1>   0.4500 
 45 H        0.6110    10.4450    -2.2410 H     1 <1>   0.0800 
 46 H       -0.5160     9.2070    -1.7000 H     1 <1>   0.0800 
 47 H        1.8420    10.0980     1.4720 H     1 <1>   0.0800 
 48 H        2.1400    11.2460     0.1620 H     1 <1>   0.0800 
 49 H       -0.5430    11.9990    -1.1140 H     1 <1>   0.0800 
 50 H       -1.6420    10.8000    -0.4790 H     1 <1>   0.0800 
 51 H       -0.4520    10.5860     1.5050 H     1 <1>   0.0800 
 52 H        0.1800    12.1720     1.1170 H     1 <1>   0.0800 
@<TRIPOS>BOND
  1   1   2  2   
  2   2   3  am  
  3   2   4  1   
  4   3   5  1   
  5   3  26  1   
  6   4   6  1   
  7   4  27  1   
  8   4  28  1   
  9   5   7  1   
 10   5   8  1   
 11   5  29  1   
 12   6   8  1   
 13   7   9  ar  
 14   7  10  ar  
 15   8  11  1   
 16   8  30  1   
 17   9  12  ar  
 18   9  31  1   
 19  10  13  ar  
 20  10  32  1   
 21  11  14  2   
 22  11  15  am  
 23  12  16  ar  
 24  13  16  ar  
 25  13  33  1   
 26  15  17  1   
 27  15  18  1   
 28  16  34  1   
 29  17  19  1   
 30  17  35  1   
 31  17  36  1   
 32  18  20  1   
 33  18  37  1   
 34  18  38  1   
 35  19  21  1   
 36  19  39  1   
 37  19  40  1   
 38  20  41  1   
 39  20  42  1   
 40  20  43  1   
 41  21  22  1   
 42  21  23  1   
 43  21  44  1   
 44  22  24  1   
 45  22  45  1   
 46  22  46  1   
 47  23  25  1   
 48  23  47  1   
 49  23  48  1   
 50  24  25  1   
 51  24  49  1   
 52  24  50  1   
 53  25  51  1   
 54  25  52  1   
@<TRIPOS>SUBSTRUCTURE
  1 ****  11 GROUP 4 **** **** 0

# MOE 2024.06 (io_trps.svl 2023.06)
