@<TRIPOS>MOLECULE
NONAME
44 45 1 0 0 
SMALL
USER_CHARGES


@<TRIPOS>ATOM
  1 F        3.8880    -1.1820     2.5120 F     1 <1>  -0.3400 
  2 C        3.9360    -2.4270     2.0580 C.3   1 <1>   1.1640 
  3 F        4.9000    -2.4570     1.1460 F     1 <1>  -0.3400 
  4 F        4.3580    -3.1780     3.0680 F     1 <1>  -0.3400 
  5 C        2.5770    -2.8880     1.5020 C.ar  1 <1>  -0.1440 
  6 C        1.6310    -3.4790     2.3320 C.ar  1 <1>  -0.1500 
  7 C        2.2560    -2.7100     0.1600 C.ar  1 <1>  -0.1500 
  8 C        0.4100    -3.8910     1.8320 C.ar  1 <1>  -0.1500 
  9 C        1.0330    -3.1250    -0.3360 C.ar  1 <1>  -0.1500 
 10 C        0.0890    -3.7360     0.4860 C.ar  1 <1>   0.0860 
 11 C       -1.1810    -4.2020    -0.0340 C.2   1 <1>   0.5440 
 12 O       -2.2070    -3.6680     0.3340 O.2   1 <1>  -0.5700 
 13 N       -1.2770    -5.2730    -0.9030 N.am  1 <1>  -0.6600 
 14 C       -0.1150    -6.1480    -1.2250 C.3   1 <1>   0.3200 
 15 C       -2.5470    -5.5580    -1.6670 C.3   1 <1>   0.1400 
 16 C       -0.3680    -7.4880    -0.5710 C.2   1 <1>  -0.3320 
 17 C       -3.7780    -5.7700    -0.7580 C.3   1 <1>   0.3430 
 18 N       -0.4880    -8.6580    -1.2320 N.pl3 1 <1>   0.0330 
 19 C       -0.5090    -7.7760     0.7410 C.2   1 <1>   0.0770 
 20 N       -3.4220    -6.6060     0.4270 N.4   1 <1>  -0.9590 
 21 C       -0.7360    -9.5750    -0.2730 C.2   1 <1>   0.0360 
 22 N       -0.7810    -9.0790     0.9210 N.2   1 <1>  -0.5650 
 23 C       -3.7880    -8.0450     0.2870 C.3   1 <1>   0.2630 
 24 C       -3.9630    -6.0120     1.6830 C.3   1 <1>   0.2630 
 25 H        1.8420    -3.6190     3.3810 H     1 <1>   0.1500 
 26 H        2.9600    -2.2410    -0.5100 H     1 <1>   0.1500 
 27 H       -0.3100    -4.3370     2.4960 H     1 <1>   0.1500 
 28 H        0.8020    -2.9690    -1.3760 H     1 <1>   0.1500 
 29 H        0.8070    -5.7420    -0.8480 H     1 <1>   0.0800 
 30 H       -0.0200    -6.2500    -2.2930 H     1 <1>   0.0800 
 31 H       -2.4170    -6.4350    -2.2760 H     1 <1>   0.0800 
 32 H       -2.7460    -4.7330    -2.3290 H     1 <1>   0.0800 
 33 H       -4.5850    -6.2160    -1.3140 H     1 <1>   0.0800 
 34 H       -4.1080    -4.7990    -0.4240 H     1 <1>   0.0800 
 35 H       -0.3830    -8.8440    -2.2360 H     1 <1>   0.2700 
 36 H       -0.4350    -7.1050     1.5830 H     1 <1>   0.1500 
 37 H       -2.3870    -6.5450     0.4710 H     1 <1>   0.4500 
 38 H       -0.8750   -10.6190    -0.5000 H     1 <1>   0.1500 
 39 H       -4.8580    -8.1610     0.2400 H     1 <1>   0.0800 
 40 H       -3.4120    -8.6050     1.1290 H     1 <1>   0.0800 
 41 H       -3.3490    -8.4550    -0.6080 H     1 <1>   0.0800 
 42 H       -5.0410    -6.0180     1.6680 H     1 <1>   0.0800 
 43 H       -3.6250    -4.9920     1.7850 H     1 <1>   0.0800 
 44 H       -3.6250    -6.5740     2.5380 H     1 <1>   0.0800 
@<TRIPOS>BOND
  1   1   2  1   
  2   2   3  1   
  3   2   4  1   
  4   2   5  1   
  5   5   6  ar  
  6   5   7  ar  
  7   6   8  ar  
  8   6  25  1   
  9   7   9  ar  
 10   7  26  1   
 11   8  10  ar  
 12   8  27  1   
 13   9  10  ar  
 14   9  28  1   
 15  10  11  1   
 16  11  12  2   
 17  11  13  am  
 18  13  14  1   
 19  13  15  1   
 20  14  16  1   
 21  14  29  1   
 22  14  30  1   
 23  15  17  1   
 24  15  31  1   
 25  15  32  1   
 26  16  18  1   
 27  16  19  2   
 28  17  20  1   
 29  17  33  1   
 30  17  34  1   
 31  18  21  1   
 32  18  35  1   
 33  19  22  1   
 34  19  36  1   
 35  20  23  1   
 36  20  24  1   
 37  20  37  1   
 38  21  22  2   
 39  21  38  1   
 40  23  39  1   
 41  23  40  1   
 42  23  41  1   
 43  24  42  1   
 44  24  43  1   
 45  24  44  1   
@<TRIPOS>SUBSTRUCTURE
  1 ****  10 GROUP 4 **** **** 0

# MOE 2024.06 (io_trps.svl 2023.06)
