@<TRIPOS>MOLECULE
NONAME
59 62 1 0 0 
SMALL
USER_CHARGES


@<TRIPOS>ATOM
  1 O       -0.4960     0.3610     0.6360 O.3   1 <1>  -0.3630 
  2 C       -1.5220    -0.1890     1.3280 C.ar  1 <1>   0.0830 
  3 C        0.1010     1.5690     1.0480 C.3   1 <1>   0.1200 
  4 C       -1.9660    -1.4250     0.8890 C.ar  1 <1>  -0.1500 
  5 C       -2.1340     0.4090     2.4240 C.ar  1 <1>  -0.1500 
  6 C        1.2570     1.8710     0.0950 C.3   1 <1>  -0.1600 
  7 C       -3.0180    -2.0690     1.5240 C.ar  1 <1>  -0.1440 
  8 C       -3.1770    -0.2330     3.0670 C.ar  1 <1>  -0.1500 
  9 C        1.9700     3.1690     0.4910 C.3   1 <1>   0.0960 
 10 C       -3.6170    -1.4680     2.6210 C.ar  1 <1>  -0.1500 
 11 C       -3.5060    -3.4090     1.0160 C.3   1 <1>   0.4860 
 12 N        3.0830     3.4470    -0.4360 N.pl3 1 <1>   0.0480 
 13 N       -4.1150    -3.1690    -0.3200 N.4   1 <1>  -0.9590 
 14 C        4.3750     3.0640    -0.3200 C.2   1 <1>   0.0360 
 15 C        3.0370     4.1440    -1.5850 C.2   1 <1>  -0.3020 
 16 C       -5.5880    -3.3830    -0.3350 C.3   1 <1>   0.4230 
 17 C       -3.3990    -3.9530    -1.3740 C.3   1 <1>   0.2630 
 18 N        5.1310     3.4600    -1.2910 N.2   1 <1>  -0.5650 
 19 C        4.2890     4.1410    -2.0910 C.2   1 <1>   0.0770 
 20 C       -6.1970    -3.0300    -1.6910 C.3   1 <1>  -0.1600 
 21 C       -6.3130    -2.4590     0.6410 C.3   1 <1>  -0.1600 
 22 C       -7.6640    -2.6950    -1.3990 C.3   1 <1>  -0.0800 
 23 C       -7.7380    -2.3310     0.0920 C.3   1 <1>  -0.0800 
 24 C       -8.6240    -3.8760    -1.6050 C.3   1 <1>  -0.1600 
 25 C       -8.7390    -3.3070     0.7280 C.3   1 <1>  -0.1600 
 26 C       -9.5920    -3.7870    -0.4360 C.3   1 <1>   0.2000 
 27 O      -10.1290    -5.0230    -0.1610 O.3   1 <1>  -0.6800 
 28 H       -0.6430     2.3460     1.0070 H     1 <1>   0.0800 
 29 H        0.4580     1.4430     2.0560 H     1 <1>   0.0800 
 30 H       -1.4630    -1.8650     0.0460 H     1 <1>   0.1500 
 31 H       -1.8160     1.3670     2.7910 H     1 <1>   0.1500 
 32 H        1.9590     1.0560     0.1260 H     1 <1>   0.0800 
 33 H        0.8720     1.9680    -0.9050 H     1 <1>   0.0800 
 34 H       -3.6460     0.2300     3.9190 H     1 <1>   0.1500 
 35 H        2.3660     3.0890     1.4880 H     1 <1>   0.0800 
 36 H        1.2850     3.9970     0.4600 H     1 <1>   0.0800 
 37 H       -4.4290    -1.9460     3.1440 H     1 <1>   0.1500 
 38 H       -4.2290    -3.8260     1.6980 H     1 <1>   0.0800 
 39 H       -2.6730    -4.0890     0.9400 H     1 <1>   0.0800 
 40 H       -3.9610    -2.1640    -0.4940 H     1 <1>   0.4500 
 41 H        4.7240     2.4800     0.5130 H     1 <1>   0.1500 
 42 H        2.1410     4.5920    -1.9750 H     1 <1>   0.1500 
 43 H       -5.8280    -4.4080    -0.0980 H     1 <1>   0.0800 
 44 H       -3.5520    -5.0100    -1.2250 H     1 <1>   0.0800 
 45 H       -2.3410    -3.7490    -1.3400 H     1 <1>   0.0800 
 46 H       -3.7630    -3.6870    -2.3540 H     1 <1>   0.0800 
 47 H        4.6350     4.6000    -3.0020 H     1 <1>   0.1500 
 48 H       -5.7240    -2.1480    -2.0860 H     1 <1>   0.0800 
 49 H       -6.1080    -3.8330    -2.4010 H     1 <1>   0.0800 
 50 H       -6.3110    -2.8390     1.6470 H     1 <1>   0.0800 
 51 H       -5.8610    -1.4820     0.6260 H     1 <1>   0.0800 
 52 H       -7.9910    -1.8610    -1.9990 H     1 <1>   0.0800 
 53 H       -8.1020    -1.3220     0.2080 H     1 <1>   0.0800 
 54 H       -8.0920    -4.8100    -1.5660 H     1 <1>   0.0800 
 55 H       -9.1470    -3.7990    -2.5430 H     1 <1>   0.0800 
 56 H       -9.3440    -2.8210     1.4730 H     1 <1>   0.0800 
 57 H       -8.2260    -4.1430     1.1700 H     1 <1>   0.0800 
 58 H      -10.3920    -3.0940    -0.6440 H     1 <1>   0.0800 
 59 H       -9.4310    -5.6760     0.0230 H     1 <1>   0.4000 
@<TRIPOS>BOND
  1   1   2  1   
  2   1   3  1   
  3   2   4  ar  
  4   2   5  ar  
  5   3   6  1   
  6   3  28  1   
  7   3  29  1   
  8   4   7  ar  
  9   4  30  1   
 10   5   8  ar  
 11   5  31  1   
 12   6   9  1   
 13   6  32  1   
 14   6  33  1   
 15   7  10  ar  
 16   7  11  1   
 17   8  10  ar  
 18   8  34  1   
 19   9  12  1   
 20   9  35  1   
 21   9  36  1   
 22  10  37  1   
 23  11  13  1   
 24  11  38  1   
 25  11  39  1   
 26  12  14  1   
 27  12  15  1   
 28  13  16  1   
 29  13  17  1   
 30  13  40  1   
 31  14  18  2   
 32  14  41  1   
 33  15  19  2   
 34  15  42  1   
 35  16  20  1   
 36  16  21  1   
 37  16  43  1   
 38  17  44  1   
 39  17  45  1   
 40  17  46  1   
 41  18  19  1   
 42  19  47  1   
 43  20  22  1   
 44  20  48  1   
 45  20  49  1   
 46  21  23  1   
 47  21  50  1   
 48  21  51  1   
 49  22  23  1   
 50  22  24  1   
 51  22  52  1   
 52  23  25  1   
 53  23  53  1   
 54  24  26  1   
 55  24  54  1   
 56  24  55  1   
 57  25  26  1   
 58  25  56  1   
 59  25  57  1   
 60  26  27  1   
 61  26  58  1   
 62  27  59  1   
@<TRIPOS>SUBSTRUCTURE
  1 ****   4 GROUP 4 **** **** 0

# MOE 2024.06 (io_trps.svl 2023.06)
