@<TRIPOS>MOLECULE
NONAME
49 52 1 0 0 
SMALL
USER_CHARGES


@<TRIPOS>ATOM
  1 O       -1.5110     2.1560    -2.4730 O.co2 1 <1>  -0.9000 
  2 C       -1.7810     2.1190    -1.2690 C.2   1 <1>   0.9060 
  3 O       -2.9250     1.8560    -0.8740 O.co2 1 <1>  -0.9000 
  4 C       -0.6950     2.4310    -0.2330 C.3   1 <1>  -0.1060 
  5 C       -1.2800     3.3420     0.8730 C.3   1 <1>   0.2000 
  6 C        0.4790     3.2000    -0.9000 C.3   1 <1>   0.2090 
  7 C       -0.2020     1.0650     0.3190 C.3   1 <1>  -0.0650 
  8 O       -2.3120     2.7070     1.5290 O.3   1 <1>  -0.6800 
  9 C       -1.8280     4.6710     0.3250 C.3   1 <1>  -0.1600 
 10 N        0.3390     4.7100    -0.8580 N.pl3 1 <1>  -0.8380 
 11 C        0.8570     1.1290     1.4340 C.3   1 <1>  -0.1950 
 12 C       -1.0990     5.1180    -0.9450 C.3   1 <1>   0.2090 
 13 C        1.4000     5.5390    -0.7920 C.ar  1 <1>   0.4610 
 14 C        2.3270     1.0810     1.1500 C.3   1 <1>  -0.2000 
 15 C        1.6400    -0.1020     1.7660 C.3   1 <1>  -0.2000 
 16 N        1.2020     6.8290    -0.5290 N.ar  1 <1>  -0.1790 
 17 C        2.7470     5.1300    -0.9750 C.ar  1 <1>  -0.1500 
 18 C        2.2010     7.7750    -0.4070 C.ar  1 <1>   0.3610 
 19 C        3.7920     5.9980    -0.8700 C.ar  1 <1>  -0.1440 
 20 C        3.5400     7.3730    -0.5730 C.ar  1 <1>   0.0000 
 21 C        1.8970     9.1090    -0.1190 C.ar  1 <1>  -0.1500 
 22 C        5.2200     5.5070    -1.0770 C.3   1 <1>  -0.0970 
 23 C        4.5390     8.3520    -0.4370 C.ar  1 <1>  -0.1500 
 24 C        2.8960    10.0440     0.0070 C.ar  1 <1>  -0.1500 
 25 C        4.2240     9.6590    -0.1540 C.ar  1 <1>  -0.1500 
 26 H       -0.5210     3.5560     1.6040 H     1 <1>   0.0800 
 27 H        0.6240     2.8790    -1.9180 H     1 <1>   0.0800 
 28 H        1.3720     2.9440    -0.3690 H     1 <1>   0.0800 
 29 H       -1.0520     0.5280     0.7070 H     1 <1>   0.0800 
 30 H        0.1770     0.4790    -0.5010 H     1 <1>   0.0800 
 31 H       -2.8560     2.2710     0.8070 H     1 <1>   0.4000 
 32 H       -2.8720     4.5660     0.0820 H     1 <1>   0.0800 
 33 H       -1.7370     5.4220     1.0860 H     1 <1>   0.0800 
 34 H        0.5180     1.6890     2.2890 H     1 <1>   0.1000 
 35 H       -1.2220     6.1750    -1.0900 H     1 <1>   0.0800 
 36 H       -1.5430     4.6390    -1.8040 H     1 <1>   0.0800 
 37 H        2.6740     0.9830     0.1360 H     1 <1>   0.1000 
 38 H        2.9920     1.6660     1.7610 H     1 <1>   0.1000 
 39 H        1.8200    -0.3300     2.8020 H     1 <1>   0.1000 
 40 H        1.4940    -0.9860     1.1690 H     1 <1>   0.1000 
 41 H        0.2410     7.1020    -0.3730 H     1 <1>   0.4570 
 42 H        2.9290     4.1000    -1.2170 H     1 <1>   0.1500 
 43 H        0.8740     9.4160     0.0070 H     1 <1>   0.1500 
 44 H        5.2410     4.4550    -1.2990 H     1 <1>   0.0800 
 45 H        5.8030     5.6720    -0.1870 H     1 <1>   0.0800 
 46 H        5.6790     6.0300    -1.8970 H     1 <1>   0.0800 
 47 H        5.5740     8.0840    -0.5560 H     1 <1>   0.1500 
 48 H        2.6700    11.0750     0.2290 H     1 <1>   0.1500 
 49 H        5.0020    10.3990    -0.0530 H     1 <1>   0.1500 
@<TRIPOS>BOND
  1   1   2  ar  
  2   2   3  ar  
  3   2   4  1   
  4   4   5  1   
  5   4   6  1   
  6   4   7  1   
  7   5   8  1   
  8   5   9  1   
  9   5  26  1   
 10   6  10  1   
 11   6  27  1   
 12   6  28  1   
 13   7  11  1   
 14   7  29  1   
 15   7  30  1   
 16   8  31  1   
 17   9  12  1   
 18   9  32  1   
 19   9  33  1   
 20  10  12  1   
 21  10  13  1   
 22  11  14  1   
 23  11  15  1   
 24  11  34  1   
 25  12  35  1   
 26  12  36  1   
 27  13  16  ar  
 28  13  17  ar  
 29  14  15  1   
 30  14  37  1   
 31  14  38  1   
 32  15  39  1   
 33  15  40  1   
 34  16  18  ar  
 35  16  41  1   
 36  17  19  ar  
 37  17  42  1   
 38  18  20  ar  
 39  18  21  ar  
 40  19  20  ar  
 41  19  22  1   
 42  20  23  ar  
 43  21  24  ar  
 44  21  43  1   
 45  22  44  1   
 46  22  45  1   
 47  22  46  1   
 48  23  25  ar  
 49  23  47  1   
 50  24  25  ar  
 51  24  48  1   
 52  25  49  1   
@<TRIPOS>SUBSTRUCTURE
  1 ****  10 GROUP 4 **** **** 0

# MOE 2024.06 (io_trps.svl 2023.06)
