@<TRIPOS>MOLECULE
NONAME
56 60 1 0 0 
SMALL
USER_CHARGES


@<TRIPOS>ATOM
  1 O       -0.3680    -0.3950     1.5770 O.3   1 <1>  -0.3630 
  2 C        0.7010    -0.3960     0.7280 C.ar  1 <1>   0.0830 
  3 C       -0.8380    -1.6110     2.1220 C.3   1 <1>   0.2580 
  4 C        1.5080     0.7380     0.6360 C.ar  1 <1>   0.0830 
  5 C        0.9620    -1.5240    -0.0520 C.ar  1 <1>   0.0280 
  6 C       -0.8170    -2.7110     1.0610 C.2   1 <1>  -0.2760 
  7 O        1.1950     1.8090     1.4200 O.3   1 <1>  -0.3620 
  8 C        2.5900     0.7320    -0.2390 C.ar  1 <1>  -0.1500 
  9 C        0.0760    -2.6510     0.0620 C.2   1 <1>  -0.1780 
 10 C        2.0490    -1.5050    -0.9190 C.ar  1 <1>  -0.1500 
 11 C       -1.8310    -3.8130     1.2380 C.3   1 <1>   0.4810 
 12 C        1.9640     2.9910     1.3970 C.3   1 <1>   0.0400 
 13 C        2.8570    -0.3870    -1.0100 C.ar  1 <1>  -0.1500 
 14 N       -2.8860    -3.5580     0.2320 N.4   1 <1>  -0.9590 
 15 C       -3.7290    -2.3620     0.5830 C.3   1 <1>   0.3430 
 16 C       -3.7260    -4.7610    -0.0220 C.3   1 <1>   0.3430 
 17 C       -4.7190    -2.0070    -0.5370 C.3   1 <1>   0.1430 
 18 C       -4.6840    -4.4820    -1.1840 C.3   1 <1>  -0.1600 
 19 C       -5.6180    -0.9020    -0.0380 C.ar  1 <1>   0.1670 
 20 C       -5.5600    -3.2420    -0.9270 C.3   1 <1>  -0.1600 
 21 C       -4.0270    -1.3530    -1.7640 C.3   1 <1>  -0.1600 
 22 N       -6.2290    -0.9100     1.1240 N.ar  1 <1>  -0.6200 
 23 C       -5.7130     0.1200    -0.9320 C.ar  1 <1>  -0.1430 
 24 C       -4.8910    -0.1420    -2.1690 C.3   1 <1>  -0.0170 
 25 C       -6.9700     0.1690     1.3510 C.ar  1 <1>   0.4770 
 26 C       -6.5020     1.1900    -0.5910 C.ar  1 <1>   0.1600 
 27 N       -7.1400     1.2200     0.5610 N.ar  1 <1>  -0.6200 
 28 C       -7.7020     0.2110     2.6700 C.3   1 <1>  -0.0970 
 29 H       -1.8300    -1.4230     2.4920 H     1 <1>   0.0800 
 30 H       -0.1990    -1.8680     2.9500 H     1 <1>   0.0800 
 31 H        3.2360     1.5840    -0.3360 H     1 <1>   0.1500 
 32 H        0.1770    -3.4070    -0.6980 H     1 <1>   0.1500 
 33 H        2.2680    -2.3670    -1.5240 H     1 <1>   0.1500 
 34 H       -2.2350    -3.8240     2.2380 H     1 <1>   0.0800 
 35 H       -1.3590    -4.7610     1.0410 H     1 <1>   0.0800 
 36 H        1.5290     3.6850     2.0930 H     1 <1>   0.0800 
 37 H        1.9400     3.4050     0.4050 H     1 <1>   0.0800 
 38 H        2.9710     2.7580     1.6960 H     1 <1>   0.0800 
 39 H        3.6970    -0.3830    -1.6830 H     1 <1>   0.1500 
 40 H       -2.3850    -3.3210    -0.6330 H     1 <1>   0.4500 
 41 H       -3.1040    -1.5040     0.7680 H     1 <1>   0.0800 
 42 H       -4.2900    -2.5650     1.4820 H     1 <1>   0.0800 
 43 H       -4.2960    -5.0030     0.8620 H     1 <1>   0.0800 
 44 H       -3.1020    -5.6070    -0.2660 H     1 <1>   0.0800 
 45 H       -5.3220    -5.3380    -1.3210 H     1 <1>   0.0800 
 46 H       -4.1190    -4.3610    -2.0910 H     1 <1>   0.0800 
 47 H       -6.1580    -3.0230    -1.7960 H     1 <1>   0.0800 
 48 H       -6.2420    -3.4640    -0.1230 H     1 <1>   0.0800 
 49 H       -3.9040    -2.0300    -2.5900 H     1 <1>   0.0800 
 50 H       -3.0560    -0.9830    -1.4790 H     1 <1>   0.0800 
 51 H       -5.5430    -0.3920    -2.9880 H     1 <1>   0.0800 
 52 H       -4.2860     0.7090    -2.4320 H     1 <1>   0.0800 
 53 H       -6.6140     2.0270    -1.2590 H     1 <1>   0.1500 
 54 H       -7.8770    -0.7840     3.0340 H     1 <1>   0.0800 
 55 H       -8.6480     0.7060     2.5470 H     1 <1>   0.0800 
 56 H       -7.1140     0.7530     3.3860 H     1 <1>   0.0800 
@<TRIPOS>BOND
  1   1   2  1   
  2   1   3  1   
  3   2   4  ar  
  4   2   5  ar  
  5   3   6  1   
  6   3  29  1   
  7   3  30  1   
  8   4   7  1   
  9   4   8  ar  
 10   5   9  1   
 11   5  10  ar  
 12   6   9  2   
 13   6  11  1   
 14   7  12  1   
 15   8  13  ar  
 16   8  31  1   
 17   9  32  1   
 18  10  13  ar  
 19  10  33  1   
 20  11  14  1   
 21  11  34  1   
 22  11  35  1   
 23  12  36  1   
 24  12  37  1   
 25  12  38  1   
 26  13  39  1   
 27  14  15  1   
 28  14  16  1   
 29  14  40  1   
 30  15  17  1   
 31  15  41  1   
 32  15  42  1   
 33  16  18  1   
 34  16  43  1   
 35  16  44  1   
 36  17  19  1   
 37  17  20  1   
 38  17  21  1   
 39  18  20  1   
 40  18  45  1   
 41  18  46  1   
 42  19  22  ar  
 43  19  23  ar  
 44  20  47  1   
 45  20  48  1   
 46  21  24  1   
 47  21  49  1   
 48  21  50  1   
 49  22  25  ar  
 50  23  24  1   
 51  23  26  ar  
 52  24  51  1   
 53  24  52  1   
 54  25  27  ar  
 55  25  28  1   
 56  26  27  ar  
 57  26  53  1   
 58  28  54  1   
 59  28  55  1   
 60  28  56  1   
@<TRIPOS>SUBSTRUCTURE
  1 ****  15 GROUP 4 **** **** 0

# MOE 2024.06 (io_trps.svl 2023.06)
