@<TRIPOS>MOLECULE
NONAME
41 42 1 0 0 
SMALL
USER_CHARGES


@<TRIPOS>ATOM
  1 S        0.2780     0.0640    -0.4090 S.o2  1 <1>   1.3330 
  2 O       -0.4780    -0.0160    -1.6390 O.2   1 <1>  -0.6500 
  3 O        1.7230     0.1010    -0.4680 O.2   1 <1>  -0.6500 
  4 N       -0.1680    -1.2450     0.5750 N.am  1 <1>  -0.8490 
  5 C       -0.3180     1.4860     0.5010 C.3   1 <1>  -0.0550 
  6 C       -0.3310    -2.4820    -0.1930 C.3   1 <1>   0.1160 
  7 C        0.7500    -1.4700     1.6960 C.3   1 <1>   0.1160 
  8 C       -0.1230     2.8120    -0.2590 C.3   1 <1>  -0.0800 
  9 C       -0.7530     4.0290     0.4150 C.3   1 <1>   0.2000 
 10 C        1.3500     3.2080    -0.4670 C.3   1 <1>   0.1100 
 11 O       -0.4950     3.9770     1.7720 O.3   1 <1>  -0.6800 
 12 C        0.0760     5.1690    -0.1580 C.3   1 <1>   0.1100 
 13 N        1.4500     4.6420    -0.1500 N.3   1 <1>  -0.8100 
 14 C        2.3650     5.3630    -1.0530 C.3   1 <1>   0.2900 
 15 C        2.4560     6.8370    -0.6960 C.2   1 <1>  -0.0400 
 16 O        1.5790     7.6810    -1.1740 O.3   1 <1>  -0.0190 
 17 C        3.3200     7.5270     0.0630 C.2   1 <1>  -0.1500 
 18 N        1.8090     8.8980    -0.7730 N.2   1 <1>  -0.4100 
 19 C        2.8510     8.8350    -0.0250 C.2   1 <1>   0.1080 
 20 C        3.4760    10.0270     0.6650 C.3   1 <1>  -0.0590 
 21 H       -1.3640     1.3560     0.6960 H     1 <1>   0.0800 
 22 H        0.1840     1.5400     1.4470 H     1 <1>   0.0800 
 23 H       -0.6320    -3.2870     0.4550 H     1 <1>   0.0800 
 24 H        0.5930    -2.7450    -0.6800 H     1 <1>   0.0800 
 25 H       -1.0930    -2.3530    -0.9430 H     1 <1>   0.0800 
 26 H        0.3740    -2.2550     2.3290 H     1 <1>   0.0800 
 27 H        0.8430    -0.5750     2.2870 H     1 <1>   0.0800 
 28 H        1.7270    -1.7480     1.3340 H     1 <1>   0.0800 
 29 H       -0.5720     2.7130    -1.2330 H     1 <1>   0.0800 
 30 H       -1.8130     4.1270     0.2550 H     1 <1>   0.0800 
 31 H        1.6430     3.0050    -1.4840 H     1 <1>   0.0800 
 32 H        2.0000     2.6610     0.1960 H     1 <1>   0.0800 
 33 H        0.4560     4.2030     1.8730 H     1 <1>   0.4000 
 34 H       -0.0120     6.0660     0.4330 H     1 <1>   0.0800 
 35 H       -0.2390     5.3740    -1.1680 H     1 <1>   0.0800 
 36 H        3.3450     4.9280    -0.9650 H     1 <1>   0.0800 
 37 H        2.0400     5.2630    -2.0740 H     1 <1>   0.0800 
 38 H        4.1720     7.1850     0.6190 H     1 <1>   0.1500 
 39 H        4.4920    10.1480     0.3370 H     1 <1>   0.0800 
 40 H        3.4600     9.8810     1.7290 H     1 <1>   0.0800 
 41 H        2.9240    10.9190     0.4280 H     1 <1>   0.0800 
@<TRIPOS>BOND
  1   1   2  2   
  2   1   3  2   
  3   1   4  am  
  4   1   5  1   
  5   4   6  1   
  6   4   7  1   
  7   5   8  1   
  8   5  21  1   
  9   5  22  1   
 10   6  23  1   
 11   6  24  1   
 12   6  25  1   
 13   7  26  1   
 14   7  27  1   
 15   7  28  1   
 16   8   9  1   
 17   8  10  1   
 18   8  29  1   
 19   9  11  1   
 20   9  12  1   
 21   9  30  1   
 22  10  13  1   
 23  10  31  1   
 24  10  32  1   
 25  11  33  1   
 26  12  13  1   
 27  12  34  1   
 28  12  35  1   
 29  13  14  1   
 30  14  15  1   
 31  14  36  1   
 32  14  37  1   
 33  15  16  1   
 34  15  17  2   
 35  16  18  1   
 36  17  19  1   
 37  17  38  1   
 38  18  19  2   
 39  19  20  1   
 40  20  39  1   
 41  20  40  1   
 42  20  41  1   
@<TRIPOS>SUBSTRUCTURE
  1 ****  10 GROUP 4 **** **** 0

# MOE 2024.06 (io_trps.svl 2023.06)
