@<TRIPOS>MOLECULE
NONAME
58 60 1 0 0 
SMALL
USER_CHARGES


@<TRIPOS>ATOM
  1 O        0.9340     0.2130    -1.1240 O.2   1 <1>  -0.5700 
  2 C        2.0420    -0.2000    -1.3660 C.2   1 <1>   0.5690 
  3 N        2.9370     0.5880    -2.0590 N.am  1 <1>  -0.6600 
  4 C        2.3620    -1.6100    -0.8490 C.3   1 <1>  -0.0190 
  5 C        4.3740     0.2790    -2.3750 C.3   1 <1>   0.1400 
  6 C        2.4890     1.9200    -2.5690 C.3   1 <1>   0.1400 
  7 C        1.6910    -2.6660    -1.7480 C.3   1 <1>  -0.1600 
  8 C        1.8970    -1.7880     0.6130 C.3   1 <1>  -0.1600 
  9 C        5.3470     1.2690    -1.6970 C.3   1 <1>   0.3430 
 10 C        2.6150     2.9810    -1.4660 C.3   1 <1>  -0.1600 
 11 C        1.8430    -4.0830    -1.1970 C.3   1 <1>   0.3430 
 12 C        2.0600    -3.2240     1.1010 C.3   1 <1>   0.3430 
 13 N        4.6870     1.9710    -0.5480 N.4   1 <1>  -0.9590 
 14 C        4.0360     3.2420    -0.9560 C.3   1 <1>   0.3430 
 15 N        1.3090    -4.1380     0.1930 N.4   1 <1>  -0.9590 
 16 C        5.5600     2.0720     0.6540 C.3   1 <1>   0.5230 
 17 C        1.3040    -5.5550     0.6860 C.3   1 <1>   0.3430 
 18 C        5.8180     0.6770     1.2280 C.2   1 <1>   0.0060 
 19 C        0.4880    -5.7390     1.9710 C.3   1 <1>   0.1200 
 20 N        5.2100    -0.4110     0.8490 N.2   1 <1>  -0.5650 
 21 N        6.7320     0.4650     2.2060 N.pl3 1 <1>   0.0330 
 22 O        0.5090    -7.0920     2.2760 O.3   1 <1>  -0.5600 
 23 C        5.7690    -1.3740     1.6090 C.2   1 <1>   0.0770 
 24 C        6.6940    -0.8560     2.4410 C.2   1 <1>  -0.3020 
 25 C       -0.2140    -7.4400     3.4160 C.3   1 <1>   0.0400 
 26 H        3.4190    -1.7830    -0.8570 H     1 <1>   0.0800 
 27 H        4.5210     0.3160    -3.4410 H     1 <1>   0.0800 
 28 H        4.6390    -0.7140    -2.0680 H     1 <1>   0.0800 
 29 H        1.4580     1.8560    -2.8800 H     1 <1>   0.0800 
 30 H        3.0640     2.2030    -3.4340 H     1 <1>   0.0800 
 31 H        2.1250    -2.6240    -2.7320 H     1 <1>   0.0800 
 32 H        0.6430    -2.4410    -1.8540 H     1 <1>   0.0800 
 33 H        0.8630    -1.5070     0.7170 H     1 <1>   0.0800 
 34 H        2.4670    -1.1350     1.2500 H     1 <1>   0.0800 
 35 H        5.6920     1.9880    -2.4210 H     1 <1>   0.0800 
 36 H        6.2040     0.7130    -1.3540 H     1 <1>   0.0800 
 37 H        1.9820     2.7070    -0.6410 H     1 <1>   0.0800 
 38 H        2.2260     3.9070    -1.8500 H     1 <1>   0.0800 
 39 H        2.8830    -4.3660    -1.2000 H     1 <1>   0.0800 
 40 H        1.3020    -4.7710    -1.8280 H     1 <1>   0.0800 
 41 H        1.6810    -3.3010     2.1070 H     1 <1>   0.0800 
 42 H        3.1050    -3.4900     1.1090 H     1 <1>   0.0800 
 43 H        3.9300     1.3220    -0.2730 H     1 <1>   0.4500 
 44 H        3.9750     3.9110    -0.1130 H     1 <1>   0.0800 
 45 H        4.6200     3.7240    -1.7240 H     1 <1>   0.0800 
 46 H        0.3340    -3.8060     0.1510 H     1 <1>   0.4500 
 47 H        5.0720     2.6690     1.4070 H     1 <1>   0.0800 
 48 H        6.4930     2.5420     0.3930 H     1 <1>   0.0800 
 49 H        2.3150    -5.8810     0.8670 H     1 <1>   0.0800 
 50 H        0.8750    -6.1930    -0.0680 H     1 <1>   0.0800 
 51 H       -0.5360    -5.4420     1.8200 H     1 <1>   0.0800 
 52 H        0.9250    -5.2020     2.7950 H     1 <1>   0.0800 
 53 H        7.3400     1.1420     2.6830 H     1 <1>   0.2700 
 54 H        5.4830    -2.4090     1.5240 H     1 <1>   0.1500 
 55 H        7.3160    -1.3480     3.1710 H     1 <1>   0.1500 
 56 H       -0.1270    -8.5040     3.5570 H     1 <1>   0.0800 
 57 H       -1.2500    -7.1810     3.2780 H     1 <1>   0.0800 
 58 H        0.1950    -6.9310     4.2710 H     1 <1>   0.0800 
@<TRIPOS>BOND
  1   1   2  2   
  2   2   3  am  
  3   2   4  1   
  4   3   5  1   
  5   3   6  1   
  6   4   7  1   
  7   4   8  1   
  8   4  26  1   
  9   5   9  1   
 10   5  27  1   
 11   5  28  1   
 12   6  10  1   
 13   6  29  1   
 14   6  30  1   
 15   7  11  1   
 16   7  31  1   
 17   7  32  1   
 18   8  12  1   
 19   8  33  1   
 20   8  34  1   
 21   9  13  1   
 22   9  35  1   
 23   9  36  1   
 24  10  14  1   
 25  10  37  1   
 26  10  38  1   
 27  11  15  1   
 28  11  39  1   
 29  11  40  1   
 30  12  15  1   
 31  12  41  1   
 32  12  42  1   
 33  13  14  1   
 34  13  16  1   
 35  13  43  1   
 36  14  44  1   
 37  14  45  1   
 38  15  17  1   
 39  15  46  1   
 40  16  18  1   
 41  16  47  1   
 42  16  48  1   
 43  17  19  1   
 44  17  49  1   
 45  17  50  1   
 46  18  20  2   
 47  18  21  1   
 48  19  22  1   
 49  19  51  1   
 50  19  52  1   
 51  20  23  1   
 52  21  24  1   
 53  21  53  1   
 54  22  25  1   
 55  23  24  2   
 56  23  54  1   
 57  24  55  1   
 58  25  56  1   
 59  25  57  1   
 60  25  58  1   
@<TRIPOS>SUBSTRUCTURE
  1 ****   4 GROUP 4 **** **** 0

# MOE 2024.06 (io_trps.svl 2023.06)
