@<TRIPOS>MOLECULE
NONAME
45 46 1 0 0 
SMALL
USER_CHARGES


@<TRIPOS>ATOM
  1 S       -0.2200    -0.1570    -1.9630 S.o2  1 <1>   1.5000 
  2 O       -1.2470     0.7310    -2.4680 O.2   1 <1>  -0.6500 
  3 O        0.4490    -1.0660    -2.8690 O.2   1 <1>  -0.6500 
  4 N       -0.9140    -1.0640    -0.7110 N.am  1 <1>  -0.8490 
  5 C        1.0470     0.7800    -1.0720 C.2   1 <1>  -0.0220 
  6 C       -1.6520    -2.2410    -1.2140 C.3   1 <1>   0.1960 
  7 C       -1.7670    -0.2500     0.1540 C.3   1 <1>   0.1960 
  8 S        1.0750     2.5330    -1.2440 S.3   1 <1>  -0.0800 
  9 C        2.0440     0.4000    -0.2470 C.2   1 <1>  -0.1500 
 10 C       -2.1150    -3.1860    -0.0810 C.3   1 <1>  -0.1060 
 11 C       -2.1710    -1.0470     1.3910 C.3   1 <1>  -0.1600 
 12 C        2.4570     2.6870    -0.1730 C.2   1 <1>  -0.1400 
 13 C        2.8420     1.4730     0.2630 C.2   1 <1>  -0.1500 
 14 C       -3.1660    -4.1400    -0.6600 C.2   1 <1>   0.9060 
 15 C       -2.8660    -2.3430     0.9750 C.3   1 <1>   0.2000 
 16 C       -0.9380    -4.0810     0.4370 C.3   1 <1>  -0.1600 
 17 C        2.9680     4.0970     0.0720 C.3   1 <1>   0.0200 
 18 O       -3.3250    -4.2230    -1.8830 O.co2 1 <1>  -0.9000 
 19 O       -3.8530    -4.8080     0.1280 O.co2 1 <1>  -0.9000 
 20 O       -3.1220    -3.1000     2.0990 O.3   1 <1>  -0.6800 
 21 C        0.2140    -3.4230     1.2130 C.3   1 <1>  -0.1600 
 22 C        4.1690     4.1200     1.0210 C.3   1 <1>  -0.2400 
 23 C        1.3390    -4.4290     1.4780 C.3   1 <1>  -0.2400 
 24 H       -2.5090    -1.8980    -1.7730 H     1 <1>   0.0800 
 25 H       -1.0360    -2.8040    -1.8950 H     1 <1>   0.0800 
 26 H       -1.2360     0.6330     0.4690 H     1 <1>   0.0800 
 27 H       -2.6470     0.0600    -0.3870 H     1 <1>   0.0800 
 28 H        2.2500    -0.6210     0.0280 H     1 <1>   0.1500 
 29 H       -2.8510    -0.4610     1.9810 H     1 <1>   0.0800 
 30 H       -1.3020    -1.2430     1.9840 H     1 <1>   0.0800 
 31 H        3.6630     1.2760     0.9300 H     1 <1>   0.1500 
 32 H       -3.8260    -2.0780     0.5630 H     1 <1>   0.0800 
 33 H       -1.3550    -4.8480     1.0690 H     1 <1>   0.0800 
 34 H       -0.5250    -4.5900    -0.4170 H     1 <1>   0.0800 
 35 H        3.2500     4.5340    -0.8710 H     1 <1>   0.0800 
 36 H        2.1730     4.6890     0.4890 H     1 <1>   0.0800 
 37 H       -3.5070    -3.9500     1.7470 H     1 <1>   0.4000 
 38 H        0.6160    -2.5950     0.6610 H     1 <1>   0.0800 
 39 H       -0.1520    -3.0690     2.1590 H     1 <1>   0.0800 
 40 H        4.9810     3.5490     0.6070 H     1 <1>   0.0800 
 41 H        3.8980     3.7050     1.9750 H     1 <1>   0.0800 
 42 H        4.5010     5.1320     1.1680 H     1 <1>   0.0800 
 43 H        1.7430    -4.7900     0.5490 H     1 <1>   0.0800 
 44 H        0.9640    -5.2650     2.0420 H     1 <1>   0.0800 
 45 H        2.1270    -3.9600     2.0390 H     1 <1>   0.0800 
@<TRIPOS>BOND
  1   1   2  2   
  2   1   3  2   
  3   1   4  am  
  4   1   5  1   
  5   4   6  1   
  6   4   7  1   
  7   5   8  1   
  8   5   9  2   
  9   6  10  1   
 10   6  24  1   
 11   6  25  1   
 12   7  11  1   
 13   7  26  1   
 14   7  27  1   
 15   8  12  1   
 16   9  13  1   
 17   9  28  1   
 18  10  14  1   
 19  10  15  1   
 20  10  16  1   
 21  11  15  1   
 22  11  29  1   
 23  11  30  1   
 24  12  13  2   
 25  12  17  1   
 26  13  31  1   
 27  14  18  ar  
 28  14  19  ar  
 29  15  20  1   
 30  15  32  1   
 31  16  21  1   
 32  16  33  1   
 33  16  34  1   
 34  17  22  1   
 35  17  35  1   
 36  17  36  1   
 37  20  37  1   
 38  21  23  1   
 39  21  38  1   
 40  21  39  1   
 41  22  40  1   
 42  22  41  1   
 43  22  42  1   
 44  23  43  1   
 45  23  44  1   
 46  23  45  1   
@<TRIPOS>SUBSTRUCTURE
  1 ****   4 GROUP 4 **** **** 0

# MOE 2024.06 (io_trps.svl 2023.06)
