@<TRIPOS>MOLECULE
NONAME
58 60 1 0 0 
SMALL
USER_CHARGES


@<TRIPOS>ATOM
  1 O       -0.1040     2.0290    -1.7190 O.2   1 <1>  -0.5700 
  2 C        0.9230     2.4800    -1.2750 C.2   1 <1>   0.5690 
  3 N        1.8340     1.8500    -0.4890 N.am  1 <1>  -0.6600 
  4 C        1.3220     3.9010    -1.5480 C.3   1 <1>  -0.0990 
  5 C        1.6890     0.4910     0.1100 C.3   1 <1>   0.3000 
  6 C        2.9500     2.7600    -0.1380 C.3   1 <1>   0.1400 
  7 C        2.7890     3.9600    -1.0820 C.3   1 <1>  -0.0190 
  8 C        0.4520     0.4770     1.0130 C.3   1 <1>  -0.2400 
  9 C        2.9130     0.1170     0.9580 C.3   1 <1>  -0.2400 
 10 C        1.5510    -0.5430    -1.0110 C.3   1 <1>  -0.2400 
 11 C        3.2200     5.2680    -0.4310 C.2   1 <1>   0.5690 
 12 O        4.0890     5.2390     0.4060 O.2   1 <1>  -0.5700 
 13 N        2.6130     6.4290    -0.8170 N.am  1 <1>  -0.4940 
 14 C        2.5950     7.6500    -0.1150 C.2   1 <1>  -0.0880 
 15 N        3.5740     8.6030    -0.0010 N.pl3 1 <1>   0.3140 
 16 C        1.5130     8.0880     0.5880 C.2   1 <1>  -0.0540 
 17 N        3.1190     9.6380     0.7660 N.2   1 <1>  -0.7070 
 18 C        4.9820     8.6610    -0.5780 C.3   1 <1>   0.2560 
 19 C        0.2460     7.4320     0.7770 C.ar  1 <1>   0.0540 
 20 C        1.9130     9.3180     1.1010 C.2   1 <1>   0.1390 
 21 C        5.1460     7.8170    -1.8570 C.3   1 <1>  -0.2400 
 22 C        5.3420    10.1140    -0.9540 C.3   1 <1>  -0.2400 
 23 C        5.9810     8.1750     0.4830 C.3   1 <1>  -0.2400 
 24 C       -0.9450     8.0340     0.3810 C.ar  1 <1>  -0.1500 
 25 C        0.1810     6.1640     1.3480 C.ar  1 <1>  -0.1500 
 26 C       -2.1570     7.3850     0.5330 C.ar  1 <1>  -0.1500 
 27 C       -1.0260     5.5080     1.4990 C.ar  1 <1>  -0.1500 
 28 C       -2.1990     6.1180     1.0900 C.ar  1 <1>  -0.1500 
 29 H        0.6810     4.5340    -0.9630 H     1 <1>   0.0800 
 30 H        1.2190     4.1290    -2.5930 H     1 <1>   0.0800 
 31 H        3.9070     2.2910    -0.2890 H     1 <1>   0.0800 
 32 H        2.8490     3.0600     0.8930 H     1 <1>   0.0800 
 33 H        3.4270     3.7900    -1.9300 H     1 <1>   0.0800 
 34 H        0.5370     1.2310     1.7740 H     1 <1>   0.0800 
 35 H        0.3500    -0.4800     1.4910 H     1 <1>   0.0800 
 36 H       -0.4400     0.6540     0.4410 H     1 <1>   0.0800 
 37 H        3.0420     0.8040     1.7750 H     1 <1>   0.0800 
 38 H        3.8030     0.0960     0.3560 H     1 <1>   0.0800 
 39 H        2.7820    -0.8640     1.3780 H     1 <1>   0.0800 
 40 H        0.6520    -0.3800    -1.5770 H     1 <1>   0.0800 
 41 H        1.5020    -1.5350    -0.6010 H     1 <1>   0.0800 
 42 H        2.3950    -0.4880    -1.6740 H     1 <1>   0.0800 
 43 H        1.8390     6.3160    -1.4720 H     1 <1>   0.3700 
 44 H        1.2850     9.9380     1.7190 H     1 <1>   0.1500 
 45 H        4.3740     8.0570    -2.5670 H     1 <1>   0.0800 
 46 H        5.1210     6.7690    -1.6320 H     1 <1>   0.0800 
 47 H        6.0980     8.0150    -2.3150 H     1 <1>   0.0800 
 48 H        4.6340    10.5010    -1.6650 H     1 <1>   0.0800 
 49 H        6.3250    10.1660    -1.3870 H     1 <1>   0.0800 
 50 H        5.3360    10.7450    -0.0820 H     1 <1>   0.0800 
 51 H        5.7770     7.1560     0.7560 H     1 <1>   0.0800 
 52 H        5.9090     8.7860     1.3660 H     1 <1>   0.0800 
 53 H        6.9880     8.2310     0.1110 H     1 <1>   0.0800 
 54 H       -0.9160     9.0160    -0.0560 H     1 <1>   0.1500 
 55 H        1.0920     5.6940     1.6760 H     1 <1>   0.1500 
 56 H       -3.0690     7.8620     0.2180 H     1 <1>   0.1500 
 57 H       -1.0560     4.5240     1.9370 H     1 <1>   0.1500 
 58 H       -3.1400     5.6090     1.2060 H     1 <1>   0.1500 
@<TRIPOS>BOND
  1   1   2  2   
  2   2   3  am  
  3   2   4  1   
  4   3   5  1   
  5   3   6  1   
  6   4   7  1   
  7   4  29  1   
  8   4  30  1   
  9   5   8  1   
 10   5   9  1   
 11   5  10  1   
 12   6   7  1   
 13   6  31  1   
 14   6  32  1   
 15   7  11  1   
 16   7  33  1   
 17   8  34  1   
 18   8  35  1   
 19   8  36  1   
 20   9  37  1   
 21   9  38  1   
 22   9  39  1   
 23  10  40  1   
 24  10  41  1   
 25  10  42  1   
 26  11  12  2   
 27  11  13  am  
 28  13  14  1   
 29  13  43  1   
 30  14  15  1   
 31  14  16  2   
 32  15  17  1   
 33  15  18  1   
 34  16  19  1   
 35  16  20  1   
 36  17  20  2   
 37  18  21  1   
 38  18  22  1   
 39  18  23  1   
 40  19  24  ar  
 41  19  25  ar  
 42  20  44  1   
 43  21  45  1   
 44  21  46  1   
 45  21  47  1   
 46  22  48  1   
 47  22  49  1   
 48  22  50  1   
 49  23  51  1   
 50  23  52  1   
 51  23  53  1   
 52  24  26  ar  
 53  24  54  1   
 54  25  27  ar  
 55  25  55  1   
 56  26  28  ar  
 57  26  56  1   
 58  27  28  ar  
 59  27  57  1   
 60  28  58  1   
@<TRIPOS>SUBSTRUCTURE
  1 ****  11 GROUP 4 **** **** 0

# MOE 2024.06 (io_trps.svl 2023.06)
