@<TRIPOS>MOLECULE
NONAME
51 53 1 0 0 
SMALL
USER_CHARGES


@<TRIPOS>ATOM
  1 O        1.1370    -0.1950     1.9020 O.2   1 <1>  -0.5700 
  2 C        1.7470    -0.6110     0.9370 C.2   1 <1>   0.5440 
  3 N        2.4100     0.2800     0.1120 N.am  1 <1>  -0.6600 
  4 C        1.7770    -2.0350     0.6860 C.ar  1 <1>   0.0860 
  5 C        3.2710    -0.1720    -1.0260 C.3   1 <1>   0.1400 
  6 C        2.3450     1.7540     0.3470 C.3   1 <1>   0.1400 
  7 C        0.9680    -2.6440    -0.2790 C.ar  1 <1>   0.1660 
  8 C        2.6450    -2.8480     1.4000 C.ar  1 <1>  -0.1500 
  9 C        4.7000    -0.4810    -0.5560 C.3   1 <1>   0.1400 
 10 C        3.7220     2.4330     0.3800 C.3   1 <1>  -0.1600 
 11 N        1.0100    -3.9290    -0.5910 N.ar  1 <1>  -0.6200 
 12 C       -0.0490    -1.8370    -1.0690 C.3   1 <1>  -0.0970 
 13 C        2.6790    -4.1900     1.0930 C.ar  1 <1>  -0.1500 
 14 N        5.4550     0.7570    -0.1770 N.am  1 <1>  -0.6600 
 15 C        4.8550     1.5580     0.9310 C.3   1 <1>   0.1400 
 16 C        1.8550    -4.6780     0.0940 C.ar  1 <1>   0.1670 
 17 C        6.6240     1.1350    -0.8360 C.2   1 <1>   0.6300 
 18 C        1.8800    -6.1470    -0.2700 C.3   1 <1>  -0.0970 
 19 O        7.0760     0.3530    -1.6600 O.2   1 <1>  -0.5700 
 20 C        7.3180     2.4120    -0.5870 C.2   1 <1>   0.6550 
 21 O        6.6880     3.4580    -0.5480 O.2   1 <1>  -0.5700 
 22 C        8.7480     2.4370    -0.3610 C.2   1 <1>  -0.2370 
 23 N        9.5210     3.5710    -0.2260 N.pl3 1 <1>   0.0480 
 24 C        9.5930     1.3590    -0.2310 C.2   1 <1>  -0.1500 
 25 C       10.8020     3.1870    -0.0140 C.2   1 <1>  -0.3020 
 26 C        9.0970     4.9840    -0.3070 C.3   1 <1>   0.0160 
 27 C       10.8800     1.8320    -0.0120 C.2   1 <1>  -0.1500 
 28 H        3.2980     0.5830    -1.7930 H     1 <1>   0.0800 
 29 H        2.8540    -1.0590    -1.4680 H     1 <1>   0.0800 
 30 H        1.8560     1.9480     1.2860 H     1 <1>   0.0800 
 31 H        1.7410     2.2050    -0.4220 H     1 <1>   0.0800 
 32 H        3.2680    -2.4330     2.1720 H     1 <1>   0.1500 
 33 H        5.2040    -0.9970    -1.3540 H     1 <1>   0.0800 
 34 H        4.6700    -1.1510     0.2840 H     1 <1>   0.0800 
 35 H        3.6340     3.3050     1.0030 H     1 <1>   0.0800 
 36 H        3.9800     2.7860    -0.6020 H     1 <1>   0.0800 
 37 H       -0.4090    -0.9950    -0.5070 H     1 <1>   0.0800 
 38 H       -0.8940    -2.4560    -1.3130 H     1 <1>   0.0800 
 39 H        0.3940    -1.4890    -1.9840 H     1 <1>   0.0800 
 40 H        3.3400    -4.8500     1.6250 H     1 <1>   0.1500 
 41 H        4.4850     0.9050     1.7040 H     1 <1>   0.0800 
 42 H        5.6050     2.1860     1.3770 H     1 <1>   0.0800 
 43 H        2.1390    -6.2560    -1.3070 H     1 <1>   0.0800 
 44 H        0.9050    -6.5710    -0.1120 H     1 <1>   0.0800 
 45 H        2.5950    -6.6840     0.3260 H     1 <1>   0.0800 
 46 H        9.3350     0.3140    -0.2890 H     1 <1>   0.1500 
 47 H       11.6040     3.8900     0.1230 H     1 <1>   0.1500 
 48 H        8.6170     5.1570    -1.2520 H     1 <1>   0.0800 
 49 H        9.9530     5.6270    -0.2180 H     1 <1>   0.0800 
 50 H        8.4080     5.1940     0.4900 H     1 <1>   0.0800 
 51 H       11.7570     1.2220     0.1280 H     1 <1>   0.1500 
@<TRIPOS>BOND
  1   1   2  2   
  2   2   3  am  
  3   2   4  1   
  4   3   5  1   
  5   3   6  1   
  6   4   7  ar  
  7   4   8  ar  
  8   5   9  1   
  9   5  28  1   
 10   5  29  1   
 11   6  10  1   
 12   6  30  1   
 13   6  31  1   
 14   7  11  ar  
 15   7  12  1   
 16   8  13  ar  
 17   8  32  1   
 18   9  14  1   
 19   9  33  1   
 20   9  34  1   
 21  10  15  1   
 22  10  35  1   
 23  10  36  1   
 24  11  16  ar  
 25  12  37  1   
 26  12  38  1   
 27  12  39  1   
 28  13  16  ar  
 29  13  40  1   
 30  14  15  1   
 31  14  17  am  
 32  15  41  1   
 33  15  42  1   
 34  16  18  1   
 35  17  19  2   
 36  17  20  1   
 37  18  43  1   
 38  18  44  1   
 39  18  45  1   
 40  20  21  2   
 41  20  22  1   
 42  22  23  1   
 43  22  24  2   
 44  23  25  1   
 45  23  26  1   
 46  24  27  1   
 47  24  46  1   
 48  25  27  2   
 49  25  47  1   
 50  26  48  1   
 51  26  49  1   
 52  26  50  1   
 53  27  51  1   
@<TRIPOS>SUBSTRUCTURE
  1 ****   9 GROUP 4 **** **** 0

# MOE 2024.06 (io_trps.svl 2023.06)
