@<TRIPOS>MOLECULE
NONAME
49 51 1 0 0 
SMALL
USER_CHARGES


@<TRIPOS>ATOM
  1 F       -3.9940    -1.2190    -2.0650 F     1 <1>  -0.3400 
  2 C       -3.0370    -1.0510    -1.1600 C.3   1 <1>   1.1640 
  3 F       -1.9000    -1.3880    -1.7530 F     1 <1>  -0.3400 
  4 F       -2.9690     0.2550    -0.9300 F     1 <1>  -0.3400 
  5 C       -3.2910    -1.8810     0.1090 C.ar  1 <1>  -0.1440 
  6 C       -3.6900    -3.2080    -0.0020 C.ar  1 <1>  -0.1500 
  7 C       -3.1260    -1.3420     1.3800 C.ar  1 <1>  -0.1500 
  8 C       -3.9460    -4.0080     1.1130 C.ar  1 <1>   0.0860 
  9 C       -3.3580    -2.1160     2.5030 C.ar  1 <1>  -0.1500 
 10 C       -4.3840    -5.3880     0.9770 C.2   1 <1>   0.5440 
 11 C       -3.7620    -3.4300     2.3680 C.ar  1 <1>  -0.1500 
 12 O       -4.0970    -6.2180     1.8210 O.2   1 <1>  -0.5700 
 13 N       -5.1620    -5.8090    -0.0800 N.am  1 <1>  -0.6600 
 14 C       -5.2390    -7.2610    -0.3860 C.3   1 <1>   0.1400 
 15 C       -6.3750    -5.0470    -0.4830 C.3   1 <1>   0.1400 
 16 C       -6.4280    -7.8700     0.3910 C.3   1 <1>   0.4230 
 17 C       -7.5800    -5.6300     0.2690 C.3   1 <1>  -0.1600 
 18 N       -6.4920    -9.3900     0.3320 N.4   1 <1>  -0.9590 
 19 C       -7.7730    -7.1600     0.0480 C.3   1 <1>   0.0000 
 20 C       -7.8250    -9.9620     0.7100 C.3   1 <1>   0.3430 
 21 C       -6.0110   -10.0090    -0.9460 C.3   1 <1>   0.2630 
 22 C       -8.8840    -7.6660     1.0160 C.3   1 <1>  -0.1600 
 23 C       -8.1700    -7.4470    -1.4290 C.3   1 <1>   0.1200 
 24 C       -8.5710    -9.0290     1.6630 C.3   1 <1>  -0.1600 
 25 O       -9.2310    -6.6580    -1.8380 O.3   1 <1>  -0.6800 
 26 H       -3.8040    -3.6450    -0.9810 H     1 <1>   0.1500 
 27 H       -2.8120    -0.3190     1.5100 H     1 <1>   0.1500 
 28 H       -3.2240    -1.6930     3.4850 H     1 <1>   0.1500 
 29 H       -3.9360    -4.0260     3.2480 H     1 <1>   0.1500 
 30 H       -5.3470    -7.3860    -1.4470 H     1 <1>   0.0800 
 31 H       -4.3220    -7.7360    -0.0800 H     1 <1>   0.0800 
 32 H       -6.2700    -4.0050    -0.2340 H     1 <1>   0.0800 
 33 H       -6.5170    -5.1200    -1.5490 H     1 <1>   0.0800 
 34 H       -6.2340    -7.6210     1.4220 H     1 <1>   0.0800 
 35 H       -7.4280    -5.4300     1.3160 H     1 <1>   0.0800 
 36 H       -8.4630    -5.0880    -0.0200 H     1 <1>   0.0800 
 37 H       -5.8370    -9.6900     1.0710 H     1 <1>   0.4500 
 38 H       -8.4270   -10.0980    -0.1730 H     1 <1>   0.0800 
 39 H       -7.6920   -10.9270     1.1730 H     1 <1>   0.0800 
 40 H       -6.6250    -9.6940    -1.7740 H     1 <1>   0.0800 
 41 H       -6.0530   -11.0850    -0.8790 H     1 <1>   0.0800 
 42 H       -4.9900    -9.7250    -1.1440 H     1 <1>   0.0800 
 43 H       -9.0410    -6.9620     1.8160 H     1 <1>   0.0800 
 44 H       -9.8230    -7.7360     0.4950 H     1 <1>   0.0800 
 45 H       -8.4600    -8.4730    -1.5670 H     1 <1>   0.0800 
 46 H       -7.3600    -7.2310    -2.1030 H     1 <1>   0.0800 
 47 H       -9.4930    -9.4950     1.9660 H     1 <1>   0.0800 
 48 H       -7.9820    -8.8900     2.5540 H     1 <1>   0.0800 
 49 H      -10.0420    -6.8270    -1.3190 H     1 <1>   0.4000 
@<TRIPOS>BOND
  1   1   2  1   
  2   2   3  1   
  3   2   4  1   
  4   2   5  1   
  5   5   6  ar  
  6   5   7  ar  
  7   6   8  ar  
  8   6  26  1   
  9   7   9  ar  
 10   7  27  1   
 11   8  10  1   
 12   8  11  ar  
 13   9  11  ar  
 14   9  28  1   
 15  10  12  2   
 16  10  13  am  
 17  11  29  1   
 18  13  14  1   
 19  13  15  1   
 20  14  16  1   
 21  14  30  1   
 22  14  31  1   
 23  15  17  1   
 24  15  32  1   
 25  15  33  1   
 26  16  18  1   
 27  16  19  1   
 28  16  34  1   
 29  17  19  1   
 30  17  35  1   
 31  17  36  1   
 32  18  20  1   
 33  18  21  1   
 34  18  37  1   
 35  19  22  1   
 36  19  23  1   
 37  20  24  1   
 38  20  38  1   
 39  20  39  1   
 40  21  40  1   
 41  21  41  1   
 42  21  42  1   
 43  22  24  1   
 44  22  43  1   
 45  22  44  1   
 46  23  25  1   
 47  23  45  1   
 48  23  46  1   
 49  24  47  1   
 50  24  48  1   
 51  25  49  1   
@<TRIPOS>SUBSTRUCTURE
  1 ****  13 GROUP 4 **** **** 0

# MOE 2024.06 (io_trps.svl 2023.06)
