@<TRIPOS>MOLECULE
NONAME
24 24 1 0 0 
SMALL
USER_CHARGES


@<TRIPOS>ATOM
  1 O        0.1850    -0.6980    -1.6530 O.co2 1 <1>  -0.9000 
  2 C       -0.0750    -1.1280    -0.5200 C.2   1 <1>   0.9060 
  3 O       -0.1190    -0.3780     0.4740 O.co2 1 <1>  -0.9000 
  4 C       -0.3640    -2.6410    -0.2690 C.3   1 <1>   0.3970 
  5 N       -0.6450    -2.8890     1.1650 N.4   1 <1>  -0.8530 
  6 C       -1.5310    -3.2120    -1.0740 C.3   1 <1>  -0.1600 
  7 C        0.7610    -3.5860    -0.6890 C.3   1 <1>  -0.1600 
  8 C       -1.4010    -4.7490    -0.9370 C.3   1 <1>  -0.1860 
  9 C        0.1260    -4.9980    -0.6810 C.3   1 <1>  -0.1860 
 10 C       -2.4170    -5.2950     0.0750 C.2   1 <1>   0.9060 
 11 C        0.5470    -5.7780     0.5720 C.2   1 <1>   0.9060 
 12 O       -2.6750    -4.6130     1.0830 O.co2 1 <1>  -0.9000 
 13 O       -3.0750    -6.2960    -0.2170 O.co2 1 <1>  -0.9000 
 14 O        0.9190    -6.9470     0.4530 O.co2 1 <1>  -0.9000 
 15 O        0.6680    -5.1580     1.6430 O.co2 1 <1>  -0.9000 
 16 H        0.0090    -3.6130     1.5300 H     1 <1>   0.4500 
 17 H       -1.5700    -3.3550     1.2650 H     1 <1>   0.4500 
 18 H       -0.5780    -1.9860     1.6470 H     1 <1>   0.4500 
 19 H       -2.4800    -2.8280    -0.7430 H     1 <1>   0.0800 
 20 H       -1.4030    -2.9350    -2.1060 H     1 <1>   0.0800 
 21 H        1.0610    -3.3370    -1.6930 H     1 <1>   0.0800 
 22 H        1.6260    -3.4980    -0.0540 H     1 <1>   0.0800 
 23 H       -1.6650    -5.1960    -1.8780 H     1 <1>   0.0800 
 24 H        0.5230    -5.5530    -1.5110 H     1 <1>   0.0800 
@<TRIPOS>BOND
  1   1   2  ar  
  2   2   3  ar  
  3   2   4  1   
  4   4   5  1   
  5   4   6  1   
  6   4   7  1   
  7   5  16  1   
  8   5  17  1   
  9   5  18  1   
 10   6   8  1   
 11   6  19  1   
 12   6  20  1   
 13   7   9  1   
 14   7  21  1   
 15   7  22  1   
 16   8   9  1   
 17   8  10  1   
 18   8  23  1   
 19   9  11  1   
 20   9  24  1   
 21  10  12  ar  
 22  10  13  ar  
 23  11  14  ar  
 24  11  15  ar  
@<TRIPOS>SUBSTRUCTURE
  1 ****   4 GROUP 4 **** **** 0

# MOE 2024.06 (io_trps.svl 2023.06)
