@<TRIPOS>MOLECULE
NONAME
56 59 1 0 0 
SMALL
USER_CHARGES


@<TRIPOS>ATOM
  1 S       -1.0230     0.5920    -0.9560 S.3   1 <1>  -0.0800 
  2 C       -0.3770    -0.6130     0.1240 C.2   1 <1>  -0.1400 
  3 C       -1.1970     1.6740     0.4050 C.2   1 <1>   0.2280 
  4 C       -0.3620    -0.1140     1.3710 C.2   1 <1>   0.0460 
  5 C        0.0620    -1.9210    -0.4890 C.3   1 <1>   0.5230 
  6 N       -0.8270     1.1790     1.5180 N.2   1 <1>  -0.5650 
  7 C        0.1110    -0.7970     2.6360 C.3   1 <1>  -0.0590 
  8 N       -0.9890    -2.9620    -0.3610 N.4   1 <1>  -0.9590 
  9 C       -2.3690    -2.5130    -0.7640 C.3   1 <1>   0.3430 
 10 C       -0.5920    -4.2520    -0.9660 C.3   1 <1>   0.3430 
 11 C       -3.3320    -3.6920    -1.0690 C.3   1 <1>   0.1900 
 12 C       -1.5110    -5.3690    -0.4580 C.3   1 <1>  -0.1600 
 13 N       -4.7660    -3.3430    -0.9080 N.3   1 <1>  -0.8100 
 14 C       -2.9810    -4.9320    -0.1940 C.3   1 <1>   0.0000 
 15 C       -5.6650    -4.4230    -1.3450 C.3   1 <1>   0.1100 
 16 C       -5.1920    -2.0350    -1.4610 C.3   1 <1>   0.2900 
 17 C       -3.9110    -6.0980    -0.6130 C.3   1 <1>  -0.1600 
 18 C       -3.2220    -4.6450     1.3240 C.3   1 <1>   0.1200 
 19 C       -5.3920    -5.7000    -0.5500 C.3   1 <1>  -0.1600 
 20 C       -5.4880    -1.0810    -0.3180 C.2   1 <1>  -0.0400 
 21 O       -2.1960    -3.9120     1.9270 O.3   1 <1>  -0.6800 
 22 O       -4.4990    -0.5150     0.3510 O.3   1 <1>  -0.2800 
 23 C       -6.6800    -0.6880     0.1800 C.2   1 <1>  -0.1500 
 24 C       -5.0360     0.2320     1.2960 C.2   1 <1>  -0.0400 
 25 C       -6.3830     0.1720     1.2420 C.2   1 <1>  -0.1500 
 26 C       -4.1380     0.9900     2.2470 C.3   1 <1>  -0.0600 
 27 H       -1.5970     2.6530     0.2070 H     1 <1>   0.1500 
 28 H        0.9560    -2.2560     0.0120 H     1 <1>   0.0800 
 29 H        0.2990    -1.7600    -1.5270 H     1 <1>   0.0800 
 30 H        0.4510    -1.7960     2.4380 H     1 <1>   0.0800 
 31 H       -0.6960    -0.8370     3.3450 H     1 <1>   0.0800 
 32 H        0.9180    -0.2330     3.0700 H     1 <1>   0.0800 
 33 H       -1.1210    -3.1670     0.6520 H     1 <1>   0.4500 
 34 H       -2.7850    -1.9420     0.0490 H     1 <1>   0.0800 
 35 H       -2.3120    -1.8770    -1.6290 H     1 <1>   0.0800 
 36 H       -0.6680    -4.1810    -2.0390 H     1 <1>   0.0800 
 37 H        0.4290    -4.4900    -0.7130 H     1 <1>   0.0800 
 38 H       -3.1810    -3.9570    -2.1010 H     1 <1>   0.0800 
 39 H       -1.4760    -6.1510    -1.1970 H     1 <1>   0.0800 
 40 H       -1.0900    -5.7940     0.4370 H     1 <1>   0.0800 
 41 H       -6.6890    -4.1310    -1.1810 H     1 <1>   0.0800 
 42 H       -5.5280    -4.6090    -2.3980 H     1 <1>   0.0800 
 43 H       -4.4480    -1.6130    -2.1130 H     1 <1>   0.0800 
 44 H       -6.0940    -2.1500    -2.0380 H     1 <1>   0.0800 
 45 H       -3.6940    -6.3900    -1.6260 H     1 <1>   0.0800 
 46 H       -3.7430    -6.9570     0.0140 H     1 <1>   0.0800 
 47 H       -3.3000    -5.5740     1.8620 H     1 <1>   0.0800 
 48 H       -4.1420    -4.1000     1.4650 H     1 <1>   0.0800 
 49 H       -5.7020    -5.5490     0.4690 H     1 <1>   0.0800 
 50 H       -5.9950    -6.4970    -0.9490 H     1 <1>   0.0800 
 51 H       -2.4470    -3.7280     2.8600 H     1 <1>   0.4000 
 52 H       -7.6690    -0.9650    -0.1370 H     1 <1>   0.1500 
 53 H       -7.1060     0.6630     1.8680 H     1 <1>   0.1500 
 54 H       -4.7170     1.4200     3.0420 H     1 <1>   0.0800 
 55 H       -3.6370     1.7800     1.7200 H     1 <1>   0.0800 
 56 H       -3.4040     0.3270     2.6670 H     1 <1>   0.0800 
@<TRIPOS>BOND
  1   1   2  1   
  2   1   3  1   
  3   2   4  2   
  4   2   5  1   
  5   3   6  2   
  6   3  27  1   
  7   4   6  1   
  8   4   7  1   
  9   5   8  1   
 10   5  28  1   
 11   5  29  1   
 12   7  30  1   
 13   7  31  1   
 14   7  32  1   
 15   8   9  1   
 16   8  10  1   
 17   8  33  1   
 18   9  11  1   
 19   9  34  1   
 20   9  35  1   
 21  10  12  1   
 22  10  36  1   
 23  10  37  1   
 24  11  13  1   
 25  11  14  1   
 26  11  38  1   
 27  12  14  1   
 28  12  39  1   
 29  12  40  1   
 30  13  15  1   
 31  13  16  1   
 32  14  17  1   
 33  14  18  1   
 34  15  19  1   
 35  15  41  1   
 36  15  42  1   
 37  16  20  1   
 38  16  43  1   
 39  16  44  1   
 40  17  19  1   
 41  17  45  1   
 42  17  46  1   
 43  18  21  1   
 44  18  47  1   
 45  18  48  1   
 46  19  49  1   
 47  19  50  1   
 48  20  22  1   
 49  20  23  2   
 50  21  51  1   
 51  22  24  1   
 52  23  25  1   
 53  23  52  1   
 54  24  25  2   
 55  24  26  1   
 56  25  53  1   
 57  26  54  1   
 58  26  55  1   
 59  26  56  1   
@<TRIPOS>SUBSTRUCTURE
  1 ****   9 GROUP 4 **** **** 0

# MOE 2024.06 (io_trps.svl 2023.06)
