@<TRIPOS>MOLECULE
NONAME
50 51 1 0 0 
SMALL
USER_CHARGES


@<TRIPOS>ATOM
  1 S        0.1030    -0.0630     0.8920 S.o2  1 <1>   1.3330 
  2 O       -0.8440    -1.1420     1.0490 O.2   1 <1>  -0.6500 
  3 O        1.0100     0.2570     1.9710 O.2   1 <1>  -0.6500 
  4 N        1.0320    -0.3880    -0.4940 N.am  1 <1>  -0.8490 
  5 C       -0.7820     1.4340     0.4490 C.3   1 <1>  -0.0550 
  6 C        0.2830    -1.0980    -1.5380 C.3   1 <1>   0.1160 
  7 C        2.2560    -1.1290    -0.1740 C.3   1 <1>   0.1160 
  8 C        0.1220     2.6020    -0.0040 C.3   1 <1>  -0.0800 
  9 C       -0.6450     3.8180    -0.5290 C.3   1 <1>   0.2000 
 10 C        1.0310     3.1720     1.0940 C.3   1 <1>   0.1400 
 11 O       -1.6990     4.0950     0.3270 O.3   1 <1>  -0.6800 
 12 C        0.3640     4.9600    -0.4270 C.3   1 <1>   0.1400 
 13 N        1.1900     4.6130     0.7590 N.am  1 <1>  -0.6600 
 14 C        2.1960     5.3930     1.2820 C.2   1 <1>   0.5440 
 15 O        2.9420     4.9070     2.1090 O.2   1 <1>  -0.5700 
 16 C        2.3750     6.7570     0.8630 C.ar  1 <1>   0.0860 
 17 C        3.4900     7.2180     0.1800 C.ar  1 <1>   0.1670 
 18 C        1.4070     7.7080     1.1220 C.ar  1 <1>   0.1600 
 19 N        3.6060     8.4610    -0.2150 N.ar  1 <1>  -0.6200 
 20 C        4.6500     6.2950    -0.1530 C.3   1 <1>  -0.0970 
 21 N        1.4940     8.9540     0.7340 N.ar  1 <1>  -0.6200 
 22 C        2.6020     9.2910     0.0730 C.ar  1 <1>   0.7200 
 23 N        2.7180    10.5960    -0.3460 N.pl3 1 <1>  -0.8380 
 24 C        1.5790    11.5550    -0.2980 C.3   1 <1>   0.1290 
 25 C        4.0040    11.1610    -0.8420 C.3   1 <1>   0.1290 
 26 H       -1.4630     1.2060    -0.3470 H     1 <1>   0.0800 
 27 H       -1.3720     1.7440     1.2900 H     1 <1>   0.0800 
 28 H        0.8890    -1.2010    -2.4220 H     1 <1>   0.0800 
 29 H       -0.6060    -0.5500    -1.7970 H     1 <1>   0.0800 
 30 H       -0.0050    -2.0790    -1.1940 H     1 <1>   0.0800 
 31 H        2.8260    -1.3150    -1.0680 H     1 <1>   0.0800 
 32 H        2.0130    -2.0690     0.2940 H     1 <1>   0.0800 
 33 H        2.8690    -0.5560     0.5010 H     1 <1>   0.0800 
 34 H        0.7610     2.2570    -0.7990 H     1 <1>   0.0800 
 35 H       -1.0360     3.6860    -1.5240 H     1 <1>   0.0800 
 36 H        1.9870     2.6740     1.1140 H     1 <1>   0.0800 
 37 H        0.5720     3.0870     2.0650 H     1 <1>   0.0800 
 38 H       -1.3380     4.3660     1.1960 H     1 <1>   0.4000 
 39 H       -0.1270     5.9110    -0.3210 H     1 <1>   0.0800 
 40 H        0.9930     4.9730    -1.3000 H     1 <1>   0.0800 
 41 H        0.5280     7.4140     1.6690 H     1 <1>   0.1500 
 42 H        4.2930     5.3380    -0.4880 H     1 <1>   0.0800 
 43 H        5.2580     6.1540     0.7220 H     1 <1>   0.0800 
 44 H        5.2570     6.7230    -0.9300 H     1 <1>   0.0800 
 45 H        1.6540    12.2590    -1.1080 H     1 <1>   0.0800 
 46 H        1.5950    12.0850     0.6380 H     1 <1>   0.0800 
 47 H        0.6400    11.0360    -0.3890 H     1 <1>   0.0800 
 48 H        4.0840    12.1980    -0.5660 H     1 <1>   0.0800 
 49 H        4.0470    11.0730    -1.9130 H     1 <1>   0.0800 
 50 H        4.8410    10.6350    -0.4150 H     1 <1>   0.0800 
@<TRIPOS>BOND
  1   1   2  2   
  2   1   3  2   
  3   1   4  am  
  4   1   5  1   
  5   4   6  1   
  6   4   7  1   
  7   5   8  1   
  8   5  26  1   
  9   5  27  1   
 10   6  28  1   
 11   6  29  1   
 12   6  30  1   
 13   7  31  1   
 14   7  32  1   
 15   7  33  1   
 16   8   9  1   
 17   8  10  1   
 18   8  34  1   
 19   9  11  1   
 20   9  12  1   
 21   9  35  1   
 22  10  13  1   
 23  10  36  1   
 24  10  37  1   
 25  11  38  1   
 26  12  13  1   
 27  12  39  1   
 28  12  40  1   
 29  13  14  am  
 30  14  15  2   
 31  14  16  1   
 32  16  17  ar  
 33  16  18  ar  
 34  17  19  ar  
 35  17  20  1   
 36  18  21  ar  
 37  18  41  1   
 38  19  22  ar  
 39  20  42  1   
 40  20  43  1   
 41  20  44  1   
 42  21  22  ar  
 43  22  23  1   
 44  23  24  1   
 45  23  25  1   
 46  24  45  1   
 47  24  46  1   
 48  24  47  1   
 49  25  48  1   
 50  25  49  1   
 51  25  50  1   
@<TRIPOS>SUBSTRUCTURE
  1 ****  13 GROUP 4 **** **** 0

# MOE 2024.06 (io_trps.svl 2023.06)
