@<TRIPOS>MOLECULE
NONAME
55 57 1 0 0 
SMALL
USER_CHARGES


@<TRIPOS>ATOM
  1 O        2.3070    -0.6000    -2.1820 O.2   1 <1>  -0.5700 
  2 C        1.9440    -0.8970    -1.0690 C.2   1 <1>   0.5690 
  3 N        1.7800    -0.0060    -0.0470 N.am  1 <1>  -0.5470 
  4 C        1.6270    -2.3610    -0.7560 C.3   1 <1>   0.1710 
  5 C        1.9590     1.3830     0.0470 C.ar  1 <1>   0.1170 
  6 N        0.6820    -2.5470     0.3870 N.3   1 <1>  -0.8100 
  7 C        1.3900     2.0550     1.1220 C.ar  1 <1>  -0.1500 
  8 C        2.6880     2.1190    -0.8820 C.ar  1 <1>  -0.1500 
  9 C       -0.6940    -2.1340     0.0600 C.3   1 <1>   0.1100 
 10 C        0.5880    -3.9560     0.8120 C.3   1 <1>   0.1100 
 11 C        1.5420     3.4230     1.2650 C.ar  1 <1>  -0.1500 
 12 C        2.8400     3.4860    -0.7400 C.ar  1 <1>  -0.1500 
 13 C       -1.5540    -2.8490     1.0950 C.3   1 <1>   0.2000 
 14 C       -0.8770    -4.2120     1.2160 C.3   1 <1>  -0.0800 
 15 C        2.2710     4.1520     0.3360 C.ar  1 <1>   0.1170 
 16 O       -1.3990    -2.1850     2.2970 O.3   1 <1>  -0.6800 
 17 C       -1.5540    -5.2510     0.3010 C.3   1 <1>   0.0210 
 18 N        2.4300     5.5380     0.4820 N.am  1 <1>  -0.4770 
 19 C       -0.8370    -6.5900     0.3200 C.2   1 <1>   0.1080 
 20 C        3.4560     6.1300     1.1790 C.2   1 <1>   0.5690 
 21 C        1.4250     6.3970    -0.1950 C.3   1 <1>   0.0600 
 22 N       -0.5090    -7.2030     1.4140 N.2   1 <1>  -0.7070 
 23 C       -0.4560    -7.3010    -0.8140 C.2   1 <1>  -0.1500 
 24 O        3.5650     7.3290     1.2780 O.2   1 <1>  -0.5700 
 25 C        4.4970     5.2660     1.8550 C.3   1 <1>  -0.1790 
 26 N        0.0900    -8.3370     1.0040 N.pl3 1 <1>   0.3000 
 27 C        0.1370    -8.4180    -0.3420 C.2   1 <1>  -0.3320 
 28 C        0.7500    -9.5770    -1.1050 C.3   1 <1>  -0.0600 
 29 H        1.3840    -0.4680     0.7770 H     1 <1>   0.3700 
 30 H        2.5590    -2.8430    -0.5200 H     1 <1>   0.0800 
 31 H        1.2310    -2.8260    -1.6410 H     1 <1>   0.0800 
 32 H        0.8210     1.5070     1.8510 H     1 <1>   0.1500 
 33 H        3.1430     1.6270    -1.7220 H     1 <1>   0.1500 
 34 H       -0.8200    -1.0660     0.1090 H     1 <1>   0.0800 
 35 H       -0.9610    -2.4780    -0.9250 H     1 <1>   0.0800 
 36 H        0.8840    -4.6170     0.0140 H     1 <1>   0.0800 
 37 H        1.2420    -4.1250     1.6510 H     1 <1>   0.0800 
 38 H        1.0960     3.9330     2.0990 H     1 <1>   0.1500 
 39 H        3.4040     4.0430    -1.4670 H     1 <1>   0.1500 
 40 H       -2.6010    -2.8850     0.8480 H     1 <1>   0.0800 
 41 H       -0.9290    -4.5780     2.2280 H     1 <1>   0.0800 
 42 H       -0.4360    -2.1180     2.4590 H     1 <1>   0.4000 
 43 H       -1.5890    -4.8870    -0.7100 H     1 <1>   0.0800 
 44 H       -2.5640    -5.4100     0.6340 H     1 <1>   0.0800 
 45 H        0.6270     5.7970    -0.5940 H     1 <1>   0.0800 
 46 H        1.8990     6.9370    -0.9960 H     1 <1>   0.0800 
 47 H        1.0190     7.1020     0.5100 H     1 <1>   0.0800 
 48 H       -0.6150    -7.0040    -1.8350 H     1 <1>   0.1500 
 49 H        4.0270     4.6310     2.5820 H     1 <1>   0.0800 
 50 H        5.2200     5.8870     2.3500 H     1 <1>   0.0800 
 51 H        4.9990     4.6620     1.1230 H     1 <1>   0.0800 
 52 H        0.4500    -9.0350     1.6660 H     1 <1>   0.2700 
 53 H        0.6640    -9.4100    -2.1650 H     1 <1>   0.0800 
 54 H        0.2420   -10.4930    -0.8620 H     1 <1>   0.0800 
 55 H        1.7920    -9.6770    -0.8580 H     1 <1>   0.0800 
@<TRIPOS>BOND
  1   1   2  2   
  2   2   3  am  
  3   2   4  1   
  4   3   5  1   
  5   3  29  1   
  6   4   6  1   
  7   4  30  1   
  8   4  31  1   
  9   5   7  ar  
 10   5   8  ar  
 11   6   9  1   
 12   6  10  1   
 13   7  11  ar  
 14   7  32  1   
 15   8  12  ar  
 16   8  33  1   
 17   9  13  1   
 18   9  34  1   
 19   9  35  1   
 20  10  14  1   
 21  10  36  1   
 22  10  37  1   
 23  11  15  ar  
 24  11  38  1   
 25  12  15  ar  
 26  12  39  1   
 27  13  14  1   
 28  13  16  1   
 29  13  40  1   
 30  14  17  1   
 31  14  41  1   
 32  15  18  1   
 33  16  42  1   
 34  17  19  1   
 35  17  43  1   
 36  17  44  1   
 37  18  20  am  
 38  18  21  1   
 39  19  22  2   
 40  19  23  1   
 41  20  24  2   
 42  20  25  1   
 43  21  45  1   
 44  21  46  1   
 45  21  47  1   
 46  22  26  1   
 47  23  27  2   
 48  23  48  1   
 49  25  49  1   
 50  25  50  1   
 51  25  51  1   
 52  26  27  1   
 53  26  52  1   
 54  27  28  1   
 55  28  53  1   
 56  28  54  1   
 57  28  55  1   
@<TRIPOS>SUBSTRUCTURE
  1 ****   3 GROUP 4 **** **** 0

# MOE 2024.06 (io_trps.svl 2023.06)
