@<TRIPOS>MOLECULE
NONAME
54 56 1 0 0 
SMALL
USER_CHARGES


@<TRIPOS>ATOM
  1 O        3.5800    -1.0560     1.9630 O.2   1 <1>  -0.5700 
  2 C        2.4120    -1.1410     1.6650 C.2   1 <1>   0.5690 
  3 N        1.6680    -0.0560     1.3300 N.am  1 <1>  -0.7300 
  4 C        1.7340    -2.5150     1.6510 C.3   1 <1>   0.1710 
  5 C        2.1430     1.3440     1.2710 C.3   1 <1>   0.1400 
  6 N        0.5920    -2.6300     0.6950 N.3   1 <1>  -0.8100 
  7 C        2.4160     1.7370    -0.1800 C.3   1 <1>  -0.0170 
  8 C        1.0310    -2.5900    -0.7060 C.3   1 <1>   0.1100 
  9 C       -0.1120    -3.9140     0.8370 C.3   1 <1>   0.1100 
 10 C        2.8510     3.1920    -0.2600 C.ar  1 <1>  -0.1440 
 11 C       -0.1500    -3.1670    -1.4750 C.3   1 <1>   0.2000 
 12 C       -0.6530    -4.2830    -0.5590 C.3   1 <1>  -0.0800 
 13 C        4.1700     3.5370    -0.0090 C.ar  1 <1>  -0.1500 
 14 C        1.9370     4.1850    -0.5780 C.ar  1 <1>  -0.1500 
 15 O       -1.1280    -2.1920    -1.5270 O.3   1 <1>  -0.6800 
 16 C       -0.1530    -5.6610    -1.0340 C.3   1 <1>  -0.0170 
 17 C        4.5690     4.8600    -0.0760 C.ar  1 <1>  -0.1500 
 18 C        2.3340     5.5100    -0.6460 C.ar  1 <1>  -0.1500 
 19 C       -0.6510    -6.7830    -0.1380 C.ar  1 <1>   0.1670 
 20 C        3.6590     5.8540    -0.3940 C.ar  1 <1>   0.0820 
 21 N        0.1790    -7.1970     0.8080 N.ar  1 <1>  -0.6200 
 22 C       -1.9180    -7.3080    -0.3420 C.ar  1 <1>  -0.1500 
 23 O        4.1320     7.1250    -0.4380 O.3   1 <1>  -0.3620 
 24 C       -0.2730    -8.1730     1.5800 C.ar  1 <1>   0.1600 
 25 C       -2.3760    -8.3230     0.4700 C.ar  1 <1>  -0.1500 
 26 C        3.2890     8.2080    -0.7620 C.3   1 <1>   0.0400 
 27 C       -1.5200    -8.7610     1.4570 C.ar  1 <1>  -0.1500 
 28 H        0.7090    -0.2480     1.0260 H     1 <1>   0.3700 
 29 H        1.3750    -2.7030     2.6460 H     1 <1>   0.0800 
 30 H        2.4770    -3.2590     1.4250 H     1 <1>   0.0800 
 31 H        1.3980     1.9930     1.6970 H     1 <1>   0.0800 
 32 H        3.0480     1.4450     1.8480 H     1 <1>   0.0800 
 33 H        3.1930     1.1090    -0.5780 H     1 <1>   0.0800 
 34 H        1.5280     1.5910    -0.7690 H     1 <1>   0.0800 
 35 H        1.2690    -1.5900    -1.0280 H     1 <1>   0.0800 
 36 H        1.8920    -3.2240    -0.8440 H     1 <1>   0.0800 
 37 H        0.5700    -4.6700     1.1880 H     1 <1>   0.0800 
 38 H       -0.9140    -3.8190     1.5490 H     1 <1>   0.0800 
 39 H        0.0880    -3.4760    -2.4780 H     1 <1>   0.0800 
 40 H       -1.7290    -4.3030    -0.5440 H     1 <1>   0.0800 
 41 H        4.8910     2.7770     0.2410 H     1 <1>   0.1500 
 42 H        0.9100     3.9320    -0.7760 H     1 <1>   0.1500 
 43 H       -1.2210    -1.8490    -0.6130 H     1 <1>   0.4000 
 44 H        0.9220    -5.6780    -1.0570 H     1 <1>   0.0800 
 45 H       -0.5010    -5.8390    -2.0360 H     1 <1>   0.0800 
 46 H        5.5910     5.1300     0.1190 H     1 <1>   0.1500 
 47 H        1.6030     6.2540    -0.8960 H     1 <1>   0.1500 
 48 H       -2.5440    -6.9260    -1.1290 H     1 <1>   0.1500 
 49 H        0.3890    -8.5250     2.3530 H     1 <1>   0.1500 
 50 H       -3.3540    -8.7520     0.3400 H     1 <1>   0.1500 
 51 H        3.8780     9.1070    -0.7400 H     1 <1>   0.0800 
 52 H        2.5030     8.2690    -0.0310 H     1 <1>   0.0800 
 53 H        2.8900     8.0570    -1.7490 H     1 <1>   0.0800 
 54 H       -1.8130    -9.5500     2.1250 H     1 <1>   0.1500 
@<TRIPOS>BOND
  1   1   2  2   
  2   2   3  am  
  3   2   4  1   
  4   3   5  1   
  5   3  28  1   
  6   4   6  1   
  7   4  29  1   
  8   4  30  1   
  9   5   7  1   
 10   5  31  1   
 11   5  32  1   
 12   6   8  1   
 13   6   9  1   
 14   7  10  1   
 15   7  33  1   
 16   7  34  1   
 17   8  11  1   
 18   8  35  1   
 19   8  36  1   
 20   9  12  1   
 21   9  37  1   
 22   9  38  1   
 23  10  13  ar  
 24  10  14  ar  
 25  11  12  1   
 26  11  15  1   
 27  11  39  1   
 28  12  16  1   
 29  12  40  1   
 30  13  17  ar  
 31  13  41  1   
 32  14  18  ar  
 33  14  42  1   
 34  15  43  1   
 35  16  19  1   
 36  16  44  1   
 37  16  45  1   
 38  17  20  ar  
 39  17  46  1   
 40  18  20  ar  
 41  18  47  1   
 42  19  21  ar  
 43  19  22  ar  
 44  20  23  1   
 45  21  24  ar  
 46  22  25  ar  
 47  22  48  1   
 48  23  26  1   
 49  24  27  ar  
 50  24  49  1   
 51  25  27  ar  
 52  25  50  1   
 53  26  51  1   
 54  26  52  1   
 55  26  53  1   
 56  27  54  1   
@<TRIPOS>SUBSTRUCTURE
  1 ****   3 GROUP 4 **** **** 0

# MOE 2024.06 (io_trps.svl 2023.06)
