@<TRIPOS>MOLECULE
NONAME
54 57 1 0 0 
SMALL
USER_CHARGES


@<TRIPOS>ATOM
  1 O       -0.4020     0.7320    -1.5090 O.2   1 <1>  -0.5700 
  2 C       -1.4470     1.1390    -1.0410 C.2   1 <1>   0.5440 
  3 N       -2.5190     0.2750    -0.9490 N.am  1 <1>  -0.6600 
  4 C       -1.5250     2.5080    -0.5780 C.ar  1 <1>   0.0860 
  5 C       -3.6680     0.5230    -0.0270 C.3   1 <1>   0.1400 
  6 C       -2.4690    -1.0500    -1.6360 C.3   1 <1>   0.1400 
  7 C       -0.5340     3.0210     0.2530 C.ar  1 <1>   0.1600 
  8 C       -2.5590     3.3650    -0.9300 C.ar  1 <1>  -0.1500 
  9 C       -4.2320    -0.8020     0.4820 C.3   1 <1>  -0.1600 
 10 C       -3.8790    -1.5680    -1.9310 C.3   1 <1>  -0.1600 
 11 N       -0.5050     4.2450     0.7610 N.ar  1 <1>  -0.6200 
 12 C       -2.5430     4.6440    -0.4190 C.ar  1 <1>  -0.1500 
 13 C       -4.7900    -1.6390    -0.6840 C.3   1 <1>   0.4240 
 14 C       -1.5080     5.0340     0.4170 C.ar  1 <1>   0.1670 
 15 O       -5.9940    -1.0300    -1.0880 O.3   1 <1>  -0.5600 
 16 C       -5.0020    -3.1080    -0.2570 C.ar  1 <1>  -0.1430 
 17 C       -1.4730     6.4340     0.9910 C.3   1 <1>  -0.0970 
 18 C       -7.1640    -1.3740    -0.4080 C.3   1 <1>   0.1200 
 19 C       -6.2650    -3.6840    -0.2430 C.ar  1 <1>  -0.1430 
 20 C       -3.9200    -3.8910     0.1240 C.ar  1 <1>  -0.1500 
 21 C       -7.4640    -2.8500    -0.6470 C.3   1 <1>  -0.0170 
 22 C       -6.4330    -5.0080     0.1300 C.ar  1 <1>  -0.1500 
 23 C       -4.0680    -5.2110     0.5130 C.ar  1 <1>   0.0830 
 24 C       -5.3460    -5.7930     0.5050 C.ar  1 <1>   0.0830 
 25 O       -2.9050    -5.8280     0.8720 O.3   1 <1>  -0.3630 
 26 O       -5.5050    -7.1070     0.8420 O.3   1 <1>  -0.3620 
 27 C       -2.8850    -6.8910     1.7970 C.3   1 <1>   0.0400 
 28 C       -6.7120    -7.8000     0.6100 C.3   1 <1>   0.0400 
 29 H       -4.4370     1.0620    -0.5560 H     1 <1>   0.0800 
 30 H       -3.3450     1.1170     0.8100 H     1 <1>   0.0800 
 31 H       -1.9370    -1.7460    -1.0100 H     1 <1>   0.0800 
 32 H       -1.9230    -0.9570    -2.5600 H     1 <1>   0.0800 
 33 H        0.2830     2.3690     0.5120 H     1 <1>   0.1500 
 34 H       -3.3440     3.0340    -1.5880 H     1 <1>   0.1500 
 35 H       -4.9950    -0.6220     1.2130 H     1 <1>   0.0800 
 36 H       -3.4420    -1.3310     0.9820 H     1 <1>   0.0800 
 37 H       -3.8030    -2.5410    -2.3810 H     1 <1>   0.0800 
 38 H       -4.3140    -0.9150    -2.6660 H     1 <1>   0.0800 
 39 H       -3.3280     5.3350    -0.6690 H     1 <1>   0.1500 
 40 H       -0.5730     6.9280     0.6740 H     1 <1>   0.0800 
 41 H       -1.4770     6.3810     2.0650 H     1 <1>   0.0800 
 42 H       -2.3200     7.0100     0.6670 H     1 <1>   0.0800 
 43 H       -7.9600    -0.7620    -0.7940 H     1 <1>   0.0800 
 44 H       -7.0400    -1.1710     0.6400 H     1 <1>   0.0800 
 45 H       -2.9270    -3.4820     0.1280 H     1 <1>   0.1500 
 46 H       -7.6820    -3.0070    -1.6880 H     1 <1>   0.0800 
 47 H       -8.3270    -3.1330    -0.0720 H     1 <1>   0.0800 
 48 H       -7.4260    -5.4120     0.1220 H     1 <1>   0.1500 
 49 H       -1.8810    -6.9950     2.1660 H     1 <1>   0.0800 
 50 H       -3.1820    -7.7940     1.2940 H     1 <1>   0.0800 
 51 H       -3.5550    -6.6650     2.6070 H     1 <1>   0.0800 
 52 H       -6.5540    -8.8350     0.8540 H     1 <1>   0.0800 
 53 H       -6.9740    -7.7060    -0.4290 H     1 <1>   0.0800 
 54 H       -7.4790    -7.3890     1.2420 H     1 <1>   0.0800 
@<TRIPOS>BOND
  1   1   2  2   
  2   2   3  am  
  3   2   4  1   
  4   3   5  1   
  5   3   6  1   
  6   4   7  ar  
  7   4   8  ar  
  8   5   9  1   
  9   5  29  1   
 10   5  30  1   
 11   6  10  1   
 12   6  31  1   
 13   6  32  1   
 14   7  11  ar  
 15   7  33  1   
 16   8  12  ar  
 17   8  34  1   
 18   9  13  1   
 19   9  35  1   
 20   9  36  1   
 21  10  13  1   
 22  10  37  1   
 23  10  38  1   
 24  11  14  ar  
 25  12  14  ar  
 26  12  39  1   
 27  13  15  1   
 28  13  16  1   
 29  14  17  1   
 30  15  18  1   
 31  16  19  ar  
 32  16  20  ar  
 33  17  40  1   
 34  17  41  1   
 35  17  42  1   
 36  18  21  1   
 37  18  43  1   
 38  18  44  1   
 39  19  21  1   
 40  19  22  ar  
 41  20  23  ar  
 42  20  45  1   
 43  21  46  1   
 44  21  47  1   
 45  22  24  ar  
 46  22  48  1   
 47  23  24  ar  
 48  23  25  1   
 49  24  26  1   
 50  25  27  1   
 51  26  28  1   
 52  27  49  1   
 53  27  50  1   
 54  27  51  1   
 55  28  52  1   
 56  28  53  1   
 57  28  54  1   
@<TRIPOS>SUBSTRUCTURE
  1 ****   9 GROUP 4 **** **** 0

# MOE 2024.06 (io_trps.svl 2023.06)
