@<TRIPOS>MOLECULE
NONAME
48 50 1 0 0 
SMALL
USER_CHARGES


@<TRIPOS>ATOM
  1 O       -1.9340     0.2410    -2.4030 O.2   1 <1>  -0.5700 
  2 C       -2.0820    -0.5800    -1.5260 C.2   1 <1>   0.5690 
  3 N       -2.1160    -0.2330    -0.2010 N.am  1 <1>  -0.6600 
  4 C       -2.1760    -2.0400    -1.9350 C.3   1 <1>  -0.0190 
  5 C       -2.3190    -1.2660     0.8610 C.3   1 <1>   0.2200 
  6 C       -2.1020     1.1860     0.2460 C.3   1 <1>   0.0600 
  7 C       -0.9880    -2.8390    -1.3780 C.3   1 <1>   0.1200 
  8 C       -3.5440    -2.6850    -1.6320 C.3   1 <1>   0.1100 
  9 C       -1.1270    -2.2440     0.9110 C.3   1 <1>   0.1200 
 10 C       -3.6840    -2.0000     0.7530 C.3   1 <1>   0.1100 
 11 O       -1.1940    -3.2460    -0.0610 O.3   1 <1>  -0.5600 
 12 N       -4.3240    -1.9880    -0.5880 N.3   1 <1>  -0.8100 
 13 C       -5.7380    -2.3930    -0.5600 C.3   1 <1>   0.2530 
 14 C       -5.9230    -3.8520    -0.1740 C.ar  1 <1>  -0.1440 
 15 C       -5.9510    -4.8510    -1.1200 C.ar  1 <1>   0.1600 
 16 C       -6.0840    -4.2400     1.1360 C.ar  1 <1>   0.1600 
 17 N       -6.1100    -6.1140    -0.8060 N.ar  1 <1>  -0.6200 
 18 N       -6.2440    -5.4930     1.4860 N.ar  1 <1>  -0.6200 
 19 C       -6.2380    -6.3670     0.4910 C.ar  1 <1>   0.7200 
 20 N       -6.3940    -7.6510     0.8810 N.pl3 1 <1>  -0.8690 
 21 C       -6.8190    -8.7400    -0.0150 C.3   1 <1>   0.2090 
 22 C       -6.8010   -10.0560     0.7610 C.3   1 <1>  -0.1600 
 23 C       -7.2240   -11.2360    -0.1210 C.3   1 <1>  -0.2400 
 24 H       -2.0570    -2.0610    -3.0020 H     1 <1>   0.0800 
 25 H       -2.3150    -0.7600     1.8100 H     1 <1>   0.0800 
 26 H       -1.3020     1.3400     0.9480 H     1 <1>   0.0800 
 27 H       -3.0410     1.4260     0.7130 H     1 <1>   0.0800 
 28 H       -1.9570     1.8470    -0.5900 H     1 <1>   0.0800 
 29 H       -0.0750    -2.2700    -1.4340 H     1 <1>   0.0800 
 30 H       -0.8630    -3.7360    -1.9590 H     1 <1>   0.0800 
 31 H       -3.4060    -3.7180    -1.3580 H     1 <1>   0.0800 
 32 H       -4.1150    -2.6620    -2.5430 H     1 <1>   0.0800 
 33 H       -1.1300    -2.7470     1.8620 H     1 <1>   0.0800 
 34 H       -0.1940    -1.7160     0.8130 H     1 <1>   0.0800 
 35 H       -4.3520    -1.5180     1.4440 H     1 <1>   0.0800 
 36 H       -3.5650    -3.0170     1.0870 H     1 <1>   0.0800 
 37 H       -6.2690    -1.7650     0.1340 H     1 <1>   0.0800 
 38 H       -6.1690    -2.2200    -1.5320 H     1 <1>   0.0800 
 39 H       -5.8390    -4.6080    -2.1620 H     1 <1>   0.1500 
 40 H       -6.0810    -3.5020     1.9180 H     1 <1>   0.1500 
 41 H       -6.6540    -7.7330     1.8600 H     1 <1>   0.4000 
 42 H       -7.8100    -8.5330    -0.3830 H     1 <1>   0.0800 
 43 H       -6.1440    -8.7960    -0.8540 H     1 <1>   0.0800 
 44 H       -5.8050   -10.2310     1.1310 H     1 <1>   0.0800 
 45 H       -7.4730    -9.9840     1.5990 H     1 <1>   0.0800 
 46 H       -6.5550   -11.3380    -0.9580 H     1 <1>   0.0800 
 47 H       -8.2240   -11.0900    -0.4920 H     1 <1>   0.0800 
 48 H       -7.2010   -12.1480     0.4490 H     1 <1>   0.0800 
@<TRIPOS>BOND
  1   1   2  2   
  2   2   3  am  
  3   2   4  1   
  4   3   5  1   
  5   3   6  1   
  6   4   7  1   
  7   4   8  1   
  8   4  24  1   
  9   5   9  1   
 10   5  10  1   
 11   5  25  1   
 12   6  26  1   
 13   6  27  1   
 14   6  28  1   
 15   7  11  1   
 16   7  29  1   
 17   7  30  1   
 18   8  12  1   
 19   8  31  1   
 20   8  32  1   
 21   9  11  1   
 22   9  33  1   
 23   9  34  1   
 24  10  12  1   
 25  10  35  1   
 26  10  36  1   
 27  12  13  1   
 28  13  14  1   
 29  13  37  1   
 30  13  38  1   
 31  14  15  ar  
 32  14  16  ar  
 33  15  17  ar  
 34  15  39  1   
 35  16  18  ar  
 36  16  40  1   
 37  17  19  ar  
 38  18  19  ar  
 39  19  20  1   
 40  20  21  1   
 41  20  41  1   
 42  21  22  1   
 43  21  42  1   
 44  21  43  1   
 45  22  23  1   
 46  22  44  1   
 47  22  45  1   
 48  23  46  1   
 49  23  47  1   
 50  23  48  1   
@<TRIPOS>SUBSTRUCTURE
  1 ****  14 GROUP 4 **** **** 0

# MOE 2024.06 (io_trps.svl 2023.06)
