@<TRIPOS>MOLECULE
NONAME
50 51 1 0 0 
SMALL
USER_CHARGES


@<TRIPOS>ATOM
  1 S        0.2880    -1.9160    -1.3410 S.3   1 <1>  -0.0800 
  2 C       -0.4640    -2.3090     0.1700 C.2   1 <1>   0.4420 
  3 C        1.1240    -0.6480    -0.5130 C.2   1 <1>   0.1980 
  4 N       -0.0770    -1.5360     1.1190 N.2   1 <1>  -0.3380 
  5 N       -1.3470    -3.3640     0.1610 N.am  1 <1>  -0.4940 
  6 N        0.8290    -0.5910     0.7220 N.2   1 <1>  -0.3380 
  7 C        2.0730     0.2140    -1.3220 C.3   1 <1>   0.0200 
  8 C       -2.1350    -3.8690     1.1570 C.2   1 <1>   0.5690 
  9 C        2.7230     1.2880    -0.4530 C.3   1 <1>   0.1200 
 10 O       -2.1780    -3.3920     2.2650 O.2   1 <1>  -0.5700 
 11 C       -2.9930    -5.1090     0.8130 C.3   1 <1>   0.2810 
 12 O        3.5890     2.0510    -1.2640 O.3   1 <1>  -0.3630 
 13 N       -3.9230    -4.8620    -0.3310 N.am  1 <1>  -0.7300 
 14 C       -3.8140    -5.6430     2.0040 C.3   1 <1>  -0.1600 
 15 C        4.3070     3.0890    -0.7570 C.ar  1 <1>   0.0820 
 16 C       -3.5560    -4.8100    -1.6300 C.2   1 <1>   0.5690 
 17 C       -4.5810    -6.9410     1.7010 C.3   1 <1>  -0.2400 
 18 C        5.1320     3.7890    -1.6330 C.ar  1 <1>  -0.1440 
 19 C        4.2450     3.4680     0.5830 C.ar  1 <1>  -0.1500 
 20 O       -2.3970    -4.8570    -1.9610 O.2   1 <1>  -0.5700 
 21 C       -4.6270    -4.6600    -2.6760 C.3   1 <1>  -0.1790 
 22 C        5.8800     4.8550    -1.1610 C.ar  1 <1>  -0.1500 
 23 C        5.2190     3.3970    -3.1010 C.3   1 <1>  -0.0970 
 24 C        4.9970     4.5330     1.0490 C.ar  1 <1>  -0.1440 
 25 C        5.8140     5.2250     0.1710 C.ar  1 <1>  -0.1500 
 26 C        4.9230     4.9400     2.5100 C.3   1 <1>  -0.0970 
 27 H       -1.4750    -3.8250    -0.7490 H     1 <1>   0.3700 
 28 H        2.8370    -0.4130    -1.7440 H     1 <1>   0.0800 
 29 H        1.5240     0.6850    -2.1170 H     1 <1>   0.0800 
 30 H        3.3010     0.8380     0.3360 H     1 <1>   0.0800 
 31 H        1.9760     1.9430    -0.0390 H     1 <1>   0.0800 
 32 H       -2.3060    -5.8840     0.5180 H     1 <1>   0.0800 
 33 H       -4.9040    -4.7630    -0.0670 H     1 <1>   0.3700 
 34 H       -3.1360    -5.8340     2.8190 H     1 <1>   0.0800 
 35 H       -4.4970    -4.8800     2.3380 H     1 <1>   0.0800 
 36 H       -3.9050    -7.7070     1.3630 H     1 <1>   0.0800 
 37 H       -5.3310    -6.7850     0.9470 H     1 <1>   0.0800 
 38 H       -5.0700    -7.2920     2.5930 H     1 <1>   0.0800 
 39 H        3.6170     2.9460     1.2780 H     1 <1>   0.1500 
 40 H       -5.3470    -5.4510    -2.5770 H     1 <1>   0.0800 
 41 H       -4.1880    -4.7110    -3.6560 H     1 <1>   0.0800 
 42 H       -5.1160    -3.7110    -2.5620 H     1 <1>   0.0800 
 43 H        6.5210     5.4050    -1.8270 H     1 <1>   0.1500 
 44 H        5.8980     4.0350    -3.6350 H     1 <1>   0.0800 
 45 H        4.2470     3.4720    -3.5540 H     1 <1>   0.0800 
 46 H        5.5630     2.3820    -3.1850 H     1 <1>   0.0800 
 47 H        6.4010     6.0570     0.5180 H     1 <1>   0.1500 
 48 H        5.8210     5.4520     2.8060 H     1 <1>   0.0800 
 49 H        4.8060     4.0730     3.1340 H     1 <1>   0.0800 
 50 H        4.0830     5.5950     2.6620 H     1 <1>   0.0800 
@<TRIPOS>BOND
  1   1   2  1   
  2   1   3  1   
  3   2   4  2   
  4   2   5  1   
  5   3   6  2   
  6   3   7  1   
  7   4   6  1   
  8   5   8  am  
  9   5  27  1   
 10   7   9  1   
 11   7  28  1   
 12   7  29  1   
 13   8  10  2   
 14   8  11  1   
 15   9  12  1   
 16   9  30  1   
 17   9  31  1   
 18  11  13  1   
 19  11  14  1   
 20  11  32  1   
 21  12  15  1   
 22  13  16  am  
 23  13  33  1   
 24  14  17  1   
 25  14  34  1   
 26  14  35  1   
 27  15  18  ar  
 28  15  19  ar  
 29  16  20  2   
 30  16  21  1   
 31  17  36  1   
 32  17  37  1   
 33  17  38  1   
 34  18  22  ar  
 35  18  23  1   
 36  19  24  ar  
 37  19  39  1   
 38  21  40  1   
 39  21  41  1   
 40  21  42  1   
 41  22  25  ar  
 42  22  43  1   
 43  23  44  1   
 44  23  45  1   
 45  23  46  1   
 46  24  25  ar  
 47  24  26  1   
 48  25  47  1   
 49  26  48  1   
 50  26  49  1   
 51  26  50  1   
@<TRIPOS>SUBSTRUCTURE
  1 ****   3 GROUP 4 **** **** 0

# MOE 2024.06 (io_trps.svl 2023.06)
