@<TRIPOS>MOLECULE
NONAME
58 62 1 0 0 
SMALL
USER_CHARGES


@<TRIPOS>ATOM
  1 O       -0.5480     1.2870     1.9520 O.2   1 <1>  -0.5700 
  2 C       -1.5150     1.5480     1.2670 C.2   1 <1>   0.5440 
  3 N       -2.6530     0.7750     1.3750 N.am  1 <1>  -0.6600 
  4 C       -1.4210     2.6360     0.3190 C.ar  1 <1>   0.0860 
  5 C       -2.7950    -0.2690     2.4320 C.3   1 <1>   0.1400 
  6 C       -3.8620     0.9300     0.5160 C.3   1 <1>   0.1400 
  7 C       -0.5780     2.5820    -0.8030 C.ar  1 <1>  -0.0230 
  8 C       -2.1910     3.7820     0.5230 C.ar  1 <1>  -0.1500 
  9 C       -3.1350    -1.6150     1.7870 C.3   1 <1>  -0.1600 
 10 C       -4.2000    -0.4110    -0.1410 C.3   1 <1>  -0.1600 
 11 N        0.2480     1.4490    -1.0740 N.pl3 1 <1>   0.5930 
 12 C       -0.5460     3.6680    -1.6760 C.ar  1 <1>  -0.1500 
 13 C       -2.1500     4.8470    -0.3540 C.ar  1 <1>  -0.1500 
 14 C       -4.3860    -1.5260     0.9010 C.3   1 <1>   0.4240 
 15 N        1.4500     1.5460    -1.6600 N.2   1 <1>  -0.7070 
 16 C       -0.0160     0.1310    -0.9590 C.2   1 <1>   0.0360 
 17 C       -1.3240     4.7890    -1.4600 C.ar  1 <1>  -0.1500 
 18 O       -5.4290    -1.1440     1.7670 O.3   1 <1>  -0.5600 
 19 C       -4.6720    -2.8840     0.2250 C.ar  1 <1>  -0.1430 
 20 C        1.8040     0.3180    -1.8240 C.2   1 <1>   0.3660 
 21 N        0.9290    -0.6070    -1.4140 N.2   1 <1>  -0.5650 
 22 C       -6.7360    -1.4130     1.3650 C.3   1 <1>   0.1200 
 23 C       -5.8770    -3.5470     0.4200 C.ar  1 <1>  -0.1430 
 24 C       -3.7260    -3.4740    -0.6030 C.ar  1 <1>  -0.1500 
 25 C       -6.9330    -2.9240     1.3120 C.3   1 <1>  -0.0170 
 26 C       -6.1230    -4.7640    -0.1950 C.ar  1 <1>  -0.1500 
 27 C       -3.9520    -4.6920    -1.2220 C.ar  1 <1>   0.0830 
 28 C       -5.1750    -5.3520    -1.0290 C.ar  1 <1>   0.0830 
 29 O       -2.9230    -5.1410    -1.9950 O.3   1 <1>  -0.3630 
 30 O       -5.4230    -6.5350    -1.6660 O.3   1 <1>  -0.3620 
 31 C       -2.6390    -6.5180    -2.0960 C.3   1 <1>   0.0400 
 32 C       -6.6910    -7.1510    -1.6400 C.3   1 <1>   0.0400 
 33 H       -3.5800     0.0220     3.1090 H     1 <1>   0.0800 
 34 H       -1.8870    -0.3660     3.0040 H     1 <1>   0.0800 
 35 H       -3.7050     1.6670    -0.2510 H     1 <1>   0.0800 
 36 H       -4.6860     1.2550     1.1280 H     1 <1>   0.0800 
 37 H       -2.8270     3.8330     1.3900 H     1 <1>   0.1500 
 38 H       -3.2970    -2.3530     2.5500 H     1 <1>   0.0800 
 39 H       -2.2880    -1.9320     1.2080 H     1 <1>   0.0800 
 40 H       -3.4020    -0.6730    -0.8090 H     1 <1>   0.0800 
 41 H       -5.0880    -0.3150    -0.7370 H     1 <1>   0.0800 
 42 H        0.1010     3.6400    -2.5380 H     1 <1>   0.1500 
 43 H       -2.7520     5.7220    -0.1770 H     1 <1>   0.1500 
 44 H       -0.9290    -0.2390    -0.5330 H     1 <1>   0.1500 
 45 H       -1.2820     5.6180    -2.1470 H     1 <1>   0.1500 
 46 H        2.7430     0.0250    -2.2670 H     1 <1>   0.1500 
 47 H       -6.9110    -0.9660     0.4020 H     1 <1>   0.0800 
 48 H       -7.4010    -0.9720     2.0860 H     1 <1>   0.0800 
 49 H       -2.7810    -2.9950    -0.7850 H     1 <1>   0.1500 
 50 H       -7.9160    -3.1390     0.9350 H     1 <1>   0.0800 
 51 H       -6.8540    -3.3300     2.3050 H     1 <1>   0.0800 
 52 H       -7.0650    -5.2410    -0.0120 H     1 <1>   0.1500 
 53 H       -1.6170    -6.6270    -2.4080 H     1 <1>   0.0800 
 54 H       -3.2920    -6.9540    -2.8310 H     1 <1>   0.0800 
 55 H       -2.7840    -6.9800    -1.1350 H     1 <1>   0.0800 
 56 H       -6.6500    -8.0230    -2.2680 H     1 <1>   0.0800 
 57 H       -7.4230    -6.4610    -2.0210 H     1 <1>   0.0800 
 58 H       -6.9180    -7.4410    -0.6300 H     1 <1>   0.0800 
@<TRIPOS>BOND
  1   1   2  2   
  2   2   3  am  
  3   2   4  1   
  4   3   5  1   
  5   3   6  1   
  6   4   7  ar  
  7   4   8  ar  
  8   5   9  1   
  9   5  33  1   
 10   5  34  1   
 11   6  10  1   
 12   6  35  1   
 13   6  36  1   
 14   7  11  1   
 15   7  12  ar  
 16   8  13  ar  
 17   8  37  1   
 18   9  14  1   
 19   9  38  1   
 20   9  39  1   
 21  10  14  1   
 22  10  40  1   
 23  10  41  1   
 24  11  15  1   
 25  11  16  1   
 26  12  17  ar  
 27  12  42  1   
 28  13  17  ar  
 29  13  43  1   
 30  14  18  1   
 31  14  19  1   
 32  15  20  2   
 33  16  21  2   
 34  16  44  1   
 35  17  45  1   
 36  18  22  1   
 37  19  23  ar  
 38  19  24  ar  
 39  20  21  1   
 40  20  46  1   
 41  22  25  1   
 42  22  47  1   
 43  22  48  1   
 44  23  25  1   
 45  23  26  ar  
 46  24  27  ar  
 47  24  49  1   
 48  25  50  1   
 49  25  51  1   
 50  26  28  ar  
 51  26  52  1   
 52  27  28  ar  
 53  27  29  1   
 54  28  30  1   
 55  29  31  1   
 56  30  32  1   
 57  31  53  1   
 58  31  54  1   
 59  31  55  1   
 60  32  56  1   
 61  32  57  1   
 62  32  58  1   
@<TRIPOS>SUBSTRUCTURE
  1 ****  10 GROUP 4 **** **** 0

# MOE 2024.06 (io_trps.svl 2023.06)
