@<TRIPOS>MOLECULE
NONAME
54 56 1 0 0 
SMALL
USER_CHARGES


@<TRIPOS>ATOM
  1 O        2.9150    -0.0120     1.0000 O.2   1 <1>  -0.5700 
  2 C        2.5230    -1.0400     0.5110 C.2   1 <1>   0.5690 
  3 N        1.9640    -2.0080     1.2650 N.am  1 <1>  -0.7300 
  4 C        2.6190    -1.2800    -0.9830 C.3   1 <1>  -0.0990 
  5 C        1.4130    -3.2490     0.6830 C.3   1 <1>   0.1400 
  6 C        2.9990    -2.7400    -1.3260 C.3   1 <1>  -0.0800 
  7 C        2.4010    -3.8030    -0.3640 C.3   1 <1>  -0.0800 
  8 C        4.5230    -2.9480    -1.2990 C.3   1 <1>  -0.1600 
  9 C        3.6040    -4.5000     0.2920 C.3   1 <1>  -0.1600 
 10 C        4.7260    -4.3440    -0.7260 C.3   1 <1>   0.4230 
 11 N        6.1070    -4.6060    -0.2140 N.4   1 <1>  -0.9590 
 12 C        6.4620    -4.1450     1.1650 C.3   1 <1>   0.4860 
 13 C        6.4760    -6.0390    -0.3870 C.3   1 <1>   0.2630 
 14 C        6.6240    -2.6410     1.1680 C.ar  1 <1>  -0.1430 
 15 C        7.5700    -2.0370     0.3440 C.ar  1 <1>   0.0820 
 16 C        5.8020    -1.8680     1.9700 C.ar  1 <1>  -0.1500 
 17 O        8.3540    -2.8910    -0.3830 O.3   1 <1>  -0.3620 
 18 C        7.6500    -0.6360     0.2780 C.ar  1 <1>   0.0820 
 19 C        5.8840    -0.4920     1.9190 C.ar  1 <1>  -0.1500 
 20 C        9.7230    -2.6050    -0.5950 C.3   1 <1>   0.0400 
 21 O        8.5350    -0.0640    -0.5950 O.3   1 <1>  -0.3630 
 22 C        6.7780     0.1340     1.0610 C.ar  1 <1>   0.0820 
 23 C        9.3350     1.0190    -0.1670 C.3   1 <1>   0.0400 
 24 O        6.7770     1.4920     0.9690 O.3   1 <1>  -0.3630 
 25 C        5.5370     2.1710     0.9340 C.3   1 <1>   0.0400 
 26 H        1.7600    -1.7850     2.2420 H     1 <1>   0.3700 
 27 H        1.6540    -1.0580    -1.4000 H     1 <1>   0.0800 
 28 H        3.3210    -0.5890    -1.4150 H     1 <1>   0.0800 
 29 H        1.2400    -3.9740     1.4610 H     1 <1>   0.0800 
 30 H        0.4700    -3.0210     0.2140 H     1 <1>   0.0800 
 31 H        2.6500    -2.9480    -2.3250 H     1 <1>   0.0800 
 32 H        1.8770    -4.5360    -0.9550 H     1 <1>   0.0800 
 33 H        4.9620    -2.1990    -0.6710 H     1 <1>   0.0800 
 34 H        4.9430    -2.8630    -2.2860 H     1 <1>   0.0800 
 35 H        3.3910    -5.5330     0.5000 H     1 <1>   0.0800 
 36 H        3.8390    -3.9840     1.2030 H     1 <1>   0.0800 
 37 H        4.5260    -5.0330    -1.5320 H     1 <1>   0.0800 
 38 H        6.7470    -4.0370    -0.8010 H     1 <1>   0.4500 
 39 H        5.7150    -4.4500     1.8760 H     1 <1>   0.0800 
 40 H        7.4040    -4.5790     1.4590 H     1 <1>   0.0800 
 41 H        5.8560    -6.6630     0.2360 H     1 <1>   0.0800 
 42 H        7.5080    -6.1940    -0.1170 H     1 <1>   0.0800 
 43 H        6.3440    -6.3360    -1.4150 H     1 <1>   0.0800 
 44 H        5.0780    -2.3160     2.6300 H     1 <1>   0.1500 
 45 H        5.2310     0.0900     2.5440 H     1 <1>   0.1500 
 46 H       10.2410    -3.5290    -0.7780 H     1 <1>   0.0800 
 47 H       10.1260    -2.1240     0.2800 H     1 <1>   0.0800 
 48 H        9.8170    -1.9650    -1.4540 H     1 <1>   0.0800 
 49 H       10.2410     1.0170    -0.7450 H     1 <1>   0.0800 
 50 H        9.5630     0.9040     0.8790 H     1 <1>   0.0800 
 51 H        8.8010     1.9350    -0.3380 H     1 <1>   0.0800 
 52 H        5.7130     3.1720     0.5850 H     1 <1>   0.0800 
 53 H        5.1190     2.2010     1.9240 H     1 <1>   0.0800 
 54 H        4.8740     1.6590     0.2590 H     1 <1>   0.0800 
@<TRIPOS>BOND
  1   1   2  2   
  2   2   3  am  
  3   2   4  1   
  4   3   5  1   
  5   3  26  1   
  6   4   6  1   
  7   4  27  1   
  8   4  28  1   
  9   5   7  1   
 10   5  29  1   
 11   5  30  1   
 12   6   7  1   
 13   6   8  1   
 14   6  31  1   
 15   7   9  1   
 16   7  32  1   
 17   8  10  1   
 18   8  33  1   
 19   8  34  1   
 20   9  10  1   
 21   9  35  1   
 22   9  36  1   
 23  10  11  1   
 24  10  37  1   
 25  11  12  1   
 26  11  13  1   
 27  11  38  1   
 28  12  14  1   
 29  12  39  1   
 30  12  40  1   
 31  13  41  1   
 32  13  42  1   
 33  13  43  1   
 34  14  15  ar  
 35  14  16  ar  
 36  15  17  1   
 37  15  18  ar  
 38  16  19  ar  
 39  16  44  1   
 40  17  20  1   
 41  18  21  1   
 42  18  22  ar  
 43  19  22  ar  
 44  19  45  1   
 45  20  46  1   
 46  20  47  1   
 47  20  48  1   
 48  21  23  1   
 49  22  24  1   
 50  23  49  1   
 51  23  50  1   
 52  23  51  1   
 53  24  25  1   
 54  25  52  1   
 55  25  53  1   
 56  25  54  1   
@<TRIPOS>SUBSTRUCTURE
  1 ****  14 GROUP 4 **** **** 0

# MOE 2024.06 (io_trps.svl 2023.06)
