@<TRIPOS>MOLECULE
NONAME
41 42 1 0 0 
SMALL
USER_CHARGES


@<TRIPOS>ATOM
  1 S        0.2820    -0.6680     1.3360 S.3   1 <1>  -0.0800 
  2 C        1.4050    -0.5820    -0.0030 C.2   1 <1>   0.1980 
  3 C       -0.8950    -1.3850     0.2730 C.2   1 <1>  -0.1400 
  4 N        0.9460    -1.0350    -1.0990 N.2   1 <1>  -0.5650 
  5 C        2.7770     0.0040     0.2630 C.3   1 <1>   0.0200 
  6 C       -0.3530    -1.4910    -0.9530 C.2   1 <1>   0.0460 
  7 C       -2.2360    -1.7390     0.8840 C.3   1 <1>  -0.0600 
  8 C        2.7150     1.5300     0.4050 C.3   1 <1>  -0.1600 
  9 C       -0.9990    -2.0530    -2.2010 C.3   1 <1>  -0.0590 
 10 C        4.1060     2.1210     0.6190 C.3   1 <1>   0.2090 
 11 N        3.9800     3.5790     0.7810 N.pl3 1 <1>  -0.8690 
 12 C        5.1130     4.3790     0.7100 C.ar  1 <1>   0.4100 
 13 N        6.2300     3.8700     1.1980 N.ar  1 <1>  -0.6200 
 14 C        5.0260     5.6820     0.1170 C.ar  1 <1>   0.4100 
 15 C        7.2530     4.7080     1.0790 C.ar  1 <1>   0.1600 
 16 N        6.0650     6.4930     0.0050 N.ar  1 <1>  -0.6200 
 17 N        3.8020     6.1690    -0.3720 N.pl3 1 <1>  -0.8380 
 18 C        7.1740     5.9640     0.5060 C.ar  1 <1>   0.1600 
 19 C        2.8790     6.6960     0.6650 C.3   1 <1>   0.1290 
 20 C        3.8370     7.0000    -1.6070 C.3   1 <1>   0.1290 
 21 H        3.4190    -0.2570    -0.5600 H     1 <1>   0.0800 
 22 H        3.1790    -0.4390     1.1560 H     1 <1>   0.0800 
 23 H       -2.0970    -2.4430     1.6840 H     1 <1>   0.0800 
 24 H       -2.8880    -2.1750     0.1500 H     1 <1>   0.0800 
 25 H       -2.7030    -0.8530     1.2770 H     1 <1>   0.0800 
 26 H        2.0910     1.7850     1.2440 H     1 <1>   0.0800 
 27 H        2.2830     1.9460    -0.4880 H     1 <1>   0.0800 
 28 H       -2.0000    -2.3850    -2.0030 H     1 <1>   0.0800 
 29 H       -0.4200    -2.8840    -2.5600 H     1 <1>   0.0800 
 30 H       -1.0260    -1.2950    -2.9620 H     1 <1>   0.0800 
 31 H        4.7420     1.9060    -0.2240 H     1 <1>   0.0800 
 32 H        4.5570     1.7080     1.5070 H     1 <1>   0.0800 
 33 H        3.2530     3.9950     0.1880 H     1 <1>   0.4000 
 34 H        8.2000     4.3690     1.4580 H     1 <1>   0.1500 
 35 H        8.0620     6.5680     0.4560 H     1 <1>   0.1500 
 36 H        2.9350     6.0910     1.5550 H     1 <1>   0.0800 
 37 H        1.8680     6.6800     0.2990 H     1 <1>   0.0800 
 38 H        3.1520     7.7070     0.9180 H     1 <1>   0.0800 
 39 H        4.5430     6.5840    -2.3050 H     1 <1>   0.0800 
 40 H        4.1400     8.0050    -1.3660 H     1 <1>   0.0800 
 41 H        2.8650     7.0180    -2.0660 H     1 <1>   0.0800 
@<TRIPOS>BOND
  1   1   2  1   
  2   1   3  1   
  3   2   4  2   
  4   2   5  1   
  5   3   6  2   
  6   3   7  1   
  7   4   6  1   
  8   5   8  1   
  9   5  21  1   
 10   5  22  1   
 11   6   9  1   
 12   7  23  1   
 13   7  24  1   
 14   7  25  1   
 15   8  10  1   
 16   8  26  1   
 17   8  27  1   
 18   9  28  1   
 19   9  29  1   
 20   9  30  1   
 21  10  11  1   
 22  10  31  1   
 23  10  32  1   
 24  11  12  1   
 25  11  33  1   
 26  12  13  ar  
 27  12  14  ar  
 28  13  15  ar  
 29  14  16  ar  
 30  14  17  1   
 31  15  18  ar  
 32  15  34  1   
 33  16  18  ar  
 34  17  19  1   
 35  17  20  1   
 36  18  35  1   
 37  19  36  1   
 38  19  37  1   
 39  19  38  1   
 40  20  39  1   
 41  20  40  1   
 42  20  41  1   
@<TRIPOS>SUBSTRUCTURE
  1 ****   8 GROUP 4 **** **** 0

# MOE 2024.06 (io_trps.svl 2023.06)
