@<TRIPOS>MOLECULE
NONAME
53 56 1 0 0 
SMALL
USER_CHARGES


@<TRIPOS>ATOM
  1 O        0.9370     0.7570    -2.4750 O.3   1 <1>  -0.6800 
  2 C        1.4850    -0.5090    -2.2990 C.3   1 <1>   0.2000 
  3 C        0.7190    -1.1960    -1.1640 C.3   1 <1>  -0.0800 
  4 C        2.8820    -0.3100    -1.7190 C.3   1 <1>   0.3430 
  5 C        1.4410    -0.7240     0.1160 C.3   1 <1>   0.3430 
  6 C        0.6790    -2.7370    -1.3260 C.3   1 <1>  -0.0160 
  7 N        2.6050     0.1200    -0.3180 N.4   1 <1>  -0.9590 
  8 C        2.0510    -3.4010    -1.1970 C.ar  1 <1>  -0.1430 
  9 C        3.7550     0.2200     0.6290 C.3   1 <1>   0.4230 
 10 C        2.5680    -3.8750     0.0350 C.ar  1 <1>   0.0000 
 11 C        2.8340    -3.5520    -2.3050 C.ar  1 <1>  -0.1500 
 12 C        4.7620     1.2560     0.1180 C.3   1 <1>  -0.1600 
 13 C        4.4410    -1.1320     0.8480 C.3   1 <1>  -0.1600 
 14 C        3.9000    -4.3570     0.0430 C.ar  1 <1>   0.3100 
 15 C        1.8540    -3.9050     1.2580 C.ar  1 <1>  -0.1500 
 16 C        4.1360    -4.0520    -2.1890 C.ar  1 <1>   0.1600 
 17 C        5.9690     1.3560     1.0510 C.3   1 <1>   0.3430 
 18 C        5.6660    -1.0100     1.7500 C.3   1 <1>   0.3430 
 19 N        4.6800    -4.3890    -1.0640 N.ar  1 <1>  -0.6200 
 20 C        4.4600    -4.8090     1.2490 C.ar  1 <1>  -0.1500 
 21 C        2.4300    -4.3470     2.4180 C.ar  1 <1>  -0.1500 
 22 N        6.6020     0.0150     1.2050 N.4   1 <1>  -0.9590 
 23 C        3.7500    -4.8010     2.4180 C.ar  1 <1>  -0.1500 
 24 C        7.8230     0.1100     2.0680 C.3   1 <1>   0.2630 
 25 H        0.1200     0.7220    -3.0200 H     1 <1>   0.4000 
 26 H        1.4780    -1.0330    -3.2400 H     1 <1>   0.0800 
 27 H       -0.3020    -0.8530    -1.1470 H     1 <1>   0.0800 
 28 H        3.4250     0.4350    -2.2770 H     1 <1>   0.0800 
 29 H        3.4230    -1.2400    -1.7270 H     1 <1>   0.0800 
 30 H        1.7830    -1.5730     0.6780 H     1 <1>   0.0800 
 31 H        0.7710    -0.1480     0.7340 H     1 <1>   0.0800 
 32 H        0.2730    -2.9700    -2.2970 H     1 <1>   0.0800 
 33 H       -0.0130    -3.1620    -0.6230 H     1 <1>   0.0800 
 34 H        2.1970     1.0620    -0.4520 H     1 <1>   0.4500 
 35 H        3.3800     0.5620     1.5810 H     1 <1>   0.0800 
 36 H        2.4890    -3.2870    -3.2890 H     1 <1>   0.1500 
 37 H        5.1160     1.0030    -0.8650 H     1 <1>   0.0800 
 38 H        4.2910     2.2210     0.0690 H     1 <1>   0.0800 
 39 H        3.7610    -1.8010     1.3370 H     1 <1>   0.0800 
 40 H        4.7470    -1.5720    -0.0840 H     1 <1>   0.0800 
 41 H        0.8280    -3.5920     1.2930 H     1 <1>   0.1500 
 42 H        4.7260    -4.1490    -3.0870 H     1 <1>   0.1500 
 43 H        5.6560     1.7250     2.0160 H     1 <1>   0.0800 
 44 H        6.6830     2.0550     0.6430 H     1 <1>   0.0800 
 45 H        6.1610    -1.9670     1.8120 H     1 <1>   0.0800 
 46 H        5.3580    -0.7280     2.7450 H     1 <1>   0.0800 
 47 H        5.4690    -5.1790     1.2200 H     1 <1>   0.1500 
 48 H        1.8740    -4.3700     3.3410 H     1 <1>   0.1500 
 49 H        6.9200    -0.3070     0.2760 H     1 <1>   0.4500 
 50 H        4.1860    -5.1610     3.3360 H     1 <1>   0.1500 
 51 H        7.5600     0.4370     3.0610 H     1 <1>   0.0800 
 52 H        8.5260     0.8120     1.6500 H     1 <1>   0.0800 
 53 H        8.3080    -0.8520     2.1410 H     1 <1>   0.0800 
@<TRIPOS>BOND
  1   1   2  1   
  2   1  25  1   
  3   2   3  1   
  4   2   4  1   
  5   2  26  1   
  6   3   5  1   
  7   3   6  1   
  8   3  27  1   
  9   4   7  1   
 10   4  28  1   
 11   4  29  1   
 12   5   7  1   
 13   5  30  1   
 14   5  31  1   
 15   6   8  1   
 16   6  32  1   
 17   6  33  1   
 18   7   9  1   
 19   7  34  1   
 20   8  10  ar  
 21   8  11  ar  
 22   9  12  1   
 23   9  13  1   
 24   9  35  1   
 25  10  14  ar  
 26  10  15  ar  
 27  11  16  ar  
 28  11  36  1   
 29  12  17  1   
 30  12  37  1   
 31  12  38  1   
 32  13  18  1   
 33  13  39  1   
 34  13  40  1   
 35  14  19  ar  
 36  14  20  ar  
 37  15  21  ar  
 38  15  41  1   
 39  16  19  ar  
 40  16  42  1   
 41  17  22  1   
 42  17  43  1   
 43  17  44  1   
 44  18  22  1   
 45  18  45  1   
 46  18  46  1   
 47  20  23  ar  
 48  20  47  1   
 49  21  23  ar  
 50  21  48  1   
 51  22  24  1   
 52  22  49  1   
 53  23  50  1   
 54  24  51  1   
 55  24  52  1   
 56  24  53  1   
@<TRIPOS>SUBSTRUCTURE
  1 ****  13 GROUP 4 **** **** 0

# MOE 2024.06 (io_trps.svl 2023.06)
