@<TRIPOS>MOLECULE
NONAME
54 57 1 0 0 
SMALL
USER_CHARGES


@<TRIPOS>ATOM
  1 O       -0.3050     0.4040    -0.2620 O.2   1 <1>  -0.5700 
  2 C       -1.3390     1.0000    -0.0230 C.2   1 <1>   0.5440 
  3 N       -2.4960     0.2650     0.1220 N.am  1 <1>  -0.6600 
  4 C       -1.3360     2.4450     0.0800 C.ar  1 <1>   0.0860 
  5 C       -3.8600     0.8000    -0.1240 C.3   1 <1>   0.1400 
  6 C       -2.4970    -1.2170     0.0460 C.3   1 <1>   0.1400 
  7 C       -0.6570     3.2290    -0.8540 C.ar  1 <1>  -0.1500 
  8 C       -2.0010     3.1150     1.1100 C.ar  1 <1>  -0.1500 
  9 C       -4.6650    -0.4010    -0.6180 C.3   1 <1>   0.2000 
 10 C       -3.9700    -1.6220    -0.0220 C.3   1 <1>  -0.0800 
 11 C       -0.6630     4.6080    -0.7760 C.ar  1 <1>  -0.1500 
 12 C       -2.0070     4.4930     1.1890 C.ar  1 <1>  -0.1500 
 13 O       -5.9830    -0.3460    -0.1950 O.3   1 <1>  -0.6800 
 14 C       -4.2160    -2.9060    -0.8280 C.3   1 <1>   0.0200 
 15 C       -1.3400     5.2660     0.2440 C.ar  1 <1>   0.1000 
 16 C       -3.4490    -4.0720    -0.2360 C.2   1 <1>  -0.0400 
 17 N       -1.3350     6.6520     0.3070 N.pl3 1 <1>  -0.8380 
 18 O       -3.7220    -4.4890     0.9710 O.3   1 <1>  -0.0190 
 19 C       -2.4570    -4.8340    -0.7210 C.2   1 <1>  -0.1500 
 20 C       -0.0520     7.3900     0.4290 C.3   1 <1>   0.2090 
 21 C       -2.5480     7.4210     0.6830 C.3   1 <1>   0.2090 
 22 N       -2.9630    -5.4860     1.3220 N.2   1 <1>  -0.4100 
 23 C       -2.1910    -5.7170     0.3210 C.2   1 <1>   0.1080 
 24 C       -0.1150     8.6570    -0.4300 C.3   1 <1>  -0.1600 
 25 C       -2.6240     8.6920    -0.1690 C.3   1 <1>  -0.1600 
 26 C       -1.1370    -6.8010     0.2920 C.3   1 <1>  -0.0590 
 27 C       -1.3350     9.5220    -0.0770 C.3   1 <1>  -0.1600 
 28 H       -4.2630     1.1750     0.8000 H     1 <1>   0.0800 
 29 H       -3.8390     1.5800    -0.8660 H     1 <1>   0.0800 
 30 H       -1.9690    -1.5220    -0.8420 H     1 <1>   0.0800 
 31 H       -2.0090    -1.6400     0.9080 H     1 <1>   0.0800 
 32 H       -0.1220     2.7390    -1.6480 H     1 <1>   0.1500 
 33 H       -2.5120     2.5380     1.8600 H     1 <1>   0.1500 
 34 H       -4.6530    -0.4260    -1.6950 H     1 <1>   0.0800 
 35 H       -4.3050    -1.7670     0.9900 H     1 <1>   0.0800 
 36 H       -0.1450     5.1940    -1.5130 H     1 <1>   0.1500 
 37 H       -2.5190     4.9840     1.9940 H     1 <1>   0.1500 
 38 H       -6.0320    -0.3960     0.7790 H     1 <1>   0.4000 
 39 H       -3.9100    -2.7640    -1.8490 H     1 <1>   0.0800 
 40 H       -5.2670    -3.1400    -0.8240 H     1 <1>   0.0800 
 41 H       -1.9600    -4.8000    -1.6730 H     1 <1>   0.1500 
 42 H        0.1040     7.6530     1.4610 H     1 <1>   0.0800 
 43 H        0.7660     6.7670     0.1110 H     1 <1>   0.0800 
 44 H       -3.4270     6.8200     0.5170 H     1 <1>   0.0800 
 45 H       -2.4960     7.6780     1.7260 H     1 <1>   0.0800 
 46 H        0.7870     9.2250    -0.2910 H     1 <1>   0.0800 
 47 H       -0.1650     8.3660    -1.4640 H     1 <1>   0.0800 
 48 H       -2.7960     8.4050    -1.1920 H     1 <1>   0.0800 
 49 H       -3.4620     9.2850     0.1500 H     1 <1>   0.0800 
 50 H       -1.3400    -7.4850    -0.5110 H     1 <1>   0.0800 
 51 H       -1.1430    -7.3430     1.2200 H     1 <1>   0.0800 
 52 H       -0.1670    -6.3630     0.1510 H     1 <1>   0.0800 
 53 H       -1.3920    10.3620    -0.7480 H     1 <1>   0.0800 
 54 H       -1.2250     9.9020     0.9250 H     1 <1>   0.0800 
@<TRIPOS>BOND
  1   1   2  2   
  2   2   3  am  
  3   2   4  1   
  4   3   5  1   
  5   3   6  1   
  6   4   7  ar  
  7   4   8  ar  
  8   5   9  1   
  9   5  28  1   
 10   5  29  1   
 11   6  10  1   
 12   6  30  1   
 13   6  31  1   
 14   7  11  ar  
 15   7  32  1   
 16   8  12  ar  
 17   8  33  1   
 18   9  10  1   
 19   9  13  1   
 20   9  34  1   
 21  10  14  1   
 22  10  35  1   
 23  11  15  ar  
 24  11  36  1   
 25  12  15  ar  
 26  12  37  1   
 27  13  38  1   
 28  14  16  1   
 29  14  39  1   
 30  14  40  1   
 31  15  17  1   
 32  16  18  1   
 33  16  19  2   
 34  17  20  1   
 35  17  21  1   
 36  18  22  1   
 37  19  23  1   
 38  19  41  1   
 39  20  24  1   
 40  20  42  1   
 41  20  43  1   
 42  21  25  1   
 43  21  44  1   
 44  21  45  1   
 45  22  23  2   
 46  23  26  1   
 47  24  27  1   
 48  24  46  1   
 49  24  47  1   
 50  25  27  1   
 51  25  48  1   
 52  25  49  1   
 53  26  50  1   
 54  26  51  1   
 55  26  52  1   
 56  27  53  1   
 57  27  54  1   
@<TRIPOS>SUBSTRUCTURE
  1 ****   2 GROUP 4 **** **** 0

# MOE 2024.06 (io_trps.svl 2023.06)
