@<TRIPOS>MOLECULE
NONAME
32 33 1 0 0 
SMALL
USER_CHARGES


@<TRIPOS>ATOM
  1 O       -0.4300     3.1710    -1.4420 O.co2 1 <1>  -0.9000 
  2 C        0.1630     3.4040    -0.3810 C.2   1 <1>   0.9470 
  3 O       -0.2670     4.2290     0.4450 O.co2 1 <1>  -0.9000 
  4 C        1.5030     2.6920    -0.0350 C.3   1 <1>   0.0220 
  5 N        2.2220     3.3360     1.1030 N.pl3 1 <1>  -0.6690 
  6 C        1.5800     1.1940    -0.0660 C.3   1 <1>  -0.2000 
  7 C        2.3310     1.9970    -1.0790 C.3   1 <1>  -0.2000 
  8 C        3.1730     4.2740     0.7950 C.ar  1 <1>   0.4100 
  9 N        4.4430     3.9370     0.9270 N.ar  1 <1>  -0.6200 
 10 C        2.8080     5.5250     0.3660 C.ar  1 <1>  -0.1500 
 11 C        5.3020     4.8800     0.6020 C.ar  1 <1>   0.4700 
 12 C        3.7920     6.4280     0.0390 C.ar  1 <1>   0.4100 
 13 N        5.0690     6.1020     0.1670 N.ar  1 <1>  -0.6200 
 14 N        3.4810     7.6920    -0.4430 N.pl3 1 <1>  -0.8380 
 15 C        4.4500     8.8190    -0.3940 C.3   1 <1>   0.2090 
 16 C        2.2960     7.8700    -1.3320 C.3   1 <1>   0.1290 
 17 C        3.8090    10.0090     0.3130 C.3   1 <1>  -0.2400 
 18 H        1.4450     3.7840     1.6140 H     1 <1>   0.4000 
 19 H        0.7110     0.6510    -0.3930 H     1 <1>   0.1000 
 20 H        2.1180     0.7010     0.7220 H     1 <1>   0.1000 
 21 H        3.4020     2.0640    -1.0100 H     1 <1>   0.1000 
 22 H        1.9710     2.0140    -2.0920 H     1 <1>   0.1000 
 23 H        1.7700     5.7810     0.2870 H     1 <1>   0.1500 
 24 H        6.3400     4.6140     0.7050 H     1 <1>   0.1500 
 25 H        4.7420     9.0850    -1.3950 H     1 <1>   0.0800 
 26 H        5.3360     8.5330     0.1460 H     1 <1>   0.0800 
 27 H        1.9950     6.9260    -1.7550 H     1 <1>   0.0800 
 28 H        2.5320     8.5410    -2.1390 H     1 <1>   0.0800 
 29 H        1.4760     8.2730    -0.7640 H     1 <1>   0.0800 
 30 H        2.9640    10.3710    -0.2420 H     1 <1>   0.0800 
 31 H        4.5260    10.8030     0.4030 H     1 <1>   0.0800 
 32 H        3.4930     9.7160     1.2980 H     1 <1>   0.0800 
@<TRIPOS>BOND
  1   1   2  ar  
  2   2   3  ar  
  3   2   4  1   
  4   4   5  1   
  5   4   6  1   
  6   4   7  1   
  7   5   8  1   
  8   5  18  1   
  9   6   7  1   
 10   6  19  1   
 11   6  20  1   
 12   7  21  1   
 13   7  22  1   
 14   8   9  ar  
 15   8  10  ar  
 16   9  11  ar  
 17  10  12  ar  
 18  10  23  1   
 19  11  13  ar  
 20  11  24  1   
 21  12  13  ar  
 22  12  14  1   
 23  14  15  1   
 24  14  16  1   
 25  15  17  1   
 26  15  25  1   
 27  15  26  1   
 28  16  27  1   
 29  16  28  1   
 30  16  29  1   
 31  17  30  1   
 32  17  31  1   
 33  17  32  1   
@<TRIPOS>SUBSTRUCTURE
  1 ****  10 GROUP 4 **** **** 0

# MOE 2024.06 (io_trps.svl 2023.06)
