@<TRIPOS>MOLECULE
NONAME
61 63 1 0 0 
SMALL
USER_CHARGES


@<TRIPOS>ATOM
  1 O       -1.0410     0.5880    -1.3940 O.2   1 <1>  -0.5700 
  2 C       -1.3030     1.4310    -0.5540 C.2   1 <1>   0.6160 
  3 N       -2.2840     1.1440     0.3770 N.am  1 <1>  -0.6600 
  4 C       -0.5960     2.6900    -0.5790 C.2   1 <1>   0.0140 
  5 C       -2.7430    -0.2670     0.5550 C.3   1 <1>   0.1400 
  6 C       -3.0390     2.2030     1.1110 C.3   1 <1>   0.1400 
  7 C       -0.3660     3.3630    -1.7540 C.2   1 <1>  -0.0410 
  8 C       -0.0870     3.2800     0.6220 C.2   1 <1>  -0.1500 
  9 C       -3.8000    -0.6540    -0.4920 C.3   1 <1>   0.1400 
 10 C       -4.5620     2.0170     1.0800 C.3   1 <1>  -0.1600 
 11 N        0.2910     4.5670    -1.7790 N.am  1 <1>  -0.5390 
 12 C        0.5660     4.4740     0.5840 C.2   1 <1>  -0.1360 
 13 N       -5.1260    -0.0050    -0.2310 N.am  1 <1>  -0.6600 
 14 C       -5.1090     1.4870    -0.2490 C.3   1 <1>   0.1400 
 15 C        0.7650     5.1610    -0.6430 C.2   1 <1>   0.6160 
 16 C       -6.2990    -0.6750     0.0120 C.2   1 <1>   0.5690 
 17 O        1.3280     6.2380    -0.7330 O.2   1 <1>  -0.5700 
 18 O       -7.3150    -0.0930     0.3140 O.2   1 <1>  -0.5700 
 19 C       -6.3640    -2.1970    -0.0880 C.3   1 <1>  -0.0990 
 20 C       -7.7980    -2.7570     0.0770 C.3   1 <1>  -0.1600 
 21 C       -7.9690    -4.2660    -0.1960 C.3   1 <1>   0.4230 
 22 N       -9.3600    -4.7200     0.1280 N.4   1 <1>  -0.9590 
 23 C       -6.9880    -5.0880     0.6490 C.3   1 <1>  -0.2400 
 24 C       -9.6290    -6.1020    -0.3870 C.3   1 <1>   0.3430 
 25 C      -10.4430    -3.7860    -0.3340 C.3   1 <1>   0.3430 
 26 C      -10.9670    -6.6160     0.1450 C.3   1 <1>  -0.1600 
 27 C      -11.8030    -4.2480     0.1930 C.3   1 <1>  -0.1600 
 28 C      -12.1230    -5.6840    -0.2330 C.3   1 <1>  -0.1600 
 29 H       -3.1310    -0.4130     1.5480 H     1 <1>   0.0800 
 30 H       -1.8940    -0.9190     0.4390 H     1 <1>   0.0800 
 31 H       -2.8200     3.1600     0.6700 H     1 <1>   0.0800 
 32 H       -2.7050     2.2300     2.1340 H     1 <1>   0.0800 
 33 H       -0.7000     2.9530    -2.6950 H     1 <1>   0.1500 
 34 H       -0.2290     2.7480     1.5470 H     1 <1>   0.1500 
 35 H       -3.8950    -1.7220    -0.4830 H     1 <1>   0.0800 
 36 H       -3.4520    -0.3740    -1.4720 H     1 <1>   0.0800 
 37 H       -5.0070     2.9770     1.2670 H     1 <1>   0.0800 
 38 H       -4.8770     1.3740     1.8830 H     1 <1>   0.0800 
 39 H        0.4780     5.0850    -2.6390 H     1 <1>   0.3700 
 40 H        0.9620     4.9470     1.4620 H     1 <1>   0.1500 
 41 H       -4.5180     1.8400    -1.0770 H     1 <1>   0.0800 
 42 H       -6.1110     1.8570    -0.3900 H     1 <1>   0.0800 
 43 H       -5.7240    -2.5940     0.6770 H     1 <1>   0.0800 
 44 H       -5.9810    -2.4840    -1.0500 H     1 <1>   0.0800 
 45 H       -8.4080    -2.2120    -0.6220 H     1 <1>   0.0800 
 46 H       -8.1340    -2.5280     1.0740 H     1 <1>   0.0800 
 47 H       -7.7700    -4.4470    -1.2410 H     1 <1>   0.0800 
 48 H       -9.4280    -4.7580     1.1510 H     1 <1>   0.4500 
 49 H       -7.1230    -4.8860     1.6970 H     1 <1>   0.0800 
 50 H       -5.9760    -4.8390     0.3900 H     1 <1>   0.0800 
 51 H       -7.0860    -6.1420     0.4760 H     1 <1>   0.0800 
 52 H       -8.8540    -6.7810    -0.0770 H     1 <1>   0.0800 
 53 H       -9.6530    -6.0890    -1.4650 H     1 <1>   0.0800 
 54 H      -10.4630    -3.7540    -1.4110 H     1 <1>   0.0800 
 55 H      -10.2610    -2.7890     0.0320 H     1 <1>   0.0800 
 56 H      -10.9110    -6.7190     1.2150 H     1 <1>   0.0800 
 57 H      -11.1550    -7.5950    -0.2620 H     1 <1>   0.0800 
 58 H      -12.5660    -3.5880    -0.1820 H     1 <1>   0.0800 
 59 H      -11.8140    -4.1710     1.2670 H     1 <1>   0.0800 
 60 H      -13.0330    -6.0140     0.2410 H     1 <1>   0.0800 
 61 H      -12.2790    -5.7170    -1.2990 H     1 <1>   0.0800 
@<TRIPOS>BOND
  1   1   2  2   
  2   2   3  am  
  3   2   4  1   
  4   3   5  1   
  5   3   6  1   
  6   4   7  2   
  7   4   8  1   
  8   5   9  1   
  9   5  29  1   
 10   5  30  1   
 11   6  10  1   
 12   6  31  1   
 13   6  32  1   
 14   7  11  1   
 15   7  33  1   
 16   8  12  2   
 17   8  34  1   
 18   9  13  1   
 19   9  35  1   
 20   9  36  1   
 21  10  14  1   
 22  10  37  1   
 23  10  38  1   
 24  11  15  am  
 25  11  39  1   
 26  12  15  1   
 27  12  40  1   
 28  13  14  1   
 29  13  16  am  
 30  14  41  1   
 31  14  42  1   
 32  15  17  2   
 33  16  18  2   
 34  16  19  1   
 35  19  20  1   
 36  19  43  1   
 37  19  44  1   
 38  20  21  1   
 39  20  45  1   
 40  20  46  1   
 41  21  22  1   
 42  21  23  1   
 43  21  47  1   
 44  22  24  1   
 45  22  25  1   
 46  22  48  1   
 47  23  49  1   
 48  23  50  1   
 49  23  51  1   
 50  24  26  1   
 51  24  52  1   
 52  24  53  1   
 53  25  27  1   
 54  25  54  1   
 55  25  55  1   
 56  26  28  1   
 57  26  56  1   
 58  26  57  1   
 59  27  28  1   
 60  27  58  1   
 61  27  59  1   
 62  28  60  1   
 63  28  61  1   
@<TRIPOS>SUBSTRUCTURE
  1 ****  13 GROUP 4 **** **** 0

# MOE 2024.06 (io_trps.svl 2023.06)
