@<TRIPOS>MOLECULE
NONAME
48 51 1 0 0 
SMALL
USER_CHARGES


@<TRIPOS>ATOM
  1 S       -0.4310    -0.1600     0.0980 S.3   1 <1>  -0.3320 
  2 C       -0.3960    -1.9590     0.0210 C.ar  1 <1>   0.1020 
  3 C        1.3100     0.4270    -0.0900 C.3   1 <1>  -0.0100 
  4 C       -1.5830    -2.6260     0.1430 C.ar  1 <1>  -0.1500 
  5 C        0.8010    -2.6610    -0.1560 C.ar  1 <1>  -0.1500 
  6 C       -1.6390    -4.0260     0.0940 C.ar  1 <1>   0.3100 
  7 C        0.7730    -4.0300    -0.2080 C.ar  1 <1>  -0.1500 
  8 N       -2.8510    -4.6130     0.2260 N.ar  1 <1>  -0.6200 
  9 C       -0.4350    -4.7500    -0.0860 C.ar  1 <1>   0.0000 
 10 C       -2.9090    -5.9160     0.1900 C.ar  1 <1>   0.4100 
 11 C       -0.5260    -6.1580    -0.1360 C.ar  1 <1>  -0.1430 
 12 N       -4.1510    -6.5180     0.3430 N.pl3 1 <1>  -0.8380 
 13 C       -1.7610    -6.7120     0.0010 C.ar  1 <1>  -0.1500 
 14 C        0.7040    -7.0320    -0.3390 C.3   1 <1>  -0.0970 
 15 C       -4.2970    -7.6730     1.2650 C.3   1 <1>   0.2090 
 16 C       -5.3690    -5.6860     0.1230 C.3   1 <1>   0.2090 
 17 C       -4.5880    -8.9260     0.4400 C.3   1 <1>  -0.1600 
 18 C       -6.6650    -6.4980    -0.0030 C.3   1 <1>  -0.1600 
 19 C       -6.0330    -9.0270    -0.0760 C.3   1 <1>   0.2800 
 20 C       -6.5460    -7.7870    -0.8420 C.3   1 <1>  -0.1600 
 21 O       -6.8700    -9.2240     1.0530 O.3   1 <1>  -0.4300 
 22 C       -6.2220   -10.3160    -0.9170 C.3   1 <1>   0.1400 
 23 C       -7.4880   -10.3930     1.0000 C.2   1 <1>   0.7800 
 24 N       -7.1380   -11.0900    -0.0850 N.am  1 <1>  -0.7300 
 25 O       -8.2800   -10.7520     1.8390 O.2   1 <1>  -0.5700 
 26 H        1.2970     1.5010    -0.0430 H     1 <1>   0.0800 
 27 H        1.6720     0.0920    -1.0450 H     1 <1>   0.0800 
 28 H        1.8880     0.0170     0.7190 H     1 <1>   0.0800 
 29 H       -2.5010    -2.0880     0.2800 H     1 <1>   0.1500 
 30 H        1.7320    -2.1390    -0.2520 H     1 <1>   0.1500 
 31 H        1.6930    -4.5680    -0.3450 H     1 <1>   0.1500 
 32 H       -1.8940    -7.7730    -0.0410 H     1 <1>   0.1500 
 33 H        1.1770    -6.7900    -1.2750 H     1 <1>   0.0800 
 34 H        0.4370    -8.0730    -0.3550 H     1 <1>   0.0800 
 35 H        1.4040    -6.8740     0.4620 H     1 <1>   0.0800 
 36 H       -5.0790    -7.4920     1.9830 H     1 <1>   0.0800 
 37 H       -3.3830    -7.8090     1.8170 H     1 <1>   0.0800 
 38 H       -5.2280    -5.1250    -0.7850 H     1 <1>   0.0800 
 39 H       -5.4630    -4.9790     0.9300 H     1 <1>   0.0800 
 40 H       -4.3850    -9.7880     1.0500 H     1 <1>   0.0800 
 41 H       -3.9080    -8.9550    -0.3910 H     1 <1>   0.0800 
 42 H       -7.3910    -5.8550    -0.4680 H     1 <1>   0.0800 
 43 H       -7.0460    -6.7170     0.9780 H     1 <1>   0.0800 
 44 H       -5.9070    -7.6000    -1.6890 H     1 <1>   0.0800 
 45 H       -7.5230    -8.0180    -1.2280 H     1 <1>   0.0800 
 46 H       -5.2960   -10.8460    -1.0570 H     1 <1>   0.0800 
 47 H       -6.6640   -10.1070    -1.8750 H     1 <1>   0.0800 
 48 H       -7.6090   -11.9530    -0.3570 H     1 <1>   0.3700 
@<TRIPOS>BOND
  1   1   2  1   
  2   1   3  1   
  3   2   4  ar  
  4   2   5  ar  
  5   3  26  1   
  6   3  27  1   
  7   3  28  1   
  8   4   6  ar  
  9   4  29  1   
 10   5   7  ar  
 11   5  30  1   
 12   6   8  ar  
 13   6   9  ar  
 14   7   9  ar  
 15   7  31  1   
 16   8  10  ar  
 17   9  11  ar  
 18  10  12  1   
 19  10  13  ar  
 20  11  13  ar  
 21  11  14  1   
 22  12  15  1   
 23  12  16  1   
 24  13  32  1   
 25  14  33  1   
 26  14  34  1   
 27  14  35  1   
 28  15  17  1   
 29  15  36  1   
 30  15  37  1   
 31  16  18  1   
 32  16  38  1   
 33  16  39  1   
 34  17  19  1   
 35  17  40  1   
 36  17  41  1   
 37  18  20  1   
 38  18  42  1   
 39  18  43  1   
 40  19  20  1   
 41  19  21  1   
 42  19  22  1   
 43  20  44  1   
 44  20  45  1   
 45  21  23  1   
 46  22  24  1   
 47  22  46  1   
 48  22  47  1   
 49  23  24  am  
 50  23  25  2   
 51  24  48  1   
@<TRIPOS>SUBSTRUCTURE
  1 ****  10 GROUP 4 **** **** 0

# MOE 2024.06 (io_trps.svl 2023.06)
