@<TRIPOS>MOLECULE
NONAME
45 47 1 0 0 
SMALL
USER_CHARGES


@<TRIPOS>ATOM
  1 O       -0.5960     0.0040     2.1540 O.2   1 <1>  -0.5700 
  2 C       -1.2750     0.5810     1.3380 C.2   1 <1>   0.5690 
  3 N       -2.4170     0.0140     0.8370 N.am  1 <1>  -0.6600 
  4 C       -0.8170     1.9760     0.8930 C.3   1 <1>   0.2010 
  5 C       -3.3950     0.6380    -0.0900 C.3   1 <1>   0.1400 
  6 C       -2.8400    -1.3710     1.1720 C.3   1 <1>   0.1400 
  7 N       -0.7280     2.1360    -0.5940 N.am  1 <1>  -0.7300 
  8 C       -4.6540    -0.2140     0.0600 C.3   1 <1>   0.2000 
  9 C       -4.1290    -1.6190     0.3700 C.3   1 <1>  -0.0800 
 10 C       -1.2720     3.0910    -1.3760 C.2   1 <1>   0.5690 
 11 O       -5.3540     0.2340     1.1680 O.3   1 <1>  -0.6800 
 12 C       -3.8580    -2.4000    -0.9310 C.3   1 <1>  -0.0170 
 13 O       -1.3280     2.9320    -2.5650 O.2   1 <1>  -0.5700 
 14 C       -1.8390     4.3540    -0.7750 C.3   1 <1>  -0.1790 
 15 C       -3.4500    -3.8370    -0.6530 C.ar  1 <1>   0.1670 
 16 N       -2.1850    -4.1230    -0.6980 N.ar  1 <1>  -0.6200 
 17 C       -4.4490    -4.7800    -0.3630 C.ar  1 <1>  -0.1500 
 18 C       -1.8150    -5.4040    -0.4440 C.ar  1 <1>   0.3100 
 19 C       -4.1080    -6.0730    -0.1060 C.ar  1 <1>  -0.1500 
 20 C       -2.7480    -6.4210    -0.1420 C.ar  1 <1>   0.0000 
 21 C       -0.4520    -5.7370    -0.4800 C.ar  1 <1>  -0.1500 
 22 C       -2.2800    -7.7260     0.1090 C.ar  1 <1>  -0.1500 
 23 C       -0.0170    -7.0120    -0.2330 C.ar  1 <1>  -0.1500 
 24 C       -0.9430    -8.0180     0.0640 C.ar  1 <1>  -0.1500 
 25 H        0.1560     2.1590     1.3150 H     1 <1>   0.0800 
 26 H       -1.4960     2.6980     1.3060 H     1 <1>   0.0800 
 27 H       -3.5840     1.6690     0.1520 H     1 <1>   0.0800 
 28 H       -3.0220     0.5650    -1.0970 H     1 <1>   0.0800 
 29 H       -2.0570    -2.0700     0.9270 H     1 <1>   0.0800 
 30 H       -3.0360    -1.4310     2.2290 H     1 <1>   0.0800 
 31 H       -0.3330     1.3320    -1.0910 H     1 <1>   0.3700 
 32 H       -5.3050    -0.1640    -0.7950 H     1 <1>   0.0800 
 33 H       -4.8420    -2.1720     0.9560 H     1 <1>   0.0800 
 34 H       -4.7470     0.2580     1.9360 H     1 <1>   0.4000 
 35 H       -3.0810    -1.9170    -1.4990 H     1 <1>   0.0800 
 36 H       -4.7440    -2.4090    -1.5400 H     1 <1>   0.0800 
 37 H       -1.1340     4.7820    -0.0880 H     1 <1>   0.0800 
 38 H       -2.7580     4.1350    -0.2660 H     1 <1>   0.0800 
 39 H       -2.0360     5.0660    -1.5550 H     1 <1>   0.0800 
 40 H       -5.4780    -4.4680    -0.3460 H     1 <1>   0.1500 
 41 H       -4.8440    -6.8230     0.1200 H     1 <1>   0.1500 
 42 H        0.2420    -4.9500    -0.7100 H     1 <1>   0.1500 
 43 H       -2.9970    -8.4940     0.3370 H     1 <1>   0.1500 
 44 H        1.0310    -7.2540    -0.2640 H     1 <1>   0.1500 
 45 H       -0.5880    -9.0160     0.2560 H     1 <1>   0.1500 
@<TRIPOS>BOND
  1   1   2  2   
  2   2   3  am  
  3   2   4  1   
  4   3   5  1   
  5   3   6  1   
  6   4   7  1   
  7   4  25  1   
  8   4  26  1   
  9   5   8  1   
 10   5  27  1   
 11   5  28  1   
 12   6   9  1   
 13   6  29  1   
 14   6  30  1   
 15   7  10  am  
 16   7  31  1   
 17   8   9  1   
 18   8  11  1   
 19   8  32  1   
 20   9  12  1   
 21   9  33  1   
 22  10  13  2   
 23  10  14  1   
 24  11  34  1   
 25  12  15  1   
 26  12  35  1   
 27  12  36  1   
 28  14  37  1   
 29  14  38  1   
 30  14  39  1   
 31  15  16  ar  
 32  15  17  ar  
 33  16  18  ar  
 34  17  19  ar  
 35  17  40  1   
 36  18  20  ar  
 37  18  21  ar  
 38  19  20  ar  
 39  19  41  1   
 40  20  22  ar  
 41  21  23  ar  
 42  21  42  1   
 43  22  24  ar  
 44  22  43  1   
 45  23  24  ar  
 46  23  44  1   
 47  24  45  1   
@<TRIPOS>SUBSTRUCTURE
  1 ****   6 GROUP 4 **** **** 0

# MOE 2024.06 (io_trps.svl 2023.06)
